@<TRIPOS>MOLECULE
NONAME
47 48 1 0 0 
SMALL
USER_CHARGES


@<TRIPOS>ATOM
  1 O       -0.0170     0.0140    -0.8830 O.2   1 <1>  -0.5700 
  2 C        1.0440    -0.4450    -0.5090 C.2   1 <1>   0.5440 
  3 N        2.0670     0.3850    -0.1070 N.am  1 <1>  -0.4940 
  4 C        1.2460    -1.8660    -0.4670 C.ar  1 <1>   0.0860 
  5 C        2.1400     1.8010    -0.1310 C.2   1 <1>  -0.0880 
  6 C        0.4410    -2.7490     0.2380 C.ar  1 <1>   0.1670 
  7 C        2.3030    -2.4440    -1.1450 C.ar  1 <1>   0.1600 
  8 N        3.1410     2.5430     0.4170 N.pl3 1 <1>   0.3140 
  9 C        1.2800     2.6910    -0.6810 C.2   1 <1>  -0.1500 
 10 N        0.6830    -4.0350     0.2780 N.ar  1 <1>  -0.6200 
 11 C       -0.7740    -2.2730     1.0170 C.3   1 <1>  -0.0960 
 12 N        2.5700    -3.7240    -1.1130 N.ar  1 <1>  -0.6200 
 13 N        2.9420     3.8650     0.2300 N.2   1 <1>  -0.7070 
 14 C        4.3240     2.0600     1.1570 C.3   1 <1>   0.0960 
 15 C        1.8290     3.9400    -0.4260 C.2   1 <1>   0.1080 
 16 C        1.7410    -4.4840    -0.3970 C.ar  1 <1>   0.7200 
 17 C        5.4450     1.6490     0.1920 C.3   1 <1>  -0.1600 
 18 C        1.2250     5.2590    -0.8480 C.3   1 <1>  -0.0590 
 19 N        1.9980    -5.8330    -0.3500 N.pl3 1 <1>  -0.8380 
 20 C        6.6810     1.1560     0.9540 C.3   1 <1>  -0.1600 
 21 C        3.2610    -6.4280    -0.8720 C.3   1 <1>   0.1290 
 22 C        1.0130    -6.8120     0.1910 C.3   1 <1>   0.1290 
 23 C        7.8010     0.7630    -0.0130 C.3   1 <1>  -0.2400 
 24 H        2.8770    -0.0920     0.2880 H     1 <1>   0.3700 
 25 H        2.9490    -1.8180    -1.7360 H     1 <1>   0.1500 
 26 H        0.3640     2.4930    -1.2070 H     1 <1>   0.1500 
 27 H       -0.5590    -1.3630     1.5460 H     1 <1>   0.0800 
 28 H       -1.0760    -3.0180     1.7320 H     1 <1>   0.0800 
 29 H       -1.5890    -2.0980     0.3390 H     1 <1>   0.0800 
 30 H        4.0300     1.2340     1.7770 H     1 <1>   0.0800 
 31 H        4.6640     2.8570     1.7930 H     1 <1>   0.0800 
 32 H        5.7140     2.5020    -0.4080 H     1 <1>   0.0800 
 33 H        5.0930     0.8710    -0.4630 H     1 <1>   0.0800 
 34 H        0.3030     5.0990    -1.3730 H     1 <1>   0.0800 
 35 H        1.9130     5.7780    -1.4890 H     1 <1>   0.0800 
 36 H        1.0370     5.8610     0.0220 H     1 <1>   0.0800 
 37 H        6.4240     0.3050     1.5620 H     1 <1>   0.0800 
 38 H        7.0390     1.9360     1.6060 H     1 <1>   0.0800 
 39 H        4.0680    -5.7190    -0.8160 H     1 <1>   0.0800 
 40 H        3.1230    -6.7190    -1.8990 H     1 <1>   0.0800 
 41 H        3.5310    -7.2920    -0.2910 H     1 <1>   0.0800 
 42 H        0.0090    -6.4420     0.0810 H     1 <1>   0.0800 
 43 H        1.2110    -6.9820     1.2350 H     1 <1>   0.0800 
 44 H        1.0870    -7.7440    -0.3410 H     1 <1>   0.0800 
 45 H        7.4800    -0.0320    -0.6630 H     1 <1>   0.0800 
 46 H        8.6620     0.4270     0.5380 H     1 <1>   0.0800 
 47 H        8.0920     1.6070    -0.6150 H     1 <1>   0.0800 
@<TRIPOS>BOND
  1   1   2  2   
  2   2   3  am  
  3   2   4  1   
  4   3   5  1   
  5   3  24  1   
  6   4   6  ar  
  7   4   7  ar  
  8   5   8  1   
  9   5   9  2   
 10   6  10  ar  
 11   6  11  1   
 12   7  12  ar  
 13   7  25  1   
 14   8  13  1   
 15   8  14  1   
 16   9  15  1   
 17   9  26  1   
 18  10  16  ar  
 19  11  27  1   
 20  11  28  1   
 21  11  29  1   
 22  12  16  ar  
 23  13  15  2   
 24  14  17  1   
 25  14  30  1   
 26  14  31  1   
 27  15  18  1   
 28  16  19  1   
 29  17  20  1   
 30  17  32  1   
 31  17  33  1   
 32  18  34  1   
 33  18  35  1   
 34  18  36  1   
 35  19  21  1   
 36  19  22  1   
 37  20  23  1   
 38  20  37  1   
 39  20  38  1   
 40  21  39  1   
 41  21  40  1   
 42  21  41  1   
 43  22  42  1   
 44  22  43  1   
 45  22  44  1   
 46  23  45  1   
 47  23  46  1   
 48  23  47  1   
@<TRIPOS>SUBSTRUCTURE
  1 ****   3 GROUP 4 **** **** 0

# MOE 2024.06 (io_trps.svl 2023.06)
