@<TRIPOS>MOLECULE
NONAME
57 60 1 0 0 
SMALL
USER_CHARGES


@<TRIPOS>ATOM
  1 O        1.8000     1.3010    -0.2150 O.2   1 <1>  -0.5700 
  2 C        2.4310     0.2920    -0.4320 C.2   1 <1>   0.5690 
  3 N        3.7710     0.3490    -0.7320 N.am  1 <1>  -0.6600 
  4 C        1.7020    -1.0500    -0.3480 C.3   1 <1>  -0.0190 
  5 C        4.6760    -0.8250    -0.9660 C.3   1 <1>   0.1400 
  6 C        4.4640     1.6660    -0.8330 C.3   1 <1>   0.1400 
  7 C        0.1850    -0.9350    -0.2720 C.3   1 <1>   0.1200 
  8 C        2.0210    -1.8640     0.9050 C.3   1 <1>  -0.1600 
  9 C        5.5860    -1.1200     0.2380 C.3   1 <1>   0.1400 
 10 C        4.9460     2.1530     0.5410 C.3   1 <1>  -0.1600 
 11 O       -0.2200    -2.1310     0.3080 O.3   1 <1>  -0.5600 
 12 C        0.6900    -2.5080     1.2880 C.3   1 <1>   0.1200 
 13 N        6.3610     0.0860     0.6650 N.am  1 <1>  -0.6600 
 14 C        5.5500     1.0690     1.4420 C.3   1 <1>   0.1400 
 15 C        7.6620     0.2560     0.2610 C.2   1 <1>   0.5690 
 16 O        8.2310    -0.5810    -0.3990 O.2   1 <1>  -0.5700 
 17 C        8.4430     1.5150     0.5790 C.3   1 <1>  -0.0990 
 18 C        8.5080     2.4260    -0.6500 C.3   1 <1>   0.0210 
 19 C        9.0260     3.7930    -0.2610 C.2   1 <1>   0.1080 
 20 N        8.2520     4.7060     0.2420 N.2   1 <1>  -0.7070 
 21 C       10.3430     4.2290    -0.3760 C.2   1 <1>  -0.1810 
 22 N        9.0650     5.7600     0.4610 N.pl3 1 <1>   0.3000 
 23 C       10.3330     5.4870     0.0980 C.2   1 <1>  -0.3320 
 24 C       11.5860     3.5280    -0.8900 C.3   1 <1>   0.0210 
 25 C       11.5390     6.4030     0.1870 C.3   1 <1>   0.0200 
 26 C       12.7040     4.5570    -1.1500 C.3   1 <1>  -0.1600 
 27 C       12.8280     5.5800    -0.0010 C.3   1 <1>  -0.1600 
 28 H        1.9220    -1.6250    -1.2280 H     1 <1>   0.0800 
 29 H        5.2960    -0.6280    -1.8240 H     1 <1>   0.0800 
 30 H        4.1060    -1.7060    -1.1930 H     1 <1>   0.0800 
 31 H        3.7980     2.3980    -1.2580 H     1 <1>   0.0800 
 32 H        5.3070     1.5750    -1.4960 H     1 <1>   0.0800 
 33 H       -0.2730    -0.8300    -1.2390 H     1 <1>   0.0800 
 34 H       -0.1260    -0.1330     0.3770 H     1 <1>   0.0800 
 35 H        2.3520    -1.2270     1.7070 H     1 <1>   0.0800 
 36 H        2.7690    -2.6120     0.7160 H     1 <1>   0.0800 
 37 H        6.2620    -1.9150    -0.0260 H     1 <1>   0.0800 
 38 H        4.9920    -1.4740     1.0610 H     1 <1>   0.0800 
 39 H        4.1120     2.5950     1.0560 H     1 <1>   0.0800 
 40 H        5.6650     2.9390     0.3970 H     1 <1>   0.0800 
 41 H        0.3340    -2.1390     2.2350 H     1 <1>   0.0800 
 42 H        0.7450    -3.5830     1.3070 H     1 <1>   0.0800 
 43 H        4.7440     0.5460     1.9290 H     1 <1>   0.0800 
 44 H        6.1390     1.5180     2.2220 H     1 <1>   0.0800 
 45 H        9.4410     1.2400     0.8670 H     1 <1>   0.0800 
 46 H        8.0120     2.0500     1.4010 H     1 <1>   0.0800 
 47 H        7.5290     2.5450    -1.0740 H     1 <1>   0.0800 
 48 H        9.1390     1.9850    -1.3990 H     1 <1>   0.0800 
 49 H        8.7230     6.6440     0.8560 H     1 <1>   0.2700 
 50 H       11.3640     2.9980    -1.7990 H     1 <1>   0.0800 
 51 H       11.9090     2.8170    -0.1510 H     1 <1>   0.0800 
 52 H       11.5640     6.9000     1.1410 H     1 <1>   0.0800 
 53 H       11.4690     7.1470    -0.5870 H     1 <1>   0.0800 
 54 H       12.4830     5.0850    -2.0610 H     1 <1>   0.0800 
 55 H       13.6380     4.0410    -1.2840 H     1 <1>   0.0800 
 56 H       13.0350     5.0490     0.9120 H     1 <1>   0.0800 
 57 H       13.6520     6.2450    -0.1900 H     1 <1>   0.0800 
@<TRIPOS>BOND
  1   1   2  2   
  2   2   3  am  
  3   2   4  1   
  4   3   5  1   
  5   3   6  1   
  6   4   7  1   
  7   4   8  1   
  8   4  28  1   
  9   5   9  1   
 10   5  29  1   
 11   5  30  1   
 12   6  10  1   
 13   6  31  1   
 14   6  32  1   
 15   7  11  1   
 16   7  33  1   
 17   7  34  1   
 18   8  12  1   
 19   8  35  1   
 20   8  36  1   
 21   9  13  1   
 22   9  37  1   
 23   9  38  1   
 24  10  14  1   
 25  10  39  1   
 26  10  40  1   
 27  11  12  1   
 28  12  41  1   
 29  12  42  1   
 30  13  14  1   
 31  13  15  am  
 32  14  43  1   
 33  14  44  1   
 34  15  16  2   
 35  15  17  1   
 36  17  18  1   
 37  17  45  1   
 38  17  46  1   
 39  18  19  1   
 40  18  47  1   
 41  18  48  1   
 42  19  20  2   
 43  19  21  1   
 44  20  22  1   
 45  21  23  2   
 46  21  24  1   
 47  22  23  1   
 48  22  49  1   
 49  23  25  1   
 50  24  26  1   
 51  24  50  1   
 52  24  51  1   
 53  25  27  1   
 54  25  52  1   
 55  25  53  1   
 56  26  27  1   
 57  26  54  1   
 58  26  55  1   
 59  27  56  1   
 60  27  57  1   
@<TRIPOS>SUBSTRUCTURE
  1 ****  10 GROUP 4 **** **** 0

# MOE 2024.06 (io_trps.svl 2023.06)
