@<TRIPOS>MOLECULE
NONAME
55 57 1 0 0 
SMALL
USER_CHARGES


@<TRIPOS>ATOM
  1 O        0.7280    -0.7540     2.5260 O.2   1 <1>  -0.5700 
  2 C        0.8430    -1.2870     1.4450 C.2   1 <1>   0.5690 
  3 N        0.0200    -0.9330     0.4070 N.am  1 <1>  -0.6600 
  4 C        1.9960    -2.2930     1.3360 C.3   1 <1>  -0.0190 
  5 C       -1.0910     0.0280     0.6160 C.3   1 <1>   0.1400 
  6 C        0.3080    -1.0590    -1.0410 C.3   1 <1>   0.1400 
  7 C        3.3820    -1.6000     1.2050 C.3   1 <1>  -0.0190 
  8 C        1.8350    -3.4580     0.3380 C.3   1 <1>  -0.1600 
  9 C       -1.5500     0.4400    -0.7780 C.3   1 <1>  -0.1600 
 10 C       -0.3500     0.1580    -1.6740 C.3   1 <1>  -0.1600 
 11 C        3.3280    -0.2760     0.4300 C.2   1 <1>   0.5690 
 12 C        4.4700    -2.5690     0.6680 C.3   1 <1>  -0.1600 
 13 C        2.8840    -4.5570     0.5970 C.3   1 <1>  -0.1600 
 14 O        3.6610    -0.2500    -0.7310 O.2   1 <1>  -0.5700 
 15 N        2.8680     0.8300     1.0910 N.am  1 <1>  -0.4940 
 16 C        4.2250    -4.0120     1.1290 C.3   1 <1>  -0.1600 
 17 C        2.6120     2.1440     0.6310 C.2   1 <1>  -0.0880 
 18 N        3.3260     2.9080    -0.2490 N.pl3 1 <1>   0.3140 
 19 C        1.5640     2.9030     1.0260 C.2   1 <1>  -0.1500 
 20 N        2.7430     4.1220    -0.4180 N.2   1 <1>  -0.7070 
 21 C        4.6210     2.6350    -0.9130 C.3   1 <1>   0.0960 
 22 C        1.6980     4.1020     0.3420 C.2   1 <1>   0.1080 
 23 C        5.7590     2.4450     0.1020 C.3   1 <1>  -0.1600 
 24 C        0.7560     5.2780     0.4480 C.3   1 <1>  -0.0590 
 25 C        7.0930     2.1780    -0.6040 C.3   1 <1>  -0.2400 
 26 H        2.0010    -2.7730     2.2990 H     1 <1>   0.0800 
 27 H       -1.8880    -0.4310     1.1760 H     1 <1>   0.0800 
 28 H       -0.7230     0.8850     1.1540 H     1 <1>   0.0800 
 29 H        1.3620    -1.0640    -1.2480 H     1 <1>   0.0800 
 30 H       -0.1440    -1.9630    -1.4140 H     1 <1>   0.0800 
 31 H        3.6770    -1.3380     2.2050 H     1 <1>   0.0800 
 32 H        0.8450    -3.8770     0.4090 H     1 <1>   0.0800 
 33 H        1.9740    -3.0990    -0.6650 H     1 <1>   0.0800 
 34 H       -2.3810    -0.1770    -1.0710 H     1 <1>   0.0800 
 35 H       -1.8490     1.4730    -0.8100 H     1 <1>   0.0800 
 36 H        0.3400     0.9840    -1.6350 H     1 <1>   0.0800 
 37 H       -0.6290    -0.0210    -2.6970 H     1 <1>   0.0800 
 38 H        4.4760    -2.5660    -0.4090 H     1 <1>   0.0800 
 39 H        5.4400    -2.2360     0.9930 H     1 <1>   0.0800 
 40 H        2.4960    -5.2660     1.3090 H     1 <1>   0.0800 
 41 H        3.0550    -5.0900    -0.3230 H     1 <1>   0.0800 
 42 H        2.3820     0.6050     1.9670 H     1 <1>   0.3700 
 43 H        5.0280    -4.6470     0.7940 H     1 <1>   0.0800 
 44 H        4.2210    -4.0380     2.2050 H     1 <1>   0.0800 
 45 H        0.7850     2.6490     1.7180 H     1 <1>   0.1500 
 46 H        4.5170     1.7770    -1.5460 H     1 <1>   0.0800 
 47 H        4.8470     3.4750    -1.5440 H     1 <1>   0.0800 
 48 H        5.8450     3.3320     0.7060 H     1 <1>   0.0800 
 49 H        5.5350     1.6130     0.7460 H     1 <1>   0.0800 
 50 H       -0.0430     5.0610     1.1320 H     1 <1>   0.0800 
 51 H        0.3450     5.4940    -0.5210 H     1 <1>   0.0800 
 52 H        1.2970     6.1380     0.7960 H     1 <1>   0.0800 
 53 H        7.3520     3.0040    -1.2430 H     1 <1>   0.0800 
 54 H        7.0280     1.2840    -1.2000 H     1 <1>   0.0800 
 55 H        7.8740     2.0490     0.1240 H     1 <1>   0.0800 
@<TRIPOS>BOND
  1   1   2  2   
  2   2   3  am  
  3   2   4  1   
  4   3   5  1   
  5   3   6  1   
  6   4   7  1   
  7   4   8  1   
  8   4  26  1   
  9   5   9  1   
 10   5  27  1   
 11   5  28  1   
 12   6  10  1   
 13   6  29  1   
 14   6  30  1   
 15   7  11  1   
 16   7  12  1   
 17   7  31  1   
 18   8  13  1   
 19   8  32  1   
 20   8  33  1   
 21   9  10  1   
 22   9  34  1   
 23   9  35  1   
 24  10  36  1   
 25  10  37  1   
 26  11  14  2   
 27  11  15  am  
 28  12  16  1   
 29  12  38  1   
 30  12  39  1   
 31  13  16  1   
 32  13  40  1   
 33  13  41  1   
 34  15  17  1   
 35  15  42  1   
 36  16  43  1   
 37  16  44  1   
 38  17  18  1   
 39  17  19  2   
 40  18  20  1   
 41  18  21  1   
 42  19  22  1   
 43  19  45  1   
 44  20  22  2   
 45  21  23  1   
 46  21  46  1   
 47  21  47  1   
 48  22  24  1   
 49  23  25  1   
 50  23  48  1   
 51  23  49  1   
 52  24  50  1   
 53  24  51  1   
 54  24  52  1   
 55  25  53  1   
 56  25  54  1   
 57  25  55  1   
@<TRIPOS>SUBSTRUCTURE
  1 ****  15 GROUP 4 **** **** 0

# MOE 2024.06 (io_trps.svl 2023.06)
