@<TRIPOS>MOLECULE
NONAME
43 45 1 0 0 
SMALL
USER_CHARGES


@<TRIPOS>ATOM
  1 O        0.3160     0.1810     0.0460 O.3   1 <1>  -0.5600 
  2 C        1.5450    -0.4190    -0.2690 C.3   1 <1>   0.3440 
  3 C        0.3050     1.5790    -0.0740 C.3   1 <1>   0.2000 
  4 C        1.4120    -1.9350    -0.1760 C.ar  1 <1>  -0.1440 
  5 C        2.6470     0.0840     0.6850 C.3   1 <1>   0.2090 
  6 C       -1.1400     2.0730     0.1750 C.3   1 <1>  -0.0800 
  7 C        1.3390     2.1970     0.9000 C.3   1 <1>   0.2090 
  8 C        0.6580    -2.5280     0.8280 C.ar  1 <1>  -0.1500 
  9 C        2.0640    -2.7450    -1.0960 C.ar  1 <1>  -0.1500 
 10 N        2.6960     1.5840     0.7280 N.pl3 1 <1>  -0.8380 
 11 C       -2.1370     1.4070    -0.7900 C.3   1 <1>  -0.2400 
 12 C       -1.2670     3.6000     0.0350 C.3   1 <1>  -0.2400 
 13 C        0.5630    -3.9060     0.9160 C.ar  1 <1>  -0.1500 
 14 C        1.9700    -4.1230    -1.0100 C.ar  1 <1>  -0.1500 
 15 C        3.7590     2.2860     0.2290 C.2   1 <1>   0.2000 
 16 C        1.2210    -4.7040    -0.0030 C.ar  1 <1>  -0.1500 
 17 N        4.9860     1.9080     0.6560 N.pl3 1 <1>  -0.5500 
 18 C        3.7150     3.3290    -0.6440 C.2   1 <1>  -0.1360 
 19 C        6.1200     2.5350     0.2260 C.2   1 <1>   0.4400 
 20 C        4.9060     3.9410    -1.0640 C.2   1 <1>   0.7670 
 21 N        6.1240     3.5100    -0.6030 N.2   1 <1>  -0.6610 
 22 O        4.8840     4.8760    -1.8580 O.2   1 <1>  -0.5700 
 23 H        1.7940    -0.1460    -1.2800 H     1 <1>   0.0800 
 24 H        0.5850     1.8260    -1.0840 H     1 <1>   0.0800 
 25 H        3.5910    -0.3120     0.3560 H     1 <1>   0.0800 
 26 H        2.4540    -0.2940     1.6740 H     1 <1>   0.0800 
 27 H       -1.4160     1.8050     1.1810 H     1 <1>   0.0800 
 28 H        1.0080     2.0330     1.9110 H     1 <1>   0.0800 
 29 H        1.4000     3.2590     0.7480 H     1 <1>   0.0800 
 30 H        0.1380    -1.9140     1.5440 H     1 <1>   0.1500 
 31 H        2.6500    -2.3080    -1.8860 H     1 <1>   0.1500 
 32 H       -1.8840     1.6310    -1.8110 H     1 <1>   0.0800 
 33 H       -3.1370     1.7530    -0.5980 H     1 <1>   0.0800 
 34 H       -2.1270     0.3380    -0.6640 H     1 <1>   0.0800 
 35 H       -0.9370     3.9200    -0.9380 H     1 <1>   0.0800 
 36 H       -0.6900     4.1100     0.7850 H     1 <1>   0.0800 
 37 H       -2.2940     3.8980     0.1590 H     1 <1>   0.0800 
 38 H       -0.0240    -4.3550     1.6970 H     1 <1>   0.1500 
 39 H        2.4780    -4.7440    -1.7270 H     1 <1>   0.1500 
 40 H        1.1460    -5.7760     0.0650 H     1 <1>   0.1500 
 41 H        5.0320     1.1870     1.3720 H     1 <1>   0.4000 
 42 H        2.7990     3.7070    -1.0440 H     1 <1>   0.1500 
 43 H        7.0520     2.1710     0.6230 H     1 <1>   0.0600 
@<TRIPOS>BOND
  1   1   2  1   
  2   1   3  1   
  3   2   4  1   
  4   2   5  1   
  5   2  23  1   
  6   3   6  1   
  7   3   7  1   
  8   3  24  1   
  9   4   8  ar  
 10   4   9  ar  
 11   5  10  1   
 12   5  25  1   
 13   5  26  1   
 14   6  11  1   
 15   6  12  1   
 16   6  27  1   
 17   7  10  1   
 18   7  28  1   
 19   7  29  1   
 20   8  13  ar  
 21   8  30  1   
 22   9  14  ar  
 23   9  31  1   
 24  10  15  1   
 25  11  32  1   
 26  11  33  1   
 27  11  34  1   
 28  12  35  1   
 29  12  36  1   
 30  12  37  1   
 31  13  16  ar  
 32  13  38  1   
 33  14  16  ar  
 34  14  39  1   
 35  15  17  1   
 36  15  18  2   
 37  16  40  1   
 38  17  19  1   
 39  17  41  1   
 40  18  20  1   
 41  18  42  1   
 42  19  21  2   
 43  19  43  1   
 44  20  21  1   
 45  20  22  2   
@<TRIPOS>SUBSTRUCTURE
  1 ****   5 GROUP 4 **** **** 0

# MOE 2024.06 (io_trps.svl 2023.06)
