@<TRIPOS>MOLECULE
NONAME
59 62 1 0 0 
SMALL
USER_CHARGES


@<TRIPOS>ATOM
  1 O       -0.8220    -1.7900     1.2460 O.2   1 <1>  -0.5700 
  2 C        0.3340    -2.1390     1.2110 C.2   1 <1>   0.5690 
  3 N        0.8950    -2.6770     0.0840 N.am  1 <1>  -0.6600 
  4 C        1.1490    -1.9830     2.4840 C.3   1 <1>  -0.0990 
  5 C        2.3330    -3.0530    -0.0330 C.3   1 <1>   0.1400 
  6 C        0.1090    -2.7970    -1.1950 C.3   1 <1>   0.2010 
  7 C        2.6650    -2.0300     2.2530 C.3   1 <1>  -0.1600 
  8 C        3.0020    -3.2080     1.3360 C.3   1 <1>  -0.1600 
  9 C       -0.0310    -4.2340    -1.7140 C.2   1 <1>   0.5690 
 10 O        0.7790    -4.6040    -2.5360 O.2   1 <1>  -0.5700 
 11 N       -1.0360    -5.0650    -1.2760 N.am  1 <1>  -0.6600 
 12 C       -1.2170    -6.4120    -1.8930 C.3   1 <1>   0.1400 
 13 C       -1.9780    -4.6840    -0.1790 C.3   1 <1>   0.1400 
 14 C       -2.7010    -6.7810    -1.9570 C.3   1 <1>  -0.1600 
 15 C       -2.5990    -5.9270     0.4530 C.3   1 <1>  -0.1600 
 16 C       -3.4010    -6.7350    -0.5800 C.3   1 <1>   0.4240 
 17 O       -4.5900    -6.0040    -0.7480 O.3   1 <1>  -0.5600 
 18 C       -3.6790    -8.1590    -0.0440 C.ar  1 <1>  -0.1430 
 19 C       -5.6870    -6.6840    -1.2740 C.3   1 <1>   0.1200 
 20 C       -4.9780    -8.6250     0.1060 C.ar  1 <1>  -0.1430 
 21 C       -2.6290    -9.0090     0.2830 C.ar  1 <1>  -0.1500 
 22 C       -6.1440    -7.7290    -0.2610 C.3   1 <1>  -0.0170 
 23 C       -5.2120    -9.9050     0.5800 C.ar  1 <1>  -0.1500 
 24 C       -2.8490   -10.2940     0.7710 C.ar  1 <1>   0.0820 
 25 C       -4.1690   -10.7520     0.9070 C.ar  1 <1>   0.0820 
 26 O       -1.8000   -11.0920     1.1250 O.3   1 <1>  -0.3630 
 27 O       -4.5490   -11.9860     1.3460 O.3   1 <1>  -0.3620 
 28 C       -0.5620   -10.5410     1.5200 C.3   1 <1>   0.0400 
 29 C       -3.7350   -13.1210     1.1540 C.3   1 <1>   0.0400 
 30 H        0.8640    -2.7780     3.1480 H     1 <1>   0.0800 
 31 H        0.8840    -1.0530     2.9540 H     1 <1>   0.0800 
 32 H        2.8400    -2.2860    -0.5950 H     1 <1>   0.0800 
 33 H        2.4280    -3.9790    -0.5760 H     1 <1>   0.0800 
 34 H        0.6040    -2.2180    -1.9530 H     1 <1>   0.0800 
 35 H       -0.8730    -2.3770    -1.0750 H     1 <1>   0.0800 
 36 H        3.1760    -2.1310     3.1950 H     1 <1>   0.0800 
 37 H        2.9870    -1.1120     1.7900 H     1 <1>   0.0800 
 38 H        4.0670    -3.2730     1.2010 H     1 <1>   0.0800 
 39 H        2.6740    -4.1290     1.7860 H     1 <1>   0.0800 
 40 H       -0.6750    -7.1370    -1.3120 H     1 <1>   0.0800 
 41 H       -0.8100    -6.4180    -2.8900 H     1 <1>   0.0800 
 42 H       -2.7540    -4.0510    -0.5770 H     1 <1>   0.0800 
 43 H       -1.4520    -4.1390     0.5840 H     1 <1>   0.0800 
 44 H       -2.7970    -7.7640    -2.3800 H     1 <1>   0.0800 
 45 H       -3.1730    -6.0900    -2.6320 H     1 <1>   0.0800 
 46 H       -3.2490    -5.6450     1.2610 H     1 <1>   0.0800 
 47 H       -1.8070    -6.5130     0.8770 H     1 <1>   0.0800 
 48 H       -5.4050    -7.1430    -2.2060 H     1 <1>   0.0800 
 49 H       -6.4660    -5.9650    -1.4540 H     1 <1>   0.0800 
 50 H       -1.6260    -8.6590     0.1490 H     1 <1>   0.1500 
 51 H       -6.9410    -8.3110    -0.6870 H     1 <1>   0.0800 
 52 H       -6.5150    -7.2370     0.6200 H     1 <1>   0.0800 
 53 H       -6.2180   -10.2640     0.7000 H     1 <1>   0.1500 
 54 H        0.0250   -11.3250     1.9630 H     1 <1>   0.0800 
 55 H       -0.7390    -9.7640     2.2420 H     1 <1>   0.0800 
 56 H       -0.0560   -10.1570     0.6530 H     1 <1>   0.0800 
 57 H       -4.3490   -13.9960     1.2620 H     1 <1>   0.0800 
 58 H       -2.9630   -13.1240     1.9020 H     1 <1>   0.0800 
 59 H       -3.3110   -13.0860     0.1660 H     1 <1>   0.0800 
@<TRIPOS>BOND
  1   1   2  2   
  2   2   3  am  
  3   2   4  1   
  4   3   5  1   
  5   3   6  1   
  6   4   7  1   
  7   4  30  1   
  8   4  31  1   
  9   5   8  1   
 10   5  32  1   
 11   5  33  1   
 12   6   9  1   
 13   6  34  1   
 14   6  35  1   
 15   7   8  1   
 16   7  36  1   
 17   7  37  1   
 18   8  38  1   
 19   8  39  1   
 20   9  10  2   
 21   9  11  am  
 22  11  12  1   
 23  11  13  1   
 24  12  14  1   
 25  12  40  1   
 26  12  41  1   
 27  13  15  1   
 28  13  42  1   
 29  13  43  1   
 30  14  16  1   
 31  14  44  1   
 32  14  45  1   
 33  15  16  1   
 34  15  46  1   
 35  15  47  1   
 36  16  17  1   
 37  16  18  1   
 38  17  19  1   
 39  18  20  ar  
 40  18  21  ar  
 41  19  22  1   
 42  19  48  1   
 43  19  49  1   
 44  20  22  1   
 45  20  23  ar  
 46  21  24  ar  
 47  21  50  1   
 48  22  51  1   
 49  22  52  1   
 50  23  25  ar  
 51  23  53  1   
 52  24  25  ar  
 53  24  26  1   
 54  25  27  1   
 55  26  28  1   
 56  27  29  1   
 57  28  54  1   
 58  28  55  1   
 59  28  56  1   
 60  29  57  1   
 61  29  58  1   
 62  29  59  1   
@<TRIPOS>SUBSTRUCTURE
  1 ****  15 GROUP 4 **** **** 0

# MOE 2024.06 (io_trps.svl 2023.06)
