@<TRIPOS>MOLECULE
NONAME
58 62 1 0 0 
SMALL
USER_CHARGES


@<TRIPOS>ATOM
  1 O       -1.0280    -1.0160     1.7780 O.2   1 <1>  -0.5700 
  2 C       -1.4590    -1.0930     0.6440 C.2   1 <1>   0.7150 
  3 N       -0.8340    -1.9320    -0.2340 N.am  1 <1>  -0.7300 
  4 C       -2.5870    -0.3160     0.2190 C.2   1 <1>  -0.2370 
  5 C        0.3940    -2.6850     0.1020 C.3   1 <1>   0.1400 
  6 N       -3.4350    -0.6770    -0.7950 N.pl3 1 <1>   0.0330 
  7 C       -3.0370     0.8790     0.7190 C.2   1 <1>  -0.1500 
  8 C        0.0290    -3.9790     0.8460 C.3   1 <1>  -0.0800 
  9 C       -4.3830     0.2810    -0.9280 C.2   1 <1>  -0.3020 
 10 C       -4.1640     1.2570    -0.0070 C.2   1 <1>  -0.1500 
 11 C       -0.5630    -5.0240    -0.1110 C.3   1 <1>   0.2000 
 12 C        1.2250    -4.7710     1.4250 C.3   1 <1>  -0.0800 
 13 O        0.5920    -5.6400    -0.5440 O.3   1 <1>  -0.5600 
 14 C       -1.2420    -6.1690     0.6550 C.3   1 <1>  -0.1600 
 15 C        1.1060    -6.0850     0.6620 C.3   1 <1>   0.2800 
 16 C        2.6640    -4.2960     1.1480 C.3   1 <1>   0.3430 
 17 C       -0.0370    -6.9570     1.1820 C.3   1 <1>  -0.1600 
 18 C        2.5300    -6.6130     0.5200 C.3   1 <1>   0.3430 
 19 N        3.3620    -5.3810     0.3890 N.4   1 <1>  -0.9590 
 20 C        3.5710    -5.0150    -1.0410 C.3   1 <1>   0.3430 
 21 C        4.8560    -4.1740    -1.1390 C.3   1 <1>   0.1100 
 22 N        5.8960    -4.6930    -0.2150 N.3   1 <1>  -0.8100 
 23 C        6.5940    -5.8700    -0.7910 C.3   1 <1>   0.1100 
 24 C        6.9040    -3.6450     0.0720 C.3   1 <1>   0.1100 
 25 C        7.7360    -6.3490     0.1250 C.3   1 <1>   0.1200 
 26 C        8.0390    -4.1840     0.9620 C.3   1 <1>   0.1200 
 27 O        8.6290    -5.3040     0.3700 O.3   1 <1>  -0.5600 
 28 H       -1.0120    -1.7780    -1.2260 H     1 <1>   0.3700 
 29 H        0.9370    -2.9050    -0.8010 H     1 <1>   0.0800 
 30 H        1.0100    -2.0640     0.7320 H     1 <1>   0.0800 
 31 H       -3.3860    -1.5440    -1.3390 H     1 <1>   0.2700 
 32 H       -2.6040     1.4360     1.5330 H     1 <1>   0.1500 
 33 H       -0.6700    -3.7440     1.6300 H     1 <1>   0.0800 
 34 H       -5.1680     0.2250    -1.6610 H     1 <1>   0.1500 
 35 H       -4.7370     2.1540     0.1540 H     1 <1>   0.1500 
 36 H       -1.1370    -4.6290    -0.9320 H     1 <1>   0.0800 
 37 H        1.1050    -4.9260     2.4830 H     1 <1>   0.0800 
 38 H       -1.8780    -5.8020     1.4420 H     1 <1>   0.0800 
 39 H       -1.8280    -6.7680    -0.0210 H     1 <1>   0.0800 
 40 H        3.1680    -4.1290     2.0870 H     1 <1>   0.0800 
 41 H        2.6820    -3.3770     0.5900 H     1 <1>   0.0800 
 42 H        0.0030    -7.9370     0.7400 H     1 <1>   0.0800 
 43 H       -0.0340    -7.0420     2.2550 H     1 <1>   0.0800 
 44 H        2.6230    -7.2680    -0.3290 H     1 <1>   0.0800 
 45 H        2.8030    -7.1410     1.4180 H     1 <1>   0.0800 
 46 H        4.3380    -5.4900     0.7370 H     1 <1>   0.4500 
 47 H        3.7060    -5.9090    -1.6260 H     1 <1>   0.0800 
 48 H        2.7200    -4.4830    -1.4350 H     1 <1>   0.0800 
 49 H        4.6110    -3.1610    -0.8670 H     1 <1>   0.0800 
 50 H        5.2180    -4.1570    -2.1540 H     1 <1>   0.0800 
 51 H        5.9000    -6.6800    -0.9320 H     1 <1>   0.0800 
 52 H        7.0150    -5.6190    -1.7510 H     1 <1>   0.0800 
 53 H        7.3340    -3.2810    -0.8470 H     1 <1>   0.0800 
 54 H        6.4350    -2.8170     0.5730 H     1 <1>   0.0800 
 55 H        8.2870    -7.1440    -0.3470 H     1 <1>   0.0800 
 56 H        7.3540    -6.7040     1.0660 H     1 <1>   0.0800 
 57 H        7.6670    -4.4620     1.9330 H     1 <1>   0.0800 
 58 H        8.8050    -3.4390     1.0840 H     1 <1>   0.0800 
@<TRIPOS>BOND
  1   1   2  2   
  2   2   3  am  
  3   2   4  1   
  4   3   5  1   
  5   3  28  1   
  6   4   6  1   
  7   4   7  2   
  8   5   8  1   
  9   5  29  1   
 10   5  30  1   
 11   6   9  1   
 12   6  31  1   
 13   7  10  1   
 14   7  32  1   
 15   8  11  1   
 16   8  12  1   
 17   8  33  1   
 18   9  10  2   
 19   9  34  1   
 20  10  35  1   
 21  11  13  1   
 22  11  14  1   
 23  11  36  1   
 24  12  15  1   
 25  12  16  1   
 26  12  37  1   
 27  13  15  1   
 28  14  17  1   
 29  14  38  1   
 30  14  39  1   
 31  15  17  1   
 32  15  18  1   
 33  16  19  1   
 34  16  40  1   
 35  16  41  1   
 36  17  42  1   
 37  17  43  1   
 38  18  19  1   
 39  18  44  1   
 40  18  45  1   
 41  19  20  1   
 42  19  46  1   
 43  20  21  1   
 44  20  47  1   
 45  20  48  1   
 46  21  22  1   
 47  21  49  1   
 48  21  50  1   
 49  22  23  1   
 50  22  24  1   
 51  23  25  1   
 52  23  51  1   
 53  23  52  1   
 54  24  26  1   
 55  24  53  1   
 56  24  54  1   
 57  25  27  1   
 58  25  55  1   
 59  25  56  1   
 60  26  27  1   
 61  26  57  1   
 62  26  58  1   
@<TRIPOS>SUBSTRUCTURE
  1 ****   5 GROUP 4 **** **** 0

# MOE 2024.06 (io_trps.svl 2023.06)
