@<TRIPOS>MOLECULE
NONAME
50 52 1 0 0 
SMALL
USER_CHARGES


@<TRIPOS>ATOM
  1 CL      -0.1510    -4.0730     0.2020 Cl    1 <1>  -0.1770 
  2 C       -1.7220    -3.4370     0.6350 C.ar  1 <1>   0.1770 
  3 C       -2.0980    -2.1570     0.2530 C.ar  1 <1>   0.0820 
  4 C       -2.5700    -4.2580     1.3550 C.ar  1 <1>  -0.1500 
  5 O       -1.2170    -1.3860    -0.4320 O.3   1 <1>  -0.3630 
  6 C       -3.3820    -1.7070     0.5890 C.ar  1 <1>   0.0830 
  7 C       -3.8390    -3.8110     1.6900 C.ar  1 <1>  -0.1440 
  8 C       -0.3920    -0.5580     0.3570 C.3   1 <1>   0.0400 
  9 O       -3.8940    -0.4920     0.2580 O.3   1 <1>  -0.3630 
 10 C       -4.2290    -2.5340     1.3120 C.ar  1 <1>  -0.1500 
 11 C       -4.7900    -4.7280     2.4310 C.3   1 <1>   0.4860 
 12 C       -3.6290     0.0680    -1.0120 C.3   1 <1>   0.0400 
 13 N       -5.2840    -5.7120     1.4440 N.4   1 <1>  -0.9590 
 14 C       -6.2510    -5.1920     0.4340 C.3   1 <1>   0.3430 
 15 C       -5.8250    -6.9890     1.9520 C.3   1 <1>   0.3430 
 16 C       -7.0300    -6.4210    -0.0570 C.3   1 <1>   0.2000 
 17 C       -6.4860    -7.6230     0.7280 C.3   1 <1>  -0.0800 
 18 O       -8.3790    -6.2620     0.2380 O.3   1 <1>  -0.6800 
 19 C       -5.4970    -8.4800    -0.1000 C.3   1 <1>   0.0210 
 20 C       -4.1170    -7.8750    -0.3360 C.2   1 <1>   0.1080 
 21 N       -3.9130    -6.7030    -0.8590 N.2   1 <1>  -0.7070 
 22 C       -2.9230    -8.5180    -0.0290 C.2   1 <1>  -0.1500 
 23 N       -2.5680    -6.5910    -0.9510 N.pl3 1 <1>   0.3000 
 24 C       -1.9530    -7.6700    -0.4280 C.2   1 <1>  -0.3320 
 25 C       -0.4440    -7.8360    -0.3630 C.3   1 <1>  -0.0600 
 26 H       -2.2270    -5.2390     1.6360 H     1 <1>   0.1500 
 27 H        0.2380     0.0140    -0.3000 H     1 <1>   0.0800 
 28 H        0.2120    -1.1750     1.0000 H     1 <1>   0.0800 
 29 H       -1.0120     0.1000     0.9400 H     1 <1>   0.0800 
 30 H       -5.2050    -2.1550     1.5640 H     1 <1>   0.1500 
 31 H       -5.6090    -4.1700     2.8550 H     1 <1>   0.0800 
 32 H       -4.2580    -5.2290     3.2230 H     1 <1>   0.0800 
 33 H       -4.4020     0.7820    -1.2320 H     1 <1>   0.0800 
 34 H       -3.6270    -0.7120    -1.7530 H     1 <1>   0.0800 
 35 H       -2.6770     0.5660    -0.9840 H     1 <1>   0.0800 
 36 H       -4.4720    -5.9810     0.8450 H     1 <1>   0.4500 
 37 H       -6.9270    -4.4780     0.8720 H     1 <1>   0.0800 
 38 H       -5.7170    -4.7360    -0.3840 H     1 <1>   0.0800 
 39 H       -5.0460    -7.6180     2.3540 H     1 <1>   0.0800 
 40 H       -6.5660    -6.7970     2.7110 H     1 <1>   0.0800 
 41 H       -6.9390    -6.5390    -1.1250 H     1 <1>   0.0800 
 42 H       -7.2900    -8.2700     1.0340 H     1 <1>   0.0800 
 43 H       -8.5740    -6.2970     1.1940 H     1 <1>   0.4000 
 44 H       -5.9340    -8.7040    -1.0580 H     1 <1>   0.0800 
 45 H       -5.3610    -9.4220     0.4020 H     1 <1>   0.0800 
 46 H       -2.8130    -9.4920     0.4160 H     1 <1>   0.1500 
 47 H       -2.0960    -5.7800    -1.3780 H     1 <1>   0.2700 
 48 H       -0.1930    -8.7930     0.0600 H     1 <1>   0.0800 
 49 H       -0.0050    -7.0670     0.2480 H     1 <1>   0.0800 
 50 H       -0.0200    -7.7800    -1.3500 H     1 <1>   0.0800 
@<TRIPOS>BOND
  1   1   2  1   
  2   2   3  ar  
  3   2   4  ar  
  4   3   5  1   
  5   3   6  ar  
  6   4   7  ar  
  7   4  26  1   
  8   5   8  1   
  9   6   9  1   
 10   6  10  ar  
 11   7  10  ar  
 12   7  11  1   
 13   8  27  1   
 14   8  28  1   
 15   8  29  1   
 16   9  12  1   
 17  10  30  1   
 18  11  13  1   
 19  11  31  1   
 20  11  32  1   
 21  12  33  1   
 22  12  34  1   
 23  12  35  1   
 24  13  14  1   
 25  13  15  1   
 26  13  36  1   
 27  14  16  1   
 28  14  37  1   
 29  14  38  1   
 30  15  17  1   
 31  15  39  1   
 32  15  40  1   
 33  16  17  1   
 34  16  18  1   
 35  16  41  1   
 36  17  19  1   
 37  17  42  1   
 38  18  43  1   
 39  19  20  1   
 40  19  44  1   
 41  19  45  1   
 42  20  21  2   
 43  20  22  1   
 44  21  23  1   
 45  22  24  2   
 46  22  46  1   
 47  23  24  1   
 48  23  47  1   
 49  24  25  1   
 50  25  48  1   
 51  25  49  1   
 52  25  50  1   
@<TRIPOS>SUBSTRUCTURE
  1 ****   4 GROUP 4 **** **** 0

# MOE 2024.06 (io_trps.svl 2023.06)
