@<TRIPOS>MOLECULE
NONAME
49 50 1 0 0 
SMALL
USER_CHARGES


@<TRIPOS>ATOM
  1 F       -3.3890    -0.1640     1.5980 F     1 <1>  -0.1900 
  2 C       -2.9770     0.6380     0.6540 C.ar  1 <1>   0.1900 
  3 C       -2.6500     0.1100    -0.5950 C.ar  1 <1>   0.0860 
  4 C       -2.8950     1.9830     0.9570 C.ar  1 <1>  -0.1500 
  5 C       -2.7480    -1.2990    -0.8940 C.2   1 <1>   0.5440 
  6 C       -2.2060     1.0190    -1.5590 C.ar  1 <1>  -0.1500 
  7 C       -2.4610     2.8530    -0.0290 C.ar  1 <1>   0.0830 
  8 O       -1.7300    -1.9160    -1.1440 O.2   1 <1>  -0.5700 
  9 N       -3.9570    -1.9630    -0.9380 N.am  1 <1>  -0.6600 
 10 C       -2.1160     2.3720    -1.2820 C.ar  1 <1>  -0.1500 
 11 O       -2.3680     4.1640     0.2160 O.3   1 <1>  -0.5330 
 12 C       -5.2950    -1.3170    -0.7870 C.3   1 <1>   0.1400 
 13 C       -4.0420    -3.4520    -1.0360 C.3   1 <1>   0.1400 
 14 C       -6.0970    -1.9890     0.3480 C.3   1 <1>   0.2000 
 15 C       -4.9300    -4.0230     0.0900 C.3   1 <1>   0.2000 
 16 O       -6.1670    -3.3690     0.1050 O.3   1 <1>  -0.5600 
 17 C       -7.5390    -1.4460     0.4840 C.3   1 <1>  -0.0800 
 18 C       -5.2260    -5.5200    -0.0740 C.3   1 <1>  -0.1600 
 19 C       -7.5660     0.0640     0.7790 C.3   1 <1>  -0.2400 
 20 C       -8.3120    -2.1750     1.5960 C.3   1 <1>  -0.2400 
 21 C       -3.9680    -6.3980     0.0380 C.3   1 <1>  -0.1600 
 22 C       -4.3290    -7.8860    -0.0390 C.3   1 <1>  -0.1600 
 23 C       -3.0790    -8.7620     0.0680 C.3   1 <1>  -0.2400 
 24 H       -3.1620     2.3320     1.9370 H     1 <1>   0.1500 
 25 H       -1.9280     0.6480    -2.5310 H     1 <1>   0.1500 
 26 H       -1.7750     3.0640    -2.0330 H     1 <1>   0.1500 
 27 H       -2.6040     4.4220     1.1250 H     1 <1>   0.4500 
 28 H       -5.1870    -0.2690    -0.5860 H     1 <1>   0.0800 
 29 H       -5.8400    -1.4200    -1.7090 H     1 <1>   0.0800 
 30 H       -4.4580    -3.7190    -1.9910 H     1 <1>   0.0800 
 31 H       -3.0610    -3.8870    -0.9690 H     1 <1>   0.0800 
 32 H       -5.5820    -1.8430     1.2820 H     1 <1>   0.0800 
 33 H       -4.4550    -3.8570     1.0420 H     1 <1>   0.0800 
 34 H       -8.0500    -1.6150    -0.4490 H     1 <1>   0.0800 
 35 H       -5.9190    -5.8080     0.6970 H     1 <1>   0.0800 
 36 H       -5.6960    -5.6840    -1.0270 H     1 <1>   0.0800 
 37 H       -6.9980     0.2870     1.6650 H     1 <1>   0.0800 
 38 H       -8.5780     0.3940     0.9320 H     1 <1>   0.0800 
 39 H       -7.1630     0.6280    -0.0430 H     1 <1>   0.0800 
 40 H       -7.8190    -2.0520     2.5440 H     1 <1>   0.0800 
 41 H       -8.3760    -3.2280     1.3810 H     1 <1>   0.0800 
 42 H       -9.3140    -1.7930     1.6740 H     1 <1>   0.0800 
 43 H       -3.2830    -6.1640    -0.7590 H     1 <1>   0.0800 
 44 H       -3.4750    -6.1990     0.9740 H     1 <1>   0.0800 
 45 H       -5.0070    -8.1360     0.7600 H     1 <1>   0.0800 
 46 H       -4.8260    -8.0900    -0.9730 H     1 <1>   0.0800 
 47 H       -2.5780    -8.5900     1.0050 H     1 <1>   0.0800 
 48 H       -2.3970    -8.5450    -0.7350 H     1 <1>   0.0800 
 49 H       -3.3520    -9.8010     0.0130 H     1 <1>   0.0800 
@<TRIPOS>BOND
  1   1   2  1   
  2   2   3  ar  
  3   2   4  ar  
  4   3   5  1   
  5   3   6  ar  
  6   4   7  ar  
  7   4  24  1   
  8   5   8  2   
  9   5   9  am  
 10   6  10  ar  
 11   6  25  1   
 12   7  10  ar  
 13   7  11  1   
 14   9  12  1   
 15   9  13  1   
 16  10  26  1   
 17  11  27  1   
 18  12  14  1   
 19  12  28  1   
 20  12  29  1   
 21  13  15  1   
 22  13  30  1   
 23  13  31  1   
 24  14  16  1   
 25  14  17  1   
 26  14  32  1   
 27  15  16  1   
 28  15  18  1   
 29  15  33  1   
 30  17  19  1   
 31  17  20  1   
 32  17  34  1   
 33  18  21  1   
 34  18  35  1   
 35  18  36  1   
 36  19  37  1   
 37  19  38  1   
 38  19  39  1   
 39  20  40  1   
 40  20  41  1   
 41  20  42  1   
 42  21  22  1   
 43  21  43  1   
 44  21  44  1   
 45  22  23  1   
 46  22  45  1   
 47  22  46  1   
 48  23  47  1   
 49  23  48  1   
 50  23  49  1   
@<TRIPOS>SUBSTRUCTURE
  1 ****   9 GROUP 4 **** **** 0

# MOE 2024.06 (io_trps.svl 2023.06)
