@<TRIPOS>MOLECULE
NONAME
59 62 1 0 0 
SMALL
USER_CHARGES


@<TRIPOS>ATOM
  1 O        0.2710    -1.1420    -0.5760 O.2   1 <1>  -0.5700 
  2 C       -0.1840    -0.3890     0.2490 C.2   1 <1>   0.5690 
  3 N       -1.2330    -0.7480     1.0280 N.am  1 <1>  -0.7300 
  4 C        0.4070     1.0140     0.3660 C.3   1 <1>  -0.0190 
  5 C       -2.0030    -2.0060     0.9080 C.3   1 <1>   0.2200 
  6 C        0.2130     1.6600     1.7590 C.3   1 <1>  -0.1600 
  7 C       -0.1720     1.9200    -0.7390 C.3   1 <1>  -0.1600 
  8 C       -3.3930    -1.7360     0.3420 C.3   1 <1>  -0.0800 
  9 C       -2.3580    -2.4970     2.3040 C.3   1 <1>   0.1200 
 10 C        0.7400     3.0960     1.7920 C.3   1 <1>   0.1400 
 11 C        0.3570     3.3530    -0.6420 C.3   1 <1>   0.1400 
 12 C       -4.2040    -1.3460     1.5840 C.3   1 <1>   0.1200 
 13 C       -3.4620    -0.7100    -0.8050 C.3   1 <1>  -0.0170 
 14 O       -3.4410    -1.7100     2.6980 O.3   1 <1>  -0.5600 
 15 N        0.0620     3.8730     0.7190 N.am  1 <1>  -0.6600 
 16 C       -4.8870    -0.5390    -1.3070 C.ar  1 <1>  -0.1440 
 17 C       -0.8490     4.8590     1.0260 C.2   1 <1>   0.5690 
 18 C       -5.4650    -1.4410    -2.1760 C.ar  1 <1>  -0.1500 
 19 C       -5.6750     0.5260    -0.9190 C.ar  1 <1>  -0.1500 
 20 O       -1.1250     5.1120     2.1770 O.2   1 <1>  -0.5700 
 21 C       -1.5610     5.6530    -0.0800 C.3   1 <1>  -0.0190 
 22 C       -6.7680    -1.2420    -2.6010 C.ar  1 <1>   0.1600 
 23 C       -6.9680     0.6320    -1.4030 C.ar  1 <1>   0.1600 
 24 C       -2.1900     6.9820     0.3550 C.3   1 <1>  -0.1600 
 25 C       -2.7450     4.9080    -0.7070 C.3   1 <1>  -0.1600 
 26 N       -7.5340    -0.2280    -2.2340 N.ar  1 <1>  -0.6200 
 27 C       -3.1770     7.3260    -0.7590 C.3   1 <1>  -0.1600 
 28 C       -3.6120     5.9870    -1.3650 C.3   1 <1>  -0.1600 
 29 H       -1.5990    -0.1080     1.7360 H     1 <1>   0.3700 
 30 H        1.4650     0.9210     0.1950 H     1 <1>   0.0800 
 31 H       -1.4540    -2.7400     0.3420 H     1 <1>   0.0800 
 32 H        0.7250     1.0760     2.5040 H     1 <1>   0.0800 
 33 H       -0.8290     1.6920     2.0210 H     1 <1>   0.0800 
 34 H       -1.2450     1.9410    -0.6670 H     1 <1>   0.0800 
 35 H        0.0830     1.5140    -1.7030 H     1 <1>   0.0800 
 36 H       -3.7890    -2.6690    -0.0180 H     1 <1>   0.0800 
 37 H       -1.5500    -2.3850     3.0050 H     1 <1>   0.0800 
 38 H       -2.6850    -3.5220     2.2790 H     1 <1>   0.0800 
 39 H        1.8030     3.1090     1.6240 H     1 <1>   0.0800 
 40 H        0.5530     3.5310     2.7600 H     1 <1>   0.0800 
 41 H       -0.0930     3.9570    -1.4070 H     1 <1>   0.0800 
 42 H        1.4220     3.3630    -0.7990 H     1 <1>   0.0800 
 43 H       -5.1480    -1.8620     1.6220 H     1 <1>   0.0800 
 44 H       -4.3690    -0.2840     1.6380 H     1 <1>   0.0800 
 45 H       -2.8330    -1.0370    -1.6150 H     1 <1>   0.0800 
 46 H       -3.0950     0.2460    -0.4780 H     1 <1>   0.0800 
 47 H       -4.9150    -2.2950    -2.5280 H     1 <1>   0.1500 
 48 H       -5.2990     1.2760    -0.2470 H     1 <1>   0.1500 
 49 H       -0.8470     5.8890    -0.8480 H     1 <1>   0.0800 
 50 H       -7.2040    -1.9560    -3.2800 H     1 <1>   0.1500 
 51 H       -7.5690     1.4690    -1.0900 H     1 <1>   0.1500 
 52 H       -2.7350     6.8460     1.2740 H     1 <1>   0.0800 
 53 H       -1.4500     7.7500     0.4990 H     1 <1>   0.0800 
 54 H       -2.4300     4.1630    -1.4150 H     1 <1>   0.0800 
 55 H       -3.3090     4.4300     0.0760 H     1 <1>   0.0800 
 56 H       -4.0160     7.8830    -0.3780 H     1 <1>   0.0800 
 57 H       -2.6810     7.9170    -1.5100 H     1 <1>   0.0800 
 58 H       -3.4510     6.0000    -2.4300 H     1 <1>   0.0800 
 59 H       -4.6540     5.7970    -1.1750 H     1 <1>   0.0800 
@<TRIPOS>BOND
  1   1   2  2   
  2   2   3  am  
  3   2   4  1   
  4   3   5  1   
  5   3  29  1   
  6   4   6  1   
  7   4   7  1   
  8   4  30  1   
  9   5   8  1   
 10   5   9  1   
 11   5  31  1   
 12   6  10  1   
 13   6  32  1   
 14   6  33  1   
 15   7  11  1   
 16   7  34  1   
 17   7  35  1   
 18   8  12  1   
 19   8  13  1   
 20   8  36  1   
 21   9  14  1   
 22   9  37  1   
 23   9  38  1   
 24  10  15  1   
 25  10  39  1   
 26  10  40  1   
 27  11  15  1   
 28  11  41  1   
 29  11  42  1   
 30  12  14  1   
 31  12  43  1   
 32  12  44  1   
 33  13  16  1   
 34  13  45  1   
 35  13  46  1   
 36  15  17  am  
 37  16  18  ar  
 38  16  19  ar  
 39  17  20  2   
 40  17  21  1   
 41  18  22  ar  
 42  18  47  1   
 43  19  23  ar  
 44  19  48  1   
 45  21  24  1   
 46  21  25  1   
 47  21  49  1   
 48  22  26  ar  
 49  22  50  1   
 50  23  26  ar  
 51  23  51  1   
 52  24  27  1   
 53  24  52  1   
 54  24  53  1   
 55  25  28  1   
 56  25  54  1   
 57  25  55  1   
 58  27  28  1   
 59  27  56  1   
 60  27  57  1   
 61  28  58  1   
 62  28  59  1   
@<TRIPOS>SUBSTRUCTURE
  1 ****  13 GROUP 4 **** **** 0

# MOE 2024.06 (io_trps.svl 2023.06)
