@<TRIPOS>MOLECULE
NONAME
48 50 1 0 0 
SMALL
USER_CHARGES


@<TRIPOS>ATOM
  1 O        1.0210    -0.0810     1.3970 O.2   1 <1>  -0.5700 
  2 C        2.0360     0.0350     0.7470 C.2   1 <1>   0.7150 
  3 N        2.6470    -1.1360     0.4330 N.am  1 <1>  -0.7300 
  4 C        2.4950     1.3390     0.3680 C.2   1 <1>  -0.2370 
  5 C        4.0180    -1.4910    -0.0270 C.3   1 <1>   0.1400 
  6 N        3.4290     1.6300    -0.5680 N.pl3 1 <1>   0.3140 
  7 C        2.0830     2.5450     0.8380 C.2   1 <1>  -0.1500 
  8 C        4.9080    -0.3150    -0.4570 C.3   1 <1>   0.2000 
  9 N        3.6290     2.9440    -0.7050 N.2   1 <1>  -0.7070 
 10 C        4.2040     0.6800    -1.3770 C.3   1 <1>   0.0960 
 11 C        2.8060     3.5200     0.1560 C.2   1 <1>   0.2030 
 12 O        6.0090    -0.8340    -1.1270 O.3   1 <1>  -0.6800 
 13 C        2.6710     4.9540     0.3640 C.2   1 <1>   0.7160 
 14 O        1.8870     5.4190     1.1750 O.2   1 <1>  -0.5700 
 15 N        3.4470     5.8090    -0.3680 N.am  1 <1>  -0.7300 
 16 C        3.4610     7.2810    -0.2910 C.3   1 <1>   0.1400 
 17 C        4.8960     7.7580    -0.0650 C.3   1 <1>  -0.1600 
 18 C        4.9570     9.2850     0.0630 C.3   1 <1>  -0.0170 
 19 C        6.3900     9.7480     0.2730 C.ar  1 <1>  -0.1430 
 20 C        6.9270     9.7980     1.5500 C.ar  1 <1>  -0.1500 
 21 C        7.1730    10.1250    -0.8070 C.ar  1 <1>  -0.1500 
 22 C        8.2290    10.2220     1.7430 C.ar  1 <1>  -0.1500 
 23 C        8.4770    10.5500    -0.6170 C.ar  1 <1>  -0.1500 
 24 C        9.0130    10.6020     0.6660 C.ar  1 <1>   0.0830 
 25 O       10.2780    11.0070     0.9420 O.3   1 <1>  -0.3630 
 26 C       11.1530    11.4220    -0.0820 C.3   1 <1>   0.0400 
 27 H        2.1100    -1.9330     0.7840 H     1 <1>   0.3700 
 28 H        3.9130    -2.1670    -0.8590 H     1 <1>   0.0800 
 29 H        4.5170    -2.0190     0.7680 H     1 <1>   0.0800 
 30 H        1.3380     2.7380     1.5910 H     1 <1>   0.1500 
 31 H        5.2920     0.1950     0.4110 H     1 <1>   0.0800 
 32 H        4.9330     1.2420    -1.9320 H     1 <1>   0.0800 
 33 H        3.5400     0.1810    -2.0570 H     1 <1>   0.0800 
 34 H        5.7550    -1.2770    -1.9610 H     1 <1>   0.4000 
 35 H        4.0900     5.3590    -1.0260 H     1 <1>   0.3700 
 36 H        2.8320     7.6110     0.5200 H     1 <1>   0.0800 
 37 H        3.0730     7.6870    -1.2090 H     1 <1>   0.0800 
 38 H        5.5130     7.4490    -0.8900 H     1 <1>   0.0800 
 39 H        5.2800     7.3140     0.8370 H     1 <1>   0.0800 
 40 H        4.3540     9.6040     0.8950 H     1 <1>   0.0800 
 41 H        4.5580     9.7430    -0.8250 H     1 <1>   0.0800 
 42 H        6.3340     9.5050     2.3990 H     1 <1>   0.1500 
 43 H        6.7690    10.0880    -1.8040 H     1 <1>   0.1500 
 44 H        8.6470    10.2620     2.7330 H     1 <1>   0.1500 
 45 H        9.0550    10.8360    -1.4740 H     1 <1>   0.1500 
 46 H       12.0890    11.6990     0.3700 H     1 <1>   0.0800 
 47 H       10.7250    12.2720    -0.5840 H     1 <1>   0.0800 
 48 H       11.3040    10.6050    -0.7650 H     1 <1>   0.0800 
@<TRIPOS>BOND
  1   1   2  2   
  2   2   3  am  
  3   2   4  1   
  4   3   5  1   
  5   3  27  1   
  6   4   6  1   
  7   4   7  2   
  8   5   8  1   
  9   5  28  1   
 10   5  29  1   
 11   6   9  1   
 12   6  10  1   
 13   7  11  1   
 14   7  30  1   
 15   8  10  1   
 16   8  12  1   
 17   8  31  1   
 18   9  11  2   
 19  10  32  1   
 20  10  33  1   
 21  11  13  1   
 22  12  34  1   
 23  13  14  2   
 24  13  15  am  
 25  15  16  1   
 26  15  35  1   
 27  16  17  1   
 28  16  36  1   
 29  16  37  1   
 30  17  18  1   
 31  17  38  1   
 32  17  39  1   
 33  18  19  1   
 34  18  40  1   
 35  18  41  1   
 36  19  20  ar  
 37  19  21  ar  
 38  20  22  ar  
 39  20  42  1   
 40  21  23  ar  
 41  21  43  1   
 42  22  24  ar  
 43  22  44  1   
 44  23  24  ar  
 45  23  45  1   
 46  24  25  1   
 47  25  26  1   
 48  26  46  1   
 49  26  47  1   
 50  26  48  1   
@<TRIPOS>SUBSTRUCTURE
  1 ****  15 GROUP 4 **** **** 0

# MOE 2024.06 (io_trps.svl 2023.06)
