@<TRIPOS>MOLECULE
NONAME
59 61 1 0 0 
SMALL
USER_CHARGES


@<TRIPOS>ATOM
  1 O        4.8740     1.4720    -1.4900 O.2   1 <1>  -0.5700 
  2 C        4.3940     0.4530    -1.0410 C.2   1 <1>   0.5690 
  3 N        3.4890     0.4750    -0.0110 N.am  1 <1>  -0.6600 
  4 C        4.8560    -0.8630    -1.6390 C.3   1 <1>  -0.0990 
  5 C        2.9820    -0.7580     0.6510 C.3   1 <1>   0.1400 
  6 C        2.9630     1.7620     0.5280 C.3   1 <1>   0.1400 
  7 C        5.7320    -1.6790    -0.6750 C.3   1 <1>  -0.1600 
  8 C        4.1200    -1.5170     1.3420 C.3   1 <1>  -0.1600 
  9 C        4.0360     2.4300     1.3880 C.3   1 <1>  -0.0990 
 10 C        4.9270    -2.4230     0.3990 C.3   1 <1>  -0.1600 
 11 C        3.7830     3.9090     1.5950 C.2   1 <1>   0.5690 
 12 O        3.3840     4.2480     2.6810 O.2   1 <1>  -0.5700 
 13 N        4.0870     4.8370     0.6250 N.am  1 <1>  -0.6600 
 14 C        4.5180     4.5250    -0.7790 C.3   1 <1>   0.1400 
 15 C        4.0500     6.2950     0.9270 C.3   1 <1>   0.1400 
 16 C        6.0330     4.2700    -0.8660 C.3   1 <1>   0.3430 
 17 C        5.4590     6.8130     1.2540 C.3   1 <1>  -0.1600 
 18 N        6.7790     5.0000     0.2160 N.4   1 <1>  -0.9590 
 19 C        6.5420     6.4710     0.2230 C.3   1 <1>   0.3430 
 20 C        8.2260     4.6270     0.3340 C.3   1 <1>   0.3430 
 21 C        8.9790     4.4630    -1.0020 C.3   1 <1>  -0.0800 
 22 C       10.4380     4.2140    -0.6590 C.3   1 <1>   0.1200 
 23 C        9.1150     5.7420    -1.8280 C.3   1 <1>  -0.1600 
 24 O       10.9100     5.4830    -0.3710 O.3   1 <1>  -0.5600 
 25 C       10.3910     6.3920    -1.2880 C.3   1 <1>   0.1200 
 26 H        5.4330    -0.6400    -2.5190 H     1 <1>   0.0800 
 27 H        4.0040    -1.4360    -1.9570 H     1 <1>   0.0800 
 28 H        2.4940    -1.3880    -0.0730 H     1 <1>   0.0800 
 29 H        2.2480    -0.4940     1.3930 H     1 <1>   0.0800 
 30 H        2.0740     1.6010     1.1140 H     1 <1>   0.0800 
 31 H        2.6820     2.3880    -0.2980 H     1 <1>   0.0800 
 32 H        6.4550    -1.0320    -0.2090 H     1 <1>   0.0800 
 33 H        6.2770    -2.4100    -1.2480 H     1 <1>   0.0800 
 34 H        3.6780    -2.1490     2.0930 H     1 <1>   0.0800 
 35 H        4.7680    -0.8260     1.8520 H     1 <1>   0.0800 
 36 H        5.0060     2.3080     0.9520 H     1 <1>   0.0800 
 37 H        4.0520     1.9450     2.3470 H     1 <1>   0.0800 
 38 H        5.6160    -3.0000     0.9940 H     1 <1>   0.0800 
 39 H        4.2620    -3.1240    -0.0770 H     1 <1>   0.0800 
 40 H        4.2720     5.3530    -1.4200 H     1 <1>   0.0800 
 41 H        3.9830     3.6840    -1.1730 H     1 <1>   0.0800 
 42 H        3.3970     6.4840     1.7650 H     1 <1>   0.0800 
 43 H        3.6410     6.8290     0.0860 H     1 <1>   0.0800 
 44 H        6.3910     4.5600    -1.8400 H     1 <1>   0.0800 
 45 H        6.2030     3.2110    -0.7620 H     1 <1>   0.0800 
 46 H        5.7520     6.4520     2.2250 H     1 <1>   0.0800 
 47 H        5.4000     7.8840     1.3330 H     1 <1>   0.0800 
 48 H        6.3090     4.6890     1.0810 H     1 <1>   0.4500 
 49 H        7.4530     6.9810     0.4960 H     1 <1>   0.0800 
 50 H        6.2470     6.8100    -0.7560 H     1 <1>   0.0800 
 51 H        8.2970     3.6910     0.8640 H     1 <1>   0.0800 
 52 H        8.7390     5.3660     0.9300 H     1 <1>   0.0800 
 53 H        8.5900     3.6360    -1.5700 H     1 <1>   0.0800 
 54 H       10.9890     3.8320    -1.5040 H     1 <1>   0.0800 
 55 H       10.5870     3.5740     0.1950 H     1 <1>   0.0800 
 56 H        8.2750     6.4060    -1.7750 H     1 <1>   0.0800 
 57 H        9.2750     5.4940    -2.8640 H     1 <1>   0.0800 
 58 H       10.1990     7.3180    -0.7740 H     1 <1>   0.0800 
 59 H       11.1200     6.5480    -2.0670 H     1 <1>   0.0800 
@<TRIPOS>BOND
  1   1   2  2   
  2   2   3  am  
  3   2   4  1   
  4   3   5  1   
  5   3   6  1   
  6   4   7  1   
  7   4  26  1   
  8   4  27  1   
  9   5   8  1   
 10   5  28  1   
 11   5  29  1   
 12   6   9  1   
 13   6  30  1   
 14   6  31  1   
 15   7  10  1   
 16   7  32  1   
 17   7  33  1   
 18   8  10  1   
 19   8  34  1   
 20   8  35  1   
 21   9  11  1   
 22   9  36  1   
 23   9  37  1   
 24  10  38  1   
 25  10  39  1   
 26  11  12  2   
 27  11  13  am  
 28  13  14  1   
 29  13  15  1   
 30  14  16  1   
 31  14  40  1   
 32  14  41  1   
 33  15  17  1   
 34  15  42  1   
 35  15  43  1   
 36  16  18  1   
 37  16  44  1   
 38  16  45  1   
 39  17  19  1   
 40  17  46  1   
 41  17  47  1   
 42  18  19  1   
 43  18  20  1   
 44  18  48  1   
 45  19  49  1   
 46  19  50  1   
 47  20  21  1   
 48  20  51  1   
 49  20  52  1   
 50  21  22  1   
 51  21  23  1   
 52  21  53  1   
 53  22  24  1   
 54  22  54  1   
 55  22  55  1   
 56  23  25  1   
 57  23  56  1   
 58  23  57  1   
 59  24  25  1   
 60  25  58  1   
 61  25  59  1   
@<TRIPOS>SUBSTRUCTURE
  1 ****  16 GROUP 4 **** **** 0

# MOE 2024.06 (io_trps.svl 2023.06)
