@<TRIPOS>MOLECULE
NONAME
41 43 1 0 0 
SMALL
USER_CHARGES


@<TRIPOS>ATOM
  1 O       -0.6650     0.0200     2.5500 O.2   1 <1>  -0.5700 
  2 C       -1.1580     0.7620     1.7340 C.2   1 <1>   0.5690 
  3 N       -1.9660     0.2790     0.7400 N.am  1 <1>  -0.6600 
  4 C       -0.8530     2.2500     1.8450 C.3   1 <1>   0.0440 
  5 C       -2.6240     1.0630    -0.3390 C.3   1 <1>   0.1400 
  6 C       -2.1880    -1.1720     0.5240 C.3   1 <1>   0.1400 
  7 C       -0.1880     2.8180     0.5940 C.ar  1 <1>  -0.1440 
  8 C       -3.6510     0.1000    -0.9280 C.3   1 <1>   0.2000 
  9 C       -2.9750    -1.2670    -0.7890 C.3   1 <1>  -0.0800 
 10 C       -0.6130     3.9940     0.0070 C.ar  1 <1>  -0.1500 
 11 C        0.8690     2.1770    -0.0200 C.ar  1 <1>  -0.1500 
 12 O       -4.7840     0.1400    -0.1290 O.3   1 <1>  -0.6800 
 13 C       -3.9150    -2.4830    -0.8620 C.3   1 <1>   0.0200 
 14 C        0.0140     4.4490    -1.1410 C.ar  1 <1>   0.1600 
 15 C        1.4240     2.7160    -1.1680 C.ar  1 <1>   0.1600 
 16 C       -3.1290    -3.7740    -0.7330 C.2   1 <1>  -0.0400 
 17 N        1.0170     3.8350    -1.7460 N.ar  1 <1>  -0.6200 
 18 O       -2.2280    -4.0830    -1.6260 O.3   1 <1>  -0.0190 
 19 C       -3.1530    -4.7520     0.1850 C.2   1 <1>  -0.1500 
 20 N       -1.6430    -5.2130    -1.3530 N.2   1 <1>  -0.4100 
 21 C       -2.1820    -5.6400    -0.2680 C.2   1 <1>   0.1080 
 22 C       -1.8020    -6.9330     0.4180 C.3   1 <1>  -0.0590 
 23 H       -1.7710     2.7670     2.0500 H     1 <1>   0.0800 
 24 H       -0.1980     2.4050     2.6830 H     1 <1>   0.0800 
 25 H       -3.0860     1.9610     0.0330 H     1 <1>   0.0800 
 26 H       -1.8910     1.3160    -1.0860 H     1 <1>   0.0800 
 27 H       -1.2490    -1.6970     0.4590 H     1 <1>   0.0800 
 28 H       -2.7560    -1.5660     1.3490 H     1 <1>   0.0800 
 29 H       -3.9320     0.3420    -1.9390 H     1 <1>   0.0800 
 30 H       -2.2550    -1.3520    -1.5840 H     1 <1>   0.0800 
 31 H       -1.4230     4.5620     0.4270 H     1 <1>   0.1500 
 32 H        1.2640     1.2590     0.3800 H     1 <1>   0.1500 
 33 H       -4.5070     0.0680     0.8070 H     1 <1>   0.4000 
 34 H       -4.4360    -2.4820    -1.8030 H     1 <1>   0.0800 
 35 H       -4.6480    -2.4420    -0.0760 H     1 <1>   0.0800 
 36 H       -0.3290     5.3680    -1.5870 H     1 <1>   0.1500 
 37 H        2.2450     2.1990    -1.6350 H     1 <1>   0.1500 
 38 H       -3.7570    -4.8580     1.0670 H     1 <1>   0.1500 
 39 H       -2.6620    -7.5710     0.4970 H     1 <1>   0.0800 
 40 H       -1.4200    -6.7260     1.4010 H     1 <1>   0.0800 
 41 H       -1.0430    -7.4410    -0.1500 H     1 <1>   0.0800 
@<TRIPOS>BOND
  1   1   2  2   
  2   2   3  am  
  3   2   4  1   
  4   3   5  1   
  5   3   6  1   
  6   4   7  1   
  7   4  23  1   
  8   4  24  1   
  9   5   8  1   
 10   5  25  1   
 11   5  26  1   
 12   6   9  1   
 13   6  27  1   
 14   6  28  1   
 15   7  10  ar  
 16   7  11  ar  
 17   8   9  1   
 18   8  12  1   
 19   8  29  1   
 20   9  13  1   
 21   9  30  1   
 22  10  14  ar  
 23  10  31  1   
 24  11  15  ar  
 25  11  32  1   
 26  12  33  1   
 27  13  16  1   
 28  13  34  1   
 29  13  35  1   
 30  14  17  ar  
 31  14  36  1   
 32  15  17  ar  
 33  15  37  1   
 34  16  18  1   
 35  16  19  2   
 36  18  20  1   
 37  19  21  1   
 38  19  38  1   
 39  20  21  2   
 40  21  22  1   
 41  22  39  1   
 42  22  40  1   
 43  22  41  1   
@<TRIPOS>SUBSTRUCTURE
  1 ****   6 GROUP 4 **** **** 0

# MOE 2024.06 (io_trps.svl 2023.06)
