@<TRIPOS>MOLECULE
NONAME
46 50 1 0 0 
SMALL
USER_CHARGES


@<TRIPOS>ATOM
  1 S        0.3860    -0.4080    -1.0620 S.3   1 <1>  -0.0800 
  2 C       -0.0590    -1.7040     0.0490 C.ar  1 <1>   0.2970 
  3 C       -0.8280    -0.9270    -2.2320 C.2   1 <1>  -0.1100 
  4 N        0.5430    -1.8970     1.2020 N.ar  1 <1>  -0.5670 
  5 C       -1.0880    -2.4520    -0.4690 C.ar  1 <1>   0.0000 
  6 C       -1.5000    -1.9990    -1.7750 C.2   1 <1>  -0.1500 
  7 C        0.0490    -2.9310     1.8540 C.ar  1 <1>   0.4700 
  8 C       -1.5290    -3.5000     0.3430 C.ar  1 <1>   0.4100 
  9 N       -0.9390    -3.7440     1.5030 N.ar  1 <1>  -0.6200 
 10 N       -2.5910    -4.3070    -0.0170 N.pl3 1 <1>  -0.8380 
 11 C       -3.9010    -3.7020    -0.3550 C.3   1 <1>   0.2090 
 12 C       -2.7740    -5.6730     0.5440 C.3   1 <1>   0.2090 
 13 C       -4.9530    -4.5960     0.3020 C.3   1 <1>  -0.0800 
 14 C       -4.2770    -5.9620     0.5230 C.3   1 <1>  -0.0800 
 15 C       -6.3250    -4.6380    -0.4210 C.3   1 <1>   0.4240 
 16 C       -4.6840    -6.9960    -0.5400 C.3   1 <1>  -0.1600 
 17 O       -6.1300    -4.6480    -1.7920 O.3   1 <1>  -0.6800 
 18 C       -7.1830    -3.4150    -0.0360 C.ar  1 <1>  -0.1430 
 19 C       -7.0270    -5.9740    -0.1210 C.3   1 <1>  -0.1600 
 20 C       -6.2120    -7.2130    -0.5680 C.3   1 <1>  -0.1600 
 21 C       -7.4650    -2.3900    -0.9360 C.ar  1 <1>  -0.1500 
 22 C       -7.6900    -3.3030     1.2560 C.ar  1 <1>  -0.1500 
 23 C       -8.2280    -1.2980    -0.5610 C.ar  1 <1>  -0.1500 
 24 C       -8.4540    -2.2120     1.6340 C.ar  1 <1>  -0.1500 
 25 C       -8.7240    -1.2070     0.7250 C.ar  1 <1>  -0.1500 
 26 H       -0.8990    -0.3660    -3.1470 H     1 <1>   0.1500 
 27 H       -2.2790    -2.5130    -2.3050 H     1 <1>   0.1500 
 28 H        0.5080    -3.1460     2.8050 H     1 <1>   0.1500 
 29 H       -3.9720    -2.6930     0.0150 H     1 <1>   0.0800 
 30 H       -3.9960    -3.6890    -1.4250 H     1 <1>   0.0800 
 31 H       -2.2230    -6.3860    -0.0450 H     1 <1>   0.0800 
 32 H       -2.4180    -5.7130     1.5590 H     1 <1>   0.0800 
 33 H       -5.1130    -4.1890     1.2840 H     1 <1>   0.0800 
 34 H       -4.5620    -6.3520     1.4850 H     1 <1>   0.0800 
 35 H       -4.3420    -6.6580    -1.5030 H     1 <1>   0.0800 
 36 H       -4.1950    -7.9350    -0.3430 H     1 <1>   0.0800 
 37 H       -5.7420    -5.5110    -2.0230 H     1 <1>   0.4000 
 38 H       -7.1830    -6.0460     0.9400 H     1 <1>   0.0800 
 39 H       -8.0000    -5.9820    -0.5800 H     1 <1>   0.0800 
 40 H       -6.4670    -8.0350     0.0790 H     1 <1>   0.0800 
 41 H       -6.5040    -7.4970    -1.5650 H     1 <1>   0.0800 
 42 H       -7.0930    -2.4280    -1.9450 H     1 <1>   0.1500 
 43 H       -7.4930    -4.0640     1.9890 H     1 <1>   0.1500 
 44 H       -8.4350    -0.5190    -1.2740 H     1 <1>   0.1500 
 45 H       -8.8370    -2.1450     2.6370 H     1 <1>   0.1500 
 46 H       -9.3180    -0.3590     1.0170 H     1 <1>   0.1500 
@<TRIPOS>BOND
  1   1   2  1   
  2   1   3  1   
  3   2   4  ar  
  4   2   5  ar  
  5   3   6  2   
  6   3  26  1   
  7   4   7  ar  
  8   5   6  1   
  9   5   8  ar  
 10   6  27  1   
 11   7   9  ar  
 12   7  28  1   
 13   8   9  ar  
 14   8  10  1   
 15  10  11  1   
 16  10  12  1   
 17  11  13  1   
 18  11  29  1   
 19  11  30  1   
 20  12  14  1   
 21  12  31  1   
 22  12  32  1   
 23  13  14  1   
 24  13  15  1   
 25  13  33  1   
 26  14  16  1   
 27  14  34  1   
 28  15  17  1   
 29  15  18  1   
 30  15  19  1   
 31  16  20  1   
 32  16  35  1   
 33  16  36  1   
 34  17  37  1   
 35  18  21  ar  
 36  18  22  ar  
 37  19  20  1   
 38  19  38  1   
 39  19  39  1   
 40  20  40  1   
 41  20  41  1   
 42  21  23  ar  
 43  21  42  1   
 44  22  24  ar  
 45  22  43  1   
 46  23  25  ar  
 47  23  44  1   
 48  24  25  ar  
 49  24  45  1   
 50  25  46  1   
@<TRIPOS>SUBSTRUCTURE
  1 ****  11 GROUP 4 **** **** 0

# MOE 2024.06 (io_trps.svl 2023.06)
