@<TRIPOS>MOLECULE
NONAME
55 59 1 0 0 
SMALL
USER_CHARGES


@<TRIPOS>ATOM
  1 O       -2.9340     1.8590    -2.3650 O.2   1 <1>  -0.5700 
  2 C       -2.7490     2.2310    -1.2220 C.2   1 <1>   0.5440 
  3 N       -3.1490     1.3880    -0.2000 N.am  1 <1>  -0.6600 
  4 C       -2.1090     3.5270    -1.0100 C.ar  1 <1>   0.3960 
  5 C       -3.9900     0.1750    -0.4300 C.3   1 <1>   0.1400 
  6 C       -3.1740     1.6780     1.2520 C.3   1 <1>   0.1400 
  7 N       -2.6540     4.4640    -0.2020 N.ar  1 <1>  -0.6200 
  8 C       -0.9160     3.7650    -1.6990 C.ar  1 <1>   0.1600 
  9 C       -5.1230     0.3520     0.5750 C.3   1 <1>   0.2800 
 10 C       -4.5690     1.2210     1.7230 C.3   1 <1>  -0.0800 
 11 C       -1.9250     5.5670    -0.1390 C.ar  1 <1>   0.1600 
 12 N       -0.1940     4.8720    -1.6300 N.ar  1 <1>  -0.6200 
 13 O       -6.1170     1.1530     0.0300 O.3   1 <1>  -0.5600 
 14 C       -5.9710    -0.7750     1.1450 C.3   1 <1>  -0.1600 
 15 C       -5.7300     2.2300     1.8920 C.3   1 <1>  -0.0800 
 16 C       -0.7350     5.7660    -0.8260 C.ar  1 <1>   0.1600 
 17 C       -6.8320     1.4630     1.1470 C.3   1 <1>   0.2000 
 18 C       -7.1370     0.0560     1.7060 C.3   1 <1>  -0.1600 
 19 C       -5.3680     3.5670     1.2050 C.3   1 <1>   0.3430 
 20 N       -6.5300     4.3840     0.7570 N.4   1 <1>  -0.9590 
 21 C       -6.7970     4.1200    -0.6910 C.3   1 <1>   0.5240 
 22 C       -6.2840     5.8400     0.9880 C.3   1 <1>   0.2630 
 23 C       -8.0780     4.8300    -1.0600 C.2   1 <1>  -0.1810 
 24 C       -8.1690     5.9470    -1.8820 C.2   1 <1>   0.1390 
 25 C       -9.3540     4.5700    -0.6930 C.2   1 <1>  -0.3020 
 26 N       -9.3890     6.3610    -2.0020 N.2   1 <1>  -0.7070 
 27 N      -10.1290     5.5060    -1.2790 N.pl3 1 <1>   0.3140 
 28 C      -11.5890     5.6380    -1.1980 C.3   1 <1>   0.0160 
 29 H       -4.3670     0.1120    -1.4360 H     1 <1>   0.0800 
 30 H       -3.4140    -0.7050    -0.2000 H     1 <1>   0.0800 
 31 H       -2.4230     1.0660     1.7230 H     1 <1>   0.0800 
 32 H       -2.9580     2.7010     1.4920 H     1 <1>   0.0800 
 33 H       -0.5470     2.9850    -2.3440 H     1 <1>   0.1500 
 34 H       -4.4450     0.6430     2.6220 H     1 <1>   0.0800 
 35 H       -2.2790     6.3650     0.4900 H     1 <1>   0.1500 
 36 H       -6.2990    -1.4250     0.3520 H     1 <1>   0.0800 
 37 H       -5.4560    -1.3480     1.8960 H     1 <1>   0.0800 
 38 H       -5.9800     2.3850     2.9270 H     1 <1>   0.0800 
 39 H       -0.2120     6.7000    -0.7080 H     1 <1>   0.1500 
 40 H       -7.7170     2.0240     0.9030 H     1 <1>   0.0800 
 41 H       -7.1640     0.0570     2.7820 H     1 <1>   0.0800 
 42 H       -8.0780    -0.3050     1.3280 H     1 <1>   0.0800 
 43 H       -4.7660     3.3460     0.3390 H     1 <1>   0.0800 
 44 H       -4.7540     4.1410     1.8800 H     1 <1>   0.0800 
 45 H       -7.3800     4.1120     1.2630 H     1 <1>   0.4500 
 46 H       -5.9810     4.4780    -1.2970 H     1 <1>   0.0800 
 47 H       -6.9130     3.0650    -0.8730 H     1 <1>   0.0800 
 48 H       -5.4210     6.1660     0.4290 H     1 <1>   0.0800 
 49 H       -6.1110     6.0290     2.0350 H     1 <1>   0.0800 
 50 H       -7.1380     6.4200     0.6740 H     1 <1>   0.0800 
 51 H       -7.3410     6.4330    -2.3720 H     1 <1>   0.1500 
 52 H       -9.7600     3.7930    -0.0720 H     1 <1>   0.1500 
 53 H      -11.9920     4.8590    -0.5800 H     1 <1>   0.0800 
 54 H      -11.9990     5.5660    -2.1890 H     1 <1>   0.0800 
 55 H      -11.8300     6.5980    -0.7820 H     1 <1>   0.0800 
@<TRIPOS>BOND
  1   1   2  2   
  2   2   3  am  
  3   2   4  1   
  4   3   5  1   
  5   3   6  1   
  6   4   7  ar  
  7   4   8  ar  
  8   5   9  1   
  9   5  29  1   
 10   5  30  1   
 11   6  10  1   
 12   6  31  1   
 13   6  32  1   
 14   7  11  ar  
 15   8  12  ar  
 16   8  33  1   
 17   9  10  1   
 18   9  13  1   
 19   9  14  1   
 20  10  15  1   
 21  10  34  1   
 22  11  16  ar  
 23  11  35  1   
 24  12  16  ar  
 25  13  17  1   
 26  14  18  1   
 27  14  36  1   
 28  14  37  1   
 29  15  17  1   
 30  15  19  1   
 31  15  38  1   
 32  16  39  1   
 33  17  18  1   
 34  17  40  1   
 35  18  41  1   
 36  18  42  1   
 37  19  20  1   
 38  19  43  1   
 39  19  44  1   
 40  20  21  1   
 41  20  22  1   
 42  20  45  1   
 43  21  23  1   
 44  21  46  1   
 45  21  47  1   
 46  22  48  1   
 47  22  49  1   
 48  22  50  1   
 49  23  24  1   
 50  23  25  2   
 51  24  26  2   
 52  24  51  1   
 53  25  27  1   
 54  25  52  1   
 55  26  27  1   
 56  27  28  1   
 57  28  53  1   
 58  28  54  1   
 59  28  55  1   
@<TRIPOS>SUBSTRUCTURE
  1 ****  19 GROUP 4 **** **** 0

# MOE 2024.06 (io_trps.svl 2023.06)
