@<TRIPOS>MOLECULE
NONAME
41 42 1 0 0 
SMALL
USER_CHARGES


@<TRIPOS>ATOM
  1 CL       1.7850    -0.6970     0.1340 Cl    1 <1>  -0.1770 
  2 C        0.9000    -2.1820    -0.0880 C.ar  1 <1>   0.1770 
  3 C        0.4580    -2.5300    -1.3490 C.ar  1 <1>  -0.1500 
  4 C        0.6480    -2.9930     1.0010 C.ar  1 <1>  -0.1500 
  5 C       -0.2420    -3.7120    -1.5170 C.ar  1 <1>  -0.1500 
  6 C       -0.0540    -4.1730     0.8210 C.ar  1 <1>  -0.1500 
  7 C       -0.5120    -4.5640    -0.4420 C.ar  1 <1>   0.0860 
  8 C       -1.2440    -5.8030    -0.6480 C.2   1 <1>   0.5440 
  9 O       -2.0000    -5.9300    -1.5920 O.2   1 <1>  -0.5700 
 10 N       -1.1130    -6.8540     0.2120 N.am  1 <1>  -0.7300 
 11 C       -1.8360    -8.1400     0.0820 C.3   1 <1>   0.2200 
 12 C       -3.2280    -7.9970     0.7030 C.3   1 <1>  -0.0800 
 13 C       -1.1790    -9.2120     0.9490 C.3   1 <1>   0.1200 
 14 C       -3.1900    -8.9370     1.9140 C.3   1 <1>   0.1200 
 15 C       -4.3750    -8.2000    -0.3130 C.3   1 <1>  -0.0550 
 16 O       -1.8390    -9.1370     2.1710 O.3   1 <1>  -0.5600 
 17 S       -4.6020    -9.8470    -1.0030 S.o2  1 <1>   1.3330 
 18 O       -5.4910    -9.7630    -2.1390 O.2   1 <1>  -0.6500 
 19 O       -3.3120   -10.4840    -1.1550 O.2   1 <1>  -0.6500 
 20 N       -5.4480   -10.6720     0.2200 N.am  1 <1>  -0.8490 
 21 C       -5.1870   -12.1150     0.1990 C.3   1 <1>   0.1160 
 22 C       -6.8960   -10.4320     0.1920 C.3   1 <1>   0.1160 
 23 H        0.6600    -1.8830    -2.1840 H     1 <1>   0.1500 
 24 H        0.9990    -2.6990     1.9750 H     1 <1>   0.1500 
 25 H       -0.5910    -3.9870    -2.4980 H     1 <1>   0.1500 
 26 H       -0.2540    -4.7910     1.6780 H     1 <1>   0.1500 
 27 H       -0.5460    -6.7720     1.0570 H     1 <1>   0.3700 
 28 H       -1.8540    -8.4400    -0.9520 H     1 <1>   0.0800 
 29 H       -3.3370    -6.9990     1.0900 H     1 <1>   0.0800 
 30 H       -0.1250    -9.0550     1.0910 H     1 <1>   0.0800 
 31 H       -1.3530   -10.1920     0.5380 H     1 <1>   0.0800 
 32 H       -3.6190    -9.9000     1.7130 H     1 <1>   0.0800 
 33 H       -3.6530    -8.5060     2.7850 H     1 <1>   0.0800 
 34 H       -4.1950    -7.5230    -1.1280 H     1 <1>   0.0800 
 35 H       -5.2940    -7.8900     0.1430 H     1 <1>   0.0800 
 36 H       -5.7310   -12.6050     0.9880 H     1 <1>   0.0800 
 37 H       -4.1370   -12.3020     0.3490 H     1 <1>   0.0800 
 38 H       -5.4800   -12.5340    -0.7500 H     1 <1>   0.0800 
 39 H       -7.3640   -10.8980     1.0420 H     1 <1>   0.0800 
 40 H       -7.3270   -10.8350    -0.7100 H     1 <1>   0.0800 
 41 H       -7.1000    -9.3760     0.2290 H     1 <1>   0.0800 
@<TRIPOS>BOND
  1   1   2  1   
  2   2   3  ar  
  3   2   4  ar  
  4   3   5  ar  
  5   3  23  1   
  6   4   6  ar  
  7   4  24  1   
  8   5   7  ar  
  9   5  25  1   
 10   6   7  ar  
 11   6  26  1   
 12   7   8  1   
 13   8   9  2   
 14   8  10  am  
 15  10  11  1   
 16  10  27  1   
 17  11  12  1   
 18  11  13  1   
 19  11  28  1   
 20  12  14  1   
 21  12  15  1   
 22  12  29  1   
 23  13  16  1   
 24  13  30  1   
 25  13  31  1   
 26  14  16  1   
 27  14  32  1   
 28  14  33  1   
 29  15  17  1   
 30  15  34  1   
 31  15  35  1   
 32  17  18  2   
 33  17  19  2   
 34  17  20  am  
 35  20  21  1   
 36  20  22  1   
 37  21  36  1   
 38  21  37  1   
 39  21  38  1   
 40  22  39  1   
 41  22  40  1   
 42  22  41  1   
@<TRIPOS>SUBSTRUCTURE
  1 ****  10 GROUP 4 **** **** 0

# MOE 2024.06 (io_trps.svl 2023.06)
