@<TRIPOS>MOLECULE
NONAME
50 52 1 0 0 
SMALL
USER_CHARGES


@<TRIPOS>ATOM
  1 O       -0.1630     0.9110     2.0290 O.2   1 <1>  -0.5700 
  2 C       -0.1200     2.1100     1.9190 C.2   1 <1>   0.5690 
  3 N       -1.1550     2.7870     1.3740 N.am  1 <1>  -0.7300 
  4 C        1.1310     2.8780     2.3630 C.3   1 <1>   0.1810 
  5 C       -1.1750     4.2610     1.2260 C.3   1 <1>   0.3640 
  6 O        0.9200     4.2690     2.4910 O.3   1 <1>  -0.5600 
  7 C       -1.7160     4.6330    -0.1520 C.ar  1 <1>  -0.1440 
  8 C        0.2360     4.8660     1.4010 C.3   1 <1>   0.2610 
  9 C       -2.5480     5.7360    -0.2820 C.ar  1 <1>  -0.1500 
 10 C       -1.3720     3.9120    -1.2890 C.ar  1 <1>  -0.1500 
 11 C        0.1160     6.3910     1.5660 C.2   1 <1>   0.5690 
 12 C       -3.0260     6.1140    -1.5240 C.ar  1 <1>  -0.1500 
 13 C       -1.8500     4.2890    -2.5320 C.ar  1 <1>  -0.1500 
 14 O       -0.5890     6.7980     2.4660 O.2   1 <1>  -0.5700 
 15 N        0.7390     7.2620     0.6940 N.am  1 <1>  -0.5090 
 16 C       -2.6770     5.3910    -2.6500 C.ar  1 <1>  -0.1500 
 17 C        0.6550     8.7290     0.8970 C.3   1 <1>   0.0490 
 18 C        1.2160     6.8650    -0.6590 C.3   1 <1>   0.1400 
 19 C        1.9130     9.5410     0.9360 C.3   1 <1>  -0.2000 
 20 C        1.1300     9.3160     2.1890 C.3   1 <1>  -0.2000 
 21 C        2.6610     6.3470    -0.5970 C.3   1 <1>  -0.1600 
 22 C        3.1330     5.7230    -1.9230 C.3   1 <1>  -0.0800 
 23 C        2.3630     4.4390    -2.2670 C.3   1 <1>  -0.2400 
 24 C        4.6300     5.4060    -1.8370 C.3   1 <1>  -0.2400 
 25 H       -1.9960     2.2760     1.1020 H     1 <1>   0.3700 
 26 H        1.9180     2.7210     1.6480 H     1 <1>   0.0800 
 27 H        1.4540     2.5090     3.3190 H     1 <1>   0.0800 
 28 H       -1.8260     4.6620     1.9850 H     1 <1>   0.0800 
 29 H        0.8030     4.6370     0.5230 H     1 <1>   0.0800 
 30 H       -2.8260     6.3140     0.5850 H     1 <1>   0.1500 
 31 H       -0.7280     3.0510    -1.2190 H     1 <1>   0.1500 
 32 H       -3.6710     6.9710    -1.6130 H     1 <1>   0.1500 
 33 H       -1.5810     3.7230    -3.4080 H     1 <1>   0.1500 
 34 H       -3.0510     5.6840    -3.6160 H     1 <1>   0.1500 
 35 H       -0.2280     9.1560     0.4510 H     1 <1>   0.1000 
 36 H        0.5520     6.1190    -1.0560 H     1 <1>   0.0800 
 37 H        1.1680     7.7120    -1.3220 H     1 <1>   0.0800 
 38 H        2.8730     9.0650     0.8670 H     1 <1>   0.1000 
 39 H        1.9070    10.5290     0.5100 H     1 <1>   0.1000 
 40 H        0.5800    10.1380     2.6110 H     1 <1>   0.1000 
 41 H        1.5120     8.6460     2.9390 H     1 <1>   0.1000 
 42 H        3.3030     7.1750    -0.3620 H     1 <1>   0.0800 
 43 H        2.7670     5.6230     0.1910 H     1 <1>   0.0800 
 44 H        2.9880     6.4370    -2.7170 H     1 <1>   0.0800 
 45 H        2.4310     3.7270    -1.4630 H     1 <1>   0.0800 
 46 H        2.7750     3.9890    -3.1530 H     1 <1>   0.0800 
 47 H        1.3270     4.6470    -2.4630 H     1 <1>   0.0800 
 48 H        4.8250     4.6920    -1.0560 H     1 <1>   0.0800 
 49 H        5.1920     6.3000    -1.6310 H     1 <1>   0.0800 
 50 H        4.9810     4.9990    -2.7690 H     1 <1>   0.0800 
@<TRIPOS>BOND
  1   1   2  2   
  2   2   3  am  
  3   2   4  1   
  4   3   5  1   
  5   3  25  1   
  6   4   6  1   
  7   4  26  1   
  8   4  27  1   
  9   5   7  1   
 10   5   8  1   
 11   5  28  1   
 12   6   8  1   
 13   7   9  ar  
 14   7  10  ar  
 15   8  11  1   
 16   8  29  1   
 17   9  12  ar  
 18   9  30  1   
 19  10  13  ar  
 20  10  31  1   
 21  11  14  2   
 22  11  15  am  
 23  12  16  ar  
 24  12  32  1   
 25  13  16  ar  
 26  13  33  1   
 27  15  17  1   
 28  15  18  1   
 29  16  34  1   
 30  17  19  1   
 31  17  20  1   
 32  17  35  1   
 33  18  21  1   
 34  18  36  1   
 35  18  37  1   
 36  19  20  1   
 37  19  38  1   
 38  19  39  1   
 39  20  40  1   
 40  20  41  1   
 41  21  22  1   
 42  21  42  1   
 43  21  43  1   
 44  22  23  1   
 45  22  24  1   
 46  22  44  1   
 47  23  45  1   
 48  23  46  1   
 49  23  47  1   
 50  24  48  1   
 51  24  49  1   
 52  24  50  1   
@<TRIPOS>SUBSTRUCTURE
  1 ****   8 GROUP 4 **** **** 0

# MOE 2024.06 (io_trps.svl 2023.06)
