@<TRIPOS>MOLECULE
NONAME
45 46 1 0 0 
SMALL
USER_CHARGES


@<TRIPOS>ATOM
  1 O        1.4820    -0.8510     2.1810 O.2   1 <1>  -0.5700 
  2 C        1.6970    -1.2050     1.0440 C.2   1 <1>   0.5690 
  3 N        1.8530    -0.3400    -0.0010 N.am  1 <1>  -0.4930 
  4 C        1.8170    -2.7080     0.7600 C.3   1 <1>   0.1710 
  5 C        1.8120     1.0780    -0.0080 C.2   1 <1>   0.0630 
  6 N        0.6120    -3.3780     0.1960 N.3   1 <1>  -0.8100 
  7 C        1.9540     1.9180    -1.1160 C.2   1 <1>   0.1080 
  8 C        1.6340     1.9230     1.0270 C.2   1 <1>  -0.3020 
  9 C       -0.5530    -3.2490     1.1150 C.3   1 <1>   0.2530 
 10 C        0.2660    -2.9260    -1.1600 C.3   1 <1>   0.0300 
 11 N        1.8730     3.1720    -0.7990 N.2   1 <1>  -0.7070 
 12 C        2.1770     1.4640    -2.5420 C.3   1 <1>  -0.0590 
 13 N        1.6730     3.1750     0.5300 N.pl3 1 <1>   0.3140 
 14 C       -1.7170    -4.1650     0.7350 C.ar  1 <1>   0.1670 
 15 C        1.5250     4.4180     1.2930 C.3   1 <1>   0.0160 
 16 N       -2.9240    -3.6160     0.6860 N.ar  1 <1>  -0.6200 
 17 C       -1.4700    -5.5030     0.4670 C.ar  1 <1>  -0.1500 
 18 C       -3.9120    -4.4340     0.3580 C.ar  1 <1>   0.1600 
 19 C       -2.5100    -6.3410     0.1280 C.ar  1 <1>  -0.1500 
 20 C       -3.7710    -5.7850     0.0740 C.ar  1 <1>  -0.1430 
 21 C       -4.9770    -6.6360    -0.2900 C.3   1 <1>  -0.0170 
 22 C       -5.1940    -6.6410    -1.8050 C.3   1 <1>  -0.2400 
 23 H        1.9870    -0.7660    -0.9140 H     1 <1>   0.3700 
 24 H        2.0690    -3.1930     1.6870 H     1 <1>   0.0800 
 25 H        2.6460    -2.8670     0.0950 H     1 <1>   0.0800 
 26 H        1.4850     1.6990     2.0670 H     1 <1>   0.1500 
 27 H       -0.8970    -2.2290     1.1260 H     1 <1>   0.0800 
 28 H       -0.2500    -3.5010     2.1160 H     1 <1>   0.0800 
 29 H        1.1230    -3.0020    -1.8060 H     1 <1>   0.0800 
 30 H       -0.0900    -1.9100    -1.1460 H     1 <1>   0.0800 
 31 H       -0.5120    -3.5510    -1.5650 H     1 <1>   0.0800 
 32 H        3.0890     0.9020    -2.6080 H     1 <1>   0.0800 
 33 H        2.2500     2.3210    -3.1870 H     1 <1>   0.0800 
 34 H        1.3520     0.8570    -2.8650 H     1 <1>   0.0800 
 35 H        0.6410     4.3580     1.8990 H     1 <1>   0.0800 
 36 H        1.4400     5.2420     0.6090 H     1 <1>   0.0800 
 37 H        2.3900     4.5530     1.9150 H     1 <1>   0.0800 
 38 H       -0.4640    -5.8800     0.5220 H     1 <1>   0.1500 
 39 H       -4.8960    -4.0000     0.3130 H     1 <1>   0.1500 
 40 H       -2.3390    -7.3810    -0.0850 H     1 <1>   0.1500 
 41 H       -5.8550    -6.2520     0.1990 H     1 <1>   0.0800 
 42 H       -4.8250    -7.6440     0.0560 H     1 <1>   0.0800 
 43 H       -5.3640    -5.6400    -2.1610 H     1 <1>   0.0800 
 44 H       -6.0460    -7.2470    -2.0550 H     1 <1>   0.0800 
 45 H       -4.3280    -7.0410    -2.3030 H     1 <1>   0.0800 
@<TRIPOS>BOND
  1   1   2  2   
  2   2   3  am  
  3   2   4  1   
  4   3   5  1   
  5   3  23  1   
  6   4   6  1   
  7   4  24  1   
  8   4  25  1   
  9   5   7  1   
 10   5   8  2   
 11   6   9  1   
 12   6  10  1   
 13   7  11  2   
 14   7  12  1   
 15   8  13  1   
 16   8  26  1   
 17   9  14  1   
 18   9  27  1   
 19   9  28  1   
 20  10  29  1   
 21  10  30  1   
 22  10  31  1   
 23  11  13  1   
 24  12  32  1   
 25  12  33  1   
 26  12  34  1   
 27  13  15  1   
 28  14  16  ar  
 29  14  17  ar  
 30  15  35  1   
 31  15  36  1   
 32  15  37  1   
 33  16  18  ar  
 34  17  19  ar  
 35  17  38  1   
 36  18  20  ar  
 37  18  39  1   
 38  19  20  ar  
 39  19  40  1   
 40  20  21  1   
 41  21  22  1   
 42  21  41  1   
 43  21  42  1   
 44  22  43  1   
 45  22  44  1   
 46  22  45  1   
@<TRIPOS>SUBSTRUCTURE
  1 ****   9 GROUP 4 **** **** 0

# MOE 2024.06 (io_trps.svl 2023.06)
