@<TRIPOS>MOLECULE
NONAME
53 57 1 0 0 
SMALL
USER_CHARGES


@<TRIPOS>ATOM
  1 O        1.6800    -0.5170    -2.8080 O.3   1 <1>  -0.6800 
  2 C        2.8300    -0.3600    -2.0440 C.3   1 <1>   0.2000 
  3 C        2.8940    -1.4280    -0.9500 C.3   1 <1>  -0.0800 
  4 C        2.8280     0.9810    -1.3180 C.3   1 <1>   0.2090 
  5 C        3.3130    -0.6870     0.3280 C.3   1 <1>   0.2090 
  6 C        3.8730    -2.5530    -1.3190 C.3   1 <1>   0.0210 
  7 N        3.5550     0.7280    -0.0520 N.pl3 1 <1>  -0.8380 
  8 C        3.8940    -3.6330    -0.2550 C.2   1 <1>   0.1080 
  9 C        4.8410     1.2080     0.0160 C.ar  1 <1>   0.4100 
 10 N        2.9020    -4.4460    -0.0660 N.2   1 <1>  -0.7070 
 11 C        4.9450    -3.8710     0.6240 C.2   1 <1>  -0.1500 
 12 N        5.7990     0.5070    -0.5560 N.ar  1 <1>  -0.6200 
 13 C        5.1240     2.4020     0.6390 C.ar  1 <1>  -0.1430 
 14 N        3.2990    -5.2350     0.9500 N.pl3 1 <1>   0.3000 
 15 C        4.5330    -4.9050     1.3860 C.2   1 <1>  -0.3320 
 16 C        7.0360     1.0090    -0.4970 C.ar  1 <1>   0.6200 
 17 C        6.4080     2.8260     0.6430 C.ar  1 <1>   0.1670 
 18 C        4.2040     3.3650     1.3470 C.3   1 <1>  -0.0170 
 19 C        5.2540    -5.6090     2.5210 C.3   1 <1>  -0.0600 
 20 N        7.3910     2.1620     0.0850 N.ar  1 <1>  -0.6200 
 21 C        8.0950     0.2310    -1.1250 C.ar  1 <1>   0.0000 
 22 C        6.5580     4.1420     1.3580 C.3   1 <1>  -0.0170 
 23 C        5.1710     4.3760     1.9930 C.3   1 <1>  -0.1600 
 24 C        9.1960     0.8440    -1.7300 C.ar  1 <1>  -0.1500 
 25 C        8.0570    -1.1660    -1.1530 C.ar  1 <1>  -0.1500 
 26 C       10.2010     0.1070    -2.3300 C.ar  1 <1>  -0.1500 
 27 C        9.0570    -1.9100    -1.7520 C.ar  1 <1>  -0.1500 
 28 C       10.1330    -1.2740    -2.3430 C.ar  1 <1>  -0.1500 
 29 H        1.6360    -1.4250    -3.1650 H     1 <1>   0.4000 
 30 H        3.6870    -0.4080    -2.6940 H     1 <1>   0.0800 
 31 H        1.9180    -1.8500    -0.7790 H     1 <1>   0.0800 
 32 H        1.8220     1.2860    -1.0910 H     1 <1>   0.0800 
 33 H        3.3210     1.7360    -1.9050 H     1 <1>   0.0800 
 34 H        4.1950    -1.1160     0.7720 H     1 <1>   0.0800 
 35 H        2.5170    -0.7250     1.0520 H     1 <1>   0.0800 
 36 H        4.8630    -2.1510    -1.4440 H     1 <1>   0.0800 
 37 H        3.5750    -3.0030    -2.2480 H     1 <1>   0.0800 
 38 H        5.8730    -3.3290     0.6660 H     1 <1>   0.1500 
 39 H        2.7060    -5.9880     1.3210 H     1 <1>   0.2700 
 40 H        3.5630     3.8440     0.6270 H     1 <1>   0.0800 
 41 H        3.6060     2.8560     2.0830 H     1 <1>   0.0800 
 42 H        6.2210    -5.1660     2.6750 H     1 <1>   0.0800 
 43 H        5.3870    -6.6510     2.2890 H     1 <1>   0.0800 
 44 H        4.6880    -5.5210     3.4320 H     1 <1>   0.0800 
 45 H        7.3320     4.0860     2.1030 H     1 <1>   0.0800 
 46 H        6.7940     4.9100     0.6430 H     1 <1>   0.0800 
 47 H        5.2320     4.1760     3.0490 H     1 <1>   0.0800 
 48 H        4.8370     5.3880     1.8480 H     1 <1>   0.0800 
 49 H        9.2630     1.9180    -1.7270 H     1 <1>   0.1500 
 50 H        7.2290    -1.6750    -0.6940 H     1 <1>   0.1500 
 51 H       11.0360     0.6090    -2.7860 H     1 <1>   0.1500 
 52 H        9.0000    -2.9850    -1.7580 H     1 <1>   0.1500 
 53 H       10.9130    -1.8500    -2.8090 H     1 <1>   0.1500 
@<TRIPOS>BOND
  1   1   2  1   
  2   1  29  1   
  3   2   3  1   
  4   2   4  1   
  5   2  30  1   
  6   3   5  1   
  7   3   6  1   
  8   3  31  1   
  9   4   7  1   
 10   4  32  1   
 11   4  33  1   
 12   5   7  1   
 13   5  34  1   
 14   5  35  1   
 15   6   8  1   
 16   6  36  1   
 17   6  37  1   
 18   7   9  1   
 19   8  10  2   
 20   8  11  1   
 21   9  12  ar  
 22   9  13  ar  
 23  10  14  1   
 24  11  15  2   
 25  11  38  1   
 26  12  16  ar  
 27  13  17  ar  
 28  13  18  1   
 29  14  15  1   
 30  14  39  1   
 31  15  19  1   
 32  16  20  ar  
 33  16  21  1   
 34  17  20  ar  
 35  17  22  1   
 36  18  23  1   
 37  18  40  1   
 38  18  41  1   
 39  19  42  1   
 40  19  43  1   
 41  19  44  1   
 42  21  24  ar  
 43  21  25  ar  
 44  22  23  1   
 45  22  45  1   
 46  22  46  1   
 47  23  47  1   
 48  23  48  1   
 49  24  26  ar  
 50  24  49  1   
 51  25  27  ar  
 52  25  50  1   
 53  26  28  ar  
 54  26  51  1   
 55  27  28  ar  
 56  27  52  1   
 57  28  53  1   
@<TRIPOS>SUBSTRUCTURE
  1 ****  12 GROUP 4 **** **** 0

# MOE 2024.06 (io_trps.svl 2023.06)
