@<TRIPOS>MOLECULE
NONAME
53 56 1 0 0 
SMALL
USER_CHARGES


@<TRIPOS>ATOM
  1 O        4.5800    -1.4900    -0.3920 O.2   1 <1>  -0.5700 
  2 C        3.4410    -1.0990    -0.2750 C.2   1 <1>   0.5690 
  3 N        3.1200     0.1530    -0.7220 N.am  1 <1>  -0.6600 
  4 C        2.4070    -1.9630     0.4380 C.3   1 <1>  -0.0190 
  5 C        3.8010     0.7250    -1.9320 C.3   1 <1>   0.1400 
  6 C        2.4920     1.1570     0.1730 C.3   1 <1>   0.1400 
  7 C        2.7100    -2.1380     1.9150 C.3   1 <1>   0.1200 
  8 C        2.3300    -3.4090    -0.0380 C.3   1 <1>  -0.1600 
  9 C        5.2630     1.1450    -1.6680 C.3   1 <1>   0.3430 
 10 C        3.5370     1.6980     1.1610 C.3   1 <1>  -0.1600 
 11 O        2.0150    -3.2790     2.2820 O.3   1 <1>  -0.5600 
 12 C        1.9680    -4.1880     1.2260 C.3   1 <1>   0.1200 
 13 N        5.5710     1.2290    -0.2050 N.4   1 <1>  -0.9590 
 14 C        4.8070     2.2800     0.5240 C.3   1 <1>   0.3430 
 15 C        7.0290     1.2500     0.0620 C.3   1 <1>   0.5230 
 16 C        7.6880     2.5120    -0.4600 C.2   1 <1>  -0.3320 
 17 N        9.0380     2.6230    -0.3550 N.pl3 1 <1>   0.5930 
 18 C        7.2390     3.6490    -1.0450 C.2   1 <1>  -0.1500 
 19 N        9.4490     3.8050    -0.8570 N.2   1 <1>  -0.7070 
 20 C        9.9090     1.6580     0.2130 C.ar  1 <1>  -0.0230 
 21 C        8.3810     4.4080    -1.2650 C.2   1 <1>   0.1390 
 22 C       10.3330     0.5620    -0.5320 C.ar  1 <1>  -0.1500 
 23 C       10.3280     1.7780     1.5340 C.ar  1 <1>  -0.1500 
 24 C       11.1360    -0.4080     0.0410 C.ar  1 <1>  -0.1500 
 25 C       11.1310     0.8090     2.1070 C.ar  1 <1>  -0.1500 
 26 C       11.5320    -0.2870     1.3620 C.ar  1 <1>  -0.1500 
 27 H        1.4320    -1.5210     0.3420 H     1 <1>   0.0800 
 28 H        3.2450     1.5720    -2.2940 H     1 <1>   0.0800 
 29 H        3.7930    -0.0120    -2.7180 H     1 <1>   0.0800 
 30 H        1.6780     0.7080     0.7190 H     1 <1>   0.0800 
 31 H        2.0790     1.9610    -0.4130 H     1 <1>   0.0800 
 32 H        2.3720    -1.3110     2.5150 H     1 <1>   0.0800 
 33 H        3.7580    -2.3230     2.0830 H     1 <1>   0.0800 
 34 H        3.2820    -3.7570    -0.3990 H     1 <1>   0.0800 
 35 H        1.5940    -3.5440    -0.8100 H     1 <1>   0.0800 
 36 H        5.4690     2.0820    -2.1570 H     1 <1>   0.0800 
 37 H        5.9010     0.4010    -2.1150 H     1 <1>   0.0800 
 38 H        3.8090     0.9270     1.8610 H     1 <1>   0.0800 
 39 H        3.0700     2.4780     1.7350 H     1 <1>   0.0800 
 40 H        2.6750    -4.9770     1.4220 H     1 <1>   0.0800 
 41 H        0.9710    -4.5930     1.1780 H     1 <1>   0.0800 
 42 H        5.2250     0.3100     0.1370 H     1 <1>   0.4500 
 43 H        5.4240     2.6940     1.3060 H     1 <1>   0.0800 
 44 H        4.5470     3.0820    -0.1480 H     1 <1>   0.0800 
 45 H        7.4880     0.3920    -0.4040 H     1 <1>   0.0800 
 46 H        7.2020     1.1730     1.1240 H     1 <1>   0.0800 
 47 H        6.2480     3.9710    -1.3090 H     1 <1>   0.1500 
 48 H        8.3930     5.3870    -1.7210 H     1 <1>   0.1500 
 49 H       10.0450     0.4670    -1.5650 H     1 <1>   0.1500 
 50 H       10.0320     2.6360     2.1160 H     1 <1>   0.1500 
 51 H       11.4610    -1.2550    -0.5390 H     1 <1>   0.1500 
 52 H       11.4530     0.9070     3.1300 H     1 <1>   0.1500 
 53 H       12.1590    -1.0410     1.8080 H     1 <1>   0.1500 
@<TRIPOS>BOND
  1   1   2  2   
  2   2   3  am  
  3   2   4  1   
  4   3   5  1   
  5   3   6  1   
  6   4   7  1   
  7   4   8  1   
  8   4  27  1   
  9   5   9  1   
 10   5  28  1   
 11   5  29  1   
 12   6  10  1   
 13   6  30  1   
 14   6  31  1   
 15   7  11  1   
 16   7  32  1   
 17   7  33  1   
 18   8  12  1   
 19   8  34  1   
 20   8  35  1   
 21   9  13  1   
 22   9  36  1   
 23   9  37  1   
 24  10  14  1   
 25  10  38  1   
 26  10  39  1   
 27  11  12  1   
 28  12  40  1   
 29  12  41  1   
 30  13  14  1   
 31  13  15  1   
 32  13  42  1   
 33  14  43  1   
 34  14  44  1   
 35  15  16  1   
 36  15  45  1   
 37  15  46  1   
 38  16  17  1   
 39  16  18  2   
 40  17  19  1   
 41  17  20  1   
 42  18  21  1   
 43  18  47  1   
 44  19  21  2   
 45  20  22  ar  
 46  20  23  ar  
 47  21  48  1   
 48  22  24  ar  
 49  22  49  1   
 50  23  25  ar  
 51  23  50  1   
 52  24  26  ar  
 53  24  51  1   
 54  25  26  ar  
 55  25  52  1   
 56  26  53  1   
@<TRIPOS>SUBSTRUCTURE
  1 ****  13 GROUP 4 **** **** 0

# MOE 2024.06 (io_trps.svl 2023.06)
