@<TRIPOS>MOLECULE
NONAME
56 60 1 0 0 
SMALL
USER_CHARGES


@<TRIPOS>ATOM
  1 O        2.0490     0.0610     0.2790 O.3   1 <1>  -0.5600 
  2 C        2.7670    -1.1040     0.6210 C.3   1 <1>   0.4600 
  3 C        0.6800     0.1330     0.6090 C.3   1 <1>   0.1200 
  4 C        1.8910    -2.3300     0.4050 C.2   1 <1>  -0.3320 
  5 C        3.2430    -0.9800     2.0780 C.3   1 <1>  -0.1600 
  6 C        3.9770    -1.1350    -0.3110 C.3   1 <1>  -0.1600 
  7 C       -0.1260    -0.9540    -0.1170 C.3   1 <1>   0.0210 
  8 N        2.2660    -3.6440     0.5020 N.pl3 1 <1>   0.0330 
  9 C        0.5870    -2.2700     0.0670 C.2   1 <1>  -0.1810 
 10 C        4.4660    -0.0720     2.2540 C.3   1 <1>   0.3430 
 11 C        4.7960     0.1560    -0.2260 C.3   1 <1>   0.3430 
 12 C        1.1720    -4.4210     0.2150 C.ar  1 <1>  -0.1520 
 13 C        0.0960    -3.5840    -0.0670 C.ar  1 <1>   0.0000 
 14 N        4.6180     0.8320     1.0910 N.4   1 <1>  -0.9590 
 15 C        1.0280    -5.8110     0.1740 C.ar  1 <1>  -0.1500 
 16 C       -1.1450    -4.1380    -0.3960 C.ar  1 <1>  -0.1500 
 17 C        5.5590     1.9640     1.2910 C.3   1 <1>   0.5240 
 18 C       -0.1990    -6.3420    -0.1500 C.ar  1 <1>  -0.1500 
 19 C       -1.2850    -5.5060    -0.4360 C.ar  1 <1>  -0.1500 
 20 C        5.1200     3.0800     0.3570 C.2   1 <1>   0.0460 
 21 N        3.8100     3.3950     0.2870 N.2   1 <1>  -0.5650 
 22 C        5.8500     3.8490    -0.4840 C.2   1 <1>  -0.3320 
 23 C        3.7630     4.3500    -0.5820 C.2   1 <1>   0.0060 
 24 N        4.9720     4.6740    -1.0890 N.pl3 1 <1>   0.0330 
 25 C        7.3400     3.8910    -0.7800 C.3   1 <1>  -0.0600 
 26 C        2.4840     5.0510    -1.0060 C.3   1 <1>   0.0200 
 27 C        2.4580     6.5060    -0.5270 C.3   1 <1>  -0.2400 
 28 H        0.3240     1.1090     0.3280 H     1 <1>   0.0800 
 29 H        0.5750     0.0220     1.6740 H     1 <1>   0.0800 
 30 H        3.5090    -1.9530     2.4460 H     1 <1>   0.0800 
 31 H        2.4380    -0.6340     2.6980 H     1 <1>   0.0800 
 32 H        3.6450    -1.2840    -1.3230 H     1 <1>   0.0800 
 33 H        4.6050    -1.9690    -0.0580 H     1 <1>   0.0800 
 34 H       -0.2010    -0.7220    -1.1640 H     1 <1>   0.0800 
 35 H       -1.1170    -1.0080     0.2960 H     1 <1>   0.0800 
 36 H        3.1920    -4.0190     0.7280 H     1 <1>   0.2700 
 37 H        5.3510    -0.6800     2.3470 H     1 <1>   0.0800 
 38 H        4.3530     0.5020     3.1600 H     1 <1>   0.0800 
 39 H        4.4620     0.8300    -1.0010 H     1 <1>   0.0800 
 40 H        5.8360    -0.0660    -0.4000 H     1 <1>   0.0800 
 41 H        3.7060     1.3260     0.9700 H     1 <1>   0.4500 
 42 H        1.8650    -6.4480     0.3930 H     1 <1>   0.1500 
 43 H       -1.9690    -3.4850    -0.6140 H     1 <1>   0.1500 
 44 H        6.5730     1.6690     1.0830 H     1 <1>   0.0800 
 45 H        5.4920     2.3240     2.3030 H     1 <1>   0.0800 
 46 H       -0.3360    -7.4090    -0.1880 H     1 <1>   0.1500 
 47 H       -2.2330    -5.9470    -0.6870 H     1 <1>   0.1500 
 48 H        5.1660     5.4030    -1.7820 H     1 <1>   0.2700 
 49 H        7.8720     3.1660    -0.1920 H     1 <1>   0.0800 
 50 H        7.7340     4.8660    -0.5530 H     1 <1>   0.0800 
 51 H        7.5180     3.6830    -1.8210 H     1 <1>   0.0800 
 52 H        1.6440     4.5260    -0.5860 H     1 <1>   0.0800 
 53 H        2.3920     5.0150    -2.0770 H     1 <1>   0.0800 
 54 H        2.5530     6.5400     0.5450 H     1 <1>   0.0800 
 55 H        1.5280     6.9690    -0.8040 H     1 <1>   0.0800 
 56 H        3.2650     7.0660    -0.9640 H     1 <1>   0.0800 
@<TRIPOS>BOND
  1   1   2  1   
  2   1   3  1   
  3   2   4  1   
  4   2   5  1   
  5   2   6  1   
  6   3   7  1   
  7   3  28  1   
  8   3  29  1   
  9   4   8  1   
 10   4   9  2   
 11   5  10  1   
 12   5  30  1   
 13   5  31  1   
 14   6  11  1   
 15   6  32  1   
 16   6  33  1   
 17   7   9  1   
 18   7  34  1   
 19   7  35  1   
 20   8  12  1   
 21   8  36  1   
 22   9  13  1   
 23  10  14  1   
 24  10  37  1   
 25  10  38  1   
 26  11  14  1   
 27  11  39  1   
 28  11  40  1   
 29  12  13  ar  
 30  12  15  ar  
 31  13  16  ar  
 32  14  17  1   
 33  14  41  1   
 34  15  18  ar  
 35  15  42  1   
 36  16  19  ar  
 37  16  43  1   
 38  17  20  1   
 39  17  44  1   
 40  17  45  1   
 41  18  19  ar  
 42  18  46  1   
 43  19  47  1   
 44  20  21  1   
 45  20  22  2   
 46  21  23  2   
 47  22  24  1   
 48  22  25  1   
 49  23  24  1   
 50  23  26  1   
 51  24  48  1   
 52  25  49  1   
 53  25  50  1   
 54  25  51  1   
 55  26  27  1   
 56  26  52  1   
 57  26  53  1   
 58  27  54  1   
 59  27  55  1   
 60  27  56  1   
@<TRIPOS>SUBSTRUCTURE
  1 ****   1 GROUP 4 **** **** 0

# MOE 2024.06 (io_trps.svl 2023.06)
