@<TRIPOS>MOLECULE
NONAME
56 59 1 0 0 
SMALL
USER_CHARGES


@<TRIPOS>ATOM
  1 S       -1.0010     0.2840     0.6180 S.o2  1 <1>   1.2950 
  2 O       -1.7430    -0.5490     1.5520 O.2   1 <1>  -0.6500 
  3 O       -0.7540     1.6710     0.9470 O.2   1 <1>  -0.6500 
  4 N       -1.8500     0.1910    -0.9410 N.pl3 1 <1>   0.3170 
  5 C        0.5580    -0.5420     0.2110 C.ar  1 <1>  -0.0090 
  6 C       -2.5120    -0.8860    -1.5020 C.2   1 <1>  -0.3320 
  7 C       -1.9340     1.1900    -1.8740 C.2   1 <1>  -0.3020 
  8 C        1.3360    -0.1230    -0.8630 C.ar  1 <1>  -0.1500 
  9 C        1.0110    -1.6230     0.9620 C.ar  1 <1>  -0.1500 
 10 C       -2.9770    -0.5550    -2.7370 C.2   1 <1>  -0.1500 
 11 C       -2.6770    -2.2330    -0.8250 C.3   1 <1>   0.5230 
 12 C       -2.6090     0.7700    -2.9720 C.2   1 <1>  -0.1500 
 13 C        2.5120    -0.7730    -1.1920 C.ar  1 <1>  -0.1500 
 14 C        2.1880    -2.2760     0.6390 C.ar  1 <1>  -0.1500 
 15 N       -3.6340    -2.1060     0.2970 N.4   1 <1>  -0.9590 
 16 C        2.9380    -1.8530    -0.4420 C.ar  1 <1>  -0.1500 
 17 C       -4.9390    -1.4920    -0.1040 C.3   1 <1>   0.3430 
 18 C       -3.9260    -3.4050     0.9750 C.3   1 <1>   0.3430 
 19 C       -5.9930    -2.2290     0.7060 C.3   1 <1>  -0.0800 
 20 C       -5.4250    -3.6500     0.7960 C.3   1 <1>  -0.0800 
 21 C       -7.4170    -2.1170     0.1180 C.3   1 <1>   0.2800 
 22 C       -5.6780    -4.4860    -0.4770 C.3   1 <1>  -0.1600 
 23 O       -7.5810    -0.8100    -0.2800 O.3   1 <1>  -0.6800 
 24 C       -7.5820    -2.9790    -1.1460 C.3   1 <1>  -0.1600 
 25 C       -8.5220    -2.4420     1.1530 C.3   1 <1>  -0.1600 
 26 C       -7.1410    -4.4330    -0.9220 C.3   1 <1>  -0.1600 
 27 C       -8.6520    -1.4720     2.3440 C.3   1 <1>  -0.2400 
 28 H       -1.5030     2.1630    -1.6960 H     1 <1>   0.1500 
 29 H        1.0310     0.7250    -1.4550 H     1 <1>   0.1500 
 30 H        0.4480    -1.9600     1.8160 H     1 <1>   0.1500 
 31 H       -3.5280    -1.1590    -3.4420 H     1 <1>   0.1500 
 32 H       -1.7250    -2.5910    -0.4660 H     1 <1>   0.0800 
 33 H       -3.0570    -2.9430    -1.5420 H     1 <1>   0.0800 
 34 H       -2.8350     1.3290    -3.8670 H     1 <1>   0.1500 
 35 H        3.1020    -0.4350    -2.0280 H     1 <1>   0.1500 
 36 H        2.5270    -3.1110     1.2300 H     1 <1>   0.1500 
 37 H       -3.1950    -1.4870     1.0070 H     1 <1>   0.4500 
 38 H        3.8550    -2.3590    -0.6960 H     1 <1>   0.1500 
 39 H       -4.9650    -0.4320     0.0930 H     1 <1>   0.0800 
 40 H       -5.1200    -1.6560    -1.1530 H     1 <1>   0.0800 
 41 H       -3.3480    -4.2160     0.5630 H     1 <1>   0.0800 
 42 H       -3.7030    -3.3150     2.0270 H     1 <1>   0.0800 
 43 H       -5.9870    -1.7940     1.6880 H     1 <1>   0.0800 
 44 H       -5.8300    -4.1690     1.6480 H     1 <1>   0.0800 
 45 H       -5.0690    -4.1300    -1.2900 H     1 <1>   0.0800 
 46 H       -5.4030    -5.5120    -0.2940 H     1 <1>   0.0800 
 47 H       -8.5250    -0.6490    -0.4790 H     1 <1>   0.4000 
 48 H       -8.6100    -2.9730    -1.4650 H     1 <1>   0.0800 
 49 H       -6.9940    -2.5650    -1.9470 H     1 <1>   0.0800 
 50 H       -9.4720    -2.4740     0.6480 H     1 <1>   0.0800 
 51 H       -8.3540    -3.4280     1.5460 H     1 <1>   0.0800 
 52 H       -7.7680    -4.9030    -0.1840 H     1 <1>   0.0800 
 53 H       -7.2570    -4.9850    -1.8400 H     1 <1>   0.0800 
 54 H       -8.8150    -0.4630     2.0060 H     1 <1>   0.0800 
 55 H       -7.7780    -1.4900     2.9670 H     1 <1>   0.0800 
 56 H       -9.4940    -1.7570     2.9510 H     1 <1>   0.0800 
@<TRIPOS>BOND
  1   1   2  2   
  2   1   3  2   
  3   1   4  1   
  4   1   5  1   
  5   4   6  1   
  6   4   7  1   
  7   5   8  ar  
  8   5   9  ar  
  9   6  10  2   
 10   6  11  1   
 11   7  12  2   
 12   7  28  1   
 13   8  13  ar  
 14   8  29  1   
 15   9  14  ar  
 16   9  30  1   
 17  10  12  1   
 18  10  31  1   
 19  11  15  1   
 20  11  32  1   
 21  11  33  1   
 22  12  34  1   
 23  13  16  ar  
 24  13  35  1   
 25  14  16  ar  
 26  14  36  1   
 27  15  17  1   
 28  15  18  1   
 29  15  37  1   
 30  16  38  1   
 31  17  19  1   
 32  17  39  1   
 33  17  40  1   
 34  18  20  1   
 35  18  41  1   
 36  18  42  1   
 37  19  20  1   
 38  19  21  1   
 39  19  43  1   
 40  20  22  1   
 41  20  44  1   
 42  21  23  1   
 43  21  24  1   
 44  21  25  1   
 45  22  26  1   
 46  22  45  1   
 47  22  46  1   
 48  23  47  1   
 49  24  26  1   
 50  24  48  1   
 51  24  49  1   
 52  25  27  1   
 53  25  50  1   
 54  25  51  1   
 55  26  52  1   
 56  26  53  1   
 57  27  54  1   
 58  27  55  1   
 59  27  56  1   
@<TRIPOS>SUBSTRUCTURE
  1 ****  15 GROUP 4 **** **** 0

# MOE 2024.06 (io_trps.svl 2023.06)
