@<TRIPOS>MOLECULE
NONAME
57 60 1 0 0 
SMALL
USER_CHARGES


@<TRIPOS>ATOM
  1 O       -1.4020    -3.2250    -0.7410 O.co2 1 <1>  -0.9000 
  2 C       -1.0900    -3.2830     0.4540 C.2   1 <1>   1.0330 
  3 O       -2.0170    -3.6030     1.2290 O.co2 1 <1>  -0.9000 
  4 C        0.2760    -3.2960     0.8800 C.2   1 <1>  -0.2330 
  5 C        0.7170    -3.9690     2.0190 C.2   1 <1>   0.3720 
  6 C        1.4300    -2.8060     0.3480 C.2   1 <1>   0.0870 
  7 N        1.9940    -3.9450     2.1280 N.2   1 <1>  -0.4100 
  8 N       -0.1230    -4.5870     2.9320 N.pl3 1 <1>  -0.8520 
  9 O        2.4080    -3.2270     1.1180 O.3   1 <1>  -0.0190 
 10 C        1.7590    -1.9820    -0.7900 C.ar  1 <1>   0.0530 
 11 C       -0.0760    -6.0560     3.0230 C.3   1 <1>   0.2090 
 12 C        2.7020    -0.9620    -0.6590 C.ar  1 <1>  -0.1500 
 13 C        1.1870    -2.1620    -2.0490 C.ar  1 <1>  -0.1500 
 14 C       -1.3280    -6.6280     2.3520 C.3   1 <1>  -0.1600 
 15 C        3.0550    -0.1570    -1.7260 C.ar  1 <1>  -0.1500 
 16 C        1.5320    -1.3600    -3.1210 C.ar  1 <1>  -0.1500 
 17 C       -1.2170    -6.5400     0.8210 C.3   1 <1>   0.4230 
 18 C        2.4680    -0.3550    -2.9630 C.ar  1 <1>  -0.1500 
 19 N       -2.4680    -6.0680     0.1530 N.4   1 <1>  -0.9590 
 20 C       -0.6990    -7.8370     0.1820 C.3   1 <1>  -0.1600 
 21 C       -3.7690    -6.5910     0.6480 C.3   1 <1>   0.4230 
 22 C       -2.3640    -5.9430    -1.3410 C.3   1 <1>   0.3430 
 23 C       -0.5720    -7.7430    -1.3510 C.3   1 <1>  -0.1600 
 24 C       -4.2120    -7.9000    -0.0220 C.3   1 <1>  -0.1600 
 25 C       -4.8840    -5.5730     0.3780 C.3   1 <1>  -0.1600 
 26 C       -0.9910    -6.3630    -1.8800 C.3   1 <1>  -0.1600 
 27 C       -5.4200    -7.5580    -0.8970 C.3   1 <1>  -0.1600 
 28 C       -6.0580    -6.3570    -0.2100 C.3   1 <1>  -0.1600 
 29 H       -1.0860    -4.2560     2.7170 H     1 <1>   0.4000 
 30 H       -0.0640    -6.3270     4.0650 H     1 <1>   0.0800 
 31 H        0.8240    -6.4360     2.5670 H     1 <1>   0.0800 
 32 H        3.1620    -0.8000     0.3000 H     1 <1>   0.1500 
 33 H        0.4630    -2.9420    -2.1930 H     1 <1>   0.1500 
 34 H       -2.1650    -6.0660     2.7240 H     1 <1>   0.0800 
 35 H       -1.4490    -7.6530     2.6530 H     1 <1>   0.0800 
 36 H        3.7840     0.6230    -1.5950 H     1 <1>   0.1500 
 37 H        1.0680    -1.5200    -4.0790 H     1 <1>   0.1500 
 38 H       -0.4710    -5.7900     0.6160 H     1 <1>   0.0800 
 39 H        2.7370     0.2700    -3.7970 H     1 <1>   0.1500 
 40 H       -2.4870    -5.0590     0.4560 H     1 <1>   0.4500 
 41 H       -1.3410    -8.6580     0.4480 H     1 <1>   0.0800 
 42 H        0.2720    -8.0500     0.5950 H     1 <1>   0.0800 
 43 H       -3.7180    -6.7550     1.7100 H     1 <1>   0.0800 
 44 H       -2.5610    -4.9210    -1.6280 H     1 <1>   0.0800 
 45 H       -3.1120    -6.5580    -1.8070 H     1 <1>   0.0800 
 46 H       -1.1930    -8.4980    -1.8030 H     1 <1>   0.0800 
 47 H        0.4450    -7.9420    -1.6460 H     1 <1>   0.0800 
 48 H       -4.5360    -8.5720     0.7530 H     1 <1>   0.0800 
 49 H       -3.4380    -8.3840    -0.5860 H     1 <1>   0.0800 
 50 H       -4.5700    -4.8200    -0.3240 H     1 <1>   0.0800 
 51 H       -5.1720    -5.0800     1.2900 H     1 <1>   0.0800 
 52 H       -0.2650    -5.6160    -1.6040 H     1 <1>   0.0800 
 53 H       -1.0290    -6.3800    -2.9540 H     1 <1>   0.0800 
 54 H       -6.1060    -8.3840    -0.9810 H     1 <1>   0.0800 
 55 H       -5.0950    -7.2750    -1.8840 H     1 <1>   0.0800 
 56 H       -6.6410    -5.7620    -0.8920 H     1 <1>   0.0800 
 57 H       -6.6980    -6.6990     0.5870 H     1 <1>   0.0800 
@<TRIPOS>BOND
  1   1   2  ar  
  2   2   3  ar  
  3   2   4  1   
  4   4   5  1   
  5   4   6  2   
  6   5   7  2   
  7   5   8  1   
  8   6   9  1   
  9   6  10  1   
 10   7   9  1   
 11   8  11  1   
 12   8  29  1   
 13  10  12  ar  
 14  10  13  ar  
 15  11  14  1   
 16  11  30  1   
 17  11  31  1   
 18  12  15  ar  
 19  12  32  1   
 20  13  16  ar  
 21  13  33  1   
 22  14  17  1   
 23  14  34  1   
 24  14  35  1   
 25  15  18  ar  
 26  15  36  1   
 27  16  18  ar  
 28  16  37  1   
 29  17  19  1   
 30  17  20  1   
 31  17  38  1   
 32  18  39  1   
 33  19  21  1   
 34  19  22  1   
 35  19  40  1   
 36  20  23  1   
 37  20  41  1   
 38  20  42  1   
 39  21  24  1   
 40  21  25  1   
 41  21  43  1   
 42  22  26  1   
 43  22  44  1   
 44  22  45  1   
 45  23  26  1   
 46  23  46  1   
 47  23  47  1   
 48  24  27  1   
 49  24  48  1   
 50  24  49  1   
 51  25  28  1   
 52  25  50  1   
 53  25  51  1   
 54  26  52  1   
 55  26  53  1   
 56  27  28  1   
 57  27  54  1   
 58  27  55  1   
 59  28  56  1   
 60  28  57  1   
@<TRIPOS>SUBSTRUCTURE
  1 ****   2 GROUP 4 **** **** 0

# MOE 2024.06 (io_trps.svl 2023.06)
