@<TRIPOS>MOLECULE
NONAME
36 38 1 0 0 
SMALL
USER_CHARGES


@<TRIPOS>ATOM
  1 O       -0.0050     0.8670    -1.2780 O.3   1 <1>  -0.6800 
  2 C        0.2510     1.4940    -0.0590 C.3   1 <1>   0.2000 
  3 C       -0.9180     2.4390     0.2870 C.3   1 <1>  -0.0800 
  4 C        1.5850     2.2770    -0.1470 C.3   1 <1>   0.2090 
  5 C       -1.0620     3.5610    -0.7740 C.3   1 <1>  -0.1600 
  6 C       -2.2300     1.6750     0.5210 C.3   1 <1>   0.1200 
  7 N        1.3930     3.7270    -0.4910 N.pl3 1 <1>  -0.8380 
  8 C        0.2700     3.9670    -1.4310 C.3   1 <1>   0.2090 
  9 O       -3.2250     2.5580     0.9020 O.3   1 <1>  -0.6800 
 10 C        2.4570     4.5990    -0.4290 C.ar  1 <1>   0.4100 
 11 N        3.6270     4.1170    -0.7360 N.ar  1 <1>  -0.6200 
 12 C        2.2840     5.9600    -0.0600 C.ar  1 <1>   0.0000 
 13 C        4.6420     4.9850    -0.7680 C.ar  1 <1>   0.4700 
 14 C        3.4220     6.7680    -0.1500 C.ar  1 <1>   0.3100 
 15 C        1.0870     6.5430     0.4050 C.ar  1 <1>  -0.1500 
 16 N        4.6140     6.2540    -0.5160 N.ar  1 <1>  -0.6200 
 17 C        3.3260     8.1310     0.1630 C.ar  1 <1>  -0.1500 
 18 C        1.0140     7.8770     0.7150 C.ar  1 <1>  -0.1500 
 19 C        2.1450     8.6840     0.5860 C.ar  1 <1>  -0.1500 
 20 H       -0.8690     0.4150    -1.2620 H     1 <1>   0.4000 
 21 H        0.3490     0.7180     0.6810 H     1 <1>   0.0800 
 22 H       -0.6490     2.9070     1.2190 H     1 <1>   0.0800 
 23 H        2.2340     1.8120    -0.8690 H     1 <1>   0.0800 
 24 H        2.0730     2.2330     0.8110 H     1 <1>   0.0800 
 25 H       -1.5090     4.4250    -0.3180 H     1 <1>   0.0800 
 26 H       -1.7260     3.2420    -1.5570 H     1 <1>   0.0800 
 27 H       -2.1170     0.9410     1.3010 H     1 <1>   0.0800 
 28 H       -2.5600     1.1860    -0.3800 H     1 <1>   0.0800 
 29 H        0.2410     4.9960    -1.7440 H     1 <1>   0.0800 
 30 H        0.4330     3.3620    -2.3080 H     1 <1>   0.0800 
 31 H       -2.9620     3.0520     1.7020 H     1 <1>   0.4000 
 32 H        5.5930     4.5610    -1.0440 H     1 <1>   0.1500 
 33 H        0.2220     5.9170     0.5210 H     1 <1>   0.1500 
 34 H        4.2130     8.7300     0.0650 H     1 <1>   0.1500 
 35 H        0.0930     8.3120     1.0610 H     1 <1>   0.1500 
 36 H        2.0800     9.7320     0.8250 H     1 <1>   0.1500 
@<TRIPOS>BOND
  1   1   2  1   
  2   1  20  1   
  3   2   3  1   
  4   2   4  1   
  5   2  21  1   
  6   3   5  1   
  7   3   6  1   
  8   3  22  1   
  9   4   7  1   
 10   4  23  1   
 11   4  24  1   
 12   5   8  1   
 13   5  25  1   
 14   5  26  1   
 15   6   9  1   
 16   6  27  1   
 17   6  28  1   
 18   7   8  1   
 19   7  10  1   
 20   8  29  1   
 21   8  30  1   
 22   9  31  1   
 23  10  11  ar  
 24  10  12  ar  
 25  11  13  ar  
 26  12  14  ar  
 27  12  15  ar  
 28  13  16  ar  
 29  13  32  1   
 30  14  16  ar  
 31  14  17  ar  
 32  15  18  ar  
 33  15  33  1   
 34  17  19  ar  
 35  17  34  1   
 36  18  19  ar  
 37  18  35  1   
 38  19  36  1   
@<TRIPOS>SUBSTRUCTURE
  1 ****   7 GROUP 4 **** **** 0

# MOE 2024.06 (io_trps.svl 2023.06)
