@<TRIPOS>MOLECULE
NONAME
33 33 1 0 0 
SMALL
USER_CHARGES


@<TRIPOS>ATOM
  1 O       -0.3910    -1.7400     0.1290 O.2   1 <1>  -0.5200 
  2 N       -1.2190    -1.0420     0.7280 N.pl3 1 <1>   0.8000 
  3 O       -0.9940     0.1270     1.0660 O.2   1 <1>  -0.5200 
  4 C       -2.5090    -1.6490     1.1060 C.3   1 <1>   0.0800 
  5 C       -3.6470    -1.4500     0.0620 C.3   1 <1>   0.0000 
  6 C       -4.8990    -2.2060     0.5690 C.3   1 <1>  -0.1600 
  7 C       -3.2740    -2.0680    -1.3070 C.3   1 <1>  -0.1600 
  8 C       -3.9410     0.0700    -0.0850 C.3   1 <1>  -0.0990 
  9 C       -4.7200    -3.7310     0.5340 C.3   1 <1>   0.1200 
 10 C       -3.1570    -3.5960    -1.2380 C.3   1 <1>   0.1200 
 11 C       -5.1150     0.4330    -0.9760 C.2   1 <1>   0.6590 
 12 O       -4.3520    -4.1250    -0.7500 O.3   1 <1>  -0.5600 
 13 O       -4.9730     0.6420    -2.1520 O.2   1 <1>  -0.5700 
 14 O       -6.2940     0.5210    -0.3750 O.3   1 <1>  -0.4300 
 15 C       -7.4580     0.8490    -1.0960 C.3   1 <1>   0.1200 
 16 C       -8.6360     0.8300    -0.1260 C.3   1 <1>  -0.2400 
 17 H       -2.8020    -1.2180     2.0450 H     1 <1>   0.0800 
 18 H       -2.3230    -2.6910     1.2740 H     1 <1>   0.0800 
 19 H       -5.7490    -1.9880    -0.0530 H     1 <1>   0.0800 
 20 H       -5.1500    -1.8970     1.5680 H     1 <1>   0.0800 
 21 H       -2.3550    -1.6560    -1.6840 H     1 <1>   0.0800 
 22 H       -4.0330    -1.8440    -2.0360 H     1 <1>   0.0800 
 23 H       -3.0820     0.5680    -0.4960 H     1 <1>   0.0800 
 24 H       -4.1240     0.5010     0.8830 H     1 <1>   0.0800 
 25 H       -5.6510    -4.2200     0.7650 H     1 <1>   0.0800 
 26 H       -3.9730    -4.0760     1.2260 H     1 <1>   0.0800 
 27 H       -2.3480    -3.9150    -0.6040 H     1 <1>   0.0800 
 28 H       -3.0010    -4.0010    -2.2230 H     1 <1>   0.0800 
 29 H       -7.5910     0.1220    -1.8800 H     1 <1>   0.0800 
 30 H       -7.3270     1.8270    -1.5290 H     1 <1>   0.0800 
 31 H       -8.7470    -0.1490     0.3030 H     1 <1>   0.0800 
 32 H       -9.5400     1.0790    -0.6510 H     1 <1>   0.0800 
 33 H       -8.4840     1.5530     0.6560 H     1 <1>   0.0800 
@<TRIPOS>BOND
  1   1   2  2   
  2   2   3  2   
  3   2   4  1   
  4   4   5  1   
  5   4  17  1   
  6   4  18  1   
  7   5   6  1   
  8   5   7  1   
  9   5   8  1   
 10   6   9  1   
 11   6  19  1   
 12   6  20  1   
 13   7  10  1   
 14   7  21  1   
 15   7  22  1   
 16   8  11  1   
 17   8  23  1   
 18   8  24  1   
 19   9  12  1   
 20   9  25  1   
 21   9  26  1   
 22  10  12  1   
 23  10  27  1   
 24  10  28  1   
 25  11  13  2   
 26  11  14  1   
 27  14  15  1   
 28  15  16  1   
 29  15  29  1   
 30  15  30  1   
 31  16  31  1   
 32  16  32  1   
 33  16  33  1   
@<TRIPOS>SUBSTRUCTURE
  1 ****   5 GROUP 4 **** **** 0

# MOE 2024.06 (io_trps.svl 2023.06)
