@<TRIPOS>MOLECULE
NONAME
48 49 1 0 0 
SMALL
USER_CHARGES


@<TRIPOS>ATOM
  1 F        0.8740     1.9790     2.4200 F     1 <1>  -0.1900 
  2 C        1.9730     2.1080     1.7100 C.ar  1 <1>   0.1900 
  3 C        2.1910     3.2110     0.9080 C.ar  1 <1>   0.3920 
  4 C        2.9330     1.1360     1.7570 C.ar  1 <1>   0.1600 
  5 O        1.2510     4.1800     0.8400 O.3   1 <1>  -0.3630 
  6 N        3.3000     3.3350     0.2020 N.ar  1 <1>  -0.6200 
  7 N        4.0420     1.2380     1.0550 N.ar  1 <1>  -0.6200 
  8 C        1.3850     5.2760    -0.0410 C.3   1 <1>   0.0400 
  9 C        4.1750     2.3330     0.3030 C.ar  1 <1>   0.7200 
 10 N        5.3440     2.4410    -0.4310 N.pl3 1 <1>  -0.8380 
 11 C        5.6020     3.6000    -1.3310 C.3   1 <1>   0.2090 
 12 C        6.2010     1.2390    -0.6650 C.3   1 <1>   0.1290 
 13 C        6.1300     4.7990    -0.5180 C.3   1 <1>  -0.0800 
 14 C        6.3970     6.0100    -1.4260 C.3   1 <1>  -0.1600 
 15 C        7.4020     4.4600     0.2790 C.3   1 <1>  -0.1600 
 16 C        6.9380     7.1970    -0.6270 C.3   1 <1>   0.3430 
 17 C        7.9200     5.6750     1.0460 C.3   1 <1>   0.3430 
 18 N        8.1820     6.7980     0.0980 N.4   1 <1>  -0.9590 
 19 C        8.7940     7.9490     0.8410 C.3   1 <1>   0.3430 
 20 C        9.3590     9.0330    -0.0850 C.3   1 <1>   0.1200 
 21 O        9.9210    10.0080     0.7250 O.3   1 <1>  -0.5600 
 22 C       10.5040    11.0700     0.0350 C.3   1 <1>   0.0400 
 23 H        2.7890     0.2670     2.3750 H     1 <1>   0.1500 
 24 H        0.5140     5.8970     0.0590 H     1 <1>   0.0800 
 25 H        1.4610     4.9040    -1.0480 H     1 <1>   0.0800 
 26 H        2.2680     5.8300     0.2250 H     1 <1>   0.0800 
 27 H        4.6910     3.8720    -1.8390 H     1 <1>   0.0800 
 28 H        6.3180     3.3240    -2.0860 H     1 <1>   0.0800 
 29 H        6.3890     0.7270     0.2630 H     1 <1>   0.0800 
 30 H        7.1490     1.5220    -1.0880 H     1 <1>   0.0800 
 31 H        5.7010     0.5640    -1.3380 H     1 <1>   0.0800 
 32 H        5.3580     5.0760     0.1800 H     1 <1>   0.0800 
 33 H        5.4780     6.3050    -1.9030 H     1 <1>   0.0800 
 34 H        7.0960     5.7510    -2.2020 H     1 <1>   0.0800 
 35 H        8.1700     4.0870    -0.3760 H     1 <1>   0.0800 
 36 H        7.1820     3.6840     0.9930 H     1 <1>   0.0800 
 37 H        6.1920     7.5210     0.0820 H     1 <1>   0.0800 
 38 H        7.1430     8.0140    -1.3000 H     1 <1>   0.0800 
 39 H        8.8250     5.4090     1.5680 H     1 <1>   0.0800 
 40 H        7.1840     5.9750     1.7750 H     1 <1>   0.0800 
 41 H        8.8610     6.4550    -0.5930 H     1 <1>   0.4500 
 42 H        9.6040     7.5870     1.4540 H     1 <1>   0.0800 
 43 H        8.0580     8.3960     1.4890 H     1 <1>   0.0800 
 44 H        8.5820     9.4920    -0.6720 H     1 <1>   0.0800 
 45 H       10.1310     8.6320    -0.7190 H     1 <1>   0.0800 
 46 H       10.9040    11.7600     0.7570 H     1 <1>   0.0800 
 47 H        9.7570    11.5670    -0.5600 H     1 <1>   0.0800 
 48 H       11.3010    10.7000    -0.5880 H     1 <1>   0.0800 
@<TRIPOS>BOND
  1   1   2  1   
  2   2   3  ar  
  3   2   4  ar  
  4   3   5  1   
  5   3   6  ar  
  6   4   7  ar  
  7   4  23  1   
  8   5   8  1   
  9   6   9  ar  
 10   7   9  ar  
 11   8  24  1   
 12   8  25  1   
 13   8  26  1   
 14   9  10  1   
 15  10  11  1   
 16  10  12  1   
 17  11  13  1   
 18  11  27  1   
 19  11  28  1   
 20  12  29  1   
 21  12  30  1   
 22  12  31  1   
 23  13  14  1   
 24  13  15  1   
 25  13  32  1   
 26  14  16  1   
 27  14  33  1   
 28  14  34  1   
 29  15  17  1   
 30  15  35  1   
 31  15  36  1   
 32  16  18  1   
 33  16  37  1   
 34  16  38  1   
 35  17  18  1   
 36  17  39  1   
 37  17  40  1   
 38  18  19  1   
 39  18  41  1   
 40  19  20  1   
 41  19  42  1   
 42  19  43  1   
 43  20  21  1   
 44  20  44  1   
 45  20  45  1   
 46  21  22  1   
 47  22  46  1   
 48  22  47  1   
 49  22  48  1   
@<TRIPOS>SUBSTRUCTURE
  1 ****  13 GROUP 4 **** **** 0

# MOE 2024.06 (io_trps.svl 2023.06)
