@<TRIPOS>MOLECULE
NONAME
38 39 1 0 0 
SMALL
USER_CHARGES


@<TRIPOS>ATOM
  1 F       -1.2730    -0.7320    -0.3000 F     1 <1>  -0.1900 
  2 C       -2.0550     0.3050    -0.1550 C.ar  1 <1>   0.1900 
  3 C       -3.2990     0.2960    -0.7630 C.ar  1 <1>  -0.1440 
  4 C       -1.6090     1.3650     0.6120 C.ar  1 <1>  -0.1500 
  5 C       -4.1170     1.4020    -0.5890 C.ar  1 <1>  -0.1500 
  6 C       -3.7470    -0.8900    -1.5900 C.3   1 <1>   0.4870 
  7 C       -2.4400     2.4590     0.7830 C.ar  1 <1>  -0.1500 
  8 C       -3.6980     2.4770     0.1820 C.ar  1 <1>   0.0830 
  9 N       -4.7960    -1.6170    -0.8390 N.4   1 <1>  -0.9590 
 10 O       -4.5750     3.5030     0.2990 O.3   1 <1>  -0.3630 
 11 C       -4.2220    -2.2730     0.4030 C.3   1 <1>   0.3430 
 12 C       -5.5190    -2.5980    -1.6960 C.3   1 <1>   0.3430 
 13 C       -4.2380     4.6840     0.9960 C.3   1 <1>   0.0400 
 14 C       -5.0130    -3.5080     0.8770 C.3   1 <1>   0.2000 
 15 C       -6.7570    -3.1030    -0.9490 C.3   1 <1>  -0.1600 
 16 O       -4.5440    -4.6160     0.1910 O.3   1 <1>  -0.6800 
 17 C       -6.5050    -3.3490     0.5630 C.3   1 <1>  -0.1860 
 18 C       -7.2670    -4.5460     1.0830 C.2   1 <1>   0.9060 
 19 O       -8.2210    -4.3510     1.8310 O.co2 1 <1>  -0.9000 
 20 O       -6.8760    -5.6680     0.7380 O.co2 1 <1>  -0.9000 
 21 H       -0.6330     1.3330     1.0650 H     1 <1>   0.1500 
 22 H       -5.0900     1.4590    -1.0450 H     1 <1>   0.1500 
 23 H       -2.9160    -1.5460    -1.7950 H     1 <1>   0.0800 
 24 H       -4.1430    -0.5370    -2.5280 H     1 <1>   0.0800 
 25 H       -2.0940     3.2830     1.3810 H     1 <1>   0.1500 
 26 H       -5.4940    -0.9370    -0.5170 H     1 <1>   0.4500 
 27 H       -3.2050    -2.5840     0.2260 H     1 <1>   0.0800 
 28 H       -4.2090    -1.5480     1.1990 H     1 <1>   0.0800 
 29 H       -5.8170    -2.1510    -2.6300 H     1 <1>   0.0800 
 30 H       -4.8700    -3.4350    -1.9070 H     1 <1>   0.0800 
 31 H       -5.0720     5.3600     0.9330 H     1 <1>   0.0800 
 32 H       -3.3730     5.1290     0.5360 H     1 <1>   0.0800 
 33 H       -4.0450     4.4410     2.0260 H     1 <1>   0.0800 
 34 H       -4.8550    -3.6890     1.9280 H     1 <1>   0.0800 
 35 H       -7.5760    -2.4160    -1.0690 H     1 <1>   0.0800 
 36 H       -7.0570    -4.0280    -1.4120 H     1 <1>   0.0800 
 37 H       -5.2470    -5.3280     0.3170 H     1 <1>   0.4000 
 38 H       -6.8650    -2.4980     1.1120 H     1 <1>   0.0800 
@<TRIPOS>BOND
  1   1   2  1   
  2   2   3  ar  
  3   2   4  ar  
  4   3   5  ar  
  5   3   6  1   
  6   4   7  ar  
  7   4  21  1   
  8   5   8  ar  
  9   5  22  1   
 10   6   9  1   
 11   6  23  1   
 12   6  24  1   
 13   7   8  ar  
 14   7  25  1   
 15   8  10  1   
 16   9  11  1   
 17   9  12  1   
 18   9  26  1   
 19  10  13  1   
 20  11  14  1   
 21  11  27  1   
 22  11  28  1   
 23  12  15  1   
 24  12  29  1   
 25  12  30  1   
 26  13  31  1   
 27  13  32  1   
 28  13  33  1   
 29  14  16  1   
 30  14  17  1   
 31  14  34  1   
 32  15  17  1   
 33  15  35  1   
 34  15  36  1   
 35  16  37  1   
 36  17  18  1   
 37  17  38  1   
 38  18  19  ar  
 39  18  20  ar  
@<TRIPOS>SUBSTRUCTURE
  1 ****   9 GROUP 4 **** **** 0

# MOE 2024.06 (io_trps.svl 2023.06)
