@<TRIPOS>MOLECULE
NONAME
36 37 1 0 0 
SMALL
USER_CHARGES


@<TRIPOS>ATOM
  1 F        1.8530     0.0770     2.3470 F     1 <1>  -0.3400 
  2 C        1.6470     0.7960     1.2460 C.3   1 <1>   0.8560 
  3 F        0.5260     0.3070     0.7220 F     1 <1>  -0.3400 
  4 N        2.7970     0.6000     0.2850 N.pl3 1 <1>   0.0480 
  5 C        3.6440     1.5840    -0.2030 C.2   1 <1>  -0.2370 
  6 C        3.2100    -0.5890    -0.2580 C.2   1 <1>  -0.3320 
  7 C        3.5660     2.9830     0.1270 C.2   1 <1>   0.7150 
  8 C        4.5500     0.9800    -1.0410 C.2   1 <1>  -0.1500 
  9 C        4.2770    -0.3790    -1.0700 C.2   1 <1>  -0.1500 
 10 C        2.5590    -1.9370     0.0180 C.3   1 <1>  -0.0600 
 11 O        2.5850     3.4430     0.6780 O.2   1 <1>  -0.5700 
 12 N        4.6360     3.7840    -0.1680 N.am  1 <1>  -0.4940 
 13 C        4.7910     5.1850    -0.0400 C.2   1 <1>  -0.0880 
 14 N        5.9140     5.7950     0.4290 N.pl3 1 <1>   0.3140 
 15 C        3.9230     6.1810    -0.3450 C.2   1 <1>  -0.1810 
 16 N        5.7890     7.1400     0.4300 N.2   1 <1>  -0.7070 
 17 C        7.1360     5.1460     0.9470 C.3   1 <1>   0.0960 
 18 C        4.5970     7.3560    -0.0300 C.2   1 <1>   0.1390 
 19 C        2.5190     6.1010    -0.9160 C.3   1 <1>  -0.0590 
 20 C        8.1110     4.8070    -0.1890 C.3   1 <1>  -0.2400 
 21 H        1.4640     1.8090     1.5390 H     1 <1>   0.0800 
 22 H        5.3430     1.4390    -1.6040 H     1 <1>   0.1500 
 23 H        4.8220    -1.1130    -1.6410 H     1 <1>   0.1500 
 24 H        2.5960    -2.1650     1.0680 H     1 <1>   0.0800 
 25 H        3.0760    -2.7150    -0.5150 H     1 <1>   0.0800 
 26 H        1.5330    -1.9320    -0.3050 H     1 <1>   0.0800 
 27 H        5.4450     3.2670    -0.5040 H     1 <1>   0.3700 
 28 H        6.8540     4.2580     1.4810 H     1 <1>   0.0800 
 29 H        7.6040     5.8230     1.6390 H     1 <1>   0.0800 
 30 H        4.1840     8.3430    -0.1510 H     1 <1>   0.1500 
 31 H        2.3900     5.1840    -1.4610 H     1 <1>   0.0800 
 32 H        2.3400     6.9250    -1.5820 H     1 <1>   0.0800 
 33 H        1.8020     6.1310    -0.1160 H     1 <1>   0.0800 
 34 H        7.6610     4.1270    -0.8890 H     1 <1>   0.0800 
 35 H        8.9960     4.3490     0.2150 H     1 <1>   0.0800 
 36 H        8.3990     5.7080    -0.7030 H     1 <1>   0.0800 
@<TRIPOS>BOND
  1   1   2  1   
  2   2   3  1   
  3   2   4  1   
  4   2  21  1   
  5   4   5  1   
  6   4   6  1   
  7   5   7  1   
  8   5   8  2   
  9   6   9  2   
 10   6  10  1   
 11   7  11  2   
 12   7  12  am  
 13   8   9  1   
 14   8  22  1   
 15   9  23  1   
 16  10  24  1   
 17  10  25  1   
 18  10  26  1   
 19  12  13  1   
 20  12  27  1   
 21  13  14  1   
 22  13  15  2   
 23  14  16  1   
 24  14  17  1   
 25  15  18  1   
 26  15  19  1   
 27  16  18  2   
 28  17  20  1   
 29  17  28  1   
 30  17  29  1   
 31  18  30  1   
 32  19  31  1   
 33  19  32  1   
 34  19  33  1   
 35  20  34  1   
 36  20  35  1   
 37  20  36  1   
@<TRIPOS>SUBSTRUCTURE
  1 ****   7 GROUP 4 **** **** 0

# MOE 2024.06 (io_trps.svl 2023.06)
