@<TRIPOS>MOLECULE
NONAME
47 49 1 0 0 
SMALL
USER_CHARGES


@<TRIPOS>ATOM
  1 S        0.6220     0.2550    -1.6440 S.3   1 <1>  -0.0800 
  2 C        1.7780    -0.2730    -0.4340 C.2   1 <1>  -0.1400 
  3 C       -0.6760     0.2860    -0.4630 C.2   1 <1>  -0.1400 
  4 C        1.1750    -0.4030     0.7640 C.2   1 <1>  -0.1500 
  5 C        3.2080    -0.4730    -0.9090 C.3   1 <1>   0.3200 
  6 C       -0.2200    -0.0860     0.7460 C.2   1 <1>  -0.1500 
  7 C       -2.0470     0.7000    -0.9530 C.3   1 <1>  -0.0600 
  8 N        4.0930    -0.8330     0.2290 N.am  1 <1>  -0.5090 
  9 C        4.6130     0.0710     1.1310 C.2   1 <1>   0.5690 
 10 C        4.1300    -2.2910     0.5020 C.3   1 <1>   0.0490 
 11 O        4.9880    -0.2860     2.2240 O.2   1 <1>  -0.5700 
 12 C        4.7750     1.5730     0.8380 C.3   1 <1>  -0.0190 
 13 C        5.4410    -2.9530     0.7920 C.3   1 <1>  -0.2000 
 14 C        4.7580    -3.1940    -0.5150 C.3   1 <1>  -0.2000 
 15 C        3.4530     2.3660     0.7560 C.3   1 <1>  -0.1600 
 16 C        5.7190     1.8730    -0.3520 C.3   1 <1>  -0.1600 
 17 C        3.6860     3.8910     0.7300 C.3   1 <1>   0.2000 
 18 C        5.5110     3.2760    -0.9560 C.3   1 <1>  -0.1600 
 19 O        2.6560     4.4820    -0.0270 O.3   1 <1>  -0.5600 
 20 C        5.0570     4.2790     0.1100 C.3   1 <1>   0.2000 
 21 C        1.4110     4.5430     0.5990 C.3   1 <1>   0.0400 
 22 O        4.9510     5.5170    -0.4890 O.3   1 <1>  -0.6800 
 23 H        1.6560    -0.7100     1.6770 H     1 <1>   0.1500 
 24 H        3.5560     0.4210    -1.3890 H     1 <1>   0.0800 
 25 H        3.2260    -1.2570    -1.6440 H     1 <1>   0.0800 
 26 H       -0.8100    -0.1550     1.6440 H     1 <1>   0.1500 
 27 H       -2.7520     0.6790    -0.1430 H     1 <1>   0.0800 
 28 H       -2.3790     0.0260    -1.7220 H     1 <1>   0.0800 
 29 H       -2.0070     1.6960    -1.3550 H     1 <1>   0.0800 
 30 H        3.2620    -2.6340     1.0390 H     1 <1>   0.1000 
 31 H        5.2760     1.9670     1.7060 H     1 <1>   0.0800 
 32 H        6.3240    -2.3390     0.8250 H     1 <1>   0.1000 
 33 H        5.4600    -3.7440     1.5210 H     1 <1>   0.1000 
 34 H        4.3260    -4.1650    -0.6860 H     1 <1>   0.1000 
 35 H        5.2060    -2.7760    -1.3990 H     1 <1>   0.1000 
 36 H        2.8340     2.1150     1.6000 H     1 <1>   0.0800 
 37 H        2.9280     2.1010    -0.1400 H     1 <1>   0.0800 
 38 H        6.7330     1.7900     0.0010 H     1 <1>   0.0800 
 39 H        5.6070     1.1430    -1.1330 H     1 <1>   0.0800 
 40 H        3.6510     4.2900     1.7290 H     1 <1>   0.0800 
 41 H        4.7550     3.2240    -1.7200 H     1 <1>   0.0800 
 42 H        6.4270     3.6130    -1.4080 H     1 <1>   0.0800 
 43 H        5.8080     4.3470     0.8780 H     1 <1>   0.0800 
 44 H        0.7370     5.0730    -0.0510 H     1 <1>   0.0800 
 45 H        1.5050     5.0730     1.5310 H     1 <1>   0.0800 
 46 H        1.0380     3.5470     0.7620 H     1 <1>   0.0800 
 47 H        4.0060     5.6020    -0.7540 H     1 <1>   0.4000 
@<TRIPOS>BOND
  1   1   2  1   
  2   1   3  1   
  3   2   4  2   
  4   2   5  1   
  5   3   6  2   
  6   3   7  1   
  7   4   6  1   
  8   4  23  1   
  9   5   8  1   
 10   5  24  1   
 11   5  25  1   
 12   6  26  1   
 13   7  27  1   
 14   7  28  1   
 15   7  29  1   
 16   8   9  am  
 17   8  10  1   
 18   9  11  2   
 19   9  12  1   
 20  10  13  1   
 21  10  14  1   
 22  10  30  1   
 23  12  15  1   
 24  12  16  1   
 25  12  31  1   
 26  13  14  1   
 27  13  32  1   
 28  13  33  1   
 29  14  34  1   
 30  14  35  1   
 31  15  17  1   
 32  15  36  1   
 33  15  37  1   
 34  16  18  1   
 35  16  38  1   
 36  16  39  1   
 37  17  19  1   
 38  17  20  1   
 39  17  40  1   
 40  18  20  1   
 41  18  41  1   
 42  18  42  1   
 43  19  21  1   
 44  20  22  1   
 45  20  43  1   
 46  21  44  1   
 47  21  45  1   
 48  21  46  1   
 49  22  47  1   
@<TRIPOS>SUBSTRUCTURE
  1 ****  15 GROUP 4 **** **** 0

# MOE 2024.06 (io_trps.svl 2023.06)
