@<TRIPOS>MOLECULE
NONAME
49 52 1 0 0 
SMALL
USER_CHARGES


@<TRIPOS>ATOM
  1 S       -1.0600     0.0950    -0.0190 S.3   1 <1>  -0.0800 
  2 C       -0.4280     1.4340    -0.9850 C.2   1 <1>   0.0410 
  3 C       -0.7780    -1.0630    -1.3050 C.2   1 <1>  -0.1100 
  4 C       -0.3990     2.7600    -0.4170 C.2   1 <1>   0.2880 
  5 C       -0.0460     0.9510    -2.1950 C.2   1 <1>  -0.1500 
  6 C       -0.2430    -0.4510    -2.3760 C.2   1 <1>  -0.1500 
  7 N       -0.7760     3.0660     0.8000 N.2   1 <1>  -0.7070 
  8 C        0.0350     3.9000    -1.0850 C.2   1 <1>  -0.1500 
  9 N       -0.5860     4.3810     0.9210 N.pl3 1 <1>   0.3140 
 10 C       -0.0910     4.9390    -0.2150 C.2   1 <1>  -0.2370 
 11 C       -0.9380     5.0570     2.1820 C.3   1 <1>   0.0160 
 12 C        0.2040     6.3300    -0.3910 C.2   1 <1>   0.7150 
 13 O        0.4510     7.0550     0.5550 O.2   1 <1>  -0.5700 
 14 N        0.2080     6.8320    -1.6660 N.am  1 <1>  -0.4940 
 15 C        0.3430     8.1530    -2.1630 C.2   1 <1>  -0.0880 
 16 N        1.1940     9.1400    -1.7540 N.pl3 1 <1>   0.3140 
 17 C       -0.3750     8.6760    -3.1850 C.2   1 <1>  -0.1500 
 18 N        1.0170    10.2690    -2.4840 N.2   1 <1>  -0.7070 
 19 C        2.2470     9.0950    -0.7040 C.3   1 <1>   0.1760 
 20 C        0.0810     9.9780    -3.3310 C.2   1 <1>   0.1390 
 21 C        1.8220     9.9650     0.4900 C.3   1 <1>  -0.1600 
 22 C        3.6050     9.5650    -1.2540 C.3   1 <1>  -0.1600 
 23 C        2.9050     9.9890     1.5590 C.3   1 <1>   0.3430 
 24 C        4.6560     9.6110    -0.1500 C.3   1 <1>   0.3430 
 25 N        4.1790    10.4860     0.9610 N.4   1 <1>  -0.9590 
 26 C        5.2340    10.6460     2.0070 C.3   1 <1>   0.2630 
 27 H       -1.0470    -2.0880    -1.1180 H     1 <1>   0.1500 
 28 H        0.3770     1.5440    -2.9850 H     1 <1>   0.1500 
 29 H        0.0260    -0.9370    -3.2990 H     1 <1>   0.1500 
 30 H        0.4000     3.9100    -2.0950 H     1 <1>   0.1500 
 31 H       -1.4140     4.3540     2.8400 H     1 <1>   0.0800 
 32 H       -1.6100     5.8690     1.9770 H     1 <1>   0.0800 
 33 H       -0.0440     5.4300     2.6450 H     1 <1>   0.0800 
 34 H       -0.1710     6.1670    -2.3410 H     1 <1>   0.3700 
 35 H       -1.1460     8.2150    -3.7740 H     1 <1>   0.1500 
 36 H        2.3630     8.0770    -0.3870 H     1 <1>   0.0800 
 37 H       -0.2940    10.6760    -4.0620 H     1 <1>   0.1500 
 38 H        0.9180     9.5720     0.9200 H     1 <1>   0.0800 
 39 H        1.6190    10.9710     0.1640 H     1 <1>   0.0800 
 40 H        3.5170    10.5450    -1.6910 H     1 <1>   0.0800 
 41 H        3.9300     8.8880    -2.0240 H     1 <1>   0.0800 
 42 H        3.0450     8.9960     1.9550 H     1 <1>   0.0800 
 43 H        2.5970    10.6360     2.3650 H     1 <1>   0.0800 
 44 H        5.5800     9.9950    -0.5530 H     1 <1>   0.0800 
 45 H        4.8360     8.6140     0.2210 H     1 <1>   0.0800 
 46 H        3.9810    11.4130     0.5530 H     1 <1>   0.4500 
 47 H        5.4650     9.6940     2.4570 H     1 <1>   0.0800 
 48 H        4.8950    11.3190     2.7790 H     1 <1>   0.0800 
 49 H        6.1340    11.0510     1.5730 H     1 <1>   0.0800 
@<TRIPOS>BOND
  1   1   2  1   
  2   1   3  1   
  3   2   4  1   
  4   2   5  2   
  5   3   6  2   
  6   3  27  1   
  7   4   7  2   
  8   4   8  1   
  9   5   6  1   
 10   5  28  1   
 11   6  29  1   
 12   7   9  1   
 13   8  10  2   
 14   8  30  1   
 15   9  10  1   
 16   9  11  1   
 17  10  12  1   
 18  11  31  1   
 19  11  32  1   
 20  11  33  1   
 21  12  13  2   
 22  12  14  am  
 23  14  15  1   
 24  14  34  1   
 25  15  16  1   
 26  15  17  2   
 27  16  18  1   
 28  16  19  1   
 29  17  20  1   
 30  17  35  1   
 31  18  20  2   
 32  19  21  1   
 33  19  22  1   
 34  19  36  1   
 35  20  37  1   
 36  21  23  1   
 37  21  38  1   
 38  21  39  1   
 39  22  24  1   
 40  22  40  1   
 41  22  41  1   
 42  23  25  1   
 43  23  42  1   
 44  23  43  1   
 45  24  25  1   
 46  24  44  1   
 47  24  45  1   
 48  25  26  1   
 49  25  46  1   
 50  26  47  1   
 51  26  48  1   
 52  26  49  1   
@<TRIPOS>SUBSTRUCTURE
  1 ****  12 GROUP 4 **** **** 0

# MOE 2024.06 (io_trps.svl 2023.06)
