@<TRIPOS>MOLECULE
NONAME
39 42 1 0 0 
SMALL
USER_CHARGES


@<TRIPOS>ATOM
  1 S       -2.0800    -1.5370     3.1700 S.3   1 <1>  -0.4600 
  2 C       -2.3530    -0.1630     2.0060 C.3   1 <1>   0.2510 
  3 C       -2.7570    -2.8960     2.1690 C.3   1 <1>   0.2510 
  4 C       -2.9820    -0.8430     0.8130 C.2   1 <1>   0.1080 
  5 C       -3.1820    -2.2050     0.8930 C.2   1 <1>  -0.1810 
  6 N       -3.3770    -0.3370    -0.3120 N.2   1 <1>  -0.7070 
  7 C       -3.7520    -2.5560    -0.2820 C.2   1 <1>  -0.0880 
  8 N       -3.8620    -1.3990    -1.0030 N.pl3 1 <1>   0.3140 
  9 N       -4.1300    -3.8670    -0.6550 N.am  1 <1>  -0.4940 
 10 C       -4.3420    -1.2150    -2.3790 C.3   1 <1>   0.0160 
 11 C       -5.1900    -4.3230    -1.3860 C.2   1 <1>   0.5690 
 12 O       -5.9670    -3.6130    -1.9730 O.2   1 <1>  -0.5700 
 13 C       -5.4240    -5.8120    -1.4170 C.3   1 <1>  -0.0990 
 14 C       -6.2780    -6.2350    -0.2250 C.3   1 <1>   0.3640 
 15 N       -5.6200    -5.8440     1.0420 N.am  1 <1>  -0.7300 
 16 C       -6.3170    -7.7520    -0.0750 C.ar  1 <1>  -0.1430 
 17 C       -5.3380    -6.9150     1.8120 C.2   1 <1>   0.5440 
 18 C       -5.7440    -8.1100     1.1340 C.ar  1 <1>   0.0860 
 19 C       -6.8150    -8.7080    -0.9410 C.ar  1 <1>  -0.1500 
 20 O       -4.8310    -6.8000     2.9060 O.2   1 <1>  -0.5700 
 21 C       -5.6580    -9.4500     1.4880 C.ar  1 <1>  -0.1500 
 22 C       -6.7270   -10.0450    -0.5840 C.ar  1 <1>  -0.1500 
 23 C       -6.1510   -10.4140     0.6240 C.ar  1 <1>  -0.1500 
 24 H       -1.4030     0.2780     1.7650 H     1 <1>   0.0800 
 25 H       -3.0180     0.5470     2.4620 H     1 <1>   0.0800 
 26 H       -3.5870    -3.3250     2.7030 H     1 <1>   0.0800 
 27 H       -1.9750    -3.6160     2.0090 H     1 <1>   0.0800 
 28 H       -3.6460    -4.6000    -0.1330 H     1 <1>   0.3700 
 29 H       -3.9030    -0.3250    -2.7900 H     1 <1>   0.0800 
 30 H       -5.4110    -1.1150    -2.3650 H     1 <1>   0.0800 
 31 H       -4.0610    -2.0630    -2.9730 H     1 <1>   0.0800 
 32 H       -4.4850    -6.3340    -1.4050 H     1 <1>   0.0800 
 33 H       -5.9330    -6.0680    -2.3280 H     1 <1>   0.0800 
 34 H       -7.2710    -5.8180    -0.2770 H     1 <1>   0.0800 
 35 H       -5.7580    -4.9190     1.4550 H     1 <1>   0.3700 
 36 H       -7.2650    -8.4290    -1.8790 H     1 <1>   0.1500 
 37 H       -5.2110    -9.7210     2.4290 H     1 <1>   0.1500 
 38 H       -7.1090   -10.8030    -1.2460 H     1 <1>   0.1500 
 39 H       -6.0880   -11.4560     0.8910 H     1 <1>   0.1500 
@<TRIPOS>BOND
  1   1   2  1   
  2   1   3  1   
  3   2   4  1   
  4   2  24  1   
  5   2  25  1   
  6   3   5  1   
  7   3  26  1   
  8   3  27  1   
  9   4   5  1   
 10   4   6  2   
 11   5   7  2   
 12   6   8  1   
 13   7   8  1   
 14   7   9  1   
 15   8  10  1   
 16   9  11  am  
 17   9  28  1   
 18  10  29  1   
 19  10  30  1   
 20  10  31  1   
 21  11  12  2   
 22  11  13  1   
 23  13  14  1   
 24  13  32  1   
 25  13  33  1   
 26  14  15  1   
 27  14  16  1   
 28  14  34  1   
 29  15  17  am  
 30  15  35  1   
 31  16  18  ar  
 32  16  19  ar  
 33  17  18  1   
 34  17  20  2   
 35  18  21  ar  
 36  19  22  ar  
 37  19  36  1   
 38  21  23  ar  
 39  21  37  1   
 40  22  23  ar  
 41  22  38  1   
 42  23  39  1   
@<TRIPOS>SUBSTRUCTURE
  1 ****   9 GROUP 4 **** **** 0

# MOE 2024.06 (io_trps.svl 2023.06)
