@<TRIPOS>MOLECULE
NONAME
50 52 1 0 0 
SMALL
USER_CHARGES


@<TRIPOS>ATOM
  1 F       -0.0760     1.2150    -0.0930 F     1 <1>  -0.1900 
  2 C       -1.3780     1.3360    -0.1390 C.ar  1 <1>   0.1900 
  3 C       -2.0470     2.4070     0.4640 C.ar  1 <1>   0.0830 
  4 C       -2.0630     0.3470    -0.8200 C.ar  1 <1>  -0.1500 
  5 O       -1.4860     3.4390     1.1590 O.3   1 <1>  -0.3630 
  6 C       -3.4270     2.4450     0.3570 C.ar  1 <1>  -0.1500 
  7 C       -3.4410     0.4170    -0.9080 C.ar  1 <1>  -0.1500 
  8 C       -0.1010     3.5380     1.4050 C.3   1 <1>   0.0400 
  9 C       -4.1540     1.4630    -0.3190 C.ar  1 <1>   0.0530 
 10 C       -5.5900     1.5510    -0.4120 C.2   1 <1>   0.0870 
 11 O       -6.1440     2.7160    -0.6300 O.3   1 <1>  -0.0190 
 12 C       -6.5990     0.6400    -0.3300 C.2   1 <1>  -0.0860 
 13 N       -7.4450     2.6580    -0.7120 N.2   1 <1>  -0.4100 
 14 C       -7.7470     1.4200    -0.5370 C.2   1 <1>   0.3720 
 15 C       -6.5730    -0.7710    -0.0810 C.2   1 <1>   0.7160 
 16 N       -9.0720     0.9530    -0.5350 N.pl3 1 <1>  -0.8210 
 17 O       -5.5690    -1.3290     0.3180 O.2   1 <1>  -0.5700 
 18 N       -7.6900    -1.5160    -0.2870 N.am  1 <1>  -0.7300 
 19 C       -9.9250     1.5480    -1.6040 C.3   1 <1>   0.1290 
 20 C       -9.7140     1.0750     0.8020 C.3   1 <1>   0.1290 
 21 C       -7.8750    -2.9470    -0.0200 C.3   1 <1>   0.2200 
 22 C       -8.3860    -3.6240    -1.2960 C.3   1 <1>  -0.1600 
 23 C       -8.8720    -3.1060     1.1320 C.3   1 <1>  -0.1600 
 24 C       -8.7090    -5.1050    -1.0480 C.3   1 <1>  -0.1600 
 25 C       -9.1970    -4.5860     1.3850 C.3   1 <1>  -0.1600 
 26 C       -9.7060    -5.2690     0.1080 C.3   1 <1>  -0.1600 
 27 H       -1.5240    -0.4650    -1.2720 H     1 <1>   0.1500 
 28 H       -3.9530     3.2640     0.8150 H     1 <1>   0.1500 
 29 H       -3.9730    -0.3520    -1.4400 H     1 <1>   0.1500 
 30 H        0.0720     4.4230     1.9900 H     1 <1>   0.0800 
 31 H        0.4180     3.6150     0.4660 H     1 <1>   0.0800 
 32 H        0.2200     2.6700     1.9540 H     1 <1>   0.0800 
 33 H       -8.5300    -0.9770    -0.5400 H     1 <1>   0.3700 
 34 H       -9.4040     1.5170    -2.5460 H     1 <1>   0.0800 
 35 H      -10.1560     2.5740    -1.3700 H     1 <1>   0.0800 
 36 H      -10.8410     0.9900    -1.6970 H     1 <1>   0.0800 
 37 H       -9.0970     0.6040     1.5490 H     1 <1>   0.0800 
 38 H      -10.6770     0.5950     0.7960 H     1 <1>   0.0800 
 39 H       -9.8370     2.1140     1.0590 H     1 <1>   0.0800 
 40 H       -6.9330    -3.3900     0.2620 H     1 <1>   0.0800 
 41 H       -7.6350    -3.5480    -2.0630 H     1 <1>   0.0800 
 42 H       -9.2750    -3.1240    -1.6370 H     1 <1>   0.0800 
 43 H       -9.7820    -2.5840     0.8940 H     1 <1>   0.0800 
 44 H       -8.4530    -2.6770     2.0250 H     1 <1>   0.0800 
 45 H       -7.8010    -5.6330    -0.8120 H     1 <1>   0.0800 
 46 H       -9.1190    -5.5400    -1.9430 H     1 <1>   0.0800 
 47 H       -9.9410    -4.6660     2.1590 H     1 <1>   0.0800 
 48 H       -8.3090    -5.0910     1.7290 H     1 <1>   0.0800 
 49 H       -9.8660    -6.3160     0.2990 H     1 <1>   0.0800 
 50 H      -10.6520    -4.8380    -0.1730 H     1 <1>   0.0800 
@<TRIPOS>BOND
  1   1   2  1   
  2   2   3  ar  
  3   2   4  ar  
  4   3   5  1   
  5   3   6  ar  
  6   4   7  ar  
  7   4  27  1   
  8   5   8  1   
  9   6   9  ar  
 10   6  28  1   
 11   7   9  ar  
 12   7  29  1   
 13   8  30  1   
 14   8  31  1   
 15   8  32  1   
 16   9  10  1   
 17  10  11  1   
 18  10  12  2   
 19  11  13  1   
 20  12  14  1   
 21  12  15  1   
 22  13  14  2   
 23  14  16  1   
 24  15  17  2   
 25  15  18  am  
 26  16  19  1   
 27  16  20  1   
 28  18  21  1   
 29  18  33  1   
 30  19  34  1   
 31  19  35  1   
 32  19  36  1   
 33  20  37  1   
 34  20  38  1   
 35  20  39  1   
 36  21  22  1   
 37  21  23  1   
 38  21  40  1   
 39  22  24  1   
 40  22  41  1   
 41  22  42  1   
 42  23  25  1   
 43  23  43  1   
 44  23  44  1   
 45  24  26  1   
 46  24  45  1   
 47  24  46  1   
 48  25  26  1   
 49  25  47  1   
 50  25  48  1   
 51  26  49  1   
 52  26  50  1   
@<TRIPOS>SUBSTRUCTURE
  1 ****  12 GROUP 4 **** **** 0

# MOE 2024.06 (io_trps.svl 2023.06)
