@<TRIPOS>MOLECULE
NONAME
44 47 1 0 0 
SMALL
USER_CHARGES


@<TRIPOS>ATOM
  1 S       -1.7540    -0.4480    -1.8350 S.3   1 <1>  -0.0800 
  2 C       -1.6060    -1.0460    -0.1850 C.2   1 <1>  -0.1400 
  3 C       -1.6170     1.2140    -1.2950 C.2   1 <1>  -0.1100 
  4 C       -1.4630    -0.0160     0.6720 C.2   1 <1>  -0.1500 
  5 C       -1.6570    -2.5460     0.0500 C.3   1 <1>   0.3800 
  6 C       -1.4700     1.2680     0.0410 C.2   1 <1>  -0.1500 
  7 O       -0.5870    -3.1060    -0.6100 O.3   1 <1>  -0.6800 
  8 C       -2.9550    -3.2090    -0.4640 C.3   1 <1>  -0.0800 
  9 C       -4.2150    -2.5770     0.1620 C.3   1 <1>  -0.1600 
 10 C       -2.9720    -4.7310    -0.2160 C.3   1 <1>  -0.1600 
 11 C       -5.4910    -3.2470    -0.3450 C.3   1 <1>   0.3430 
 12 C       -4.2650    -5.3710    -0.7150 C.3   1 <1>   0.3430 
 13 N       -5.4360    -4.7080    -0.0670 N.4   1 <1>  -0.9590 
 14 C       -6.7210    -5.3990    -0.4380 C.3   1 <1>   0.5240 
 15 C       -6.8190    -6.8040     0.1640 C.2   1 <1>   0.3350 
 16 N       -6.2350    -7.1680     1.2420 N.2   1 <1>  -0.4100 
 17 N       -7.5350    -7.7600    -0.4300 N.2   1 <1>  -0.5650 
 18 O       -6.5830    -8.3990     1.3670 O.3   1 <1>  -0.0190 
 19 C       -7.3570    -8.7570     0.3760 C.2   1 <1>   0.4780 
 20 C       -7.8720   -10.0980     0.2980 C.2   1 <1>   0.1400 
 21 O       -8.6370   -10.4730    -0.7220 O.3   1 <1>  -0.2800 
 22 C       -7.7190   -11.1630     1.1360 C.2   1 <1>  -0.1500 
 23 C       -8.9740   -11.7340    -0.5590 C.2   1 <1>  -0.0100 
 24 C       -8.4350   -12.2230     0.5770 C.2   1 <1>  -0.1500 
 25 H       -1.6600     1.9850    -2.0450 H     1 <1>   0.1500 
 26 H       -1.3480    -0.0950     1.7400 H     1 <1>   0.1500 
 27 H       -1.5260    -2.7450     1.1010 H     1 <1>   0.0800 
 28 H       -1.3640     2.1700     0.6200 H     1 <1>   0.1500 
 29 H        0.1250    -2.4380    -0.6660 H     1 <1>   0.4000 
 30 H       -2.9980    -3.0420    -1.5280 H     1 <1>   0.0800 
 31 H       -4.2620    -1.5320    -0.0930 H     1 <1>   0.0800 
 32 H       -4.1740    -2.6440     1.2350 H     1 <1>   0.0800 
 33 H       -2.8450    -4.9430     0.8310 H     1 <1>   0.0800 
 34 H       -2.1480    -5.1890    -0.7360 H     1 <1>   0.0800 
 35 H       -5.5840    -3.0790    -1.4070 H     1 <1>   0.0800 
 36 H       -6.3450    -2.8060     0.1450 H     1 <1>   0.0800 
 37 H       -4.2540    -6.4240    -0.4780 H     1 <1>   0.0800 
 38 H       -4.3270    -5.2640    -1.7860 H     1 <1>   0.0800 
 39 H       -5.3250    -4.8500     0.9490 H     1 <1>   0.4500 
 40 H       -6.8010    -5.4760    -1.5090 H     1 <1>   0.0800 
 41 H       -7.5610    -4.8280    -0.0800 H     1 <1>   0.0800 
 42 H       -7.1620   -11.2080     2.0550 H     1 <1>   0.1500 
 43 H       -9.5980   -12.2080    -1.2980 H     1 <1>   0.1500 
 44 H       -8.5220   -13.2140     0.9890 H     1 <1>   0.1500 
@<TRIPOS>BOND
  1   1   2  1   
  2   1   3  1   
  3   2   4  2   
  4   2   5  1   
  5   3   6  2   
  6   3  25  1   
  7   4   6  1   
  8   4  26  1   
  9   5   7  1   
 10   5   8  1   
 11   5  27  1   
 12   6  28  1   
 13   7  29  1   
 14   8   9  1   
 15   8  10  1   
 16   8  30  1   
 17   9  11  1   
 18   9  31  1   
 19   9  32  1   
 20  10  12  1   
 21  10  33  1   
 22  10  34  1   
 23  11  13  1   
 24  11  35  1   
 25  11  36  1   
 26  12  13  1   
 27  12  37  1   
 28  12  38  1   
 29  13  14  1   
 30  13  39  1   
 31  14  15  1   
 32  14  40  1   
 33  14  41  1   
 34  15  16  2   
 35  15  17  1   
 36  16  18  1   
 37  17  19  2   
 38  18  19  1   
 39  19  20  1   
 40  20  21  1   
 41  20  22  2   
 42  21  23  1   
 43  22  24  1   
 44  22  42  1   
 45  23  24  2   
 46  23  43  1   
 47  24  44  1   
@<TRIPOS>SUBSTRUCTURE
  1 ****  13 GROUP 4 **** **** 0

# MOE 2024.06 (io_trps.svl 2023.06)
