@<TRIPOS>MOLECULE
NONAME
41 42 1 0 0 
SMALL
USER_CHARGES


@<TRIPOS>ATOM
  1 S       -1.4370    -1.0020     0.8070 S.3   1 <1>  -0.0800 
  2 C       -1.0910    -1.6840    -0.7470 C.2   1 <1>   0.4420 
  3 C       -0.3530     0.2900     0.4050 C.2   1 <1>   0.1980 
  4 N       -0.2530    -0.9770    -1.4130 N.2   1 <1>  -0.3380 
  5 N       -1.7350    -2.8610    -1.0600 N.am  1 <1>  -0.4940 
  6 N        0.1630     0.1450    -0.7510 N.2   1 <1>  -0.3380 
  7 C       -0.1340     1.3870     1.4470 C.3   1 <1>   0.3800 
  8 C       -1.6460    -3.6470    -2.1730 C.2   1 <1>   0.5690 
  9 O       -1.3770     1.8280     1.9210 O.3   1 <1>  -0.5600 
 10 C        0.6150     2.5980     0.8780 C.3   1 <1>  -0.2400 
 11 O       -0.9190    -3.4150    -3.1040 O.2   1 <1>  -0.5700 
 12 C       -2.5130    -4.8970    -2.2460 C.3   1 <1>   0.1310 
 13 C       -1.3920     2.3090     3.2290 C.3   1 <1>   0.0400 
 14 S       -3.4740    -5.1510    -0.7070 S.3   1 <1>  -0.4600 
 15 C       -4.3990    -6.6800    -1.0300 C.3   1 <1>   0.2130 
 16 C       -5.2680    -6.9740     0.1850 C.ar  1 <1>  -0.1430 
 17 C       -4.8120    -7.7290     1.2630 C.ar  1 <1>  -0.1430 
 18 C       -6.5610    -6.4690     0.2050 C.ar  1 <1>  -0.1500 
 19 C       -5.6590    -7.9710     2.3340 C.ar  1 <1>  -0.1500 
 20 C       -3.4000    -8.2980     1.3040 C.3   1 <1>  -0.0970 
 21 C       -7.3980    -6.7130     1.2770 C.ar  1 <1>  -0.1500 
 22 C       -6.9470    -7.4670     2.3430 C.ar  1 <1>  -0.1500 
 23 H       -2.3870    -3.2090    -0.3540 H     1 <1>   0.3700 
 24 H        0.4170     0.9600     2.2670 H     1 <1>   0.0800 
 25 H        0.0430     3.0360     0.0800 H     1 <1>   0.0800 
 26 H        1.5620     2.2820     0.4810 H     1 <1>   0.0800 
 27 H        0.7960     3.3330     1.6390 H     1 <1>   0.0800 
 28 H       -1.8950    -5.7640    -2.3890 H     1 <1>   0.0800 
 29 H       -3.2150    -4.8100    -3.0550 H     1 <1>   0.0800 
 30 H       -2.4010     2.6030     3.4630 H     1 <1>   0.0800 
 31 H       -0.7430     3.1620     3.3110 H     1 <1>   0.0800 
 32 H       -1.0820     1.5270     3.9000 H     1 <1>   0.0800 
 33 H       -3.6880    -7.4630    -1.2190 H     1 <1>   0.0800 
 34 H       -4.9980    -6.5160    -1.9070 H     1 <1>   0.0800 
 35 H       -6.9230    -5.8770    -0.6170 H     1 <1>   0.1500 
 36 H       -5.3220    -8.5530     3.1730 H     1 <1>   0.1500 
 37 H       -2.6810    -7.5160     1.1400 H     1 <1>   0.0800 
 38 H       -3.2840    -9.0520     0.5480 H     1 <1>   0.0800 
 39 H       -3.1930    -8.7430     2.2610 H     1 <1>   0.0800 
 40 H       -8.3990    -6.3170     1.2830 H     1 <1>   0.1500 
 41 H       -7.5950    -7.6600     3.1800 H     1 <1>   0.1500 
@<TRIPOS>BOND
  1   1   2  1   
  2   1   3  1   
  3   2   4  2   
  4   2   5  1   
  5   3   6  2   
  6   3   7  1   
  7   4   6  1   
  8   5   8  am  
  9   5  23  1   
 10   7   9  1   
 11   7  10  1   
 12   7  24  1   
 13   8  11  2   
 14   8  12  1   
 15   9  13  1   
 16  10  25  1   
 17  10  26  1   
 18  10  27  1   
 19  12  14  1   
 20  12  28  1   
 21  12  29  1   
 22  13  30  1   
 23  13  31  1   
 24  13  32  1   
 25  14  15  1   
 26  15  16  1   
 27  15  33  1   
 28  15  34  1   
 29  16  17  ar  
 30  16  18  ar  
 31  17  19  ar  
 32  17  20  1   
 33  18  21  ar  
 34  18  35  1   
 35  19  22  ar  
 36  19  36  1   
 37  20  37  1   
 38  20  38  1   
 39  20  39  1   
 40  21  22  ar  
 41  21  40  1   
 42  22  41  1   
@<TRIPOS>SUBSTRUCTURE
  1 ****   5 GROUP 4 **** **** 0

# MOE 2024.06 (io_trps.svl 2023.06)
