@<TRIPOS>MOLECULE
NONAME
54 56 1 0 0 
SMALL
USER_CHARGES


@<TRIPOS>ATOM
  1 S        0.4520    -0.4300    -1.6900 S.o2  1 <1>   1.2040 
  2 O       -0.1820     0.5840    -2.5050 O.2   1 <1>  -0.6500 
  3 O        1.3120    -1.4110    -2.3190 O.2   1 <1>  -0.6500 
  4 C        1.3320     0.3590    -0.3220 C.ar  1 <1>  -0.0090 
  5 C       -0.8440    -1.2960    -0.8280 C.3   1 <1>  -0.0550 
  6 C        2.4880    -0.2040     0.2080 C.ar  1 <1>  -0.1500 
  7 C        0.8570     1.5310     0.2550 C.ar  1 <1>  -0.1500 
  8 C       -1.6670    -2.1480    -1.7860 C.3   1 <1>   0.1100 
  9 C        3.1440     0.3770     1.2790 C.ar  1 <1>  -0.1500 
 10 C        1.5060     2.1190     1.3270 C.ar  1 <1>  -0.1500 
 11 N       -2.5700    -2.9850    -0.9940 N.3   1 <1>  -0.8100 
 12 C        2.6520     1.5400     1.8410 C.ar  1 <1>  -0.1500 
 13 C       -2.8150    -4.3130    -1.5790 C.3   1 <1>   0.1100 
 14 C       -3.8220    -2.3140    -0.5990 C.3   1 <1>   0.1100 
 15 C       -3.2330    -5.2980    -0.4560 C.3   1 <1>   0.0000 
 16 C       -4.8370    -3.3170    -0.0180 C.3   1 <1>  -0.1600 
 17 C       -4.1610    -4.5640     0.5750 C.3   1 <1>   0.2000 
 18 C       -4.0270    -6.4650    -1.0960 C.3   1 <1>   0.1200 
 19 C       -1.9740    -5.9730     0.1960 C.3   1 <1>  -0.0170 
 20 O       -3.4350    -4.1060     1.6480 O.3   1 <1>  -0.6800 
 21 O       -5.1960    -6.0470    -1.7200 O.3   1 <1>  -0.6800 
 22 C       -0.7460    -5.1150     0.5330 C.ar  1 <1>  -0.1430 
 23 C       -0.5290    -4.6570     1.8250 C.ar  1 <1>  -0.1500 
 24 C        0.2020    -4.8230    -0.4390 C.ar  1 <1>  -0.1500 
 25 C        0.5880    -3.9000     2.1330 C.ar  1 <1>  -0.1500 
 26 C        1.3220    -4.0660    -0.1370 C.ar  1 <1>  -0.1500 
 27 C        1.5150    -3.6020     1.1510 C.ar  1 <1>  -0.1500 
 28 H       -0.4130    -1.9410    -0.0880 H     1 <1>   0.0800 
 29 H       -1.4860    -0.5940    -0.3360 H     1 <1>   0.0800 
 30 H        2.8820    -1.1070    -0.2270 H     1 <1>   0.1500 
 31 H       -0.0310     1.9950    -0.1420 H     1 <1>   0.1500 
 32 H       -0.9900    -2.7710    -2.3460 H     1 <1>   0.0800 
 33 H       -2.2160    -1.5350    -2.4820 H     1 <1>   0.0800 
 34 H        4.0380    -0.0750     1.6740 H     1 <1>   0.1500 
 35 H        1.1220     3.0270     1.7580 H     1 <1>   0.1500 
 36 H        3.1590     1.9950     2.6750 H     1 <1>   0.1500 
 37 H       -3.5880    -4.2230    -2.3240 H     1 <1>   0.0800 
 38 H       -1.9400    -4.6840    -2.0780 H     1 <1>   0.0800 
 39 H       -3.5940    -1.5730     0.1470 H     1 <1>   0.0800 
 40 H       -4.2610    -1.8160    -1.4470 H     1 <1>   0.0800 
 41 H       -5.5030    -3.6130    -0.8060 H     1 <1>   0.0800 
 42 H       -5.4410    -2.8340     0.7290 H     1 <1>   0.0800 
 43 H       -4.9000    -5.2380     0.9730 H     1 <1>   0.0800 
 44 H       -4.2970    -7.1960    -0.3510 H     1 <1>   0.0800 
 45 H       -3.4290    -6.9520    -1.8480 H     1 <1>   0.0800 
 46 H       -2.2870    -6.4850     1.0900 H     1 <1>   0.0800 
 47 H       -1.6160    -6.7400    -0.4680 H     1 <1>   0.0800 
 48 H       -2.6590    -3.6340     1.2650 H     1 <1>   0.4000 
 49 H       -5.8590    -5.7560    -1.0650 H     1 <1>   0.4000 
 50 H       -1.2290    -4.8940     2.6080 H     1 <1>   0.1500 
 51 H        0.0810    -5.1850    -1.4430 H     1 <1>   0.1500 
 52 H        0.7360    -3.5480     3.1390 H     1 <1>   0.1500 
 53 H        2.0390    -3.8410    -0.9080 H     1 <1>   0.1500 
 54 H        2.3850    -3.0170     1.3920 H     1 <1>   0.1500 
@<TRIPOS>BOND
  1   1   2  2   
  2   1   3  2   
  3   1   4  1   
  4   1   5  1   
  5   4   6  ar  
  6   4   7  ar  
  7   5   8  1   
  8   5  28  1   
  9   5  29  1   
 10   6   9  ar  
 11   6  30  1   
 12   7  10  ar  
 13   7  31  1   
 14   8  11  1   
 15   8  32  1   
 16   8  33  1   
 17   9  12  ar  
 18   9  34  1   
 19  10  12  ar  
 20  10  35  1   
 21  11  13  1   
 22  11  14  1   
 23  12  36  1   
 24  13  15  1   
 25  13  37  1   
 26  13  38  1   
 27  14  16  1   
 28  14  39  1   
 29  14  40  1   
 30  15  17  1   
 31  15  18  1   
 32  15  19  1   
 33  16  17  1   
 34  16  41  1   
 35  16  42  1   
 36  17  20  1   
 37  17  43  1   
 38  18  21  1   
 39  18  44  1   
 40  18  45  1   
 41  19  22  1   
 42  19  46  1   
 43  19  47  1   
 44  20  48  1   
 45  21  49  1   
 46  22  23  ar  
 47  22  24  ar  
 48  23  25  ar  
 49  23  50  1   
 50  24  26  ar  
 51  24  51  1   
 52  25  27  ar  
 53  25  52  1   
 54  26  27  ar  
 55  26  53  1   
 56  27  54  1   
@<TRIPOS>SUBSTRUCTURE
  1 ****   5 GROUP 4 **** **** 0

# MOE 2024.06 (io_trps.svl 2023.06)
