@<TRIPOS>MOLECULE
NONAME
41 42 1 0 0 
SMALL
USER_CHARGES


@<TRIPOS>ATOM
  1 O        0.3120    -0.1400    -1.3370 O.2   1 <1>  -0.5700 
  2 C        1.1740    -0.7150    -0.6990 C.2   1 <1>   0.5440 
  3 N        2.1700     0.0390    -0.1090 N.am  1 <1>  -0.6600 
  4 C        1.1180    -2.1590    -0.5650 C.ar  1 <1>   0.0860 
  5 C        2.4180     1.4440    -0.6020 C.3   1 <1>   0.2200 
  6 C        2.8310    -0.3990     1.1590 C.3   1 <1>   0.0600 
  7 C        2.2570    -2.9530    -0.7090 C.ar  1 <1>  -0.1500 
  8 C       -0.0860    -2.8070    -0.2890 C.ar  1 <1>  -0.1500 
  9 C        3.8960     1.8220    -0.6630 C.3   1 <1>   0.2000 
 10 C        1.8360     2.4930     0.3540 C.3   1 <1>   0.1200 
 11 C        2.1990    -4.3260    -0.5620 C.ar  1 <1>  -0.1500 
 12 C       -0.1540    -4.1800    -0.1410 C.ar  1 <1>  -0.1500 
 13 O        4.0980     2.7470    -1.6830 O.3   1 <1>  -0.6800 
 14 C        4.1240     2.5330     0.6670 C.3   1 <1>   0.1200 
 15 O        2.9080     3.1340     0.9980 O.3   1 <1>  -0.5600 
 16 C        0.9970    -4.9520    -0.2730 C.ar  1 <1>   0.0830 
 17 O        1.0240    -6.2960    -0.1400 O.3   1 <1>  -0.3630 
 18 C       -0.1430    -7.0400     0.1230 C.3   1 <1>   0.1200 
 19 C        0.2380    -8.5180     0.1980 C.3   1 <1>  -0.1600 
 20 C       -0.9850    -9.3970     0.4840 C.3   1 <1>  -0.2400 
 21 H        1.9810     1.5530    -1.5800 H     1 <1>   0.0800 
 22 H        2.7090     0.3540     1.9190 H     1 <1>   0.0800 
 23 H        3.8800    -0.5680     0.9880 H     1 <1>   0.0800 
 24 H        2.3920    -1.3090     1.5280 H     1 <1>   0.0800 
 25 H        3.1960    -2.4840    -0.9430 H     1 <1>   0.1500 
 26 H       -0.9790    -2.2130    -0.1920 H     1 <1>   0.1500 
 27 H        4.5470     0.9840    -0.8320 H     1 <1>   0.0800 
 28 H        1.1910     2.0510     1.0920 H     1 <1>   0.0800 
 29 H        1.2940     3.2410    -0.1960 H     1 <1>   0.0800 
 30 H        3.0840    -4.9270    -0.6730 H     1 <1>   0.1500 
 31 H       -1.1050    -4.6300     0.0740 H     1 <1>   0.1500 
 32 H        3.6360     3.5800    -1.4550 H     1 <1>   0.4000 
 33 H        4.8940     3.2830     0.6080 H     1 <1>   0.0800 
 34 H        4.3680     1.8320     1.4440 H     1 <1>   0.0800 
 35 H       -0.5550    -6.7050     1.0590 H     1 <1>   0.0800 
 36 H       -0.8430    -6.8670    -0.6760 H     1 <1>   0.0800 
 37 H        0.6790    -8.8170    -0.7370 H     1 <1>   0.0800 
 38 H        0.9650    -8.6560     0.9800 H     1 <1>   0.0800 
 39 H       -1.7190    -9.2870    -0.2950 H     1 <1>   0.0800 
 40 H       -1.4320    -9.1270     1.4250 H     1 <1>   0.0800 
 41 H       -0.6900   -10.4310     0.5310 H     1 <1>   0.0800 
@<TRIPOS>BOND
  1   1   2  2   
  2   2   3  am  
  3   2   4  1   
  4   3   5  1   
  5   3   6  1   
  6   4   7  ar  
  7   4   8  ar  
  8   5   9  1   
  9   5  10  1   
 10   5  21  1   
 11   6  22  1   
 12   6  23  1   
 13   6  24  1   
 14   7  11  ar  
 15   7  25  1   
 16   8  12  ar  
 17   8  26  1   
 18   9  13  1   
 19   9  14  1   
 20   9  27  1   
 21  10  15  1   
 22  10  28  1   
 23  10  29  1   
 24  11  16  ar  
 25  11  30  1   
 26  12  16  ar  
 27  12  31  1   
 28  13  32  1   
 29  14  15  1   
 30  14  33  1   
 31  14  34  1   
 32  16  17  1   
 33  17  18  1   
 34  18  19  1   
 35  18  35  1   
 36  18  36  1   
 37  19  20  1   
 38  19  37  1   
 39  19  38  1   
 40  20  39  1   
 41  20  40  1   
 42  20  41  1   
@<TRIPOS>SUBSTRUCTURE
  1 ****   4 GROUP 4 **** **** 0

# MOE 2024.06 (io_trps.svl 2023.06)
