@<TRIPOS>MOLECULE
NONAME
53 55 1 0 0 
SMALL
USER_CHARGES


@<TRIPOS>ATOM
  1 O       -1.6690    -0.3110     2.0240 O.2   1 <1>  -0.5700 
  2 C       -1.8650     0.2610     0.9770 C.2   1 <1>   0.5690 
  3 N       -2.4900    -0.3780    -0.0680 N.am  1 <1>  -0.6600 
  4 C       -1.3370     1.7000     0.8940 C.3   1 <1>  -0.0190 
  5 C       -2.5250    -1.8850    -0.0430 C.3   1 <1>   0.3640 
  6 C       -3.3100     0.3280    -1.1010 C.3   1 <1>   0.1400 
  7 C       -2.4170     2.8000     0.8750 C.3   1 <1>  -0.1600 
  8 C       -0.3130     1.9050    -0.2390 C.3   1 <1>  -0.1600 
  9 C       -1.1260    -2.4090    -0.3850 C.ar  1 <1>  -0.1440 
 10 C       -3.5680    -2.5750    -0.9770 C.3   1 <1>   0.2000 
 11 C       -3.8510    -0.5990    -2.1910 C.3   1 <1>   0.1200 
 12 C       -1.7710     4.1830     0.7590 C.3   1 <1>   0.1200 
 13 C        0.1650     3.3590    -0.2840 C.3   1 <1>   0.1200 
 14 C       -0.5430    -3.3770     0.4220 C.ar  1 <1>  -0.1500 
 15 C       -0.4250    -1.9470    -1.4920 C.ar  1 <1>  -0.1500 
 16 O       -4.4650    -1.6890    -1.5910 O.3   1 <1>  -0.5600 
 17 C       -4.4150    -3.6160    -0.2320 C.3   1 <1>   0.1200 
 18 O       -0.9420     4.2040    -0.3620 O.3   1 <1>  -0.5600 
 19 C        0.7110    -3.8870     0.1290 C.ar  1 <1>   0.0820 
 20 C        0.8360    -2.4380    -1.7850 C.ar  1 <1>  -0.1500 
 21 O       -3.6140    -4.6210     0.3020 O.3   1 <1>  -0.6800 
 22 O        1.1960    -4.8590     0.9390 O.3   1 <1>  -0.3630 
 23 C        1.4180    -3.3970    -0.9740 C.ar  1 <1>   0.0820 
 24 C        1.3290    -6.1400     0.3660 C.3   1 <1>   0.0400 
 25 O        2.6680    -3.8130    -1.2970 O.3   1 <1>  -0.3630 
 26 C        3.6860    -3.5190    -0.3650 C.3   1 <1>   0.0400 
 27 H       -0.7880     1.8550     1.8070 H     1 <1>   0.0800 
 28 H       -2.7510    -2.1890     0.9650 H     1 <1>   0.0800 
 29 H       -4.1510     0.7860    -0.6120 H     1 <1>   0.0800 
 30 H       -2.7370     1.1050    -1.5700 H     1 <1>   0.0800 
 31 H       -3.0000     2.7490     1.7780 H     1 <1>   0.0800 
 32 H       -3.0860     2.6860     0.0460 H     1 <1>   0.0800 
 33 H       -0.7300     1.6570    -1.1950 H     1 <1>   0.0800 
 34 H        0.5310     1.2560    -0.0790 H     1 <1>   0.0800 
 35 H       -3.0500    -3.0790    -1.7730 H     1 <1>   0.0800 
 36 H       -3.0690    -0.9440    -2.8450 H     1 <1>   0.0800 
 37 H       -4.5910    -0.0860    -2.7780 H     1 <1>   0.0800 
 38 H       -1.1830     4.4200     1.6300 H     1 <1>   0.0800 
 39 H       -2.5220     4.9430     0.6270 H     1 <1>   0.0800 
 40 H        0.7730     3.5310    -1.1550 H     1 <1>   0.0800 
 41 H        0.7320     3.6140     0.5960 H     1 <1>   0.0800 
 42 H       -1.0620    -3.7490     1.2890 H     1 <1>   0.1500 
 43 H       -0.8520    -1.1940    -2.1280 H     1 <1>   0.1500 
 44 H       -5.1230    -4.0730    -0.9010 H     1 <1>   0.0800 
 45 H       -4.9420    -3.1490     0.5830 H     1 <1>   0.0800 
 46 H        1.3790    -2.0760    -2.6390 H     1 <1>   0.1500 
 47 H       -3.1780    -5.1380    -0.4050 H     1 <1>   0.4000 
 48 H        1.6450    -6.8210     1.1350 H     1 <1>   0.0800 
 49 H        2.0630    -6.1050    -0.4190 H     1 <1>   0.0800 
 50 H        0.3750    -6.4440    -0.0270 H     1 <1>   0.0800 
 51 H        4.6310    -3.7810    -0.8050 H     1 <1>   0.0800 
 52 H        3.5280    -4.0920     0.5300 H     1 <1>   0.0800 
 53 H        3.6600    -2.4660    -0.1430 H     1 <1>   0.0800 
@<TRIPOS>BOND
  1   1   2  2   
  2   2   3  am  
  3   2   4  1   
  4   3   5  1   
  5   3   6  1   
  6   4   7  1   
  7   4   8  1   
  8   4  27  1   
  9   5   9  1   
 10   5  10  1   
 11   5  28  1   
 12   6  11  1   
 13   6  29  1   
 14   6  30  1   
 15   7  12  1   
 16   7  31  1   
 17   7  32  1   
 18   8  13  1   
 19   8  33  1   
 20   8  34  1   
 21   9  14  ar  
 22   9  15  ar  
 23  10  16  1   
 24  10  17  1   
 25  10  35  1   
 26  11  16  1   
 27  11  36  1   
 28  11  37  1   
 29  12  18  1   
 30  12  38  1   
 31  12  39  1   
 32  13  18  1   
 33  13  40  1   
 34  13  41  1   
 35  14  19  ar  
 36  14  42  1   
 37  15  20  ar  
 38  15  43  1   
 39  17  21  1   
 40  17  44  1   
 41  17  45  1   
 42  19  22  1   
 43  19  23  ar  
 44  20  23  ar  
 45  20  46  1   
 46  21  47  1   
 47  22  24  1   
 48  23  25  1   
 49  24  48  1   
 50  24  49  1   
 51  24  50  1   
 52  25  26  1   
 53  26  51  1   
 54  26  52  1   
 55  26  53  1   
@<TRIPOS>SUBSTRUCTURE
  1 ****   9 GROUP 4 **** **** 0

# MOE 2024.06 (io_trps.svl 2023.06)
