@<TRIPOS>MOLECULE
NONAME
57 60 1 0 0 
SMALL
USER_CHARGES


@<TRIPOS>ATOM
  1 O       -2.4220     0.7220    -2.6480 O.2   1 <1>  -0.5700 
  2 C       -2.1280     1.0460    -1.5150 C.2   1 <1>   0.5440 
  3 N       -2.2240     0.0780    -0.5350 N.am  1 <1>  -0.6600 
  4 C       -1.8160     2.4270    -1.2100 C.ar  1 <1>   0.0860 
  5 C       -2.7390     0.3870     0.8330 C.3   1 <1>   0.1400 
  6 C       -2.3520    -1.3620    -0.9020 C.3   1 <1>   0.1400 
  7 C       -0.7140     2.8120    -0.4030 C.ar  1 <1>   0.0000 
  8 C       -2.6240     3.4320    -1.6730 C.ar  1 <1>  -0.1500 
  9 C       -4.2150    -0.0570     0.9740 C.3   1 <1>   0.4230 
 10 C       -3.8270    -1.7890    -0.8090 C.3   1 <1>   0.3430 
 11 C       -0.6020     4.1720    -0.0310 C.ar  1 <1>   0.3100 
 12 C        0.2810     1.9130     0.0410 C.ar  1 <1>  -0.1500 
 13 C       -2.4160     4.7550    -1.2840 C.ar  1 <1>   0.1660 
 14 N       -4.4230    -1.5060     0.5570 N.4   1 <1>  -0.9590 
 15 C       -5.1440     0.8850     0.1720 C.3   1 <1>   0.1200 
 16 N       -1.4710     5.1150    -0.4790 N.ar  1 <1>  -0.6200 
 17 C        0.4530     4.5640     0.8260 C.ar  1 <1>  -0.1430 
 18 C        1.2980     2.3190     0.8580 C.ar  1 <1>  -0.1500 
 19 C       -3.3310     5.8450    -1.8000 C.3   1 <1>  -0.0970 
 20 C       -5.8890    -1.8400     0.6470 C.3   1 <1>   0.4230 
 21 O       -6.4770     0.4850     0.3090 O.3   1 <1>  -0.5600 
 22 C        1.3790     3.6520     1.2610 C.ar  1 <1>  -0.1500 
 23 C        0.5740     6.0200     1.2670 C.3   1 <1>  -0.0970 
 24 C       -6.7520    -0.8150    -0.1300 C.3   1 <1>   0.1200 
 25 C       -6.1430    -3.2910     0.2080 C.3   1 <1>  -0.1600 
 26 C       -7.5290    -3.7980     0.6370 C.3   1 <1>  -0.1600 
 27 C       -7.7130    -5.2700     0.2570 C.3   1 <1>  -0.2400 
 28 H       -2.1350    -0.1250     1.5610 H     1 <1>   0.0800 
 29 H       -2.6610     1.4410     1.0410 H     1 <1>   0.0800 
 30 H       -1.9930    -1.5280    -1.9040 H     1 <1>   0.0800 
 31 H       -1.7490    -1.9600    -0.2400 H     1 <1>   0.0800 
 32 H       -3.4390     3.2050    -2.3360 H     1 <1>   0.1500 
 33 H       -4.4880     0.0510     2.0110 H     1 <1>   0.0800 
 34 H       -3.8980    -2.8400    -1.0330 H     1 <1>   0.0800 
 35 H       -4.3760    -1.2530    -1.5660 H     1 <1>   0.0800 
 36 H        0.2490     0.8860    -0.2760 H     1 <1>   0.1500 
 37 H       -3.9320    -2.0960     1.2380 H     1 <1>   0.4500 
 38 H       -4.8930     0.8930    -0.8750 H     1 <1>   0.0800 
 39 H       -5.0680     1.8910     0.5470 H     1 <1>   0.0800 
 40 H        2.0500     1.6250     1.1950 H     1 <1>   0.1500 
 41 H       -4.0810     5.4500    -2.4600 H     1 <1>   0.0800 
 42 H       -2.7500     6.5750    -2.3330 H     1 <1>   0.0800 
 43 H       -3.8150     6.3310    -0.9720 H     1 <1>   0.0800 
 44 H       -6.1840    -1.7670     1.6810 H     1 <1>   0.0800 
 45 H        2.1870     3.9450     1.9100 H     1 <1>   0.1500 
 46 H        1.4120     6.1630     1.9250 H     1 <1>   0.0800 
 47 H       -0.3210     6.3210     1.7820 H     1 <1>   0.0800 
 48 H        0.7030     6.6510     0.4060 H     1 <1>   0.0800 
 49 H       -7.7970    -0.9950     0.0470 H     1 <1>   0.0800 
 50 H       -6.5730    -0.8690    -1.1900 H     1 <1>   0.0800 
 51 H       -6.0650    -3.3780    -0.8620 H     1 <1>   0.0800 
 52 H       -5.4050    -3.9300     0.6600 H     1 <1>   0.0800 
 53 H       -7.6470    -3.6990     1.7030 H     1 <1>   0.0800 
 54 H       -8.3080    -3.2250     0.1610 H     1 <1>   0.0800 
 55 H       -6.9760    -5.8860     0.7420 H     1 <1>   0.0800 
 56 H       -7.6300    -5.4030    -0.8080 H     1 <1>   0.0800 
 57 H       -8.6880    -5.6090     0.5620 H     1 <1>   0.0800 
@<TRIPOS>BOND
  1   1   2  2   
  2   2   3  am  
  3   2   4  1   
  4   3   5  1   
  5   3   6  1   
  6   4   7  ar  
  7   4   8  ar  
  8   5   9  1   
  9   5  28  1   
 10   5  29  1   
 11   6  10  1   
 12   6  30  1   
 13   6  31  1   
 14   7  11  ar  
 15   7  12  ar  
 16   8  13  ar  
 17   8  32  1   
 18   9  14  1   
 19   9  15  1   
 20   9  33  1   
 21  10  14  1   
 22  10  34  1   
 23  10  35  1   
 24  11  16  ar  
 25  11  17  ar  
 26  12  18  ar  
 27  12  36  1   
 28  13  16  ar  
 29  13  19  1   
 30  14  20  1   
 31  14  37  1   
 32  15  21  1   
 33  15  38  1   
 34  15  39  1   
 35  17  22  ar  
 36  17  23  1   
 37  18  22  ar  
 38  18  40  1   
 39  19  41  1   
 40  19  42  1   
 41  19  43  1   
 42  20  24  1   
 43  20  25  1   
 44  20  44  1   
 45  21  24  1   
 46  22  45  1   
 47  23  46  1   
 48  23  47  1   
 49  23  48  1   
 50  24  49  1   
 51  24  50  1   
 52  25  26  1   
 53  25  51  1   
 54  25  52  1   
 55  26  27  1   
 56  26  53  1   
 57  26  54  1   
 58  27  55  1   
 59  27  56  1   
 60  27  57  1   
@<TRIPOS>SUBSTRUCTURE
  1 ****   5 GROUP 4 **** **** 0

# MOE 2024.06 (io_trps.svl 2023.06)
