@<TRIPOS>MOLECULE
NONAME
53 55 1 0 0 
SMALL
USER_CHARGES


@<TRIPOS>ATOM
  1 O       -0.1710    -0.0380     1.2130 O.3   1 <1>  -0.3630 
  2 C       -0.1610    -1.3770     1.0120 C.ar  1 <1>   0.0830 
  3 C       -0.8070     0.7520     0.2340 C.3   1 <1>   0.1200 
  4 C        0.5190    -1.9880    -0.0480 C.ar  1 <1>   0.0830 
  5 C       -0.8640    -2.1580     1.9120 C.ar  1 <1>  -0.1500 
  6 C       -0.7870     2.2010     0.7110 C.3   1 <1>  -0.2400 
  7 O        1.2700    -1.3080    -0.9460 O.3   1 <1>  -0.3620 
  8 C        0.4370    -3.3600    -0.2140 C.ar  1 <1>  -0.1500 
  9 C       -0.9330    -3.5310     1.7460 C.ar  1 <1>  -0.1500 
 10 C        2.3860    -0.6020    -0.4440 C.3   1 <1>   0.0400 
 11 C       -0.2950    -4.1380     0.6730 C.ar  1 <1>  -0.1430 
 12 C       -0.4150    -5.6360     0.4590 C.3   1 <1>   0.4860 
 13 N       -1.2320    -5.8860    -0.7660 N.4   1 <1>  -0.9590 
 14 C       -2.5720    -5.2300    -0.6640 C.3   1 <1>   0.4230 
 15 C       -1.2530    -7.3450    -1.1050 C.3   1 <1>   0.2630 
 16 C       -3.5310    -5.8720     0.3350 C.3   1 <1>  -0.1600 
 17 C       -3.3470    -5.2270    -1.9750 C.3   1 <1>  -0.1600 
 18 C       -4.9010    -5.3140    -0.0680 C.3   1 <1>  -0.0800 
 19 C       -4.7840    -4.9040    -1.5480 C.3   1 <1>  -0.0800 
 20 C       -5.2900    -4.0440     0.7040 C.3   1 <1>  -0.1600 
 21 C       -5.1160    -3.4050    -1.6110 C.3   1 <1>  -0.1600 
 22 C       -5.9100    -3.1320    -0.3430 C.3   1 <1>   0.2000 
 23 O       -5.7730    -1.8150     0.0320 O.3   1 <1>  -0.6800 
 24 H       -0.2780     0.6520    -0.6970 H     1 <1>   0.0800 
 25 H       -1.8170     0.4020     0.1170 H     1 <1>   0.0800 
 26 H       -1.3590    -1.6800     2.7400 H     1 <1>   0.1500 
 27 H        0.2270     2.5360     0.8350 H     1 <1>   0.0800 
 28 H       -1.3120     2.2900     1.6450 H     1 <1>   0.0800 
 29 H       -1.2690     2.8300    -0.0160 H     1 <1>   0.0800 
 30 H        0.9650    -3.7960    -1.0430 H     1 <1>   0.1500 
 31 H       -1.4910    -4.1100     2.4630 H     1 <1>   0.1500 
 32 H        2.9670    -0.2530    -1.2790 H     1 <1>   0.0800 
 33 H        2.9760    -1.2660     0.1630 H     1 <1>   0.0800 
 34 H        2.0500     0.2360     0.1390 H     1 <1>   0.0800 
 35 H       -0.8820    -6.0910     1.3160 H     1 <1>   0.0800 
 36 H        0.5700    -6.0580     0.3420 H     1 <1>   0.0800 
 37 H       -0.7490    -5.3860    -1.5230 H     1 <1>   0.4500 
 38 H       -2.4450    -4.1980    -0.3770 H     1 <1>   0.0800 
 39 H       -1.7350    -7.9080    -0.3230 H     1 <1>   0.0800 
 40 H       -0.2470    -7.7160    -1.2230 H     1 <1>   0.0800 
 41 H       -1.7850    -7.5120    -2.0270 H     1 <1>   0.0800 
 42 H       -3.5590    -6.9390     0.2150 H     1 <1>   0.0800 
 43 H       -3.2860    -5.6310     1.3540 H     1 <1>   0.0800 
 44 H       -2.9610    -4.5040    -2.6720 H     1 <1>   0.0800 
 45 H       -3.3440    -6.2010    -2.4300 H     1 <1>   0.0800 
 46 H       -5.6710    -6.0580     0.0530 H     1 <1>   0.0800 
 47 H       -5.4950    -5.4540    -2.1440 H     1 <1>   0.0800 
 48 H       -4.4200    -3.5720     1.1250 H     1 <1>   0.0800 
 49 H       -5.9940    -4.2610     1.4890 H     1 <1>   0.0800 
 50 H       -5.6970    -3.1680    -2.4850 H     1 <1>   0.0800 
 51 H       -4.2160    -2.8150    -1.6090 H     1 <1>   0.0800 
 52 H       -6.9560    -3.3520    -0.4820 H     1 <1>   0.0800 
 53 H       -4.8350    -1.5870     0.1630 H     1 <1>   0.4000 
@<TRIPOS>BOND
  1   1   2  1   
  2   1   3  1   
  3   2   4  ar  
  4   2   5  ar  
  5   3   6  1   
  6   3  24  1   
  7   3  25  1   
  8   4   7  1   
  9   4   8  ar  
 10   5   9  ar  
 11   5  26  1   
 12   6  27  1   
 13   6  28  1   
 14   6  29  1   
 15   7  10  1   
 16   8  11  ar  
 17   8  30  1   
 18   9  11  ar  
 19   9  31  1   
 20  10  32  1   
 21  10  33  1   
 22  10  34  1   
 23  11  12  1   
 24  12  13  1   
 25  12  35  1   
 26  12  36  1   
 27  13  14  1   
 28  13  15  1   
 29  13  37  1   
 30  14  16  1   
 31  14  17  1   
 32  14  38  1   
 33  15  39  1   
 34  15  40  1   
 35  15  41  1   
 36  16  18  1   
 37  16  42  1   
 38  16  43  1   
 39  17  19  1   
 40  17  44  1   
 41  17  45  1   
 42  18  19  1   
 43  18  20  1   
 44  18  46  1   
 45  19  21  1   
 46  19  47  1   
 47  20  22  1   
 48  20  48  1   
 49  20  49  1   
 50  21  22  1   
 51  21  50  1   
 52  21  51  1   
 53  22  23  1   
 54  22  52  1   
 55  23  53  1   
@<TRIPOS>SUBSTRUCTURE
  1 ****  11 GROUP 4 **** **** 0

# MOE 2024.06 (io_trps.svl 2023.06)
