@<TRIPOS>MOLECULE
NONAME
54 56 1 0 0 
SMALL
USER_CHARGES


@<TRIPOS>ATOM
  1 S       -0.5310    -0.0410     2.4630 S.3   1 <1>  -0.0800 
  2 C        0.1640    -0.3900     0.9000 C.2   1 <1>   0.1980 
  3 C       -0.7800    -1.7400     2.6960 C.2   1 <1>  -0.1100 
  4 N        0.1910    -1.6260     0.6060 N.2   1 <1>  -0.5650 
  5 C        0.6500     0.7830     0.0710 C.3   1 <1>   0.0200 
  6 C       -0.3480    -2.4410     1.6240 C.2   1 <1>   0.1410 
  7 C        1.9780     1.3390     0.6060 C.3   1 <1>  -0.1600 
  8 C       -0.4130    -3.9040     1.5380 C.2   1 <1>   0.7160 
  9 C        2.4890     2.5010    -0.2520 C.3   1 <1>  -0.2400 
 10 O       -0.6030    -4.5240     2.5700 O.2   1 <1>  -0.5700 
 11 N       -0.2890    -4.6260     0.3650 N.am  1 <1>  -0.6600 
 12 C       -0.2050    -6.1290     0.3790 C.3   1 <1>   0.3640 
 13 C       -0.4360    -4.0020    -0.9900 C.3   1 <1>   0.1400 
 14 C        1.2180    -6.6300     0.0630 C.ar  1 <1>  -0.1430 
 15 C       -1.2640    -6.7620    -0.5820 C.3   1 <1>   0.2000 
 16 C       -0.6730    -5.0380    -2.0990 C.3   1 <1>   0.1200 
 17 C        1.4620    -7.9970     0.1400 C.ar  1 <1>  -0.1500 
 18 C        2.2770    -5.7930    -0.2780 C.ar  1 <1>  -0.1500 
 19 O       -1.6340    -5.9540    -1.6790 O.3   1 <1>  -0.5600 
 20 C       -2.5580    -7.1000     0.1680 C.3   1 <1>   0.1200 
 21 C        2.7090    -8.5270    -0.1450 C.ar  1 <1>   0.0830 
 22 C        3.5330    -6.3080    -0.5470 C.ar  1 <1>  -0.1500 
 23 O       -2.3590    -8.2060     0.9910 O.3   1 <1>  -0.6800 
 24 O        2.8370    -9.8760    -0.0930 O.3   1 <1>  -0.3630 
 25 C        3.7640    -7.6700    -0.4720 C.ar  1 <1>   0.0830 
 26 C        3.1830   -10.5290    -1.2950 C.3   1 <1>   0.0400 
 27 O        5.0240    -8.1070    -0.7100 O.3   1 <1>  -0.3630 
 28 C        5.7130    -8.6370     0.4010 C.3   1 <1>   0.0400 
 29 H       -1.2240    -2.0690     3.6190 H     1 <1>   0.1500 
 30 H        0.7840     0.4510    -0.9430 H     1 <1>   0.0800 
 31 H       -0.1010     1.5510     0.0740 H     1 <1>   0.0800 
 32 H        1.8450     1.6770     1.6190 H     1 <1>   0.0800 
 33 H        2.7120     0.5510     0.6140 H     1 <1>   0.0800 
 34 H        1.7790     3.3090    -0.2560 H     1 <1>   0.0800 
 35 H        2.6560     2.1790    -1.2650 H     1 <1>   0.0800 
 36 H        3.4200     2.8680     0.1460 H     1 <1>   0.0800 
 37 H       -0.4170    -6.4960     1.3680 H     1 <1>   0.0800 
 38 H       -1.2680    -3.3200    -0.9750 H     1 <1>   0.0800 
 39 H        0.4480    -3.4380    -1.2270 H     1 <1>   0.0800 
 40 H       -0.8770    -7.6710    -1.0030 H     1 <1>   0.0800 
 41 H        0.2330    -5.5670    -2.3430 H     1 <1>   0.0800 
 42 H       -1.0380    -4.5540    -2.9880 H     1 <1>   0.0800 
 43 H        0.6800    -8.6770     0.4260 H     1 <1>   0.1500 
 44 H        2.1490    -4.7270    -0.3280 H     1 <1>   0.1500 
 45 H       -3.3490    -7.3360    -0.5220 H     1 <1>   0.0800 
 46 H       -2.8540    -6.2710     0.7890 H     1 <1>   0.0800 
 47 H        4.3450    -5.6530    -0.8070 H     1 <1>   0.1500 
 48 H       -2.3920    -9.0340     0.4730 H     1 <1>   0.4000 
 49 H        3.0830   -11.5880    -1.1430 H     1 <1>   0.0800 
 50 H        4.1990   -10.2920    -1.5520 H     1 <1>   0.0800 
 51 H        2.5160   -10.2030    -2.0730 H     1 <1>   0.0800 
 52 H        6.7160    -8.8730     0.0950 H     1 <1>   0.0800 
 53 H        5.2130    -9.5260     0.7400 H     1 <1>   0.0800 
 54 H        5.7300    -7.8980     1.1830 H     1 <1>   0.0800 
@<TRIPOS>BOND
  1   1   2  1   
  2   1   3  1   
  3   2   4  2   
  4   2   5  1   
  5   3   6  2   
  6   3  29  1   
  7   4   6  1   
  8   5   7  1   
  9   5  30  1   
 10   5  31  1   
 11   6   8  1   
 12   7   9  1   
 13   7  32  1   
 14   7  33  1   
 15   8  10  2   
 16   8  11  am  
 17   9  34  1   
 18   9  35  1   
 19   9  36  1   
 20  11  12  1   
 21  11  13  1   
 22  12  14  1   
 23  12  15  1   
 24  12  37  1   
 25  13  16  1   
 26  13  38  1   
 27  13  39  1   
 28  14  17  ar  
 29  14  18  ar  
 30  15  19  1   
 31  15  20  1   
 32  15  40  1   
 33  16  19  1   
 34  16  41  1   
 35  16  42  1   
 36  17  21  ar  
 37  17  43  1   
 38  18  22  ar  
 39  18  44  1   
 40  20  23  1   
 41  20  45  1   
 42  20  46  1   
 43  21  24  1   
 44  21  25  ar  
 45  22  25  ar  
 46  22  47  1   
 47  23  48  1   
 48  24  26  1   
 49  25  27  1   
 50  26  49  1   
 51  26  50  1   
 52  26  51  1   
 53  27  28  1   
 54  28  52  1   
 55  28  53  1   
 56  28  54  1   
@<TRIPOS>SUBSTRUCTURE
  1 ****  11 GROUP 4 **** **** 0

# MOE 2024.06 (io_trps.svl 2023.06)
