@<TRIPOS>MOLECULE
NONAME
49 52 1 0 0 
SMALL
USER_CHARGES


@<TRIPOS>ATOM
  1 O        0.7730     0.2340    -1.1740 O.2   1 <1>  -0.5700 
  2 C        1.2770    -0.7900    -0.7910 C.2   1 <1>   0.5690 
  3 N        0.5310    -1.8720    -0.4870 N.am  1 <1>  -0.7300 
  4 C        2.7770    -0.9070    -0.6220 C.3   1 <1>  -0.0990 
  5 C        1.1170    -3.1460    -0.0200 C.3   1 <1>   0.1400 
  6 C        3.2850    -2.2580    -1.1660 C.3   1 <1>  -0.0800 
  7 C        2.3760    -3.4660    -0.8500 C.3   1 <1>  -0.0800 
  8 C        4.6760    -2.6280    -0.6420 C.3   1 <1>  -0.1600 
  9 C        3.2800    -4.5060    -0.1770 C.3   1 <1>  -0.1600 
 10 C        4.7080    -4.1550    -0.6000 C.3   1 <1>   0.1900 
 11 N        5.7060    -4.6940     0.3510 N.3   1 <1>  -0.8100 
 12 C        7.1050    -4.2770     0.0390 C.3   1 <1>   0.2900 
 13 C        5.6430    -6.1650     0.4290 C.3   1 <1>   0.0300 
 14 C        7.4750    -2.8820     0.5360 C.2   1 <1>   0.2980 
 15 O        7.2850    -2.5920     1.7960 O.3   1 <1>  -0.0190 
 16 N        7.9670    -1.9460    -0.1700 N.2   1 <1>  -0.5650 
 17 N        7.6790    -1.3610     1.9010 N.2   1 <1>  -0.4100 
 18 C        8.0790    -0.9740     0.7410 C.2   1 <1>   0.4620 
 19 C        8.5890     0.3490     0.4190 C.ar  1 <1>   0.0540 
 20 C        9.0160     0.6800    -0.8680 C.ar  1 <1>  -0.1500 
 21 C        8.6710     1.3500     1.3890 C.ar  1 <1>  -0.1500 
 22 C        9.5000     1.9400    -1.1720 C.ar  1 <1>  -0.1500 
 23 C        9.1540     2.6120     1.0910 C.ar  1 <1>  -0.1500 
 24 C        9.5740     2.9150    -0.1920 C.ar  1 <1>  -0.1440 
 25 C       10.1030     4.2990    -0.5230 C.3   1 <1>  -0.0970 
 26 H       -0.4840    -1.7880    -0.5620 H     1 <1>   0.3700 
 27 H        3.2630    -0.0950    -1.1310 H     1 <1>   0.0800 
 28 H        2.9890    -0.8200     0.4270 H     1 <1>   0.0800 
 29 H        1.3740    -3.0400     1.0210 H     1 <1>   0.0800 
 30 H        0.3970    -3.9400    -0.1170 H     1 <1>   0.0800 
 31 H        3.3410    -2.1770    -2.2390 H     1 <1>   0.0800 
 32 H        2.0450    -3.8750    -1.7900 H     1 <1>   0.0800 
 33 H        4.7970    -2.2490     0.3590 H     1 <1>   0.0800 
 34 H        5.4400    -2.2250    -1.2810 H     1 <1>   0.0800 
 35 H        3.0080    -5.5020    -0.4750 H     1 <1>   0.0800 
 36 H        3.2090    -4.4150     0.8940 H     1 <1>   0.0800 
 37 H        4.8910    -4.5340    -1.5920 H     1 <1>   0.0800 
 38 H        7.7920    -4.9550     0.5130 H     1 <1>   0.0800 
 39 H        7.2730    -4.3320    -1.0220 H     1 <1>   0.0800 
 40 H        6.3830    -6.5320     1.1200 H     1 <1>   0.0800 
 41 H        5.8170    -6.6030    -0.5390 H     1 <1>   0.0800 
 42 H        4.6820    -6.4830     0.7920 H     1 <1>   0.0800 
 43 H        8.9680    -0.0610    -1.6470 H     1 <1>   0.1500 
 44 H        8.3500     1.1370     2.3930 H     1 <1>   0.1500 
 45 H        9.8190     2.1580    -2.1760 H     1 <1>   0.1500 
 46 H        9.2010     3.3580     1.8650 H     1 <1>   0.1500 
 47 H       10.8390     4.2420    -1.3050 H     1 <1>   0.0800 
 48 H       10.5610     4.7430     0.3420 H     1 <1>   0.0800 
 49 H        9.2950     4.9280    -0.8500 H     1 <1>   0.0800 
@<TRIPOS>BOND
  1   1   2  2   
  2   2   3  am  
  3   2   4  1   
  4   3   5  1   
  5   3  26  1   
  6   4   6  1   
  7   4  27  1   
  8   4  28  1   
  9   5   7  1   
 10   5  29  1   
 11   5  30  1   
 12   6   7  1   
 13   6   8  1   
 14   6  31  1   
 15   7   9  1   
 16   7  32  1   
 17   8  10  1   
 18   8  33  1   
 19   8  34  1   
 20   9  10  1   
 21   9  35  1   
 22   9  36  1   
 23  10  11  1   
 24  10  37  1   
 25  11  12  1   
 26  11  13  1   
 27  12  14  1   
 28  12  38  1   
 29  12  39  1   
 30  13  40  1   
 31  13  41  1   
 32  13  42  1   
 33  14  15  1   
 34  14  16  2   
 35  15  17  1   
 36  16  18  1   
 37  17  18  2   
 38  18  19  1   
 39  19  20  ar  
 40  19  21  ar  
 41  20  22  ar  
 42  20  43  1   
 43  21  23  ar  
 44  21  44  1   
 45  22  24  ar  
 46  22  45  1   
 47  23  24  ar  
 48  23  46  1   
 49  24  25  1   
 50  25  47  1   
 51  25  48  1   
 52  25  49  1   
@<TRIPOS>SUBSTRUCTURE
  1 ****   8 GROUP 4 **** **** 0

# MOE 2024.06 (io_trps.svl 2023.06)
