@<TRIPOS>MOLECULE
NONAME
48 49 1 0 0 
SMALL
USER_CHARGES


@<TRIPOS>ATOM
  1 O       -0.4230     0.0670    -0.5050 O.2   1 <1>  -0.5700 
  2 C       -1.3030     0.6690     0.0790 C.2   1 <1>   0.5440 
  3 N       -2.2640    -0.0400     0.7700 N.am  1 <1>  -0.6600 
  4 C       -1.3220     2.1160     0.0240 C.ar  1 <1>   0.0860 
  5 C       -2.2250    -1.5270     0.7930 C.3   1 <1>   0.3200 
  6 C       -3.3280     0.6220     1.5910 C.3   1 <1>   0.1400 
  7 C       -1.8200     2.7800    -1.0940 C.ar  1 <1>  -0.1500 
  8 C       -0.8520     2.8920     1.0820 C.ar  1 <1>  -0.1500 
  9 C       -3.0730    -2.0650    -0.3430 C.2   1 <1>  -0.3320 
 10 C       -4.4850     1.1700     0.7420 C.3   1 <1>   0.1200 
 11 C       -1.8700     4.1610    -1.1450 C.ar  1 <1>  -0.1500 
 12 C       -0.8990     4.2730     1.0350 C.ar  1 <1>  -0.1500 
 13 N       -4.2410    -2.7280    -0.2180 N.pl3 1 <1>   0.0480 
 14 C       -2.8160    -1.9840    -1.6670 C.2   1 <1>   0.0770 
 15 O       -5.1150     0.1400     0.0670 O.3   1 <1>  -0.6800 
 16 C       -1.4110     4.9190    -0.0790 C.ar  1 <1>  -0.1430 
 17 C       -4.6190    -2.9930    -1.4880 C.2   1 <1>   0.0360 
 18 C       -4.9840    -3.0600     1.0110 C.3   1 <1>   0.0160 
 19 N       -3.7930    -2.5640    -2.3860 N.2   1 <1>  -0.5650 
 20 C       -1.4610     6.4410    -0.1300 C.3   1 <1>  -0.0170 
 21 C       -0.0830     7.0670    -0.4130 C.3   1 <1>  -0.0800 
 22 C       -0.1710     8.5970    -0.3500 C.3   1 <1>  -0.2400 
 23 C        0.4710     6.6380    -1.7790 C.3   1 <1>  -0.2400 
 24 H       -2.5710    -1.8940     1.7430 H     1 <1>   0.0800 
 25 H       -1.2110    -1.8710     0.6670 H     1 <1>   0.0800 
 26 H       -2.8930     1.4360     2.1420 H     1 <1>   0.0800 
 27 H       -3.7240    -0.0700     2.3130 H     1 <1>   0.0800 
 28 H       -2.1710     2.1990    -1.9290 H     1 <1>   0.1500 
 29 H       -0.4430     2.4000     1.9470 H     1 <1>   0.1500 
 30 H       -4.1340     1.8850     0.0200 H     1 <1>   0.0800 
 31 H       -5.2180     1.6450     1.3700 H     1 <1>   0.0800 
 32 H       -2.2620     4.6460    -2.0230 H     1 <1>   0.1500 
 33 H       -0.5300     4.8480     1.8660 H     1 <1>   0.1500 
 34 H       -1.9620    -1.5240    -2.1400 H     1 <1>   0.1500 
 35 H       -4.4490    -0.3650    -0.4590 H     1 <1>   0.4000 
 36 H       -5.5330    -3.5120    -1.7150 H     1 <1>   0.1500 
 37 H       -4.3770    -3.6860     1.6380 H     1 <1>   0.0800 
 38 H       -5.8890    -3.5800     0.7550 H     1 <1>   0.0800 
 39 H       -5.2330    -2.1530     1.5300 H     1 <1>   0.0800 
 40 H       -1.8280     6.8020     0.8150 H     1 <1>   0.0800 
 41 H       -2.1610     6.7560    -0.8840 H     1 <1>   0.0800 
 42 H        0.6040     6.7380     0.3490 H     1 <1>   0.0800 
 43 H       -0.8440     8.9710    -1.1020 H     1 <1>   0.0800 
 44 H        0.7990     9.0330    -0.5130 H     1 <1>   0.0800 
 45 H       -0.5230     8.9140     0.6160 H     1 <1>   0.0800 
 46 H       -0.2030     6.9200    -2.5680 H     1 <1>   0.0800 
 47 H        0.6120     5.5710    -1.8110 H     1 <1>   0.0800 
 48 H        1.4240     7.1020    -1.9580 H     1 <1>   0.0800 
@<TRIPOS>BOND
  1   1   2  2   
  2   2   3  am  
  3   2   4  1   
  4   3   5  1   
  5   3   6  1   
  6   4   7  ar  
  7   4   8  ar  
  8   5   9  1   
  9   5  24  1   
 10   5  25  1   
 11   6  10  1   
 12   6  26  1   
 13   6  27  1   
 14   7  11  ar  
 15   7  28  1   
 16   8  12  ar  
 17   8  29  1   
 18   9  13  1   
 19   9  14  2   
 20  10  15  1   
 21  10  30  1   
 22  10  31  1   
 23  11  16  ar  
 24  11  32  1   
 25  12  16  ar  
 26  12  33  1   
 27  13  17  1   
 28  13  18  1   
 29  14  19  1   
 30  14  34  1   
 31  15  35  1   
 32  16  20  1   
 33  17  19  2   
 34  17  36  1   
 35  18  37  1   
 36  18  38  1   
 37  18  39  1   
 38  20  21  1   
 39  20  40  1   
 40  20  41  1   
 41  21  22  1   
 42  21  23  1   
 43  21  42  1   
 44  22  43  1   
 45  22  44  1   
 46  22  45  1   
 47  23  46  1   
 48  23  47  1   
 49  23  48  1   
@<TRIPOS>SUBSTRUCTURE
  1 ****   4 GROUP 4 **** **** 0

# MOE 2024.06 (io_trps.svl 2023.06)
