@<TRIPOS>MOLECULE
NONAME
53 56 1 0 0 
SMALL
USER_CHARGES


@<TRIPOS>ATOM
  1 O       -2.8420    -0.3900    -1.7140 O.2   1 <1>  -0.5700 
  2 C       -2.7000     0.2200    -0.6720 C.2   1 <1>   0.5440 
  3 N       -3.1020    -0.3930     0.4960 N.am  1 <1>  -0.6600 
  4 C       -2.1640     1.5700    -0.6860 C.ar  1 <1>   0.0860 
  5 C       -3.9700     0.3030     1.4730 C.3   1 <1>   0.1400 
  6 C       -3.1330    -1.8730     0.5910 C.3   1 <1>   0.1400 
  7 C       -2.3610     2.4310    -1.7560 C.ar  1 <1>  -0.1500 
  8 C       -1.4120     2.0980     0.3550 C.ar  1 <1>  -0.1500 
  9 C       -5.4160    -0.1170     1.1980 C.3   1 <1>  -0.1600 
 10 C       -4.5540    -2.3470     0.2960 C.3   1 <1>  -0.1600 
 11 C       -1.8460     3.7120    -1.7270 C.ar  1 <1>   0.1600 
 12 C       -0.9390     3.3950     0.2880 C.ar  1 <1>   0.1600 
 13 C       -5.5670    -1.6450     1.2160 C.3   1 <1>   0.4230 
 14 N       -1.1460     4.2170    -0.7260 N.ar  1 <1>  -0.6200 
 15 N       -6.9740    -2.0070     0.8730 N.4   1 <1>  -0.9590 
 16 C       -7.4400    -1.6630    -0.5070 C.3   1 <1>   0.3430 
 17 C       -7.3140    -3.4490     1.0940 C.3   1 <1>   0.3430 
 18 C       -8.5910    -2.6320    -0.7750 C.3   1 <1>   0.2000 
 19 C       -8.1000    -3.9300    -0.1380 C.3   1 <1>  -0.0800 
 20 O       -9.6980    -2.1920    -0.0590 O.3   1 <1>  -0.6800 
 21 C       -7.2220    -4.7370    -1.1210 C.3   1 <1>  -0.0170 
 22 C       -6.7280    -6.0460    -0.5210 C.ar  1 <1>   0.1670 
 23 N       -5.7170    -5.9580     0.3290 N.ar  1 <1>  -0.6200 
 24 C       -7.3300    -7.2510    -0.8810 C.ar  1 <1>   0.1600 
 25 C       -5.3460    -7.1470     0.7830 C.ar  1 <1>   0.1600 
 26 N       -6.9680    -8.4340    -0.4170 N.ar  1 <1>  -0.6200 
 27 C       -5.9530    -8.3440     0.4230 C.ar  1 <1>   0.1600 
 28 H       -3.6750     0.0310     2.4730 H     1 <1>   0.0800 
 29 H       -3.8770     1.3710     1.3710 H     1 <1>   0.0800 
 30 H       -2.4460    -2.3020    -0.1220 H     1 <1>   0.0800 
 31 H       -2.8230    -2.1760     1.5770 H     1 <1>   0.0800 
 32 H       -2.9170     2.0940    -2.6130 H     1 <1>   0.1500 
 33 H       -1.1890     1.4940     1.2150 H     1 <1>   0.1500 
 34 H       -5.6930     0.2810     0.2380 H     1 <1>   0.0800 
 35 H       -6.0500     0.3230     1.9460 H     1 <1>   0.0800 
 36 H       -4.5840    -3.4100     0.4390 H     1 <1>   0.0800 
 37 H       -4.7490    -2.1360    -0.7380 H     1 <1>   0.0800 
 38 H       -2.0170     4.3580    -2.5730 H     1 <1>   0.1500 
 39 H       -0.3590     3.7790     1.1110 H     1 <1>   0.1500 
 40 H       -5.3670    -1.9750     2.2230 H     1 <1>   0.0800 
 41 H       -7.6050    -1.4840     1.4960 H     1 <1>   0.4500 
 42 H       -7.7680    -0.6390    -0.5800 H     1 <1>   0.0800 
 43 H       -6.6570    -1.8380    -1.2240 H     1 <1>   0.0800 
 44 H       -6.4270    -4.0350     1.2520 H     1 <1>   0.0800 
 45 H       -7.9360    -3.5390     1.9700 H     1 <1>   0.0800 
 46 H       -8.8490    -2.7050    -1.8190 H     1 <1>   0.0800 
 47 H       -8.9250    -4.5520     0.1650 H     1 <1>   0.0800 
 48 H      -10.5120    -2.6730    -0.3230 H     1 <1>   0.4000 
 49 H       -6.3660    -4.1630    -1.4300 H     1 <1>   0.0800 
 50 H       -7.7920    -4.9560    -2.0080 H     1 <1>   0.0800 
 51 H       -8.1460    -7.2430    -1.5810 H     1 <1>   0.1500 
 52 H       -4.5220    -7.1800     1.4740 H     1 <1>   0.1500 
 53 H       -5.5830    -9.2620     0.8470 H     1 <1>   0.1500 
@<TRIPOS>BOND
  1   1   2  2   
  2   2   3  am  
  3   2   4  1   
  4   3   5  1   
  5   3   6  1   
  6   4   7  ar  
  7   4   8  ar  
  8   5   9  1   
  9   5  28  1   
 10   5  29  1   
 11   6  10  1   
 12   6  30  1   
 13   6  31  1   
 14   7  11  ar  
 15   7  32  1   
 16   8  12  ar  
 17   8  33  1   
 18   9  13  1   
 19   9  34  1   
 20   9  35  1   
 21  10  13  1   
 22  10  36  1   
 23  10  37  1   
 24  11  14  ar  
 25  11  38  1   
 26  12  14  ar  
 27  12  39  1   
 28  13  15  1   
 29  13  40  1   
 30  15  16  1   
 31  15  17  1   
 32  15  41  1   
 33  16  18  1   
 34  16  42  1   
 35  16  43  1   
 36  17  19  1   
 37  17  44  1   
 38  17  45  1   
 39  18  19  1   
 40  18  20  1   
 41  18  46  1   
 42  19  21  1   
 43  19  47  1   
 44  20  48  1   
 45  21  22  1   
 46  21  49  1   
 47  21  50  1   
 48  22  23  ar  
 49  22  24  ar  
 50  23  25  ar  
 51  24  26  ar  
 52  24  51  1   
 53  25  27  ar  
 54  25  52  1   
 55  26  27  ar  
 56  27  53  1   
@<TRIPOS>SUBSTRUCTURE
  1 ****  10 GROUP 4 **** **** 0

# MOE 2024.06 (io_trps.svl 2023.06)
