@<TRIPOS>MOLECULE
NONAME
43 45 1 0 0 
SMALL
USER_CHARGES


@<TRIPOS>ATOM
  1 O       -0.0510    -0.5820     0.3120 O.3   1 <1>  -0.3630 
  2 C        1.0430    -1.0690    -0.3420 C.ar  1 <1>   0.3920 
  3 C       -0.0410     0.7000     0.9100 C.3   1 <1>   0.0400 
  4 N        2.1190    -0.2930    -0.3670 N.ar  1 <1>  -0.6200 
  5 C        0.9840    -2.3720    -0.9320 C.ar  1 <1>   0.4100 
  6 C        3.1380    -0.8720    -0.9840 C.ar  1 <1>   0.1600 
  7 N        2.0350    -2.9280    -1.5190 N.ar  1 <1>  -0.6200 
  8 N       -0.1400    -3.2000    -0.9450 N.pl3 1 <1>  -0.8380 
  9 C        3.0970    -2.1410    -1.5330 C.ar  1 <1>   0.1600 
 10 C       -1.5110    -2.6800    -1.1550 C.3   1 <1>   0.2090 
 11 C       -0.1790    -4.3160     0.0230 C.3   1 <1>   0.2090 
 12 C       -2.2650    -3.0510     0.1250 C.3   1 <1>  -0.0800 
 13 C       -1.6150    -4.3770     0.5600 C.3   1 <1>  -0.0800 
 14 C       -3.8190    -3.0680     0.0270 C.3   1 <1>   0.2800 
 15 C       -2.3990    -5.5800     0.0100 C.3   1 <1>  -0.1600 
 16 O       -4.2170    -3.3280    -1.2710 O.3   1 <1>  -0.6800 
 17 C       -4.3900    -4.2040     0.8980 C.3   1 <1>  -0.1600 
 18 C       -4.4570    -1.7210     0.4340 C.3   1 <1>  -0.1600 
 19 C       -3.8500    -5.6020     0.5260 C.3   1 <1>  -0.1600 
 20 C       -4.0270    -0.5010    -0.4000 C.3   1 <1>  -0.2400 
 21 H       -1.0020     0.8720     1.3570 H     1 <1>   0.0800 
 22 H        0.1520     1.4360     0.1490 H     1 <1>   0.0800 
 23 H        0.7280     0.7270     1.6620 H     1 <1>   0.0800 
 24 H        4.0510    -0.3080    -1.0520 H     1 <1>   0.1500 
 25 H        3.9790    -2.5300    -2.0090 H     1 <1>   0.1500 
 26 H       -1.5190    -1.6230    -1.3500 H     1 <1>   0.0800 
 27 H       -1.9230    -3.1870    -2.0090 H     1 <1>   0.0800 
 28 H        0.1020    -5.2310    -0.4690 H     1 <1>   0.0800 
 29 H        0.5140    -4.1230     0.8250 H     1 <1>   0.0800 
 30 H       -1.9900    -2.3290     0.8720 H     1 <1>   0.0800 
 31 H       -1.5880    -4.4480     1.6330 H     1 <1>   0.0800 
 32 H       -2.4130    -5.5160    -1.0660 H     1 <1>   0.0800 
 33 H       -1.9070    -6.5010     0.2730 H     1 <1>   0.0800 
 34 H       -5.1860    -3.4040    -1.3010 H     1 <1>   0.4000 
 35 H       -4.1200    -4.0010     1.9190 H     1 <1>   0.0800 
 36 H       -5.4650    -4.2080     0.8560 H     1 <1>   0.0800 
 37 H       -5.5280    -1.8130     0.3800 H     1 <1>   0.0800 
 38 H       -4.2150    -1.5250     1.4640 H     1 <1>   0.0800 
 39 H       -3.9140    -6.2370     1.3930 H     1 <1>   0.0800 
 40 H       -4.4730    -6.0350    -0.2380 H     1 <1>   0.0800 
 41 H       -4.1960    -0.6770    -1.4480 H     1 <1>   0.0800 
 42 H       -2.9860    -0.2820    -0.2470 H     1 <1>   0.0800 
 43 H       -4.5960     0.3620    -0.1040 H     1 <1>   0.0800 
@<TRIPOS>BOND
  1   1   2  1   
  2   1   3  1   
  3   2   4  ar  
  4   2   5  ar  
  5   3  21  1   
  6   3  22  1   
  7   3  23  1   
  8   4   6  ar  
  9   5   7  ar  
 10   5   8  1   
 11   6   9  ar  
 12   6  24  1   
 13   7   9  ar  
 14   8  10  1   
 15   8  11  1   
 16   9  25  1   
 17  10  12  1   
 18  10  26  1   
 19  10  27  1   
 20  11  13  1   
 21  11  28  1   
 22  11  29  1   
 23  12  13  1   
 24  12  14  1   
 25  12  30  1   
 26  13  15  1   
 27  13  31  1   
 28  14  16  1   
 29  14  17  1   
 30  14  18  1   
 31  15  19  1   
 32  15  32  1   
 33  15  33  1   
 34  16  34  1   
 35  17  19  1   
 36  17  35  1   
 37  17  36  1   
 38  18  20  1   
 39  18  37  1   
 40  18  38  1   
 41  19  39  1   
 42  19  40  1   
 43  20  41  1   
 44  20  42  1   
 45  20  43  1   
@<TRIPOS>SUBSTRUCTURE
  1 ****  10 GROUP 4 **** **** 0

# MOE 2024.06 (io_trps.svl 2023.06)
