@<TRIPOS>MOLECULE
NONAME
44 46 1 0 0 
SMALL
USER_CHARGES


@<TRIPOS>ATOM
  1 F        1.5440     2.1280    -1.5810 F     1 <1>  -0.3400 
  2 C        1.3660     3.2380    -0.8690 C.3   1 <1>   0.9600 
  3 F        1.7320     4.2170    -1.6930 F     1 <1>  -0.3400 
  4 O        2.3130     3.2610     0.1950 O.3   1 <1>  -0.3630 
  5 C       -0.1270     3.4050    -0.4610 C.3   1 <1>   0.6000 
  6 C        2.6430     2.1270     0.8510 C.ar  1 <1>   0.0830 
  7 F       -0.3160     4.4600     0.3340 F     1 <1>  -0.3400 
  8 F       -0.5860     2.3730     0.2490 F     1 <1>  -0.3400 
  9 C        3.7250     1.3460     0.4210 C.ar  1 <1>   0.0860 
 10 C        1.9150     1.7810     1.9790 C.ar  1 <1>  -0.1500 
 11 C        4.5280     1.6950    -0.7320 C.2   1 <1>   0.5440 
 12 C        4.0060     0.1860     1.1410 C.ar  1 <1>  -0.1500 
 13 C        2.2250     0.6320     2.6800 C.ar  1 <1>  -0.1500 
 14 O        4.6070     0.9200    -1.6660 O.2   1 <1>  -0.5700 
 15 N        5.2260     2.8780    -0.8150 N.am  1 <1>  -0.6600 
 16 C        3.2710    -0.1700     2.2560 C.ar  1 <1>  -0.1500 
 17 C        5.4380     3.8790     0.2680 C.3   1 <1>   0.1400 
 18 C        5.8090     3.3790    -2.0800 C.3   1 <1>   0.1400 
 19 C        5.6810     5.2010    -0.4660 C.3   1 <1>   0.4240 
 20 C        6.4150     4.7380    -1.7260 C.3   1 <1>  -0.1600 
 21 O        4.4520     5.6890    -0.8740 O.3   1 <1>  -0.6800 
 22 C        6.3660     6.2710     0.3960 C.ar  1 <1>  -0.1430 
 23 C        5.8280     6.5840     1.6390 C.ar  1 <1>  -0.1500 
 24 C        7.5070     6.9500    -0.0190 C.ar  1 <1>  -0.1500 
 25 C        6.4210     7.5310     2.4550 C.ar  1 <1>  -0.1500 
 26 C        8.1030     7.8980     0.7960 C.ar  1 <1>  -0.1500 
 27 C        7.5630     8.1870     2.0350 C.ar  1 <1>  -0.1500 
 28 H       -0.7640     3.5200    -1.3170 H     1 <1>   0.0800 
 29 H        1.1060     2.4080     2.3130 H     1 <1>   0.1500 
 30 H        4.8170    -0.4420     0.8110 H     1 <1>   0.1500 
 31 H        1.6550     0.3580     3.5520 H     1 <1>   0.1500 
 32 H        3.5090    -1.0710     2.7960 H     1 <1>   0.1500 
 33 H        6.3200     3.6090     0.8210 H     1 <1>   0.0800 
 34 H        4.6060     3.9510     0.9440 H     1 <1>   0.0800 
 35 H        5.0250     3.4850    -2.8120 H     1 <1>   0.0800 
 36 H        6.5530     2.6930    -2.4510 H     1 <1>   0.0800 
 37 H        6.3390     5.4470    -2.5310 H     1 <1>   0.0800 
 38 H        7.4540     4.5810    -1.5000 H     1 <1>   0.0800 
 39 H        3.9530     4.9520    -1.2760 H     1 <1>   0.4000 
 40 H        4.9300     6.0970     1.9760 H     1 <1>   0.1500 
 41 H        7.9480     6.7610    -0.9800 H     1 <1>   0.1500 
 42 H        5.9910     7.7590     3.4140 H     1 <1>   0.1500 
 43 H        8.9870     8.4130     0.4630 H     1 <1>   0.1500 
 44 H        8.0260     8.9240     2.6680 H     1 <1>   0.1500 
@<TRIPOS>BOND
  1   1   2  1   
  2   2   3  1   
  3   2   4  1   
  4   2   5  1   
  5   4   6  1   
  6   5   7  1   
  7   5   8  1   
  8   5  28  1   
  9   6   9  ar  
 10   6  10  ar  
 11   9  11  1   
 12   9  12  ar  
 13  10  13  ar  
 14  10  29  1   
 15  11  14  2   
 16  11  15  am  
 17  12  16  ar  
 18  12  30  1   
 19  13  16  ar  
 20  13  31  1   
 21  15  17  1   
 22  15  18  1   
 23  16  32  1   
 24  17  19  1   
 25  17  33  1   
 26  17  34  1   
 27  18  20  1   
 28  18  35  1   
 29  18  36  1   
 30  19  20  1   
 31  19  21  1   
 32  19  22  1   
 33  20  37  1   
 34  20  38  1   
 35  21  39  1   
 36  22  23  ar  
 37  22  24  ar  
 38  23  25  ar  
 39  23  40  1   
 40  24  26  ar  
 41  24  41  1   
 42  25  27  ar  
 43  25  42  1   
 44  26  27  ar  
 45  26  43  1   
 46  27  44  1   
@<TRIPOS>SUBSTRUCTURE
  1 ****  17 GROUP 4 **** **** 0

# MOE 2024.06 (io_trps.svl 2023.06)
