@<TRIPOS>MOLECULE
NONAME
56 58 1 0 0 
SMALL
USER_CHARGES


@<TRIPOS>ATOM
  1 F       -0.9370    -0.4460     1.9170 F     1 <1>  -0.1900 
  2 C       -2.0650    -0.0890     1.3580 C.ar  1 <1>   0.1900 
  3 C       -2.5440     1.2250     1.4240 C.ar  1 <1>   0.0820 
  4 C       -2.7620    -1.0810     0.6950 C.ar  1 <1>  -0.1500 
  5 O       -1.9530     2.2850     2.0460 O.3   1 <1>  -0.3630 
  6 C       -3.7480     1.5010     0.7980 C.ar  1 <1>  -0.1500 
  7 C       -3.9620    -0.7700     0.0820 C.ar  1 <1>  -0.1500 
  8 C       -0.7440     2.1790     2.7640 C.3   1 <1>   0.0400 
  9 C       -4.4820     0.5240     0.1250 C.ar  1 <1>   0.0530 
 10 C       -5.7290     0.8610    -0.5100 C.2   1 <1>   0.0870 
 11 O       -5.7920     1.9120    -1.2860 O.3   1 <1>  -0.0190 
 12 C       -6.9710     0.3040    -0.4890 C.2   1 <1>  -0.0860 
 13 N       -6.9800     2.1010    -1.7920 N.2   1 <1>  -0.4100 
 14 C       -7.7100     1.1510    -1.3270 C.2   1 <1>   0.3720 
 15 C       -7.4760    -0.8350     0.2140 C.2   1 <1>   0.7160 
 16 N       -9.0750     1.0210    -1.6300 N.pl3 1 <1>  -0.8210 
 17 O       -6.7810    -1.4990     0.9600 O.2   1 <1>  -0.5700 
 18 N       -8.7690    -1.2310     0.0530 N.am  1 <1>  -0.7300 
 19 C       -9.8850     2.1190    -1.0280 C.3   1 <1>   0.1290 
 20 C       -9.3290     0.9400    -3.0980 C.3   1 <1>   0.1290 
 21 C       -9.5690    -1.9580     1.0630 C.3   1 <1>   0.2200 
 22 C       -8.9980    -3.3580     1.4250 C.3   1 <1>   0.3430 
 23 C      -11.0000    -2.0440     0.5290 C.3   1 <1>  -0.2400 
 24 N       -8.8490    -4.2880     0.2540 N.4   1 <1>  -0.9590 
 25 C       -8.7960    -5.7140     0.6450 C.3   1 <1>   0.3430 
 26 C       -7.6080    -4.0390    -0.5210 C.3   1 <1>   0.3430 
 27 C       -8.1770    -6.4090    -0.5580 C.3   1 <1>  -0.1600 
 28 C       -7.3530    -5.3360    -1.2760 C.3   1 <1>  -0.1600 
 29 H       -2.3650    -2.0800     0.6610 H     1 <1>   0.1500 
 30 H       -4.1260     2.5070     0.8370 H     1 <1>   0.1500 
 31 H       -4.5050    -1.5390    -0.4370 H     1 <1>   0.1500 
 32 H       -0.5090     3.1470     3.1690 H     1 <1>   0.0800 
 33 H        0.0370     1.8660     2.0930 H     1 <1>   0.0800 
 34 H       -0.8720     1.4710     3.5640 H     1 <1>   0.0800 
 35 H       -9.3040    -0.5810    -0.5490 H     1 <1>   0.3700 
 36 H       -9.6860     2.1880     0.0280 H     1 <1>   0.0800 
 37 H      -10.9340     1.9290    -1.1720 H     1 <1>   0.0800 
 38 H       -9.6320     3.0620    -1.4860 H     1 <1>   0.0800 
 39 H       -8.6900     0.1960    -3.5420 H     1 <1>   0.0800 
 40 H       -9.1250     1.8890    -3.5660 H     1 <1>   0.0800 
 41 H      -10.3550     0.6700    -3.2820 H     1 <1>   0.0800 
 42 H       -9.5800    -1.3680     1.9650 H     1 <1>   0.0800 
 43 H       -9.6660    -3.8040     2.1430 H     1 <1>   0.0800 
 44 H       -8.0450    -3.2310     1.9120 H     1 <1>   0.0800 
 45 H      -11.0360    -2.5640    -0.4110 H     1 <1>   0.0800 
 46 H      -11.4010    -1.0540     0.3930 H     1 <1>   0.0800 
 47 H      -11.6290    -2.5580     1.2330 H     1 <1>   0.0800 
 48 H       -9.6400    -4.1510    -0.3860 H     1 <1>   0.4500 
 49 H       -9.7740    -6.1060     0.8760 H     1 <1>   0.0800 
 50 H       -8.1480    -5.8330     1.5000 H     1 <1>   0.0800 
 51 H       -6.7900    -3.8440     0.1550 H     1 <1>   0.0800 
 52 H       -7.7200    -3.2010    -1.1900 H     1 <1>   0.0800 
 53 H       -8.9570    -6.7760    -1.2040 H     1 <1>   0.0800 
 54 H       -7.5700    -7.2420    -0.2470 H     1 <1>   0.0800 
 55 H       -6.3020    -5.5690    -1.2660 H     1 <1>   0.0800 
 56 H       -7.6710    -5.2360    -2.3000 H     1 <1>   0.0800 
@<TRIPOS>BOND
  1   1   2  1   
  2   2   3  ar  
  3   2   4  ar  
  4   3   5  1   
  5   3   6  ar  
  6   4   7  ar  
  7   4  29  1   
  8   5   8  1   
  9   6   9  ar  
 10   6  30  1   
 11   7   9  ar  
 12   7  31  1   
 13   8  32  1   
 14   8  33  1   
 15   8  34  1   
 16   9  10  1   
 17  10  11  1   
 18  10  12  2   
 19  11  13  1   
 20  12  14  1   
 21  12  15  1   
 22  13  14  2   
 23  14  16  1   
 24  15  17  2   
 25  15  18  am  
 26  16  19  1   
 27  16  20  1   
 28  18  21  1   
 29  18  35  1   
 30  19  36  1   
 31  19  37  1   
 32  19  38  1   
 33  20  39  1   
 34  20  40  1   
 35  20  41  1   
 36  21  22  1   
 37  21  23  1   
 38  21  42  1   
 39  22  24  1   
 40  22  43  1   
 41  22  44  1   
 42  23  45  1   
 43  23  46  1   
 44  23  47  1   
 45  24  25  1   
 46  24  26  1   
 47  24  48  1   
 48  25  27  1   
 49  25  49  1   
 50  25  50  1   
 51  26  28  1   
 52  26  51  1   
 53  26  52  1   
 54  27  28  1   
 55  27  53  1   
 56  27  54  1   
 57  28  55  1   
 58  28  56  1   
@<TRIPOS>SUBSTRUCTURE
  1 ****  15 GROUP 4 **** **** 0

# MOE 2024.06 (io_trps.svl 2023.06)
