@<TRIPOS>MOLECULE
NONAME
55 58 1 0 0 
SMALL
USER_CHARGES


@<TRIPOS>ATOM
  1 O       -0.5080    -0.2500     1.0940 O.3   1 <1>  -0.5600 
  2 C        0.1160    -1.2900     0.4050 C.3   1 <1>   0.2800 
  3 C       -1.8370     0.0910     0.8000 C.3   1 <1>   0.1200 
  4 C       -0.6670    -2.6320     0.6400 C.3   1 <1>   0.2000 
  5 C        1.5090    -1.3760     1.0410 C.3   1 <1>  -0.1600 
  6 C        0.2810    -0.8330    -1.0650 C.3   1 <1>  -0.1600 
  7 C       -2.6980    -1.1120     0.3800 C.3   1 <1>  -0.1600 
  8 O       -0.4520    -3.5220    -0.4250 O.3   1 <1>  -0.6800 
  9 C       -2.1870    -2.4400     0.9420 C.3   1 <1>   0.2800 
 10 C        2.4280    -2.2890     0.2430 C.3   1 <1>   0.3430 
 11 C        1.2930    -1.6640    -1.8530 C.3   1 <1>   0.3430 
 12 O       -2.3310    -2.3920     2.3130 O.3   1 <1>  -0.6800 
 13 C       -3.0820    -3.6040     0.4940 C.3   1 <1>  -0.2400 
 14 N        2.5940    -1.7370    -1.1330 N.4   1 <1>  -0.9590 
 15 C        3.5920    -2.5060    -1.9270 C.3   1 <1>   0.4860 
 16 C        4.9460    -2.4150    -1.2490 C.ar  1 <1>  -0.1440 
 17 C        5.4290    -3.4710    -0.4350 C.ar  1 <1>   0.0000 
 18 C        5.6930    -1.2800    -1.4300 C.ar  1 <1>  -0.1500 
 19 C        6.6780    -3.3150     0.2190 C.ar  1 <1>   0.3100 
 20 C        4.7380    -4.6870    -0.2280 C.ar  1 <1>  -0.1500 
 21 C        6.9300    -1.1380    -0.8010 C.ar  1 <1>  -0.1500 
 22 N        7.1880    -4.2700     1.0430 N.ar  1 <1>  -0.6200 
 23 C        7.4150    -2.1280     0.0100 C.ar  1 <1>  -0.1440 
 24 C        5.2880    -5.6230     0.5930 C.ar  1 <1>  -0.1500 
 25 C        6.5170    -5.3650     1.2080 C.ar  1 <1>   0.1600 
 26 C        8.7690    -1.9440     0.6890 C.3   1 <1>  -0.0970 
 27 H       -2.2420     0.5290     1.6970 H     1 <1>   0.0800 
 28 H       -1.8340     0.8430     0.0310 H     1 <1>   0.0800 
 29 H       -0.2500    -3.1240     1.5020 H     1 <1>   0.0800 
 30 H        1.9500    -0.3960     1.0980 H     1 <1>   0.0800 
 31 H        1.4260    -1.7490     2.0460 H     1 <1>   0.0800 
 32 H       -0.6580    -0.8920    -1.5810 H     1 <1>   0.0800 
 33 H        0.6000     0.1940    -1.0830 H     1 <1>   0.0800 
 34 H       -2.7080    -1.1700    -0.6920 H     1 <1>   0.0800 
 35 H       -3.7170    -0.9420     0.6780 H     1 <1>   0.0800 
 36 H       -0.9940    -4.3260    -0.2770 H     1 <1>   0.4000 
 37 H        2.0070    -3.2810     0.1960 H     1 <1>   0.0800 
 38 H        3.3850    -2.3470     0.7390 H     1 <1>   0.0800 
 39 H        1.4330    -1.2190    -2.8240 H     1 <1>   0.0800 
 40 H        0.9060    -2.6590    -2.0000 H     1 <1>   0.0800 
 41 H       -3.2610    -2.2130     2.5480 H     1 <1>   0.4000 
 42 H       -3.0730    -3.6970    -0.5770 H     1 <1>   0.0800 
 43 H       -4.1010    -3.4350     0.7950 H     1 <1>   0.0800 
 44 H       -2.7430    -4.5290     0.9260 H     1 <1>   0.0800 
 45 H        2.9640    -0.7850    -1.0230 H     1 <1>   0.4500 
 46 H        3.2820    -3.5310    -2.0320 H     1 <1>   0.0800 
 47 H        3.6710    -2.0830    -2.9150 H     1 <1>   0.0800 
 48 H        5.3570    -0.4700    -2.0560 H     1 <1>   0.1500 
 49 H        3.7990    -4.8940    -0.7030 H     1 <1>   0.1500 
 50 H        7.4930    -0.2340    -0.9660 H     1 <1>   0.1500 
 51 H        4.8040    -6.5650     0.7830 H     1 <1>   0.1500 
 52 H        6.9300    -6.1200     1.8550 H     1 <1>   0.1500 
 53 H        9.2130    -0.9990     0.4340 H     1 <1>   0.0800 
 54 H        9.4390    -2.7290     0.3850 H     1 <1>   0.0800 
 55 H        8.6530    -1.9900     1.7570 H     1 <1>   0.0800 
@<TRIPOS>BOND
  1   1   2  1   
  2   1   3  1   
  3   2   4  1   
  4   2   5  1   
  5   2   6  1   
  6   3   7  1   
  7   3  27  1   
  8   3  28  1   
  9   4   8  1   
 10   4   9  1   
 11   4  29  1   
 12   5  10  1   
 13   5  30  1   
 14   5  31  1   
 15   6  11  1   
 16   6  32  1   
 17   6  33  1   
 18   7   9  1   
 19   7  34  1   
 20   7  35  1   
 21   8  36  1   
 22   9  12  1   
 23   9  13  1   
 24  10  14  1   
 25  10  37  1   
 26  10  38  1   
 27  11  14  1   
 28  11  39  1   
 29  11  40  1   
 30  12  41  1   
 31  13  42  1   
 32  13  43  1   
 33  13  44  1   
 34  14  15  1   
 35  14  45  1   
 36  15  16  1   
 37  15  46  1   
 38  15  47  1   
 39  16  17  ar  
 40  16  18  ar  
 41  17  19  ar  
 42  17  20  ar  
 43  18  21  ar  
 44  18  48  1   
 45  19  22  ar  
 46  19  23  ar  
 47  20  24  ar  
 48  20  49  1   
 49  21  23  ar  
 50  21  50  1   
 51  22  25  ar  
 52  23  26  1   
 53  24  25  ar  
 54  24  51  1   
 55  25  52  1   
 56  26  53  1   
 57  26  54  1   
 58  26  55  1   
@<TRIPOS>SUBSTRUCTURE
  1 ****  10 GROUP 4 **** **** 0

# MOE 2024.06 (io_trps.svl 2023.06)
