@<TRIPOS>MOLECULE
NONAME
52 53 1 0 0 
SMALL
USER_CHARGES


@<TRIPOS>ATOM
  1 S        0.4170     0.2260     0.5020 S.o2  1 <1>   1.3330 
  2 O       -0.8930     0.2150     1.1140 O.2   1 <1>  -0.6500 
  3 O        1.5990     0.2410     1.3340 O.2   1 <1>  -0.6500 
  4 N        0.5330    -1.1050    -0.5440 N.am  1 <1>  -0.8490 
  5 C        0.4760     1.6170    -0.6250 C.3   1 <1>  -0.0550 
  6 C       -0.1650    -2.2850    -0.0240 C.3   1 <1>   0.1160 
  7 C        1.9150    -1.4570    -0.8900 C.3   1 <1>   0.1160 
  8 C        0.3130     2.9750     0.0790 C.3   1 <1>  -0.0800 
  9 C        0.2440     4.1330    -0.9120 C.3   1 <1>   0.2000 
 10 C        1.4760     3.3470     1.0040 C.3   1 <1>   0.1400 
 11 O       -1.0440     4.2690    -1.4010 O.3   1 <1>  -0.6800 
 12 C        0.6870     5.3640    -0.1270 C.3   1 <1>   0.1400 
 13 N        1.5710     4.8260     0.9350 N.am  1 <1>  -0.6600 
 14 C        2.4040     5.5390     1.7620 C.2   1 <1>   0.5690 
 15 O        3.0290     4.9810     2.6340 O.2   1 <1>  -0.5700 
 16 C        2.5340     7.0680     1.6360 C.3   1 <1>   0.1710 
 17 N        3.7170     7.5640     0.8750 N.3   1 <1>  -0.8100 
 18 C        3.8660     9.0230     1.0090 C.3   1 <1>   0.2530 
 19 C        3.7300     7.1290    -0.5290 C.3   1 <1>   0.0300 
 20 C        5.2060     9.5000     0.4610 C.ar  1 <1>  -0.1440 
 21 C        5.2580    10.5280    -0.4740 C.ar  1 <1>  -0.1500 
 22 C        6.3830     8.9060     0.9010 C.ar  1 <1>  -0.1500 
 23 C        6.4770    10.9620    -0.9680 C.ar  1 <1>  -0.1500 
 24 C        7.6080     9.3300     0.4160 C.ar  1 <1>  -0.1500 
 25 C        7.6300    10.3530    -0.5110 C.ar  1 <1>   0.1900 
 26 F        8.7820    10.7590    -0.9750 F     1 <1>  -0.1900 
 27 H        1.4030     1.6030    -1.1630 H     1 <1>   0.0800 
 28 H       -0.3180     1.5070    -1.3380 H     1 <1>   0.0800 
 29 H       -0.0850    -3.1030    -0.7180 H     1 <1>   0.0800 
 30 H       -1.2110    -2.0630     0.1130 H     1 <1>   0.0800 
 31 H        0.2530    -2.5790     0.9250 H     1 <1>   0.0800 
 32 H        1.9230    -2.2430    -1.6260 H     1 <1>   0.0800 
 33 H        2.4490    -1.7890    -0.0150 H     1 <1>   0.0800 
 34 H        2.4240    -0.6020    -1.3010 H     1 <1>   0.0800 
 35 H       -0.5810     2.9630     0.6790 H     1 <1>   0.0800 
 36 H        0.9090     3.9780    -1.7450 H     1 <1>   0.0800 
 37 H        2.4050     2.9240     0.6580 H     1 <1>   0.0800 
 38 H        1.3000     3.0230     2.0160 H     1 <1>   0.0800 
 39 H       -1.6920     4.2950    -0.6700 H     1 <1>   0.4000 
 40 H       -0.1580     5.8490     0.3310 H     1 <1>   0.0800 
 41 H        1.2140     6.0490    -0.7640 H     1 <1>   0.0800 
 42 H        2.5980     7.4450     2.6410 H     1 <1>   0.0800 
 43 H        1.6360     7.4680     1.2030 H     1 <1>   0.0800 
 44 H        3.0560     9.5180     0.5000 H     1 <1>   0.0800 
 45 H        3.8200     9.2900     2.0520 H     1 <1>   0.0800 
 46 H        4.6510     7.4260    -1.0000 H     1 <1>   0.0800 
 47 H        2.9080     7.5660    -1.0680 H     1 <1>   0.0800 
 48 H        3.6680     6.0560    -0.5840 H     1 <1>   0.0800 
 49 H        4.3520    10.9930    -0.8210 H     1 <1>   0.1500 
 50 H        6.3350     8.1030     1.6200 H     1 <1>   0.1500 
 51 H        6.5370    11.7540    -1.6910 H     1 <1>   0.1500 
 52 H        8.5240     8.8770     0.7470 H     1 <1>   0.1500 
@<TRIPOS>BOND
  1   1   2  2   
  2   1   3  2   
  3   1   4  am  
  4   1   5  1   
  5   4   6  1   
  6   4   7  1   
  7   5   8  1   
  8   5  27  1   
  9   5  28  1   
 10   6  29  1   
 11   6  30  1   
 12   6  31  1   
 13   7  32  1   
 14   7  33  1   
 15   7  34  1   
 16   8   9  1   
 17   8  10  1   
 18   8  35  1   
 19   9  11  1   
 20   9  12  1   
 21   9  36  1   
 22  10  13  1   
 23  10  37  1   
 24  10  38  1   
 25  11  39  1   
 26  12  13  1   
 27  12  40  1   
 28  12  41  1   
 29  13  14  am  
 30  14  15  2   
 31  14  16  1   
 32  16  17  1   
 33  16  42  1   
 34  16  43  1   
 35  17  18  1   
 36  17  19  1   
 37  18  20  1   
 38  18  44  1   
 39  18  45  1   
 40  19  46  1   
 41  19  47  1   
 42  19  48  1   
 43  20  21  ar  
 44  20  22  ar  
 45  21  23  ar  
 46  21  49  1   
 47  22  24  ar  
 48  22  50  1   
 49  23  25  ar  
 50  23  51  1   
 51  24  25  ar  
 52  24  52  1   
 53  25  26  1   
@<TRIPOS>SUBSTRUCTURE
  1 ****  13 GROUP 4 **** **** 0

# MOE 2024.06 (io_trps.svl 2023.06)
