@<TRIPOS>MOLECULE
NONAME
50 52 1 0 0 
SMALL
USER_CHARGES


@<TRIPOS>ATOM
  1 S        0.9250     0.4360    -0.1880 S.o2  1 <1>   1.3330 
  2 O        1.9000     0.3220    -1.2500 O.2   1 <1>  -0.6500 
  3 O        1.3220     0.1800     1.1780 O.2   1 <1>  -0.6500 
  4 N       -0.3800    -0.5860    -0.5520 N.am  1 <1>  -0.8490 
  5 C        0.2010     2.0700    -0.2940 C.3   1 <1>  -0.0550 
  6 C       -1.2600    -0.8370     0.5950 C.3   1 <1>   0.1160 
  7 C        0.0600    -1.8600    -1.1290 C.3   1 <1>   0.1160 
  8 C        1.2290     3.2030    -0.1030 C.3   1 <1>  -0.0800 
  9 C        0.6670     4.6080    -0.3350 C.3   1 <1>   0.2000 
 10 C        1.8470     3.2670     1.3030 C.3   1 <1>   0.1400 
 11 O       -0.5540     4.7210     0.3130 O.3   1 <1>  -0.6800 
 12 C        1.6660     5.5140     0.3790 C.3   1 <1>   0.1400 
 13 N        2.1180     4.7070     1.5410 N.am  1 <1>  -0.6600 
 14 C        2.8020     5.1580     2.6390 C.2   1 <1>   0.5690 
 15 O        3.1370     4.3990     3.5170 O.2   1 <1>  -0.5700 
 16 C        3.1510     6.6330     2.8040 C.3   1 <1>   0.0440 
 17 C        3.9450     7.2070     1.6340 C.ar  1 <1>  -0.1440 
 18 C        3.5300     8.3320     0.9710 C.ar  1 <1>  -0.1500 
 19 C        5.1210     6.5630     1.2220 C.ar  1 <1>  -0.1500 
 20 C        4.2470     8.8520    -0.1250 C.ar  1 <1>   0.0000 
 21 C        5.8380     7.0460     0.1640 C.ar  1 <1>  -0.1500 
 22 C        5.4240     8.1940    -0.5390 C.ar  1 <1>   0.0000 
 23 C        3.8320    10.0030    -0.8260 C.ar  1 <1>  -0.1500 
 24 C        6.1390     8.7120    -1.6390 C.ar  1 <1>  -0.1500 
 25 C        4.5440    10.4820    -1.8900 C.ar  1 <1>  -0.1500 
 26 C        5.7120     9.8290    -2.3010 C.ar  1 <1>  -0.1500 
 27 H       -0.2510     2.1810    -1.2600 H     1 <1>   0.0800 
 28 H       -0.5760     2.1610     0.4390 H     1 <1>   0.0800 
 29 H       -2.1110    -1.4200     0.2870 H     1 <1>   0.0800 
 30 H       -1.6160     0.0930     1.0020 H     1 <1>   0.0800 
 31 H       -0.7300    -1.3720     1.3670 H     1 <1>   0.0800 
 32 H       -0.7900    -2.4770    -1.3640 H     1 <1>   0.0800 
 33 H        0.7000    -2.3830    -0.4380 H     1 <1>   0.0800 
 34 H        0.6070    -1.6820    -2.0400 H     1 <1>   0.0800 
 35 H        2.0350     3.0540    -0.8020 H     1 <1>   0.0800 
 36 H        0.5330     4.8550    -1.3750 H     1 <1>   0.0800 
 37 H        2.7570     2.6930     1.3630 H     1 <1>   0.0800 
 38 H        1.1580     2.9110     2.0510 H     1 <1>   0.0800 
 39 H       -0.3950     4.6840     1.2790 H     1 <1>   0.4000 
 40 H        1.2180     6.4450     0.6770 H     1 <1>   0.0800 
 41 H        2.5090     5.7060    -0.2640 H     1 <1>   0.0800 
 42 H        2.2380     7.1790     2.9420 H     1 <1>   0.0800 
 43 H        3.7340     6.7470     3.7000 H     1 <1>   0.0800 
 44 H        2.6370     8.8500     1.2730 H     1 <1>   0.1500 
 45 H        5.4510     5.6820     1.7480 H     1 <1>   0.1500 
 46 H        6.7390     6.5510    -0.1510 H     1 <1>   0.1500 
 47 H        2.9350    10.5030    -0.5060 H     1 <1>   0.1500 
 48 H        7.0350     8.2060    -1.9490 H     1 <1>   0.1500 
 49 H        4.2230    11.3610    -2.4210 H     1 <1>   0.1500 
 50 H        6.2620    10.2200    -3.1400 H     1 <1>   0.1500 
@<TRIPOS>BOND
  1   1   2  2   
  2   1   3  2   
  3   1   4  am  
  4   1   5  1   
  5   4   6  1   
  6   4   7  1   
  7   5   8  1   
  8   5  27  1   
  9   5  28  1   
 10   6  29  1   
 11   6  30  1   
 12   6  31  1   
 13   7  32  1   
 14   7  33  1   
 15   7  34  1   
 16   8   9  1   
 17   8  10  1   
 18   8  35  1   
 19   9  11  1   
 20   9  12  1   
 21   9  36  1   
 22  10  13  1   
 23  10  37  1   
 24  10  38  1   
 25  11  39  1   
 26  12  13  1   
 27  12  40  1   
 28  12  41  1   
 29  13  14  am  
 30  14  15  2   
 31  14  16  1   
 32  16  17  1   
 33  16  42  1   
 34  16  43  1   
 35  17  18  ar  
 36  17  19  ar  
 37  18  20  ar  
 38  18  44  1   
 39  19  21  ar  
 40  19  45  1   
 41  20  22  ar  
 42  20  23  ar  
 43  21  22  ar  
 44  21  46  1   
 45  22  24  ar  
 46  23  25  ar  
 47  23  47  1   
 48  24  26  ar  
 49  24  48  1   
 50  25  26  ar  
 51  25  49  1   
 52  26  50  1   
@<TRIPOS>SUBSTRUCTURE
  1 ****  12 GROUP 4 **** **** 0

# MOE 2024.06 (io_trps.svl 2023.06)
