@<TRIPOS>MOLECULE
NONAME
50 53 1 0 0 
SMALL
USER_CHARGES


@<TRIPOS>ATOM
  1 O       -0.4480     1.0830     0.9640 O.2   1 <1>  -0.5700 
  2 C       -1.2050     2.0280     0.8420 C.2   1 <1>   0.7800 
  3 O       -1.3730     2.9550     1.7820 O.3   1 <1>  -0.2330 
  4 N       -2.0280     2.2490    -0.2290 N.am  1 <1>  -0.4770 
  5 C       -2.3040     3.8100     1.3180 C.ar  1 <1>   0.0830 
  6 C       -2.7250     3.4040     0.0700 C.ar  1 <1>   0.1170 
  7 C       -1.8960     1.6370    -1.5780 C.3   1 <1>   0.1400 
  8 C       -2.8060     4.9420     1.9310 C.ar  1 <1>  -0.1500 
  9 C       -3.6820     4.1400    -0.6160 C.ar  1 <1>  -0.1500 
 10 C       -1.6490     0.1100    -1.5640 C.3   1 <1>   0.3430 
 11 C       -3.7630     5.6770     1.2490 C.ar  1 <1>  -0.1500 
 12 C       -4.1960     5.2780    -0.0140 C.ar  1 <1>  -0.1500 
 13 N       -2.8050    -0.7060    -1.0580 N.4   1 <1>  -0.9590 
 14 C       -3.0450    -0.5820     0.4150 C.3   1 <1>   0.3430 
 15 C       -2.7050    -2.1300    -1.4700 C.3   1 <1>   0.3430 
 16 C       -4.1210    -1.5620     0.9030 C.3   1 <1>  -0.1600 
 17 C       -4.0490    -2.8400    -1.2620 C.3   1 <1>  -0.1600 
 18 C       -4.9630    -2.1410    -0.2420 C.3   1 <1>   0.4240 
 19 O       -5.5360    -1.0620    -0.8990 O.3   1 <1>  -0.6800 
 20 C       -6.1130    -3.0580     0.2310 C.ar  1 <1>   0.1670 
 21 N       -7.3360    -2.7720    -0.2160 N.ar  1 <1>  -0.6200 
 22 C       -5.8490    -4.1280     1.0780 C.ar  1 <1>  -0.1500 
 23 C       -8.3110    -3.5690     0.1960 C.ar  1 <1>   0.1600 
 24 C       -6.8760    -4.9470     1.4970 C.ar  1 <1>  -0.1500 
 25 C       -8.1430    -4.6560     1.0400 C.ar  1 <1>  -0.1430 
 26 C       -9.3210    -5.5170     1.4640 C.3   1 <1>  -0.0970 
 27 H       -1.0650     2.1100    -2.0720 H     1 <1>   0.0800 
 28 H       -2.7790     1.8470    -2.1550 H     1 <1>   0.0800 
 29 H       -2.4580     5.2380     2.9060 H     1 <1>   0.1500 
 30 H       -4.0200     3.8380    -1.5900 H     1 <1>   0.1500 
 31 H       -0.7670    -0.1050    -0.9830 H     1 <1>   0.0800 
 32 H       -1.4400    -0.1880    -2.5780 H     1 <1>   0.0800 
 33 H       -4.1760     6.5650     1.6980 H     1 <1>   0.1500 
 34 H       -4.9410     5.8660    -0.5260 H     1 <1>   0.1500 
 35 H       -3.6940    -0.3680    -1.4790 H     1 <1>   0.4500 
 36 H       -3.3810     0.4190     0.6300 H     1 <1>   0.0800 
 37 H       -2.1280    -0.7480     0.9590 H     1 <1>   0.0800 
 38 H       -1.9440    -2.6160    -0.8810 H     1 <1>   0.0800 
 39 H       -2.4250    -2.2020    -2.5090 H     1 <1>   0.0800 
 40 H       -4.7620    -1.0690     1.6120 H     1 <1>   0.0800 
 41 H       -3.6310    -2.3590     1.4290 H     1 <1>   0.0800 
 42 H       -3.8390    -3.8400    -0.9290 H     1 <1>   0.0800 
 43 H       -4.5680    -2.9340    -2.2000 H     1 <1>   0.0800 
 44 H       -6.5050    -1.2840    -0.9090 H     1 <1>   0.4000 
 45 H       -4.8520    -4.3370     1.4170 H     1 <1>   0.1500 
 46 H       -9.3020    -3.3420    -0.1590 H     1 <1>   0.1500 
 47 H       -6.6950    -5.7800     2.1540 H     1 <1>   0.1500 
 48 H      -10.1880    -5.3060     0.8630 H     1 <1>   0.0800 
 49 H       -9.5610    -5.3260     2.4940 H     1 <1>   0.0800 
 50 H       -9.0770    -6.5580     1.3520 H     1 <1>   0.0800 
@<TRIPOS>BOND
  1   1   2  2   
  2   2   3  1   
  3   2   4  am  
  4   3   5  1   
  5   4   6  1   
  6   4   7  1   
  7   5   6  ar  
  8   5   8  ar  
  9   6   9  ar  
 10   7  10  1   
 11   7  27  1   
 12   7  28  1   
 13   8  11  ar  
 14   8  29  1   
 15   9  12  ar  
 16   9  30  1   
 17  10  13  1   
 18  10  31  1   
 19  10  32  1   
 20  11  12  ar  
 21  11  33  1   
 22  12  34  1   
 23  13  14  1   
 24  13  15  1   
 25  13  35  1   
 26  14  16  1   
 27  14  36  1   
 28  14  37  1   
 29  15  17  1   
 30  15  38  1   
 31  15  39  1   
 32  16  18  1   
 33  16  40  1   
 34  16  41  1   
 35  17  18  1   
 36  17  42  1   
 37  17  43  1   
 38  18  19  1   
 39  18  20  1   
 40  19  44  1   
 41  20  21  ar  
 42  20  22  ar  
 43  21  23  ar  
 44  22  24  ar  
 45  22  45  1   
 46  23  25  ar  
 47  23  46  1   
 48  24  25  ar  
 49  24  47  1   
 50  25  26  1   
 51  26  48  1   
 52  26  49  1   
 53  26  50  1   
@<TRIPOS>SUBSTRUCTURE
  1 ****  14 GROUP 4 **** **** 0

# MOE 2024.06 (io_trps.svl 2023.06)
