@<TRIPOS>MOLECULE
NONAME
49 51 1 0 0 
SMALL
USER_CHARGES


@<TRIPOS>ATOM
  1 S       -1.5830     1.1160     1.2790 S.3   1 <1>  -0.3320 
  2 C       -2.7420    -0.1660     0.8340 C.ar  1 <1>   0.7220 
  3 C       -0.2880     1.0830    -0.0400 C.3   1 <1>  -0.0100 
  4 N       -2.4890    -0.8220    -0.2890 N.ar  1 <1>  -0.6200 
  5 N       -3.7480    -0.3260     1.6760 N.ar  1 <1>  -0.6200 
  6 C       -3.3600    -1.7550    -0.5890 C.ar  1 <1>   0.1600 
  7 C       -4.6010    -1.2660     1.3480 C.ar  1 <1>   0.1600 
  8 C       -4.4590    -2.0170     0.2010 C.ar  1 <1>  -0.1430 
  9 C       -5.4670    -3.0770    -0.1850 C.3   1 <1>   0.4870 
 10 N       -6.7670    -2.4360    -0.5220 N.4   1 <1>  -0.9590 
 11 C       -7.8550    -3.4020    -0.8150 C.3   1 <1>   0.3430 
 12 C       -6.6890    -1.3580    -1.5540 C.3   1 <1>   0.3430 
 13 C       -9.2140    -2.6870    -0.7650 C.3   1 <1>  -0.1600 
 14 C       -8.0720    -0.7350    -1.7990 C.3   1 <1>  -0.1600 
 15 C       -9.1260    -1.1450    -0.7510 C.3   1 <1>   0.2800 
 16 O       -8.6310    -0.7980     0.5200 O.3   1 <1>  -0.5600 
 17 C      -10.5010    -0.4780    -1.0150 C.3   1 <1>  -0.1600 
 18 C       -8.8670     0.5180     0.9620 C.3   1 <1>   0.1200 
 19 C      -11.2640    -0.1130     0.2700 C.3   1 <1>   0.2800 
 20 C      -10.3680     0.7770     1.1840 C.3   1 <1>   0.2000 
 21 O      -12.3540     0.6400    -0.1130 O.3   1 <1>  -0.6800 
 22 C      -11.8530    -1.3520     0.9640 C.3   1 <1>  -0.2400 
 23 O      -10.6650     0.6020     2.5350 O.3   1 <1>  -0.6800 
 24 H        0.4410     1.8360     0.1960 H     1 <1>   0.0800 
 25 H       -0.7680     1.2910    -0.9800 H     1 <1>   0.0800 
 26 H        0.1560     0.1040    -0.0430 H     1 <1>   0.0800 
 27 H       -3.1830    -2.3160    -1.4930 H     1 <1>   0.1500 
 28 H       -5.4310    -1.4270     2.0180 H     1 <1>   0.1500 
 29 H       -5.5970    -3.7610     0.6390 H     1 <1>   0.0800 
 30 H       -5.1030    -3.6340    -1.0320 H     1 <1>   0.0800 
 31 H       -7.1160    -1.9280     0.3180 H     1 <1>   0.4500 
 32 H       -7.7050    -3.8300    -1.7930 H     1 <1>   0.0800 
 33 H       -7.8510    -4.2010    -0.0900 H     1 <1>   0.0800 
 34 H       -6.0200    -0.5850    -1.2100 H     1 <1>   0.0800 
 35 H       -6.2990    -1.7510    -2.4790 H     1 <1>   0.0800 
 36 H       -9.7510    -3.0310     0.0970 H     1 <1>   0.0800 
 37 H       -9.7760    -3.0090    -1.6230 H     1 <1>   0.0800 
 38 H       -8.4130    -1.0420    -2.7720 H     1 <1>   0.0800 
 39 H       -7.9730     0.3350    -1.8400 H     1 <1>   0.0800 
 40 H      -10.3370     0.4340    -1.5630 H     1 <1>   0.0800 
 41 H      -11.1060    -1.1060    -1.6440 H     1 <1>   0.0800 
 42 H       -8.3240     0.6730     1.8780 H     1 <1>   0.0800 
 43 H       -8.4850     1.1980     0.2220 H     1 <1>   0.0800 
 44 H      -10.5530     1.8150     0.9640 H     1 <1>   0.0800 
 45 H      -13.0250     0.0700    -0.5340 H     1 <1>   0.4000 
 46 H      -12.3220    -2.0110     0.2560 H     1 <1>   0.0800 
 47 H      -12.5790    -1.0620     1.7030 H     1 <1>   0.0800 
 48 H      -11.0790    -1.8920     1.4760 H     1 <1>   0.0800 
 49 H      -11.6130     0.7960     2.6790 H     1 <1>   0.4000 
@<TRIPOS>BOND
  1   1   2  1   
  2   1   3  1   
  3   2   4  ar  
  4   2   5  ar  
  5   3  24  1   
  6   3  25  1   
  7   3  26  1   
  8   4   6  ar  
  9   5   7  ar  
 10   6   8  ar  
 11   6  27  1   
 12   7   8  ar  
 13   7  28  1   
 14   8   9  1   
 15   9  10  1   
 16   9  29  1   
 17   9  30  1   
 18  10  11  1   
 19  10  12  1   
 20  10  31  1   
 21  11  13  1   
 22  11  32  1   
 23  11  33  1   
 24  12  14  1   
 25  12  34  1   
 26  12  35  1   
 27  13  15  1   
 28  13  36  1   
 29  13  37  1   
 30  14  15  1   
 31  14  38  1   
 32  14  39  1   
 33  15  16  1   
 34  15  17  1   
 35  16  18  1   
 36  17  19  1   
 37  17  40  1   
 38  17  41  1   
 39  18  20  1   
 40  18  42  1   
 41  18  43  1   
 42  19  20  1   
 43  19  21  1   
 44  19  22  1   
 45  20  23  1   
 46  20  44  1   
 47  21  45  1   
 48  22  46  1   
 49  22  47  1   
 50  22  48  1   
 51  23  49  1   
@<TRIPOS>SUBSTRUCTURE
  1 ****  16 GROUP 4 **** **** 0

# MOE 2024.06 (io_trps.svl 2023.06)
