@<TRIPOS>MOLECULE
NONAME
34 33 1 0 0 
SMALL
USER_CHARGES


@<TRIPOS>ATOM
  1 S       -0.5130    -0.4300     1.3610 S.3   1 <1>  -0.4600 
  2 C        0.5680     1.0180     1.3110 C.3   1 <1>   1.2500 
  3 C       -1.8710     0.0490     0.2570 C.3   1 <1>   0.0700 
  4 F       -0.0840     2.0920     1.7340 F     1 <1>  -0.3400 
  5 F        1.0080     1.2250     0.0790 F     1 <1>  -0.3400 
  6 F        1.6110     0.8170     2.1040 F     1 <1>  -0.3400 
  7 C       -2.8580    -1.1180     0.1810 C.3   1 <1>  -0.1600 
  8 C       -4.1320    -0.7370    -0.5910 C.3   1 <1>   0.1140 
  9 N       -5.0320    -1.9300    -0.5960 N.am  1 <1>  -0.7300 
 10 C       -3.8430    -0.2330    -2.0230 C.2   1 <1>   0.9060 
 11 C       -6.0590    -2.1590     0.2430 C.2   1 <1>   0.7800 
 12 O       -3.4120     0.9170    -2.1830 O.co2 1 <1>  -0.9000 
 13 O       -4.0450    -1.0010    -2.9760 O.co2 1 <1>  -0.9000 
 14 O       -6.2030    -1.5510     1.2860 O.2   1 <1>  -0.5700 
 15 O       -6.9130    -3.1050    -0.1440 O.3   1 <1>  -0.4300 
 16 C       -8.0760    -3.5320     0.5310 C.3   1 <1>   0.2800 
 17 C       -7.7100    -4.1330     1.8930 C.3   1 <1>  -0.2400 
 18 C       -8.6740    -4.6230    -0.3580 C.3   1 <1>  -0.2400 
 19 C       -9.0740    -2.3740     0.6500 C.3   1 <1>  -0.2400 
 20 H       -2.3350     0.9300     0.6670 H     1 <1>   0.0800 
 21 H       -1.4480     0.2740    -0.7080 H     1 <1>   0.0800 
 22 H       -2.3820    -1.9470    -0.3120 H     1 <1>   0.0800 
 23 H       -3.1350    -1.4120     1.1780 H     1 <1>   0.0800 
 24 H       -4.6260     0.0660    -0.0740 H     1 <1>   0.0800 
 25 H       -5.0840    -2.3250    -1.5430 H     1 <1>   0.3700 
 26 H       -8.5760    -4.5840     2.3400 H     1 <1>   0.0800 
 27 H       -7.3510    -3.3770     2.5660 H     1 <1>   0.0800 
 28 H       -6.9520    -4.8870     1.7750 H     1 <1>   0.0800 
 29 H       -9.5750    -5.0110     0.0800 H     1 <1>   0.0800 
 30 H       -7.9750    -5.4310    -0.4750 H     1 <1>   0.0800 
 31 H       -8.9110    -4.2230    -1.3270 H     1 <1>   0.0800 
 32 H      -10.0100    -2.7330     1.0360 H     1 <1>   0.0800 
 33 H       -9.2470    -1.9310    -0.3140 H     1 <1>   0.0800 
 34 H       -8.7120    -1.6200     1.3240 H     1 <1>   0.0800 
@<TRIPOS>BOND
  1   1   2  1   
  2   1   3  1   
  3   2   4  1   
  4   2   5  1   
  5   2   6  1   
  6   3   7  1   
  7   3  20  1   
  8   3  21  1   
  9   7   8  1   
 10   7  22  1   
 11   7  23  1   
 12   8   9  1   
 13   8  10  1   
 14   8  24  1   
 15   9  11  am  
 16   9  25  1   
 17  10  12  ar  
 18  10  13  ar  
 19  11  14  2   
 20  11  15  1   
 21  15  16  1   
 22  16  17  1   
 23  16  18  1   
 24  16  19  1   
 25  17  26  1   
 26  17  27  1   
 27  17  28  1   
 28  18  29  1   
 29  18  30  1   
 30  18  31  1   
 31  19  32  1   
 32  19  33  1   
 33  19  34  1   
@<TRIPOS>SUBSTRUCTURE
  1 ****   8 GROUP 4 **** **** 0

# MOE 2024.06 (io_trps.svl 2023.06)
