@<TRIPOS>MOLECULE
NONAME
43 45 1 0 0 
SMALL
USER_CHARGES


@<TRIPOS>ATOM
  1 CL      -1.7790     3.4230     3.0210 Cl    1 <1>  -0.1770 
  2 C       -1.0440     3.4940     1.4390 C.ar  1 <1>   0.1770 
  3 C       -1.6290     2.8450     0.3550 C.ar  1 <1>   0.0860 
  4 C        0.1320     4.2070     1.3100 C.ar  1 <1>  -0.1500 
  5 C       -2.8630     2.1010     0.4690 C.2   1 <1>   0.5440 
  6 C       -0.9700     2.9280    -0.8710 C.ar  1 <1>  -0.1500 
  7 C        0.7590     4.2830     0.0790 C.ar  1 <1>  -0.1500 
  8 O       -2.8360     0.8990     0.2820 O.2   1 <1>  -0.5700 
  9 N       -4.0670     2.7220     0.7240 N.am  1 <1>  -0.6600 
 10 C        0.2140     3.6420    -1.0310 C.ar  1 <1>  -0.1430 
 11 C       -5.3280     1.9410     0.8860 C.3   1 <1>   0.1400 
 12 C       -4.2470     4.2030     0.6840 C.3   1 <1>   0.1400 
 13 C        0.9240     3.7210    -2.3940 C.3   1 <1>   1.1640 
 14 C       -6.2520     2.1550    -0.3390 C.3   1 <1>   0.0000 
 15 C       -5.6810     4.5890     0.2810 C.3   1 <1>  -0.1600 
 16 F        0.1300     3.4190    -3.4140 F     1 <1>  -0.3400 
 17 F        1.9580     2.8940    -2.4650 F     1 <1>  -0.3400 
 18 F        1.3990     4.9360    -2.6430 F     1 <1>  -0.3400 
 19 C       -7.7030     1.7150    -0.0520 C.3   1 <1>   0.2000 
 20 C       -6.2300     3.6460    -0.8030 C.3   1 <1>  -0.1600 
 21 C       -5.8570     1.2360    -1.5120 C.3   1 <1>  -0.1600 
 22 O       -7.7160     0.5390     0.6790 O.3   1 <1>  -0.6800 
 23 C       -8.3080     1.3990    -1.4210 C.3   1 <1>  -0.1600 
 24 C       -7.1340     1.0130    -2.3330 C.3   1 <1>  -0.1600 
 25 H        0.5540     4.6970     2.1700 H     1 <1>   0.1500 
 26 H       -1.4130     2.4090    -1.7070 H     1 <1>   0.1500 
 27 H        1.6780     4.8410    -0.0100 H     1 <1>   0.1500 
 28 H       -5.1150     0.8950     1.0240 H     1 <1>   0.0800 
 29 H       -5.8250     2.2770     1.7790 H     1 <1>   0.0800 
 30 H       -4.0190     4.6190     1.6500 H     1 <1>   0.0800 
 31 H       -3.5640     4.6200    -0.0360 H     1 <1>   0.0800 
 32 H       -6.3160     4.5530     1.1480 H     1 <1>   0.0800 
 33 H       -5.6860     5.6030    -0.0770 H     1 <1>   0.0800 
 34 H       -8.2650     2.4520     0.4950 H     1 <1>   0.0800 
 35 H       -5.5980     3.7520    -1.6670 H     1 <1>   0.0800 
 36 H       -7.2110     3.9760    -1.0960 H     1 <1>   0.0800 
 37 H       -5.0540     1.6370    -2.1060 H     1 <1>   0.0800 
 38 H       -5.5250     0.2860    -1.1290 H     1 <1>   0.0800 
 39 H       -7.2390    -0.1490     0.1760 H     1 <1>   0.4000 
 40 H       -9.0550     0.6260    -1.3640 H     1 <1>   0.0800 
 41 H       -8.7730     2.2870    -1.8100 H     1 <1>   0.0800 
 42 H       -7.2060    -0.0140    -2.6470 H     1 <1>   0.0800 
 43 H       -7.1280     1.6430    -3.2060 H     1 <1>   0.0800 
@<TRIPOS>BOND
  1   1   2  1   
  2   2   3  ar  
  3   2   4  ar  
  4   3   5  1   
  5   3   6  ar  
  6   4   7  ar  
  7   4  25  1   
  8   5   8  2   
  9   5   9  am  
 10   6  10  ar  
 11   6  26  1   
 12   7  10  ar  
 13   7  27  1   
 14   9  11  1   
 15   9  12  1   
 16  10  13  1   
 17  11  14  1   
 18  11  28  1   
 19  11  29  1   
 20  12  15  1   
 21  12  30  1   
 22  12  31  1   
 23  13  16  1   
 24  13  17  1   
 25  13  18  1   
 26  14  19  1   
 27  14  20  1   
 28  14  21  1   
 29  15  20  1   
 30  15  32  1   
 31  15  33  1   
 32  19  22  1   
 33  19  23  1   
 34  19  34  1   
 35  20  35  1   
 36  20  36  1   
 37  21  24  1   
 38  21  37  1   
 39  21  38  1   
 40  22  39  1   
 41  23  24  1   
 42  23  40  1   
 43  23  41  1   
 44  24  42  1   
 45  24  43  1   
@<TRIPOS>SUBSTRUCTURE
  1 ****   5 GROUP 4 **** **** 0

# MOE 2024.06 (io_trps.svl 2023.06)
