@<TRIPOS>MOLECULE
NONAME
40 41 1 0 0 
SMALL
USER_CHARGES


@<TRIPOS>ATOM
  1 O       -0.8700     0.2250    -0.0250 O.2   1 <1>  -0.5700 
  2 C       -1.7050    -0.6250     0.1930 C.2   1 <1>   0.6900 
  3 N       -2.9220    -0.6540    -0.4600 N.am  1 <1>  -0.4200 
  4 N       -1.4270    -1.5950     1.1150 N.am  1 <1>  -0.5390 
  5 C       -3.8190    -1.6770    -0.2060 C.2   1 <1>   0.6160 
  6 C       -3.2420     0.4100    -1.4560 C.3   1 <1>   0.0600 
  7 C       -2.3060    -2.6110     1.4270 C.2   1 <1>  -0.0410 
  8 O       -4.8640    -1.7500    -0.8330 O.2   1 <1>  -0.5700 
  9 C       -3.4930    -2.6700     0.7830 C.2   1 <1>  -0.1240 
 10 C       -4.5210    -3.7600     1.0790 C.3   1 <1>  -0.0220 
 11 C       -4.7740    -4.6300    -0.1650 C.3   1 <1>   0.3430 
 12 N       -6.2130    -4.9980    -0.3140 N.4   1 <1>  -0.9590 
 13 C       -6.3940    -6.1240    -1.2740 C.3   1 <1>   0.5230 
 14 C       -7.0420    -3.8220    -0.7460 C.3   1 <1>   0.2630 
 15 C       -7.6110    -6.9290    -0.8600 C.2   1 <1>  -0.0400 
 16 O       -8.7850    -6.3300    -0.7900 O.3   1 <1>  -0.2800 
 17 C       -7.7260    -8.2310    -0.5170 C.2   1 <1>  -0.1500 
 18 C       -9.6710    -7.2260    -0.4090 C.2   1 <1>  -0.0400 
 19 C       -9.0800    -8.4240    -0.2220 C.2   1 <1>  -0.1500 
 20 C      -11.1170    -6.8070    -0.2540 C.3   1 <1>  -0.0600 
 21 H       -0.5140    -1.4900     1.5650 H     1 <1>   0.3700 
 22 H       -2.7810     1.3400    -1.1690 H     1 <1>   0.0800 
 23 H       -4.3050     0.5640    -1.5170 H     1 <1>   0.0800 
 24 H       -2.8700     0.1200    -2.4230 H     1 <1>   0.0800 
 25 H       -1.9950    -3.3150     2.1840 H     1 <1>   0.1500 
 26 H       -5.4250    -3.2800     1.4100 H     1 <1>   0.0800 
 27 H       -4.1720    -4.3870     1.8800 H     1 <1>   0.0800 
 28 H       -4.1670    -5.5180    -0.0930 H     1 <1>   0.0800 
 29 H       -4.4620    -4.0910    -1.0450 H     1 <1>   0.0800 
 30 H       -6.5940    -5.3460     0.5790 H     1 <1>   0.4500 
 31 H       -5.5330    -6.7710    -1.2560 H     1 <1>   0.0800 
 32 H       -6.5230    -5.7500    -2.2770 H     1 <1>   0.0800 
 33 H       -6.6900    -3.4410    -1.6920 H     1 <1>   0.0800 
 34 H       -6.9780    -3.0260    -0.0230 H     1 <1>   0.0800 
 35 H       -8.0770    -4.1040    -0.8510 H     1 <1>   0.0800 
 36 H       -6.9750    -9.0010    -0.4670 H     1 <1>   0.1500 
 37 H       -9.5270    -9.3540     0.0870 H     1 <1>   0.1500 
 38 H      -11.1970    -6.0310     0.4850 H     1 <1>   0.0800 
 39 H      -11.7160    -7.6440     0.0550 H     1 <1>   0.0800 
 40 H      -11.4930    -6.4380    -1.1910 H     1 <1>   0.0800 
@<TRIPOS>BOND
  1   1   2  2   
  2   2   3  am  
  3   2   4  am  
  4   3   5  am  
  5   3   6  1   
  6   4   7  1   
  7   4  21  1   
  8   5   8  2   
  9   5   9  1   
 10   6  22  1   
 11   6  23  1   
 12   6  24  1   
 13   7   9  2   
 14   7  25  1   
 15   9  10  1   
 16  10  11  1   
 17  10  26  1   
 18  10  27  1   
 19  11  12  1   
 20  11  28  1   
 21  11  29  1   
 22  12  13  1   
 23  12  14  1   
 24  12  30  1   
 25  13  15  1   
 26  13  31  1   
 27  13  32  1   
 28  14  33  1   
 29  14  34  1   
 30  14  35  1   
 31  15  16  1   
 32  15  17  2   
 33  16  18  1   
 34  17  19  1   
 35  17  36  1   
 36  18  19  2   
 37  18  20  1   
 38  19  37  1   
 39  20  38  1   
 40  20  39  1   
 41  20  40  1   
@<TRIPOS>SUBSTRUCTURE
  1 ****  11 GROUP 4 **** **** 0

# MOE 2024.06 (io_trps.svl 2023.06)
