@<TRIPOS>MOLECULE
Untitled Document
58 62 1 0 0 
SMALL
USER_CHARGES


@<TRIPOS>ATOM
  1 O        0.3090     0.5620     0.1620 O.co2 1 <1>  -0.9000 
  2 C       -0.4270     1.5160     0.4370 C.2   1 <1>   0.9060 
  3 O       -0.3430     2.1340     1.5030 O.co2 1 <1>  -0.9000 
  4 C       -1.4430     1.9670    -0.5870 C.3   1 <1>  -0.2660 
  5 C       -2.8280     1.2960    -0.4730 C.3   1 <1>   0.0000 
  6 C       -3.7630     1.8430    -1.5700 C.3   1 <1>  -0.1600 
  7 C       -2.7390    -0.2350    -0.6550 C.3   1 <1>  -0.1600 
  8 C       -3.4920     1.5780     0.8920 C.3   1 <1>  -0.1600 
  9 C       -5.1600     1.1910    -1.4820 C.3   1 <1>  -0.1600 
 10 C       -4.1380    -0.8870    -0.5780 C.3   1 <1>  -0.1600 
 11 C       -4.8920     0.9290     0.9760 C.3   1 <1>  -0.1600 
 12 C       -5.2430     0.1650    -0.3230 C.3   1 <1>   0.1430 
 13 C       -6.6240    -0.5170    -0.1950 C.ar  1 <1>  -0.1440 
 14 C       -7.6950    -0.2270    -1.0350 C.ar  1 <1>  -0.1500 
 15 C       -6.8300    -1.4620     0.8040 C.ar  1 <1>  -0.1500 
 16 C       -8.9130    -0.8640    -0.8840 C.ar  1 <1>  -0.1500 
 17 C       -8.0480    -2.0970     0.9530 C.ar  1 <1>  -0.1500 
 18 C       -9.1150    -1.8240     0.1020 C.ar  1 <1>   0.0860 
 19 C      -10.3820    -2.4980     0.2360 C.2   1 <1>   0.3030 
 20 N      -11.3320    -1.9840     0.9170 N.2   1 <1>  -0.6290 
 21 C      -10.5060    -3.8800    -0.4740 C.3   1 <1>   0.3410 
 22 C      -12.5430    -2.6830     0.9970 C.ar  1 <1>   0.1790 
 23 O      -11.8520    -4.3120    -0.5720 O.3   1 <1>  -0.3630 
 24 C       -9.7750    -4.9760     0.3120 C.3   1 <1>  -0.2400 
 25 C       -9.9920    -3.8480    -1.9190 C.3   1 <1>  -0.2400 
 26 C      -12.7940    -3.8220     0.2470 C.ar  1 <1>   0.3920 
 27 C      -13.5970    -2.2780     1.8190 C.ar  1 <1>   0.4100 
 28 N      -13.9330    -4.4840     0.2770 N.ar  1 <1>  -0.6200 
 29 N      -14.7490    -2.9140     1.8660 N.ar  1 <1>  -0.6200 
 30 N      -13.5170    -1.1880     2.6270 N.pl3 1 <1>  -0.9000 
 31 C      -14.8400    -3.9770     1.0920 C.ar  1 <1>   0.4700 
 32 H       -1.0240     1.7720    -1.5540 H     1 <1>   0.0800 
 33 H       -1.5460     3.0300    -0.4810 H     1 <1>   0.0800 
 34 H       -3.3340     1.6470    -2.5370 H     1 <1>   0.0800 
 35 H       -3.8550     2.9090    -1.4630 H     1 <1>   0.0800 
 36 H       -2.1090    -0.6510     0.1140 H     1 <1>   0.0800 
 37 H       -2.2780    -0.4610    -1.6000 H     1 <1>   0.0800 
 38 H       -3.5690     2.6400     1.0450 H     1 <1>   0.0800 
 39 H       -2.8710     1.1880     1.6810 H     1 <1>   0.0800 
 40 H       -5.3720     0.7000    -2.4150 H     1 <1>   0.0800 
 41 H       -5.8920     1.9650    -1.3320 H     1 <1>   0.0800 
 42 H       -4.1280    -1.6170     0.2110 H     1 <1>   0.0800 
 43 H       -4.3430    -1.4060    -1.4970 H     1 <1>   0.0800 
 44 H       -5.6310     1.6900     1.1540 H     1 <1>   0.0800 
 45 H       -4.9060     0.2600     1.8170 H     1 <1>   0.0800 
 46 H       -7.6070     0.5000    -1.8200 H     1 <1>   0.1500 
 47 H       -6.0340    -1.7100     1.4840 H     1 <1>   0.1500 
 48 H       -9.7270    -0.6130    -1.5410 H     1 <1>   0.1500 
 49 H       -8.1790    -2.8130     1.7460 H     1 <1>   0.1500 
 50 H      -10.1260    -4.9970     1.3280 H     1 <1>   0.0800 
 51 H       -8.7160    -4.7930     0.3200 H     1 <1>   0.0800 
 52 H       -9.9480    -5.9360    -0.1400 H     1 <1>   0.0800 
 53 H      -10.5080    -3.0860    -2.4760 H     1 <1>   0.0800 
 54 H      -10.1560    -4.7990    -2.3940 H     1 <1>   0.0800 
 55 H       -8.9380    -3.6370    -1.9460 H     1 <1>   0.0800 
 56 H      -14.3750    -0.8120     3.0290 H     1 <1>   0.4000 
 57 H      -12.7290    -0.5480     2.5020 H     1 <1>   0.4000 
 58 H      -15.7800    -4.5040     1.1290 H     1 <1>   0.1500 
@<TRIPOS>BOND
  1   1   2  ar  
  2   2   3  ar  
  3   2   4  1   
  4   4   5  1   
  5   4  32  1   
  6   4  33  1   
  7   5   6  1   
  8   5   7  1   
  9   5   8  1   
 10   6   9  1   
 11   6  34  1   
 12   6  35  1   
 13   7  10  1   
 14   7  36  1   
 15   7  37  1   
 16   8  11  1   
 17   8  38  1   
 18   8  39  1   
 19   9  12  1   
 20   9  40  1   
 21   9  41  1   
 22  10  12  1   
 23  10  42  1   
 24  10  43  1   
 25  11  12  1   
 26  11  44  1   
 27  11  45  1   
 28  12  13  1   
 29  13  14  ar  
 30  13  15  ar  
 31  14  16  ar  
 32  14  46  1   
 33  15  17  ar  
 34  15  47  1   
 35  16  18  ar  
 36  16  48  1   
 37  17  18  ar  
 38  17  49  1   
 39  18  19  1   
 40  19  20  2   
 41  19  21  1   
 42  20  22  1   
 43  21  23  1   
 44  21  24  1   
 45  21  25  1   
 46  22  26  ar  
 47  22  27  ar  
 48  23  26  1   
 49  24  50  1   
 50  24  51  1   
 51  24  52  1   
 52  25  53  1   
 53  25  54  1   
 54  25  55  1   
 55  26  28  ar  
 56  27  29  ar  
 57  27  30  1   
 58  28  31  ar  
 59  29  31  ar  
 60  30  56  1   
 61  30  57  1   
 62  31  58  1   
@<TRIPOS>SUBSTRUCTURE
  1 ****  15 GROUP 4 **** **** 0

# MOE 2024.06 (io_trps.svl 2023.06)
