@<TRIPOS>MOLECULE
NONAME
47 50 1 0 0 
SMALL
USER_CHARGES


@<TRIPOS>ATOM
  1 S       -0.2560    -0.6720    -1.2730 S.o2  1 <1>   1.4470 
  2 O       -0.5660    -0.1400    -2.5840 O.2   1 <1>  -0.6500 
  3 O       -0.4180    -2.1120    -1.1560 O.2   1 <1>  -0.6500 
  4 N       -1.3070    -0.0120    -0.1060 N.am  1 <1>  -0.8490 
  5 C        1.4600    -0.3010    -0.7430 C.ar  1 <1>  -0.0090 
  6 C       -2.2830     0.9300    -0.6940 C.3   1 <1>   0.1960 
  7 C       -1.9540    -1.0080     0.7500 C.3   1 <1>   0.1960 
  8 C        1.9230     0.9610    -0.3250 C.ar  1 <1>  -0.1790 
  9 C        2.3720    -1.3550    -0.7470 C.ar  1 <1>  -0.1500 
 10 C       -3.0960     1.6760     0.3830 C.3   1 <1>   0.1430 
 11 C       -2.7560    -0.3350     1.8720 C.3   1 <1>  -0.1600 
 12 C        1.1020     2.1540    -0.3240 C.2   1 <1>   0.9790 
 13 C        3.2460     1.0880     0.1030 C.ar  1 <1>  -0.1500 
 14 C        3.6830    -1.2090    -0.3340 C.ar  1 <1>  -0.1500 
 15 C       -4.0650     2.6180    -0.3100 C.ar  1 <1>   0.1660 
 16 C       -3.7860     0.6600     1.3130 C.3   1 <1>  -0.1600 
 17 C       -2.2080     2.6690     1.1710 C.3   1 <1>  -0.1600 
 18 O        0.4270     2.4650    -1.3130 O.co2 1 <1>  -0.9000 
 19 O        1.1160     2.9260     0.6510 O.co2 1 <1>  -0.9000 
 20 C        4.1220     0.0230     0.1010 C.ar  1 <1>  -0.1500 
 21 N       -5.2160     2.2850    -0.8570 N.ar  1 <1>  -0.6200 
 22 C       -3.5890     3.8960    -0.3090 C.ar  1 <1>  -0.1430 
 23 C       -2.2530     3.9910     0.3900 C.3   1 <1>  -0.0170 
 24 C       -5.8690     3.2980    -1.4080 C.ar  1 <1>   0.4770 
 25 C       -4.3500     4.8650    -0.9130 C.ar  1 <1>   0.1600 
 26 N       -5.5100     4.5740    -1.4690 N.ar  1 <1>  -0.6200 
 27 C       -7.1890     2.9500    -2.0520 C.3   1 <1>  -0.0970 
 28 H       -2.9570     0.3890    -1.3370 H     1 <1>   0.0800 
 29 H       -1.7770     1.6550    -1.3060 H     1 <1>   0.0800 
 30 H       -1.2020    -1.6400     1.1930 H     1 <1>   0.0800 
 31 H       -2.6060    -1.6250     0.1540 H     1 <1>   0.0800 
 32 H        2.0490    -2.3260    -1.0800 H     1 <1>   0.1500 
 33 H       -2.0700     0.1730     2.5280 H     1 <1>   0.0800 
 34 H       -3.2600    -1.0900     2.4470 H     1 <1>   0.0800 
 35 H        3.5810     2.0550     0.4420 H     1 <1>   0.1500 
 36 H        4.3540    -2.0490    -0.3500 H     1 <1>   0.1500 
 37 H       -4.5260     0.1190     0.7490 H     1 <1>   0.0800 
 38 H       -4.2910     1.1700     2.1130 H     1 <1>   0.0800 
 39 H       -1.2030     2.3120     1.2980 H     1 <1>   0.0800 
 40 H       -2.6290     2.8410     2.1440 H     1 <1>   0.0800 
 41 H        5.1360     0.1570     0.4340 H     1 <1>   0.1500 
 42 H       -1.4550     4.0220    -0.3340 H     1 <1>   0.0800 
 43 H       -2.1830     4.8410     1.0440 H     1 <1>   0.0800 
 44 H       -4.0050     5.8830    -0.9410 H     1 <1>   0.1500 
 45 H       -7.7110     2.2320    -1.4470 H     1 <1>   0.0800 
 46 H       -7.0070     2.5310    -3.0220 H     1 <1>   0.0800 
 47 H       -7.7980     3.8290    -2.1540 H     1 <1>   0.0800 
@<TRIPOS>BOND
  1   1   2  2   
  2   1   3  2   
  3   1   4  am  
  4   1   5  1   
  5   4   6  1   
  6   4   7  1   
  7   5   8  ar  
  8   5   9  ar  
  9   6  10  1   
 10   6  28  1   
 11   6  29  1   
 12   7  11  1   
 13   7  30  1   
 14   7  31  1   
 15   8  12  1   
 16   8  13  ar  
 17   9  14  ar  
 18   9  32  1   
 19  10  15  1   
 20  10  16  1   
 21  10  17  1   
 22  11  16  1   
 23  11  33  1   
 24  11  34  1   
 25  12  18  ar  
 26  12  19  ar  
 27  13  20  ar  
 28  13  35  1   
 29  14  20  ar  
 30  14  36  1   
 31  15  21  ar  
 32  15  22  ar  
 33  16  37  1   
 34  16  38  1   
 35  17  23  1   
 36  17  39  1   
 37  17  40  1   
 38  20  41  1   
 39  21  24  ar  
 40  22  23  1   
 41  22  25  ar  
 42  23  42  1   
 43  23  43  1   
 44  24  26  ar  
 45  24  27  1   
 46  25  26  ar  
 47  25  44  1   
 48  27  45  1   
 49  27  46  1   
 50  27  47  1   
@<TRIPOS>SUBSTRUCTURE
  1 ****   6 GROUP 4 **** **** 0

# MOE 2024.06 (io_trps.svl 2023.06)
