@<TRIPOS>MOLECULE
NONAME
53 56 1 0 0 
SMALL
USER_CHARGES


@<TRIPOS>ATOM
  1 O        1.2680    -0.4550    -1.9990 O.2   1 <1>  -0.5700 
  2 C        1.9780    -0.8600    -1.1000 C.2   1 <1>   0.7150 
  3 N        2.8890     0.0130    -0.5420 N.am  1 <1>  -0.6600 
  4 C        1.8580    -2.2260    -0.6540 C.2   1 <1>  -0.2370 
  5 C        3.5800    -0.2760     0.7730 C.3   1 <1>   0.2200 
  6 C        3.1120     1.3400    -1.2070 C.3   1 <1>   0.1400 
  7 N        0.6450    -2.8220    -0.3730 N.pl3 1 <1>   0.0480 
  8 C        2.8380    -3.1560    -0.4440 C.2   1 <1>  -0.1500 
  9 C        3.3410     0.8330     1.8100 C.3   1 <1>   0.1200 
 10 C        5.0910    -0.5490     0.5740 C.3   1 <1>   0.3430 
 11 C        4.3290     2.1430    -0.7090 C.3   1 <1>  -0.0800 
 12 C        0.8760    -4.1160     0.0330 C.ar  1 <1>  -0.1520 
 13 C       -0.6910    -2.2100    -0.5440 C.3   1 <1>   0.0160 
 14 C        2.2450    -4.3470     0.0000 C.ar  1 <1>   0.0000 
 15 O        4.2810     1.8560     1.6920 O.3   1 <1>  -0.5600 
 16 N        5.5840    -0.0720    -0.7640 N.4   1 <1>  -0.9590 
 17 C        4.0810     2.7710     0.6700 C.3   1 <1>   0.1200 
 18 C        5.6900     1.4200    -0.7880 C.3   1 <1>   0.3430 
 19 C       -0.0020    -5.1310     0.4300 C.ar  1 <1>  -0.1500 
 20 C        2.7510    -5.5970     0.3720 C.ar  1 <1>  -0.1500 
 21 C        6.9620    -0.6670    -1.0200 C.3   1 <1>   0.2370 
 22 C        0.5040    -6.3570     0.7940 C.ar  1 <1>  -0.1500 
 23 C        1.8920    -6.5950     0.7670 C.ar  1 <1>   0.0820 
 24 C        8.0160    -0.2870     0.0230 C.2   1 <1>   0.9060 
 25 O        2.4510    -7.7880     1.1170 O.3   1 <1>  -0.3630 
 26 O        8.0870    -0.9780     1.0430 O.co2 1 <1>  -0.9000 
 27 O        8.6420     0.7620    -0.1480 O.co2 1 <1>  -0.9000 
 28 C        1.6480    -8.8920     1.4710 C.3   1 <1>   0.0400 
 29 H        3.1500    -1.1580     1.2100 H     1 <1>   0.0800 
 30 H        3.2250     1.1710    -2.2650 H     1 <1>   0.0800 
 31 H        2.2210     1.9330    -1.0820 H     1 <1>   0.0800 
 32 H        3.8970    -3.0510    -0.5910 H     1 <1>   0.1500 
 33 H        3.4710     0.4200     2.7960 H     1 <1>   0.0800 
 34 H        2.3460     1.2370     1.7420 H     1 <1>   0.0800 
 35 H        5.2590    -1.6090     0.6560 H     1 <1>   0.0800 
 36 H        5.6590    -0.0830     1.3660 H     1 <1>   0.0800 
 37 H        4.4100     2.9840    -1.3740 H     1 <1>   0.0800 
 38 H       -0.6620    -1.1830    -0.2290 H     1 <1>   0.0800 
 39 H       -1.4160    -2.7380     0.0460 H     1 <1>   0.0800 
 40 H       -0.9670    -2.2560    -1.5820 H     1 <1>   0.0800 
 41 H        4.8990    -0.3730    -1.4670 H     1 <1>   0.4500 
 42 H        3.0870     3.1790     0.7530 H     1 <1>   0.0800 
 43 H        4.7850     3.5700     0.8340 H     1 <1>   0.0800 
 44 H        6.3210     1.7500     0.0250 H     1 <1>   0.0800 
 45 H        6.1800     1.7110    -1.7020 H     1 <1>   0.0800 
 46 H       -1.0610    -4.9520     0.4480 H     1 <1>   0.1500 
 47 H        3.8100    -5.7730     0.3470 H     1 <1>   0.1500 
 48 H        6.9000    -1.7390    -1.0300 H     1 <1>   0.0800 
 49 H        7.3300    -0.3380    -1.9750 H     1 <1>   0.0800 
 50 H       -0.1770    -7.1280     1.0990 H     1 <1>   0.1500 
 51 H        2.2970    -9.7230     1.6790 H     1 <1>   0.0800 
 52 H        1.0010    -9.1320     0.6450 H     1 <1>   0.0800 
 53 H        1.0790    -8.6440     2.3490 H     1 <1>   0.0800 
@<TRIPOS>BOND
  1   1   2  2   
  2   2   3  am  
  3   2   4  1   
  4   3   5  1   
  5   3   6  1   
  6   4   7  1   
  7   4   8  2   
  8   5   9  1   
  9   5  10  1   
 10   5  29  1   
 11   6  11  1   
 12   6  30  1   
 13   6  31  1   
 14   7  12  1   
 15   7  13  1   
 16   8  14  1   
 17   8  32  1   
 18   9  15  1   
 19   9  33  1   
 20   9  34  1   
 21  10  16  1   
 22  10  35  1   
 23  10  36  1   
 24  11  17  1   
 25  11  18  1   
 26  11  37  1   
 27  12  14  ar  
 28  12  19  ar  
 29  13  38  1   
 30  13  39  1   
 31  13  40  1   
 32  14  20  ar  
 33  15  17  1   
 34  16  18  1   
 35  16  21  1   
 36  16  41  1   
 37  17  42  1   
 38  17  43  1   
 39  18  44  1   
 40  18  45  1   
 41  19  22  ar  
 42  19  46  1   
 43  20  23  ar  
 44  20  47  1   
 45  21  24  1   
 46  21  48  1   
 47  21  49  1   
 48  22  23  ar  
 49  22  50  1   
 50  23  25  1   
 51  24  26  ar  
 52  24  27  ar  
 53  25  28  1   
 54  28  51  1   
 55  28  52  1   
 56  28  53  1   
@<TRIPOS>SUBSTRUCTURE
  1 ****   8 GROUP 4 **** **** 0

# MOE 2024.06 (io_trps.svl 2023.06)
