@<TRIPOS>MOLECULE
NONAME
42 43 1 0 0 
SMALL
USER_CHARGES


@<TRIPOS>ATOM
  1 F        2.2320    -0.1550     2.3780 F     1 <1>  -0.3400 
  2 C        1.8270     0.5850     1.3490 C.3   1 <1>   0.8560 
  3 F        0.6900     0.0210     0.9470 F     1 <1>  -0.3400 
  4 N        2.8530     0.5260     0.2410 N.pl3 1 <1>   0.0480 
  5 C        3.5360     1.6000    -0.3080 C.2   1 <1>  -0.2370 
  6 C        3.2990    -0.6020    -0.3980 C.2   1 <1>  -0.3320 
  7 C        3.3700     2.9750     0.0860 C.2   1 <1>   0.7150 
  8 C        4.3790     1.1120    -1.2760 C.2   1 <1>  -0.1500 
  9 C        4.2290    -0.2670    -1.3280 C.2   1 <1>  -0.1500 
 10 C        2.8140    -2.0130    -0.1000 C.3   1 <1>  -0.0600 
 11 O        2.4070     3.3240     0.7410 O.2   1 <1>  -0.5700 
 12 N        4.3280     3.8760    -0.2720 N.am  1 <1>  -0.4930 
 13 C        4.4220     5.2630    -0.0030 C.2   1 <1>   0.0630 
 14 C        3.4460     6.2600    -0.1040 C.2   1 <1>   0.1080 
 15 C        5.5380     5.9140     0.3940 C.2   1 <1>  -0.3320 
 16 N        3.9090     7.4300     0.2050 N.2   1 <1>  -0.7070 
 17 C        2.0080     6.0710    -0.5330 C.3   1 <1>  -0.0590 
 18 N        5.2000     7.2230     0.5160 N.pl3 1 <1>   0.3140 
 19 C        6.9260     5.3580     0.6810 C.3   1 <1>  -0.0600 
 20 C        6.0660     8.3470     0.9280 C.3   1 <1>   0.0960 
 21 C        6.7940     8.9530    -0.2810 C.3   1 <1>  -0.1600 
 22 C        7.7050    10.1120     0.1370 C.3   1 <1>  -0.2400 
 23 H        1.6050     1.5670     1.7130 H     1 <1>   0.0800 
 24 H        5.0490     1.6630    -1.9120 H     1 <1>   0.1500 
 25 H        4.7620    -0.9260    -1.9920 H     1 <1>   0.1500 
 26 H        3.0130    -2.2700     0.9250 H     1 <1>   0.0800 
 27 H        3.3210    -2.7210    -0.7300 H     1 <1>   0.0800 
 28 H        1.7570    -2.0930    -0.2830 H     1 <1>   0.0800 
 29 H        5.1620     3.4670    -0.6810 H     1 <1>   0.3700 
 30 H        1.9330     5.2730    -1.2480 H     1 <1>   0.0800 
 31 H        1.6400     6.9760    -0.9800 H     1 <1>   0.0800 
 32 H        1.4070     5.8360     0.3250 H     1 <1>   0.0800 
 33 H        6.9470     4.2930     0.5420 H     1 <1>   0.0800 
 34 H        7.2050     5.5680     1.6980 H     1 <1>   0.0800 
 35 H        7.6490     5.8030     0.0200 H     1 <1>   0.0800 
 36 H        6.7720     7.9930     1.6550 H     1 <1>   0.0800 
 37 H        5.4450     9.0920     1.3910 H     1 <1>   0.0800 
 38 H        6.0610     9.3130    -0.9840 H     1 <1>   0.0800 
 39 H        7.3840     8.1950    -0.7660 H     1 <1>   0.0800 
 40 H        7.1300    10.8940     0.6030 H     1 <1>   0.0800 
 41 H        8.1970    10.5230    -0.7280 H     1 <1>   0.0800 
 42 H        8.4570     9.7740     0.8280 H     1 <1>   0.0800 
@<TRIPOS>BOND
  1   1   2  1   
  2   2   3  1   
  3   2   4  1   
  4   2  23  1   
  5   4   5  1   
  6   4   6  1   
  7   5   7  1   
  8   5   8  2   
  9   6   9  2   
 10   6  10  1   
 11   7  11  2   
 12   7  12  am  
 13   8   9  1   
 14   8  24  1   
 15   9  25  1   
 16  10  26  1   
 17  10  27  1   
 18  10  28  1   
 19  12  13  1   
 20  12  29  1   
 21  13  14  1   
 22  13  15  2   
 23  14  16  2   
 24  14  17  1   
 25  15  18  1   
 26  15  19  1   
 27  16  18  1   
 28  17  30  1   
 29  17  31  1   
 30  17  32  1   
 31  18  20  1   
 32  19  33  1   
 33  19  34  1   
 34  19  35  1   
 35  20  21  1   
 36  20  36  1   
 37  20  37  1   
 38  21  22  1   
 39  21  38  1   
 40  21  39  1   
 41  22  40  1   
 42  22  41  1   
 43  22  42  1   
@<TRIPOS>SUBSTRUCTURE
  1 ****  12 GROUP 4 **** **** 0

# MOE 2024.06 (io_trps.svl 2023.06)
