@<TRIPOS>MOLECULE
NONAME
44 45 1 0 0 
SMALL
USER_CHARGES


@<TRIPOS>ATOM
  1 S        0.1920     4.4210    -2.9480 S.3   1 <1>  -0.3320 
  2 C        0.3560     4.1540    -1.1750 C.ar  1 <1>   0.1020 
  3 C       -1.6000     4.2340    -3.3520 C.3   1 <1>  -0.0100 
  4 C        1.6360     4.2050    -0.6560 C.ar  1 <1>  -0.1500 
  5 C       -0.7350     3.9110    -0.3580 C.ar  1 <1>  -0.1500 
  6 C        1.8390     4.0230     0.7050 C.ar  1 <1>  -0.1430 
  7 C       -0.5320     3.7210     0.9980 C.ar  1 <1>  -0.1500 
  8 C        0.7470     3.7770     1.5270 C.ar  1 <1>  -0.1500 
  9 C        3.2370     4.1010     1.2900 C.3   1 <1>   0.4860 
 10 N        3.7590     5.4870     1.1310 N.4   1 <1>  -0.9590 
 11 C        5.1790     5.6340     1.5890 C.3   1 <1>   0.3430 
 12 C        2.8690     6.5080     1.7690 C.3   1 <1>   0.2630 
 13 C        6.0840     6.2140     0.4880 C.3   1 <1>   0.1400 
 14 N        5.5170     7.4660    -0.0940 N.am  1 <1>  -0.4200 
 15 C        4.6980     7.4060    -1.1990 C.2   1 <1>   0.6900 
 16 C        5.8240     8.6900     0.4670 C.2   1 <1>   0.6160 
 17 O        4.2160     6.3470    -1.5480 O.2   1 <1>  -0.5700 
 18 N        4.3640     8.5620    -1.8440 N.am  1 <1>  -0.5390 
 19 O        6.3580     8.7210     1.5600 O.2   1 <1>  -0.5700 
 20 C        5.4570     9.8750    -0.2350 C.2   1 <1>  -0.1360 
 21 C        4.7410     9.8060    -1.3800 C.2   1 <1>  -0.0290 
 22 C        4.3100    11.0070    -2.1970 C.3   1 <1>  -0.1020 
 23 H       -1.7080     4.3700    -4.4130 H     1 <1>   0.0800 
 24 H       -2.1440     4.9880    -2.8140 H     1 <1>   0.0800 
 25 H       -1.9050     3.2440    -3.0630 H     1 <1>   0.0800 
 26 H        2.4530     4.3890    -1.3320 H     1 <1>   0.1500 
 27 H       -1.7310     3.8670    -0.7540 H     1 <1>   0.1500 
 28 H       -1.3750     3.5280     1.6420 H     1 <1>   0.1500 
 29 H        0.8750     3.6240     2.5860 H     1 <1>   0.1500 
 30 H        3.8750     3.4050     0.7700 H     1 <1>   0.0800 
 31 H        3.2120     3.8320     2.3330 H     1 <1>   0.0800 
 32 H        3.7390     5.6700     0.1050 H     1 <1>   0.4500 
 33 H        5.5730     4.6760     1.8860 H     1 <1>   0.0800 
 34 H        5.2240     6.2840     2.4490 H     1 <1>   0.0800 
 35 H        2.8030     6.3400     2.8310 H     1 <1>   0.0800 
 36 H        1.8770     6.4550     1.3480 H     1 <1>   0.0800 
 37 H        3.2570     7.5000     1.5980 H     1 <1>   0.0800 
 38 H        6.2200     5.4830    -0.2900 H     1 <1>   0.0800 
 39 H        7.0570     6.4190     0.9010 H     1 <1>   0.0800 
 40 H        3.7980     8.4500    -2.6890 H     1 <1>   0.3700 
 41 H        5.7790    10.8030     0.1980 H     1 <1>   0.1500 
 42 H        4.7190    10.9450    -3.1900 H     1 <1>   0.0800 
 43 H        4.6550    11.9190    -1.7440 H     1 <1>   0.0800 
 44 H        3.2370    11.0450    -2.2650 H     1 <1>   0.0800 
@<TRIPOS>BOND
  1   1   2  1   
  2   1   3  1   
  3   2   4  ar  
  4   2   5  ar  
  5   3  23  1   
  6   3  24  1   
  7   3  25  1   
  8   4   6  ar  
  9   4  26  1   
 10   5   7  ar  
 11   5  27  1   
 12   6   8  ar  
 13   6   9  1   
 14   7   8  ar  
 15   7  28  1   
 16   8  29  1   
 17   9  10  1   
 18   9  30  1   
 19   9  31  1   
 20  10  11  1   
 21  10  12  1   
 22  10  32  1   
 23  11  13  1   
 24  11  33  1   
 25  11  34  1   
 26  12  35  1   
 27  12  36  1   
 28  12  37  1   
 29  13  14  1   
 30  13  38  1   
 31  13  39  1   
 32  14  15  am  
 33  14  16  am  
 34  15  17  2   
 35  15  18  am  
 36  16  19  2   
 37  16  20  1   
 38  18  21  1   
 39  18  40  1   
 40  20  21  2   
 41  20  41  1   
 42  21  22  1   
 43  22  42  1   
 44  22  43  1   
 45  22  44  1   
@<TRIPOS>SUBSTRUCTURE
  1 ****  17 GROUP 4 **** **** 0

# MOE 2024.06 (io_trps.svl 2023.06)
