@<TRIPOS>MOLECULE
NONAME
43 45 1 0 0 
SMALL
USER_CHARGES


@<TRIPOS>ATOM
  1 O       -2.2340     0.6460    -1.7900 O.2   1 <1>  -0.5700 
  2 C       -1.8730     0.6340    -0.6370 C.2   1 <1>   0.5690 
  3 N       -1.8880    -0.5110     0.0890 N.am  1 <1>  -0.7300 
  4 C       -1.4060     1.9170     0.0470 C.3   1 <1>  -0.0190 
  5 C       -2.3310    -1.8250    -0.4250 C.3   1 <1>   0.2200 
  6 C       -2.5550     2.5910     0.8160 C.3   1 <1>  -0.1600 
  7 C       -0.7880     2.9370    -0.9270 C.3   1 <1>  -0.1600 
  8 C       -3.7590    -2.0800     0.0260 C.3   1 <1>  -0.0800 
  9 C       -1.5770    -2.9350     0.2980 C.3   1 <1>   0.1200 
 10 C       -2.0920     3.9130     1.4380 C.3   1 <1>   0.1200 
 11 C       -0.4310     4.2380    -0.2010 C.3   1 <1>   0.1200 
 12 C       -3.5630    -2.6660     1.4300 C.3   1 <1>   0.1200 
 13 C       -4.4820    -3.0560    -0.9210 C.3   1 <1>  -0.0160 
 14 O       -2.2380    -3.1100     1.5140 O.3   1 <1>  -0.5600 
 15 O       -1.5640     4.7350     0.4430 O.3   1 <1>  -0.5600 
 16 C       -5.9220    -3.2870    -0.4890 C.ar  1 <1>  -0.1440 
 17 C       -6.3280    -4.4580     0.1210 C.ar  1 <1>  -0.1500 
 18 C       -6.9000    -2.3340    -0.6890 C.ar  1 <1>  -0.1500 
 19 C       -7.6530    -4.6110     0.4950 C.ar  1 <1>   0.1600 
 20 C       -8.1980    -2.5870    -0.2780 C.ar  1 <1>   0.1600 
 21 N       -8.5980    -3.7020     0.3120 N.ar  1 <1>  -0.6200 
 22 H       -1.6380    -0.5110     1.0800 H     1 <1>   0.3700 
 23 H       -0.6440     1.6460     0.7560 H     1 <1>   0.0800 
 24 H       -2.2050    -1.8710    -1.4940 H     1 <1>   0.0800 
 25 H       -2.9160     1.9380     1.5900 H     1 <1>   0.0800 
 26 H       -3.3720     2.7910     0.1450 H     1 <1>   0.0800 
 27 H       -1.4860     3.1660    -1.7140 H     1 <1>   0.0800 
 28 H        0.0930     2.5210    -1.3820 H     1 <1>   0.0800 
 29 H       -4.3210    -1.1630     0.0670 H     1 <1>   0.0800 
 30 H       -0.5450    -2.6900     0.4760 H     1 <1>   0.0800 
 31 H       -1.6430    -3.8590    -0.2480 H     1 <1>   0.0800 
 32 H       -1.3370     3.7540     2.1880 H     1 <1>   0.0800 
 33 H       -2.9240     4.4330     1.8820 H     1 <1>   0.0800 
 34 H       -0.1010     4.9830    -0.9040 H     1 <1>   0.0800 
 35 H        0.3410     4.0810     0.5330 H     1 <1>   0.0800 
 36 H       -4.2190    -3.4920     1.6380 H     1 <1>   0.0800 
 37 H       -3.6980    -1.9070     2.1820 H     1 <1>   0.0800 
 38 H       -3.9610    -3.9960    -0.9600 H     1 <1>   0.0800 
 39 H       -4.4860    -2.6470    -1.9170 H     1 <1>   0.0800 
 40 H       -5.6290    -5.2520     0.3100 H     1 <1>   0.1500 
 41 H       -6.6650    -1.3980    -1.1620 H     1 <1>   0.1500 
 42 H       -7.9510    -5.5290     0.9700 H     1 <1>   0.1500 
 43 H       -8.9470    -1.8320    -0.4420 H     1 <1>   0.1500 
@<TRIPOS>BOND
  1   1   2  2   
  2   2   3  am  
  3   2   4  1   
  4   3   5  1   
  5   3  22  1   
  6   4   6  1   
  7   4   7  1   
  8   4  23  1   
  9   5   8  1   
 10   5   9  1   
 11   5  24  1   
 12   6  10  1   
 13   6  25  1   
 14   6  26  1   
 15   7  11  1   
 16   7  27  1   
 17   7  28  1   
 18   8  12  1   
 19   8  13  1   
 20   8  29  1   
 21   9  14  1   
 22   9  30  1   
 23   9  31  1   
 24  10  15  1   
 25  10  32  1   
 26  10  33  1   
 27  11  15  1   
 28  11  34  1   
 29  11  35  1   
 30  12  14  1   
 31  12  36  1   
 32  12  37  1   
 33  13  16  1   
 34  13  38  1   
 35  13  39  1   
 36  16  17  ar  
 37  16  18  ar  
 38  17  19  ar  
 39  17  40  1   
 40  18  20  ar  
 41  18  41  1   
 42  19  21  ar  
 43  19  42  1   
 44  20  21  ar  
 45  20  43  1   
@<TRIPOS>SUBSTRUCTURE
  1 ****   8 GROUP 4 **** **** 0

# MOE 2024.06 (io_trps.svl 2023.06)
