@<TRIPOS>MOLECULE
NONAME
50 53 1 0 0 
SMALL
USER_CHARGES


@<TRIPOS>ATOM
  1 O       -1.4970    -0.1550    -1.7970 O.2   1 <1>  -0.5700 
  2 C       -1.9020     0.3950    -0.7900 C.2   1 <1>   0.7150 
  3 N       -2.3380    -0.3900     0.2360 N.am  1 <1>  -0.7300 
  4 C       -1.9470     1.8330    -0.6590 C.2   1 <1>   0.0550 
  5 C       -2.3180    -1.8700     0.2790 C.3   1 <1>   0.2200 
  6 O       -2.4220     2.3760     0.4560 O.3   1 <1>  -0.2800 
  7 C       -1.5810     2.8280    -1.4980 C.2   1 <1>   0.0460 
  8 C       -3.7170    -2.4450     0.1110 C.3   1 <1>  -0.0800 
  9 C       -2.0050    -2.3170     1.7010 C.3   1 <1>   0.1200 
 10 C       -2.3060     3.6660     0.2110 C.2   1 <1>   0.2980 
 11 N       -1.8180     4.0010    -0.9260 N.2   1 <1>  -0.5650 
 12 C       -0.9830     2.7940    -2.8900 C.3   1 <1>  -0.0590 
 13 C       -4.2940    -2.3580     1.5280 C.3   1 <1>   0.1200 
 14 C       -4.5800    -1.8040    -0.9960 C.3   1 <1>  -0.0160 
 15 O       -3.2090    -2.1970     2.3960 O.3   1 <1>  -0.5600 
 16 C       -2.7650     4.6190     1.3060 C.3   1 <1>   0.0200 
 17 C       -5.9130    -2.5350    -1.1430 C.ar  1 <1>  -0.1440 
 18 C       -2.6040     6.1050     0.9470 C.3   1 <1>  -0.2400 
 19 C       -7.1160    -2.1090    -0.5270 C.ar  1 <1>   0.0000 
 20 C       -5.9620    -3.6670    -1.9020 C.ar  1 <1>  -0.1500 
 21 C       -8.2700    -2.9090    -0.7230 C.ar  1 <1>   0.3100 
 22 C       -7.2520    -0.9450     0.2660 C.ar  1 <1>  -0.1500 
 23 C       -7.1600    -4.3770    -2.0400 C.ar  1 <1>   0.1600 
 24 N       -8.2760    -4.0340    -1.4810 N.ar  1 <1>  -0.6200 
 25 C       -9.4760    -2.5290    -0.1120 C.ar  1 <1>  -0.1500 
 26 C       -8.4430    -0.6020     0.8460 C.ar  1 <1>  -0.1500 
 27 C       -9.5710    -1.4030     0.6580 C.ar  1 <1>  -0.1500 
 28 H       -2.6850     0.0640     1.0840 H     1 <1>   0.3700 
 29 H       -1.6160    -2.2660    -0.4360 H     1 <1>   0.0800 
 30 H       -3.6110    -3.4910    -0.1200 H     1 <1>   0.0800 
 31 H       -1.2490    -1.7150     2.1730 H     1 <1>   0.0800 
 32 H       -1.7160    -3.3540     1.7210 H     1 <1>   0.0800 
 33 H       -0.8320     1.7880    -3.2320 H     1 <1>   0.0800 
 34 H       -0.0370     3.3030    -2.8860 H     1 <1>   0.0800 
 35 H       -1.6420     3.2960    -3.5750 H     1 <1>   0.0800 
 36 H       -4.8340    -3.2490     1.7970 H     1 <1>   0.0800 
 37 H       -4.9280    -1.4990     1.6500 H     1 <1>   0.0800 
 38 H       -4.0420    -1.8730    -1.9260 H     1 <1>   0.0800 
 39 H       -4.7320    -0.7570    -0.8160 H     1 <1>   0.0800 
 40 H       -3.7990     4.4180     1.5160 H     1 <1>   0.0800 
 41 H       -2.1990     4.4080     2.1950 H     1 <1>   0.0800 
 42 H       -3.1780     6.3370     0.0670 H     1 <1>   0.0800 
 43 H       -1.5690     6.3270     0.7490 H     1 <1>   0.0800 
 44 H       -2.9430     6.7240     1.7580 H     1 <1>   0.0800 
 45 H       -5.0910    -4.0450    -2.4060 H     1 <1>   0.1500 
 46 H       -6.4070    -0.3040     0.4220 H     1 <1>   0.1500 
 47 H       -7.1510    -5.2650    -2.6490 H     1 <1>   0.1500 
 48 H      -10.3310    -3.1600    -0.2740 H     1 <1>   0.1500 
 49 H       -8.5290     0.2860     1.4490 H     1 <1>   0.1500 
 50 H      -10.5020    -1.1240     1.1210 H     1 <1>   0.1500 
@<TRIPOS>BOND
  1   1   2  2   
  2   2   3  am  
  3   2   4  1   
  4   3   5  1   
  5   3  28  1   
  6   4   6  1   
  7   4   7  2   
  8   5   8  1   
  9   5   9  1   
 10   5  29  1   
 11   6  10  1   
 12   7  11  1   
 13   7  12  1   
 14   8  13  1   
 15   8  14  1   
 16   8  30  1   
 17   9  15  1   
 18   9  31  1   
 19   9  32  1   
 20  10  11  2   
 21  10  16  1   
 22  12  33  1   
 23  12  34  1   
 24  12  35  1   
 25  13  15  1   
 26  13  36  1   
 27  13  37  1   
 28  14  17  1   
 29  14  38  1   
 30  14  39  1   
 31  16  18  1   
 32  16  40  1   
 33  16  41  1   
 34  17  19  ar  
 35  17  20  ar  
 36  18  42  1   
 37  18  43  1   
 38  18  44  1   
 39  19  21  ar  
 40  19  22  ar  
 41  20  23  ar  
 42  20  45  1   
 43  21  24  ar  
 44  21  25  ar  
 45  22  26  ar  
 46  22  46  1   
 47  23  24  ar  
 48  23  47  1   
 49  25  27  ar  
 50  25  48  1   
 51  26  27  ar  
 52  26  49  1   
 53  27  50  1   
@<TRIPOS>SUBSTRUCTURE
  1 ****  14 GROUP 4 **** **** 0

# MOE 2024.06 (io_trps.svl 2023.06)
