@<TRIPOS>MOLECULE
NONAME
57 59 1 0 0 
SMALL
USER_CHARGES


@<TRIPOS>ATOM
  1 S        0.3110    -0.1270     0.7090 S.o2  1 <1>   1.3330 
  2 O        1.6720     0.0660     1.1600 O.2   1 <1>  -0.6500 
  3 O       -0.4650    -1.2340     1.2160 O.2   1 <1>  -0.6500 
  4 N        0.3470    -0.2550    -0.9840 N.am  1 <1>  -0.8490 
  5 C       -0.5810     1.4070     0.9880 C.3   1 <1>  -0.0550 
  6 C       -0.9170    -0.7370    -1.5540 C.3   1 <1>   0.1160 
  7 C        1.4450    -1.1120    -1.4440 C.3   1 <1>   0.1160 
  8 C        0.0130     2.6250     0.2450 C.3   1 <1>  -0.0800 
  9 C       -0.7540     3.9340     0.4470 C.3   1 <1>   0.2000 
 10 C        1.4530     2.9640     0.6480 C.3   1 <1>   0.2090 
 11 O       -1.0590     4.0770     1.7930 O.3   1 <1>  -0.6800 
 12 C        0.2660     5.0070     0.0680 C.3   1 <1>   0.2090 
 13 N        1.5820     4.4390     0.4850 N.pl3 1 <1>  -0.8380 
 14 C        2.7230     5.1640     0.6000 C.ar  1 <1>   0.4100 
 15 N        2.6560     6.4530     0.3310 N.ar  1 <1>  -0.6200 
 16 C        3.9330     4.5600     0.9920 C.ar  1 <1>  -0.1500 
 17 C        3.7590     7.1810     0.4210 C.ar  1 <1>   0.7710 
 18 C        5.0510     5.3170     1.0890 C.ar  1 <1>   0.2180 
 19 N        4.9300     6.6330     0.7960 N.ar  1 <1>  -0.1790 
 20 N        3.7090     8.5110     0.1370 N.pl3 1 <1>  -0.8380 
 21 C        6.4090     4.7680     1.5060 C.3   1 <1>  -0.0170 
 22 C        2.4000     9.2160    -0.1370 C.3   1 <1>   0.2090 
 23 C        4.8630     9.4730     0.0230 C.3   1 <1>   0.2090 
 24 C        7.4450     4.8720     0.3780 C.3   1 <1>  -0.2400 
 25 C        2.4670    10.0320    -1.4400 C.3   1 <1>   0.1200 
 26 C        4.7940    10.2710    -1.2930 C.3   1 <1>   0.1200 
 27 O        3.5580    10.9070    -1.4150 O.3   1 <1>  -0.5600 
 28 H       -1.5990     1.2810     0.6770 H     1 <1>   0.0800 
 29 H       -0.5960     1.6030     2.0430 H     1 <1>   0.0800 
 30 H       -0.8650    -0.7280    -2.6290 H     1 <1>   0.0800 
 31 H       -1.7300    -0.1020    -1.2490 H     1 <1>   0.0800 
 32 H       -1.1220    -1.7430    -1.2220 H     1 <1>   0.0800 
 33 H        1.4540    -1.1640    -2.5190 H     1 <1>   0.0800 
 34 H        1.3380    -2.1060    -1.0410 H     1 <1>   0.0800 
 35 H        2.3900    -0.7090    -1.1200 H     1 <1>   0.0800 
 36 H        0.0190     2.4150    -0.8100 H     1 <1>   0.0800 
 37 H       -1.6660     3.9920    -0.1220 H     1 <1>   0.0800 
 38 H        2.1570     2.4420     0.0220 H     1 <1>   0.0800 
 39 H        1.6270     2.7060     1.6800 H     1 <1>   0.0800 
 40 H       -0.2350     4.2990     2.2730 H     1 <1>   0.4000 
 41 H        0.0560     5.9440     0.5550 H     1 <1>   0.0800 
 42 H        0.2700     5.1510    -0.9990 H     1 <1>   0.0800 
 43 H        3.9490     3.5090     1.2090 H     1 <1>   0.1500 
 44 H        5.7150     7.2650     0.8630 H     1 <1>   0.4570 
 45 H        6.7640     5.2940     2.3760 H     1 <1>   0.0800 
 46 H        6.3050     3.7320     1.7810 H     1 <1>   0.0800 
 47 H        1.5770     8.5280    -0.2130 H     1 <1>   0.0800 
 48 H        2.1820     9.8860     0.6770 H     1 <1>   0.0800 
 49 H        4.8260    10.1700     0.8450 H     1 <1>   0.0800 
 50 H        5.8080     8.9660     0.0590 H     1 <1>   0.0800 
 51 H        7.6420     5.8950     0.1140 H     1 <1>   0.0800 
 52 H        7.1030     4.3460    -0.4970 H     1 <1>   0.0800 
 53 H        8.3720     4.4240     0.6940 H     1 <1>   0.0800 
 54 H        1.5750    10.6240    -1.5520 H     1 <1>   0.0800 
 55 H        2.5590     9.3820    -2.2930 H     1 <1>   0.0800 
 56 H        4.9360     9.6280    -2.1440 H     1 <1>   0.0800 
 57 H        5.5530    11.0340    -1.3080 H     1 <1>   0.0800 
@<TRIPOS>BOND
  1   1   2  2   
  2   1   3  2   
  3   1   4  am  
  4   1   5  1   
  5   4   6  1   
  6   4   7  1   
  7   5   8  1   
  8   5  28  1   
  9   5  29  1   
 10   6  30  1   
 11   6  31  1   
 12   6  32  1   
 13   7  33  1   
 14   7  34  1   
 15   7  35  1   
 16   8   9  1   
 17   8  10  1   
 18   8  36  1   
 19   9  11  1   
 20   9  12  1   
 21   9  37  1   
 22  10  13  1   
 23  10  38  1   
 24  10  39  1   
 25  11  40  1   
 26  12  13  1   
 27  12  41  1   
 28  12  42  1   
 29  13  14  1   
 30  14  15  ar  
 31  14  16  ar  
 32  15  17  ar  
 33  16  18  ar  
 34  16  43  1   
 35  17  19  ar  
 36  17  20  1   
 37  18  19  ar  
 38  18  21  1   
 39  19  44  1   
 40  20  22  1   
 41  20  23  1   
 42  21  24  1   
 43  21  45  1   
 44  21  46  1   
 45  22  25  1   
 46  22  47  1   
 47  22  48  1   
 48  23  26  1   
 49  23  49  1   
 50  23  50  1   
 51  24  51  1   
 52  24  52  1   
 53  24  53  1   
 54  25  27  1   
 55  25  54  1   
 56  25  55  1   
 57  26  27  1   
 58  26  56  1   
 59  26  57  1   
@<TRIPOS>SUBSTRUCTURE
  1 ****  13 GROUP 4 **** **** 0

# MOE 2024.06 (io_trps.svl 2023.06)
