@<TRIPOS>MOLECULE
NONAME
38 40 1 0 0 
SMALL
USER_CHARGES


@<TRIPOS>ATOM
  1 O       -2.4410     1.0030    -2.1060 O.2   1 <1>  -0.5700 
  2 C       -1.9860     0.9480    -0.9760 C.2   1 <1>   0.5440 
  3 N       -1.9300    -0.2790    -0.3710 N.am  1 <1>  -0.7300 
  4 C       -1.5210     2.1450    -0.2690 C.ar  1 <1>   0.3960 
  5 C       -2.4030    -1.5590    -0.9410 C.3   1 <1>   0.2200 
  6 N       -1.1010     2.0240     1.0050 N.ar  1 <1>  -0.6200 
  7 C       -1.5200     3.3820    -0.9170 C.ar  1 <1>  -0.1500 
  8 C       -3.7250    -1.9320    -0.2930 C.3   1 <1>  -0.0800 
  9 C       -1.4890    -2.7000    -0.4960 C.3   1 <1>   0.1200 
 10 C       -0.6900     3.1240     1.6080 C.ar  1 <1>   0.1600 
 11 C       -1.0890     4.5220    -0.2760 C.ar  1 <1>  -0.1500 
 12 C       -3.2540    -2.6220     0.9870 C.3   1 <1>   0.1200 
 13 C       -4.5500    -2.8700    -1.1930 C.3   1 <1>  -0.0160 
 14 O       -2.0240    -3.2140     0.6910 O.3   1 <1>  -0.5600 
 15 C       -0.6630     4.3780     1.0250 C.ar  1 <1>  -0.1500 
 16 C       -5.8810    -3.2270    -0.5490 C.ar  1 <1>  -0.1440 
 17 C       -6.1140    -4.4630     0.0180 C.ar  1 <1>  -0.1500 
 18 C       -6.9260    -2.3270    -0.4990 C.ar  1 <1>  -0.1500 
 19 C       -7.3440    -4.7310     0.5960 C.ar  1 <1>   0.1600 
 20 C       -8.1180    -2.6940     0.1030 C.ar  1 <1>   0.1600 
 21 N       -8.3520    -3.8750     0.6530 N.ar  1 <1>  -0.6200 
 22 H       -1.5730    -0.3120     0.5890 H     1 <1>   0.3700 
 23 H       -2.4630    -1.4870    -2.0140 H     1 <1>   0.0800 
 24 H       -1.8630     3.4400    -1.9350 H     1 <1>   0.1500 
 25 H       -4.3100    -1.0570    -0.0700 H     1 <1>   0.0800 
 26 H       -0.4780    -2.3740    -0.3230 H     1 <1>   0.0800 
 27 H       -1.4950    -3.4930    -1.2210 H     1 <1>   0.0800 
 28 H       -0.3540     3.0260     2.6270 H     1 <1>   0.1500 
 29 H       -1.0850     5.4800    -0.7680 H     1 <1>   0.1500 
 30 H       -3.9340    -3.3750     1.3440 H     1 <1>   0.0800 
 31 H       -3.0850    -1.8980     1.7660 H     1 <1>   0.0800 
 32 H       -3.9970    -3.7690    -1.4010 H     1 <1>   0.0800 
 33 H       -4.7430    -2.3820    -2.1330 H     1 <1>   0.0800 
 34 H       -0.3140     5.2270     1.5850 H     1 <1>   0.1500 
 35 H       -5.3510    -5.2200     0.0190 H     1 <1>   0.1500 
 36 H       -6.8240    -1.3440    -0.9220 H     1 <1>   0.1500 
 37 H       -7.5070    -5.7000     1.0340 H     1 <1>   0.1500 
 38 H       -8.9220    -1.9790     0.1330 H     1 <1>   0.1500 
@<TRIPOS>BOND
  1   1   2  2   
  2   2   3  am  
  3   2   4  1   
  4   3   5  1   
  5   3  22  1   
  6   4   6  ar  
  7   4   7  ar  
  8   5   8  1   
  9   5   9  1   
 10   5  23  1   
 11   6  10  ar  
 12   7  11  ar  
 13   7  24  1   
 14   8  12  1   
 15   8  13  1   
 16   8  25  1   
 17   9  14  1   
 18   9  26  1   
 19   9  27  1   
 20  10  15  ar  
 21  10  28  1   
 22  11  15  ar  
 23  11  29  1   
 24  12  14  1   
 25  12  30  1   
 26  12  31  1   
 27  13  16  1   
 28  13  32  1   
 29  13  33  1   
 30  15  34  1   
 31  16  17  ar  
 32  16  18  ar  
 33  17  19  ar  
 34  17  35  1   
 35  18  20  ar  
 36  18  36  1   
 37  19  21  ar  
 38  19  37  1   
 39  20  21  ar  
 40  20  38  1   
@<TRIPOS>SUBSTRUCTURE
  1 ****   8 GROUP 4 **** **** 0

# MOE 2024.06 (io_trps.svl 2023.06)
