@<TRIPOS>MOLECULE
NONAME
42 43 1 0 0 
SMALL
USER_CHARGES


@<TRIPOS>ATOM
  1 O       -1.2740    -0.2110    -0.8310 O.2   1 <1>  -0.5700 
  2 C       -2.0790     0.6440    -0.5410 C.2   1 <1>   0.5690 
  3 N       -3.1710     0.3600     0.2310 N.am  1 <1>  -0.6600 
  4 C       -1.8610     2.0500    -1.0700 C.3   1 <1>  -0.0990 
  5 C       -3.3510    -1.0120     0.7930 C.3   1 <1>   0.3200 
  6 C       -4.3610     1.2490     0.3910 C.3   1 <1>   0.1400 
  7 C       -0.4230     2.2760    -1.5520 C.3   1 <1>   0.0960 
  8 C       -3.9630    -1.9290    -0.2510 C.2   1 <1>   0.0060 
  9 C       -4.2940     2.0000     1.7240 C.3   1 <1>   0.1200 
 10 N       -0.2490     3.6880    -1.9460 N.pl3 1 <1>   0.0480 
 11 N       -5.1410    -2.4610    -0.1770 N.2   1 <1>  -0.5650 
 12 N       -3.2880    -2.2610    -1.3710 N.pl3 1 <1>   0.0330 
 13 O       -5.3520     2.8930     1.8080 O.3   1 <1>  -0.6800 
 14 C        0.1840     4.7400    -1.2050 C.2   1 <1>   0.0070 
 15 C       -0.5650     4.2170    -3.1410 C.2   1 <1>  -0.3020 
 16 C       -5.2380    -3.1800    -1.3130 C.2   1 <1>   0.0770 
 17 C       -4.1150    -3.0690    -2.0560 C.2   1 <1>  -0.3020 
 18 N        0.1540     5.8660    -1.8410 N.2   1 <1>  -0.5650 
 19 C        0.6580     4.6320     0.2360 C.3   1 <1>   0.0200 
 20 C       -0.3120     5.5400    -3.0600 C.2   1 <1>   0.0770 
 21 C        2.1130     4.1580     0.3080 C.3   1 <1>  -0.2400 
 22 H       -2.0770     2.7520    -0.2880 H     1 <1>   0.0800 
 23 H       -2.5380     2.2150    -1.8880 H     1 <1>   0.0800 
 24 H       -3.9930    -0.9780     1.6570 H     1 <1>   0.0800 
 25 H       -2.4000    -1.4090     1.1040 H     1 <1>   0.0800 
 26 H       -5.2580     0.6510     0.3610 H     1 <1>   0.0800 
 27 H       -4.4080     1.9510    -0.4220 H     1 <1>   0.0800 
 28 H       -0.2090     1.6490    -2.4000 H     1 <1>   0.0800 
 29 H        0.2750     2.0360    -0.7710 H     1 <1>   0.0800 
 30 H       -3.3780     2.5570     1.8150 H     1 <1>   0.0800 
 31 H       -4.3840     1.3120     2.5470 H     1 <1>   0.0800 
 32 H       -2.3480    -1.9200    -1.6150 H     1 <1>   0.2700 
 33 H       -5.2490     3.6350     1.1810 H     1 <1>   0.4000 
 34 H       -0.9430     3.6430    -3.9670 H     1 <1>   0.1500 
 35 H       -6.1260    -3.7490    -1.5390 H     1 <1>   0.1500 
 36 H       -3.8670    -3.5080    -3.0050 H     1 <1>   0.1500 
 37 H        0.0210     3.9650     0.7860 H     1 <1>   0.0800 
 38 H        0.5850     5.6040     0.6920 H     1 <1>   0.0800 
 39 H       -0.4430     6.2880    -3.8240 H     1 <1>   0.1500 
 40 H        2.2220     3.1840    -0.1310 H     1 <1>   0.0800 
 41 H        2.4400     4.1180     1.3320 H     1 <1>   0.0800 
 42 H        2.7430     4.8470    -0.2280 H     1 <1>   0.0800 
@<TRIPOS>BOND
  1   1   2  2   
  2   2   3  am  
  3   2   4  1   
  4   3   5  1   
  5   3   6  1   
  6   4   7  1   
  7   4  22  1   
  8   4  23  1   
  9   5   8  1   
 10   5  24  1   
 11   5  25  1   
 12   6   9  1   
 13   6  26  1   
 14   6  27  1   
 15   7  10  1   
 16   7  28  1   
 17   7  29  1   
 18   8  11  2   
 19   8  12  1   
 20   9  13  1   
 21   9  30  1   
 22   9  31  1   
 23  10  14  1   
 24  10  15  1   
 25  11  16  1   
 26  12  17  1   
 27  12  32  1   
 28  13  33  1   
 29  14  18  2   
 30  14  19  1   
 31  15  20  2   
 32  15  34  1   
 33  16  17  2   
 34  16  35  1   
 35  17  36  1   
 36  18  20  1   
 37  19  21  1   
 38  19  37  1   
 39  19  38  1   
 40  20  39  1   
 41  21  40  1   
 42  21  41  1   
 43  21  42  1   
@<TRIPOS>SUBSTRUCTURE
  1 ****   4 GROUP 4 **** **** 0

# MOE 2024.06 (io_trps.svl 2023.06)
