@<TRIPOS>MOLECULE
NONAME
44 46 1 0 0 
SMALL
USER_CHARGES


@<TRIPOS>ATOM
  1 O        0.9540     1.4040    -1.4930 O.3   1 <1>  -0.0190 
  2 N        1.7760     0.3980    -1.5160 N.2   1 <1>  -0.4100 
  3 C        0.7020     1.7980    -0.2730 C.2   1 <1>  -0.0400 
  4 C        2.0430     0.1250    -0.2890 C.2   1 <1>   0.1080 
  5 C        1.3800     1.0010     0.5660 C.2   1 <1>  -0.1500 
  6 C       -0.2090     2.9870    -0.0340 C.3   1 <1>   0.0200 
  7 C        2.9550    -0.9990     0.1530 C.3   1 <1>  -0.0590 
  8 C        0.1920     4.1630    -0.9460 C.3   1 <1>  -0.0800 
  9 C       -0.5100     5.4890    -0.6610 C.3   1 <1>   0.2000 
 10 C        1.6870     4.4960    -0.8860 C.3   1 <1>   0.3430 
 11 O       -0.4840     5.7220     0.7210 O.3   1 <1>  -0.5600 
 12 C        0.4240     6.4900    -1.3420 C.3   1 <1>   0.3430 
 13 N        1.8000     5.9700    -1.0840 N.4   1 <1>  -0.9590 
 14 C       -1.5340     6.5050     1.2030 C.3   1 <1>   0.0400 
 15 C        2.4000     6.6570     0.0930 C.3   1 <1>   0.5230 
 16 C        2.8330     8.0530    -0.3380 C.2   1 <1>   0.0070 
 17 N        3.1670     9.0260     0.5410 N.pl3 1 <1>   0.0330 
 18 N        2.9240     8.4250    -1.5790 N.2   1 <1>  -0.5650 
 19 C        3.4880    10.0890    -0.2170 C.2   1 <1>  -0.3320 
 20 C        3.3360     9.7050    -1.5030 C.2   1 <1>   0.0770 
 21 C        3.9320    11.4260     0.3510 C.3   1 <1>  -0.0600 
 22 H        1.4280     1.0010     1.6400 H     1 <1>   0.1500 
 23 H       -1.2250     2.7000    -0.2420 H     1 <1>   0.0800 
 24 H       -0.1470     3.2610     1.0040 H     1 <1>   0.0800 
 25 H        3.7600    -0.6080     0.7470 H     1 <1>   0.0800 
 26 H        3.3670    -1.4970    -0.7060 H     1 <1>   0.0800 
 27 H        2.3990    -1.7120     0.7330 H     1 <1>   0.0800 
 28 H       -0.0260     3.8830    -1.9620 H     1 <1>   0.0800 
 29 H       -1.5210     5.5160    -1.0320 H     1 <1>   0.0800 
 30 H        2.2240     3.9540    -1.6490 H     1 <1>   0.0800 
 31 H        2.0800     4.2200     0.0790 H     1 <1>   0.0800 
 32 H        0.2870     7.4910    -0.9670 H     1 <1>   0.0800 
 33 H        0.2350     6.4860    -2.4030 H     1 <1>   0.0800 
 34 H        2.4070     6.2500    -1.8740 H     1 <1>   0.4500 
 35 H       -1.4010     6.6340     2.2630 H     1 <1>   0.0800 
 36 H       -2.4680     6.0000     1.0210 H     1 <1>   0.0800 
 37 H       -1.5250     7.4670     0.7180 H     1 <1>   0.0800 
 38 H        1.6840     6.7130     0.8960 H     1 <1>   0.0800 
 39 H        3.2660     6.1140     0.4320 H     1 <1>   0.0800 
 40 H        3.1860     8.9900     1.5660 H     1 <1>   0.2700 
 41 H        3.5060    10.2950    -2.3900 H     1 <1>   0.1500 
 42 H        4.1350    12.1180    -0.4470 H     1 <1>   0.0800 
 43 H        4.8280    11.3070     0.9340 H     1 <1>   0.0800 
 44 H        3.1610    11.8430     0.9750 H     1 <1>   0.0800 
@<TRIPOS>BOND
  1   1   2  1   
  2   1   3  1   
  3   2   4  2   
  4   3   5  2   
  5   3   6  1   
  6   4   5  1   
  7   4   7  1   
  8   5  22  1   
  9   6   8  1   
 10   6  23  1   
 11   6  24  1   
 12   7  25  1   
 13   7  26  1   
 14   7  27  1   
 15   8   9  1   
 16   8  10  1   
 17   8  28  1   
 18   9  11  1   
 19   9  12  1   
 20   9  29  1   
 21  10  13  1   
 22  10  30  1   
 23  10  31  1   
 24  11  14  1   
 25  12  13  1   
 26  12  32  1   
 27  12  33  1   
 28  13  15  1   
 29  13  34  1   
 30  14  35  1   
 31  14  36  1   
 32  14  37  1   
 33  15  16  1   
 34  15  38  1   
 35  15  39  1   
 36  16  17  1   
 37  16  18  2   
 38  17  19  1   
 39  17  40  1   
 40  18  20  1   
 41  19  20  2   
 42  19  21  1   
 43  20  41  1   
 44  21  42  1   
 45  21  43  1   
 46  21  44  1   
@<TRIPOS>SUBSTRUCTURE
  1 ****  10 GROUP 4 **** **** 0

# MOE 2024.06 (io_trps.svl 2023.06)
