@<TRIPOS>MOLECULE
NONAME
22 22 1 0 0 
SMALL
USER_CHARGES


@<TRIPOS>ATOM
  1 O        0.0650    -0.4600    -0.5620 O.2   1 <1>  -0.5700 
  2 C       -0.0120    -1.6680    -0.3590 C.2   1 <1>   0.7670 
  3 N        1.1550    -2.3710    -0.1940 N.2   1 <1>  -0.6610 
  4 C       -1.2570    -2.3110    -0.2960 C.2   1 <1>  -0.1360 
  5 C        1.0560    -3.6260     0.0220 C.2   1 <1>   0.4390 
  6 C       -1.3200    -3.6520    -0.0720 C.2   1 <1>   0.2000 
  7 N       -0.1350    -4.2860     0.0880 N.pl3 1 <1>  -0.5500 
  8 C        2.2990    -4.4560     0.2230 C.3   1 <1>  -0.1790 
  9 N       -2.4580    -4.4140     0.0230 N.pl3 1 <1>  -0.8380 
 10 C       -2.5420    -5.8150    -0.4770 C.3   1 <1>   0.1290 
 11 C       -3.7570    -3.8220     0.4460 C.3   1 <1>   0.1290 
 12 H       -2.1300    -1.7110    -0.4400 H     1 <1>   0.1500 
 13 H       -0.1640    -5.2740     0.3220 H     1 <1>   0.4000 
 14 H        2.3550    -5.2200    -0.5290 H     1 <1>   0.0800 
 15 H        2.2830    -4.9090     1.1970 H     1 <1>   0.0800 
 16 H        3.1720    -3.8330     0.1480 H     1 <1>   0.0800 
 17 H       -1.6840    -6.0550    -1.0810 H     1 <1>   0.0800 
 18 H       -3.4230    -5.9340    -1.0850 H     1 <1>   0.0800 
 19 H       -2.5950    -6.4960     0.3550 H     1 <1>   0.0800 
 20 H       -3.5930    -2.9140     1.0000 H     1 <1>   0.0800 
 21 H       -4.2850    -4.5140     1.0780 H     1 <1>   0.0800 
 22 H       -4.3570    -3.6030    -0.4200 H     1 <1>   0.0800 
@<TRIPOS>BOND
  1   1   2  2   
  2   2   3  1   
  3   2   4  1   
  4   3   5  2   
  5   4   6  2   
  6   4  12  1   
  7   5   7  1   
  8   5   8  1   
  9   6   7  1   
 10   6   9  1   
 11   7  13  1   
 12   8  14  1   
 13   8  15  1   
 14   8  16  1   
 15   9  10  1   
 16   9  11  1   
 17  10  17  1   
 18  10  18  1   
 19  10  19  1   
 20  11  20  1   
 21  11  21  1   
 22  11  22  1   
@<TRIPOS>SUBSTRUCTURE
  1 ****   6 GROUP 4 **** **** 0

# MOE 2024.06 (io_trps.svl 2023.06)
