@<TRIPOS>MOLECULE
NONAME
47 48 1 0 0 
SMALL
USER_CHARGES


@<TRIPOS>ATOM
  1 S        0.0910     1.6340    -1.2830 S.o2  1 <1>   1.3330 
  2 O        0.3000     0.5060    -2.1540 O.2   1 <1>  -0.6500 
  3 O       -0.6770     2.7740    -1.7220 O.2   1 <1>  -0.6500 
  4 N        1.6230     2.2390    -0.8530 N.am  1 <1>  -0.8490 
  5 C       -0.6320     1.0590     0.2670 C.3   1 <1>  -0.0550 
  6 C        2.1640     3.0760    -1.9410 C.3   1 <1>   0.1160 
  7 C        2.6010     1.1670    -0.5970 C.3   1 <1>   0.1160 
  8 C       -0.8890     2.0830     1.4090 C.3   1 <1>  -0.0800 
  9 C       -1.7590     3.2770     0.9990 C.3   1 <1>   0.2000 
 10 C        0.3760     2.7370     1.9640 C.3   1 <1>   0.3430 
 11 O       -2.5560     3.6290     2.0820 O.3   1 <1>  -0.6800 
 12 C       -0.7840     4.4260     0.6920 C.3   1 <1>   0.3430 
 13 N        0.5630     3.9730     1.1710 N.4   1 <1>  -0.9590 
 14 C        1.3710     5.0280     1.8310 C.3   1 <1>   0.4860 
 15 C        1.8720     5.9780     0.7660 C.ar  1 <1>  -0.1430 
 16 C        3.0950     5.7560     0.1580 C.ar  1 <1>   0.1900 
 17 C        1.1390     7.0860     0.3680 C.ar  1 <1>  -0.1500 
 18 F        3.8010     4.7170     0.5220 F     1 <1>  -0.1900 
 19 C        3.6000     6.5850    -0.8270 C.ar  1 <1>  -0.1500 
 20 C        1.6180     7.9320    -0.6220 C.ar  1 <1>   0.0820 
 21 C        2.8520     7.6810    -1.2210 C.ar  1 <1>  -0.1500 
 22 O        0.8220     8.9790    -0.9470 O.3   1 <1>  -0.3630 
 23 C        1.2130     9.9300    -1.9140 C.3   1 <1>   0.0400 
 24 H       -1.5780     0.6110     0.0270 H     1 <1>   0.0800 
 25 H       -0.0200     0.2660     0.6540 H     1 <1>   0.0800 
 26 H        3.1530     3.4240    -1.6990 H     1 <1>   0.0800 
 27 H        1.5350     3.9350    -2.1060 H     1 <1>   0.0800 
 28 H        2.2130     2.5110    -2.8600 H     1 <1>   0.0800 
 29 H        3.5430     1.5880    -0.2890 H     1 <1>   0.0800 
 30 H        2.7640     0.5790    -1.4880 H     1 <1>   0.0800 
 31 H        2.2530     0.5110     0.1820 H     1 <1>   0.0800 
 32 H       -1.3720     1.5330     2.1990 H     1 <1>   0.0800 
 33 H       -2.4160     3.0710     0.1690 H     1 <1>   0.0800 
 34 H        1.2330     2.0860     1.8860 H     1 <1>   0.0800 
 35 H        0.2180     2.9920     3.0000 H     1 <1>   0.0800 
 36 H       -2.0550     3.7940     2.9030 H     1 <1>   0.4000 
 37 H       -1.1060     5.3230     1.1940 H     1 <1>   0.0800 
 38 H       -0.7490     4.6130    -0.3700 H     1 <1>   0.0800 
 39 H        1.0970     3.6800     0.3240 H     1 <1>   0.4500 
 40 H        0.7790     5.5600     2.5570 H     1 <1>   0.0800 
 41 H        2.2160     4.5860     2.3330 H     1 <1>   0.0800 
 42 H        0.1880     7.3220     0.8130 H     1 <1>   0.1500 
 43 H        4.5570     6.3780    -1.2730 H     1 <1>   0.1500 
 44 H        3.2420     8.3250    -1.9880 H     1 <1>   0.1500 
 45 H        0.4340    10.6680    -1.9910 H     1 <1>   0.0800 
 46 H        1.3410     9.4360    -2.8610 H     1 <1>   0.0800 
 47 H        2.1280    10.3990    -1.5950 H     1 <1>   0.0800 
@<TRIPOS>BOND
  1   1   2  2   
  2   1   3  2   
  3   1   4  am  
  4   1   5  1   
  5   4   6  1   
  6   4   7  1   
  7   5   8  1   
  8   5  24  1   
  9   5  25  1   
 10   6  26  1   
 11   6  27  1   
 12   6  28  1   
 13   7  29  1   
 14   7  30  1   
 15   7  31  1   
 16   8   9  1   
 17   8  10  1   
 18   8  32  1   
 19   9  11  1   
 20   9  12  1   
 21   9  33  1   
 22  10  13  1   
 23  10  34  1   
 24  10  35  1   
 25  11  36  1   
 26  12  13  1   
 27  12  37  1   
 28  12  38  1   
 29  13  14  1   
 30  13  39  1   
 31  14  15  1   
 32  14  40  1   
 33  14  41  1   
 34  15  16  ar  
 35  15  17  ar  
 36  16  18  1   
 37  16  19  ar  
 38  17  20  ar  
 39  17  42  1   
 40  19  21  ar  
 41  19  43  1   
 42  20  21  ar  
 43  20  22  1   
 44  21  44  1   
 45  22  23  1   
 46  23  45  1   
 47  23  46  1   
 48  23  47  1   
@<TRIPOS>SUBSTRUCTURE
  1 ****  13 GROUP 4 **** **** 0

# MOE 2024.06 (io_trps.svl 2023.06)
