@<TRIPOS>MOLECULE
NONAME
32 34 1 0 0 
SMALL
USER_CHARGES


@<TRIPOS>ATOM
  1 CL      -0.4710    -0.3790     0.5920 Cl    1 <1>  -0.1770 
  2 C       -1.3480     1.1400     0.5160 C.ar  1 <1>   0.1770 
  3 C       -0.6840     2.3820     0.5920 C.ar  1 <1>   0.4100 
  4 C       -2.7150     1.0700     0.4000 C.ar  1 <1>  -0.1500 
  5 N       -1.3480     3.5410     0.5960 N.ar  1 <1>  -0.6200 
  6 N        0.7030     2.4860     0.6700 N.pl3 1 <1>  -0.8380 
  7 C       -3.3750     2.2790     0.3780 C.ar  1 <1>   0.1770 
  8 C       -2.6670     3.4630     0.4780 C.ar  1 <1>   0.1600 
  9 C        1.3150     3.5330     1.5610 C.3   1 <1>   0.2090 
 10 C        1.5610     1.8860    -0.4060 C.3   1 <1>   0.2090 
 11 CL      -5.1170     2.3050     0.2300 Cl    1 <1>  -0.1770 
 12 C        1.8860     4.7860     0.8430 C.3   1 <1>   0.2200 
 13 C        2.1880     2.8960    -1.3860 C.3   1 <1>  -0.0190 
 14 N        1.2920     5.0310    -0.5010 N.am  1 <1>  -0.7300 
 15 C        3.4230     4.7230     0.7410 C.3   1 <1>   0.1200 
 16 C        1.3580     4.1530    -1.5230 C.2   1 <1>   0.5690 
 17 C        3.6590     3.2250    -1.0840 C.3   1 <1>   0.1200 
 18 O        3.8820     3.4880     0.2680 O.3   1 <1>  -0.5600 
 19 O        0.7670     4.3650    -2.5520 O.2   1 <1>  -0.5700 
 20 H       -3.2390     0.1350     0.3350 H     1 <1>   0.1500 
 21 H       -3.2160     4.3880     0.4620 H     1 <1>   0.1500 
 22 H        0.5690     3.8660     2.2610 H     1 <1>   0.0800 
 23 H        2.0900     3.0720     2.1480 H     1 <1>   0.0800 
 24 H        2.3320     1.2910     0.0520 H     1 <1>   0.0800 
 25 H        0.9520     1.2200    -0.9910 H     1 <1>   0.0800 
 26 H        1.6560     5.6410     1.4530 H     1 <1>   0.0800 
 27 H        2.1910     2.4280    -2.3530 H     1 <1>   0.0800 
 28 H        0.4940     5.6670    -0.5370 H     1 <1>   0.3700 
 29 H        3.8440     4.8480     1.7220 H     1 <1>   0.0800 
 30 H        3.8010     5.5090     0.1110 H     1 <1>   0.0800 
 31 H        3.9970     4.0640    -1.6680 H     1 <1>   0.0800 
 32 H        4.2690     2.3750    -1.3330 H     1 <1>   0.0800 
@<TRIPOS>BOND
  1   1   2  1   
  2   2   3  ar  
  3   2   4  ar  
  4   3   5  ar  
  5   3   6  1   
  6   4   7  ar  
  7   4  20  1   
  8   5   8  ar  
  9   6   9  1   
 10   6  10  1   
 11   7   8  ar  
 12   7  11  1   
 13   8  21  1   
 14   9  12  1   
 15   9  22  1   
 16   9  23  1   
 17  10  13  1   
 18  10  24  1   
 19  10  25  1   
 20  12  14  1   
 21  12  15  1   
 22  12  26  1   
 23  13  16  1   
 24  13  17  1   
 25  13  27  1   
 26  14  16  am  
 27  14  28  1   
 28  15  18  1   
 29  15  29  1   
 30  15  30  1   
 31  16  19  2   
 32  17  18  1   
 33  17  31  1   
 34  17  32  1   
@<TRIPOS>SUBSTRUCTURE
  1 ****   6 GROUP 4 **** **** 0

# MOE 2024.06 (io_trps.svl 2023.06)
