@<TRIPOS>MOLECULE
NONAME
56 57 1 0 0 
SMALL
USER_CHARGES


@<TRIPOS>ATOM
  1 O        1.0720    -0.1370    -0.2170 O.3   1 <1>  -0.6800 
  2 C        1.6540     0.7730     0.6620 C.3   1 <1>   0.1200 
  3 C        1.3930     2.2450     0.2380 C.3   1 <1>   0.0000 
  4 C        2.0280     2.5400    -1.1500 C.3   1 <1>  -0.1600 
  5 C        2.0540     3.1440     1.3220 C.3   1 <1>  -0.1600 
  6 C       -0.1270     2.5660     0.2200 C.3   1 <1>   0.3430 
  7 C        3.5070     2.9050    -1.0500 C.3   1 <1>   0.2090 
  8 C        2.6170     4.4540     0.7670 C.3   1 <1>   0.2090 
  9 N       -0.9130     1.7090    -0.7180 N.4   1 <1>  -0.9590 
 10 N        3.6700     4.1530    -0.2440 N.pl3 1 <1>  -0.8380 
 11 C       -1.0970     2.3060    -2.0750 C.3   1 <1>   0.2630 
 12 C       -2.2240     1.3140    -0.1280 C.3   1 <1>   0.2630 
 13 C        4.8930     4.7400    -0.1690 C.ar  1 <1>   0.4100 
 14 N        5.9120     3.9150    -0.0440 N.ar  1 <1>  -0.6200 
 15 C        5.0640     6.1510    -0.2070 C.ar  1 <1>  -0.1440 
 16 C        7.1210     4.4250     0.1080 C.ar  1 <1>   0.7710 
 17 C        6.3200     6.6440    -0.0140 C.ar  1 <1>   0.2170 
 18 C        3.8630     7.0600    -0.4980 C.3   1 <1>  -0.0970 
 19 N        7.3220     5.7490     0.1450 N.ar  1 <1>  -0.1790 
 20 N        8.1920     3.5910     0.2400 N.pl3 1 <1>  -0.8380 
 21 C        6.7120     8.1160     0.0330 C.3   1 <1>  -0.0960 
 22 C        8.0090     2.1070     0.3710 C.3   1 <1>   0.1290 
 23 C        9.6390     3.9730     0.2050 C.3   1 <1>   0.1290 
 24 H        1.4320    -1.0380    -0.0550 H     1 <1>   0.4000 
 25 H        2.7140     0.5770     0.6780 H     1 <1>   0.0800 
 26 H        1.2580     0.5820     1.6460 H     1 <1>   0.0800 
 27 H        1.5370     3.3730    -1.6210 H     1 <1>   0.0800 
 28 H        1.9240     1.6950    -1.8080 H     1 <1>   0.0800 
 29 H        2.8840     2.6320     1.7810 H     1 <1>   0.0800 
 30 H        1.3600     3.3640     2.1140 H     1 <1>   0.0800 
 31 H       -0.2720     3.6040    -0.0290 H     1 <1>   0.0800 
 32 H       -0.5010     2.4180     1.2200 H     1 <1>   0.0800 
 33 H        3.9150     3.0660    -2.0350 H     1 <1>   0.0800 
 34 H        4.0570     2.1020    -0.5880 H     1 <1>   0.0800 
 35 H        3.0410     5.0320     1.5720 H     1 <1>   0.0800 
 36 H        1.8340     5.0340     0.3090 H     1 <1>   0.0800 
 37 H       -0.3350     0.8420    -0.8120 H     1 <1>   0.4500 
 38 H       -1.6390     3.2350    -2.0060 H     1 <1>   0.0800 
 39 H       -1.6510     1.6300    -2.7060 H     1 <1>   0.0800 
 40 H       -0.1440     2.4930    -2.5400 H     1 <1>   0.0800 
 41 H       -2.8450     2.1820     0.0250 H     1 <1>   0.0800 
 42 H       -2.0720     0.8220     0.8190 H     1 <1>   0.0800 
 43 H       -2.7390     0.6320    -0.7860 H     1 <1>   0.0800 
 44 H        3.1760     6.5710    -1.1660 H     1 <1>   0.0800 
 45 H        4.1590     7.9730    -0.9810 H     1 <1>   0.0800 
 46 H        3.3470     7.3010     0.4140 H     1 <1>   0.0800 
 47 H        8.2780     6.0320     0.3060 H     1 <1>   0.4570 
 48 H        5.8620     8.7490     0.2160 H     1 <1>   0.0800 
 49 H        7.1600     8.4100    -0.9000 H     1 <1>   0.0800 
 50 H        7.4140     8.2950     0.8270 H     1 <1>   0.0800 
 51 H        7.0290     1.8610     0.7460 H     1 <1>   0.0800 
 52 H        8.7330     1.7010     1.0570 H     1 <1>   0.0800 
 53 H        8.1370     1.6380    -0.5900 H     1 <1>   0.0800 
 54 H        9.7900     4.9400    -0.2400 H     1 <1>   0.0800 
 55 H       10.1890     3.2570    -0.3840 H     1 <1>   0.0800 
 56 H       10.0430     3.9710     1.2040 H     1 <1>   0.0800 
@<TRIPOS>BOND
  1   1   2  1   
  2   1  24  1   
  3   2   3  1   
  4   2  25  1   
  5   2  26  1   
  6   3   4  1   
  7   3   5  1   
  8   3   6  1   
  9   4   7  1   
 10   4  27  1   
 11   4  28  1   
 12   5   8  1   
 13   5  29  1   
 14   5  30  1   
 15   6   9  1   
 16   6  31  1   
 17   6  32  1   
 18   7  10  1   
 19   7  33  1   
 20   7  34  1   
 21   8  10  1   
 22   8  35  1   
 23   8  36  1   
 24   9  11  1   
 25   9  12  1   
 26   9  37  1   
 27  10  13  1   
 28  11  38  1   
 29  11  39  1   
 30  11  40  1   
 31  12  41  1   
 32  12  42  1   
 33  12  43  1   
 34  13  14  ar  
 35  13  15  ar  
 36  14  16  ar  
 37  15  17  ar  
 38  15  18  1   
 39  16  19  ar  
 40  16  20  1   
 41  17  19  ar  
 42  17  21  1   
 43  18  44  1   
 44  18  45  1   
 45  18  46  1   
 46  19  47  1   
 47  20  22  1   
 48  20  23  1   
 49  21  48  1   
 50  21  49  1   
 51  21  50  1   
 52  22  51  1   
 53  22  52  1   
 54  22  53  1   
 55  23  54  1   
 56  23  55  1   
 57  23  56  1   
@<TRIPOS>SUBSTRUCTURE
  1 ****  10 GROUP 4 **** **** 0

# MOE 2024.06 (io_trps.svl 2023.06)
