@<TRIPOS>MOLECULE
NONAME
54 57 1 0 0 
SMALL
USER_CHARGES


@<TRIPOS>ATOM
  1 O       -1.6060     1.6050     1.5580 O.2   1 <1>  -0.5700 
  2 C       -2.0930     1.5990     0.4390 C.2   1 <1>   0.7160 
  3 N       -3.2800     0.9080     0.2550 N.am  1 <1>  -0.6600 
  4 C       -1.3930     2.2990    -0.6350 C.2   1 <1>   0.1410 
  5 C       -3.8100     0.4920    -1.0730 C.3   1 <1>   0.1400 
  6 C       -4.1480     0.5100     1.4000 C.3   1 <1>   0.1400 
  7 N       -2.0000     2.9640    -1.6710 N.2   1 <1>  -0.5650 
  8 C       -0.0550     2.4500    -0.7970 C.2   1 <1>  -0.0400 
  9 C       -3.9970    -1.0270    -1.0910 C.3   1 <1>  -0.1600 
 10 C       -4.3300    -1.0090     1.4000 C.3   1 <1>  -0.1600 
 11 C       -1.0220     3.4450    -2.3430 C.2   1 <1>   0.3280 
 12 O        0.1610     3.1610    -1.8630 O.3   1 <1>  -0.2800 
 13 C        1.1340     1.9550     0.0090 C.3   1 <1>   0.0200 
 14 C       -4.8870    -1.5170     0.0630 C.3   1 <1>   0.4240 
 15 C        1.8290     3.1160     0.7240 C.3   1 <1>  -0.2400 
 16 O       -6.1510    -0.9090    -0.0690 O.3   1 <1>  -0.5600 
 17 C       -4.9940    -3.0570     0.0720 C.ar  1 <1>  -0.1440 
 18 C       -7.0660    -1.5050    -0.9350 C.3   1 <1>   0.1200 
 19 C       -6.2080    -3.6990    -0.1310 C.ar  1 <1>  -0.1440 
 20 C       -3.8650    -3.8400     0.2760 C.ar  1 <1>  -0.1500 
 21 C       -7.4540    -2.8710    -0.3770 C.3   1 <1>  -0.0170 
 22 C       -6.2880    -5.0820    -0.1100 C.ar  1 <1>  -0.1500 
 23 C       -3.9210    -5.2230     0.2880 C.ar  1 <1>   0.0820 
 24 C       -5.1570    -5.8650     0.1070 C.ar  1 <1>   0.0820 
 25 O       -2.7160    -5.8330     0.4860 O.3   1 <1>  -0.3620 
 26 O       -5.2420    -7.2270     0.1600 O.3   1 <1>  -0.3620 
 27 C       -2.4560    -7.1420     0.0310 C.3   1 <1>   0.0400 
 28 C       -6.4800    -7.8980     0.2540 C.3   1 <1>   0.0400 
 29 H       -3.1360     0.7620    -1.8640 H     1 <1>   0.0800 
 30 H       -4.7520     0.9850    -1.2470 H     1 <1>   0.0800 
 31 H       -5.1040     0.9940     1.2980 H     1 <1>   0.0800 
 32 H       -3.7190     0.8230     2.3370 H     1 <1>   0.0800 
 33 H       -3.0270    -1.4820    -1.0110 H     1 <1>   0.0800 
 34 H       -4.4090    -1.3360    -2.0320 H     1 <1>   0.0800 
 35 H       -4.9970    -1.2960     2.1920 H     1 <1>   0.0800 
 36 H       -3.3760    -1.4580     1.6040 H     1 <1>   0.0800 
 37 H       -1.0870     4.0410    -3.2370 H     1 <1>   0.1500 
 38 H        1.8280     1.4670    -0.6520 H     1 <1>   0.0800 
 39 H        0.8110     1.2330     0.7380 H     1 <1>   0.0800 
 40 H        2.1800     3.8390     0.0080 H     1 <1>   0.0800 
 41 H        2.6680     2.7540     1.2910 H     1 <1>   0.0800 
 42 H        1.1400     3.5990     1.3940 H     1 <1>   0.0800 
 43 H       -6.6250    -1.5950    -1.9110 H     1 <1>   0.0800 
 44 H       -7.9280    -0.8640    -0.9950 H     1 <1>   0.0800 
 45 H       -2.9050    -3.3820     0.4290 H     1 <1>   0.1500 
 46 H       -8.1000    -3.3670    -1.0780 H     1 <1>   0.0800 
 47 H       -7.9900    -2.7400     0.5460 H     1 <1>   0.0800 
 48 H       -7.2470    -5.5340    -0.2660 H     1 <1>   0.1500 
 49 H       -1.3920    -7.2900     0.0260 H     1 <1>   0.0800 
 50 H       -2.8490    -7.2530    -0.9640 H     1 <1>   0.0800 
 51 H       -2.9170    -7.8410     0.7050 H     1 <1>   0.0800 
 52 H       -6.2810    -8.9440     0.4000 H     1 <1>   0.0800 
 53 H       -7.0250    -7.7560    -0.6620 H     1 <1>   0.0800 
 54 H       -7.0250    -7.5080     1.0950 H     1 <1>   0.0800 
@<TRIPOS>BOND
  1   1   2  2   
  2   2   3  am  
  3   2   4  1   
  4   3   5  1   
  5   3   6  1   
  6   4   7  1   
  7   4   8  2   
  8   5   9  1   
  9   5  29  1   
 10   5  30  1   
 11   6  10  1   
 12   6  31  1   
 13   6  32  1   
 14   7  11  2   
 15   8  12  1   
 16   8  13  1   
 17   9  14  1   
 18   9  33  1   
 19   9  34  1   
 20  10  14  1   
 21  10  35  1   
 22  10  36  1   
 23  11  12  1   
 24  11  37  1   
 25  13  15  1   
 26  13  38  1   
 27  13  39  1   
 28  14  16  1   
 29  14  17  1   
 30  15  40  1   
 31  15  41  1   
 32  15  42  1   
 33  16  18  1   
 34  17  19  ar  
 35  17  20  ar  
 36  18  21  1   
 37  18  43  1   
 38  18  44  1   
 39  19  21  1   
 40  19  22  ar  
 41  20  23  ar  
 42  20  45  1   
 43  21  46  1   
 44  21  47  1   
 45  22  24  ar  
 46  22  48  1   
 47  23  24  ar  
 48  23  25  1   
 49  24  26  1   
 50  25  27  1   
 51  26  28  1   
 52  27  49  1   
 53  27  50  1   
 54  27  51  1   
 55  28  52  1   
 56  28  53  1   
 57  28  54  1   
@<TRIPOS>SUBSTRUCTURE
  1 ****   9 GROUP 4 **** **** 0

# MOE 2024.06 (io_trps.svl 2023.06)
