@<TRIPOS>MOLECULE
NONAME
47 49 1 0 0 
SMALL
USER_CHARGES


@<TRIPOS>ATOM
  1 O       -0.1580     1.0880     1.9150 O.2   1 <1>  -0.5700 
  2 C       -0.2370     1.9670     1.0740 C.2   1 <1>   0.6160 
  3 N       -1.4890     2.4180     0.6960 N.am  1 <1>  -0.6600 
  4 C        0.9740     2.5490     0.5790 C.2   1 <1>   0.0290 
  5 C       -2.7240     1.7890     1.2530 C.3   1 <1>   0.1400 
  6 C       -1.6860     3.5300    -0.2850 C.3   1 <1>   0.1400 
  7 C        1.4020     2.2590    -0.7500 C.2   1 <1>   0.5410 
  8 C        1.7520     3.3680     1.3560 C.2   1 <1>  -0.0500 
  9 C       -3.8410     2.8290     1.3710 C.3   1 <1>  -0.1600 
 10 C       -3.0360     3.3790    -0.9830 C.3   1 <1>  -0.1600 
 11 O        0.7560     1.5540    -1.5210 O.2   1 <1>  -0.5700 
 12 C        2.6190     2.8420    -1.1940 C.2   1 <1>  -0.1360 
 13 N        2.9110     3.9200     0.8820 N.pl3 1 <1>  -0.6000 
 14 C       -4.2070     3.4840     0.0150 C.3   1 <1>   0.2800 
 15 C        3.3510     3.6550    -0.3900 C.2   1 <1>  -0.0380 
 16 O       -4.3630     4.8630     0.2450 O.3   1 <1>  -0.5600 
 17 C       -5.5030     2.8990    -0.6160 C.3   1 <1>  -0.1600 
 18 C        4.6530     4.3030    -0.8130 C.3   1 <1>  -0.1020 
 19 C       -5.5590     5.2750     0.8420 C.3   1 <1>   0.1200 
 20 C       -6.4320     3.9770    -1.1830 C.3   1 <1>   0.2800 
 21 C       -6.7510     5.0040    -0.0920 C.3   1 <1>  -0.1600 
 22 O       -5.7530     4.6380    -2.1710 O.3   1 <1>  -0.6800 
 23 C       -7.6890     3.3970    -1.8240 C.3   1 <1>  -0.2400 
 24 H       -2.5230     1.3760     2.2270 H     1 <1>   0.0800 
 25 H       -3.0300     0.9850     0.6060 H     1 <1>   0.0800 
 26 H       -0.9100     3.5190    -1.0290 H     1 <1>   0.0800 
 27 H       -1.6490     4.4730     0.2350 H     1 <1>   0.0800 
 28 H        1.4630     3.5920     2.3710 H     1 <1>   0.1500 
 29 H       -3.4920     3.5830     2.0550 H     1 <1>   0.0800 
 30 H       -4.6970     2.3650     1.8230 H     1 <1>   0.0800 
 31 H       -3.0390     2.4230    -1.4740 H     1 <1>   0.0800 
 32 H       -3.1330     4.1270    -1.7470 H     1 <1>   0.0800 
 33 H        2.9210     2.6020    -2.1950 H     1 <1>   0.1500 
 34 H        3.4780     4.5260     1.4910 H     1 <1>   0.4000 
 35 H       -6.0560     2.3590     0.1280 H     1 <1>   0.0800 
 36 H       -5.2690     2.1820    -1.3810 H     1 <1>   0.0800 
 37 H        5.4500     3.9840    -0.1650 H     1 <1>   0.0800 
 38 H        4.5660     5.3730    -0.7610 H     1 <1>   0.0800 
 39 H        4.9030     4.0290    -1.8220 H     1 <1>   0.0800 
 40 H       -5.4770     6.3280     1.0500 H     1 <1>   0.0800 
 41 H       -5.6750     4.7500     1.7740 H     1 <1>   0.0800 
 42 H       -7.0860     5.9230    -0.5400 H     1 <1>   0.0800 
 43 H       -7.5610     4.6430     0.5150 H     1 <1>   0.0800 
 44 H       -4.9840     5.0660    -1.7360 H     1 <1>   0.4000 
 45 H       -8.2650     2.8570    -1.0950 H     1 <1>   0.0800 
 46 H       -7.4230     2.7220    -2.6180 H     1 <1>   0.0800 
 47 H       -8.2990     4.1870    -2.2250 H     1 <1>   0.0800 
@<TRIPOS>BOND
  1   1   2  2   
  2   2   3  am  
  3   2   4  1   
  4   3   5  1   
  5   3   6  1   
  6   4   7  1   
  7   4   8  2   
  8   5   9  1   
  9   5  24  1   
 10   5  25  1   
 11   6  10  1   
 12   6  26  1   
 13   6  27  1   
 14   7  11  2   
 15   7  12  1   
 16   8  13  1   
 17   8  28  1   
 18   9  14  1   
 19   9  29  1   
 20   9  30  1   
 21  10  14  1   
 22  10  31  1   
 23  10  32  1   
 24  12  15  2   
 25  12  33  1   
 26  13  15  1   
 27  13  34  1   
 28  14  16  1   
 29  14  17  1   
 30  15  18  1   
 31  16  19  1   
 32  17  20  1   
 33  17  35  1   
 34  17  36  1   
 35  18  37  1   
 36  18  38  1   
 37  18  39  1   
 38  19  21  1   
 39  19  40  1   
 40  19  41  1   
 41  20  21  1   
 42  20  22  1   
 43  20  23  1   
 44  21  42  1   
 45  21  43  1   
 46  22  44  1   
 47  23  45  1   
 48  23  46  1   
 49  23  47  1   
@<TRIPOS>SUBSTRUCTURE
  1 ****   6 GROUP 4 **** **** 0

# MOE 2024.06 (io_trps.svl 2023.06)
