@<TRIPOS>MOLECULE
NONAME
53 55 1 0 0 
SMALL
USER_CHARGES


@<TRIPOS>ATOM
  1 O        2.5390    -0.8130    -3.2410 O.2   1 <1>  -0.5700 
  2 C        2.8850    -1.2240    -2.1580 C.2   1 <1>   0.5690 
  3 N        3.7380    -0.5460    -1.3560 N.am  1 <1>  -0.7300 
  4 C        2.2930    -2.5260    -1.6090 C.3   1 <1>   0.1710 
  5 C        3.9720     0.9020    -1.4110 C.3   1 <1>   0.2840 
  6 N        2.2500    -2.5820    -0.1150 N.3   1 <1>  -0.8100 
  7 C        3.2720     1.5120    -0.2020 C.ar  1 <1>  -0.1430 
  8 C        1.4070    -1.5070     0.4710 C.3   1 <1>   0.1100 
  9 C        1.7190    -3.8560     0.3840 C.3   1 <1>   0.1100 
 10 C        1.9900     2.0520    -0.2720 C.ar  1 <1>  -0.1430 
 11 C        3.9390     1.4970     1.0160 C.ar  1 <1>  -0.1500 
 12 C        0.3690    -2.1650     1.3880 C.3   1 <1>   0.2000 
 13 C        0.2820    -3.5800     0.8270 C.3   1 <1>  -0.0800 
 14 C        1.4030     2.5680     0.8740 C.ar  1 <1>  -0.1500 
 15 C        1.2050     2.0930    -1.5760 C.3   1 <1>  -0.0970 
 16 C        3.3460     2.0130     2.1540 C.ar  1 <1>  -0.1500 
 17 O        0.8350    -2.2210     2.7080 O.3   1 <1>  -0.5600 
 18 C       -0.2680    -4.6310     1.8070 C.3   1 <1>   0.0200 
 19 C        2.0750     2.5500     2.0830 C.ar  1 <1>  -0.1500 
 20 C        0.7070    -1.0360     3.4320 C.3   1 <1>   0.0400 
 21 C       -0.4830    -5.9880     1.1570 C.2   1 <1>  -0.0400 
 22 O       -0.7870    -7.0080     1.9140 O.3   1 <1>  -0.0190 
 23 C       -0.4350    -6.4230    -0.1130 C.2   1 <1>  -0.1500 
 24 N       -0.9410    -8.1000     1.2220 N.2   1 <1>  -0.4100 
 25 C       -0.7350    -7.7770    -0.0040 C.2   1 <1>   0.1080 
 26 C       -0.8120    -8.7470    -1.1610 C.3   1 <1>  -0.0590 
 27 H        3.8380    -0.9550    -0.4210 H     1 <1>   0.3700 
 28 H        2.8980    -3.3360    -1.9740 H     1 <1>   0.0800 
 29 H        1.3010    -2.6430    -2.0060 H     1 <1>   0.0800 
 30 H        5.0300     1.0940    -1.3650 H     1 <1>   0.0800 
 31 H        3.6000     1.3090    -2.3350 H     1 <1>   0.0800 
 32 H        2.0190    -0.8050     1.0080 H     1 <1>   0.0800 
 33 H        0.8880    -0.9760    -0.3080 H     1 <1>   0.0800 
 34 H        1.7800    -4.6390    -0.3520 H     1 <1>   0.0800 
 35 H        2.3030    -4.1470     1.2420 H     1 <1>   0.0800 
 36 H        4.9280     1.0790     1.0840 H     1 <1>   0.1500 
 37 H       -0.5820    -1.6610     1.3700 H     1 <1>   0.0800 
 38 H       -0.3430    -3.5520    -0.0470 H     1 <1>   0.0800 
 39 H        0.4150     2.9930     0.8330 H     1 <1>   0.1500 
 40 H        0.2210     2.4980    -1.4250 H     1 <1>   0.0800 
 41 H        1.1010     1.1030    -1.9800 H     1 <1>   0.0800 
 42 H        1.7150     2.7100    -2.2940 H     1 <1>   0.0800 
 43 H        3.8740     1.9960     3.0910 H     1 <1>   0.1500 
 44 H       -1.2070    -4.2920     2.2070 H     1 <1>   0.0800 
 45 H        0.4130    -4.7490     2.6320 H     1 <1>   0.0800 
 46 H        1.6110     2.9560     2.9640 H     1 <1>   0.1500 
 47 H        1.0810    -1.2110     4.4240 H     1 <1>   0.0800 
 48 H       -0.3320    -0.7600     3.4810 H     1 <1>   0.0800 
 49 H        1.2840    -0.2580     2.9640 H     1 <1>   0.0800 
 50 H       -0.2250    -5.8940    -1.0230 H     1 <1>   0.1500 
 51 H        0.0660    -8.6590    -1.7730 H     1 <1>   0.0800 
 52 H       -1.6830    -8.5360    -1.7540 H     1 <1>   0.0800 
 53 H       -0.8790    -9.7540    -0.7910 H     1 <1>   0.0800 
@<TRIPOS>BOND
  1   1   2  2   
  2   2   3  am  
  3   2   4  1   
  4   3   5  1   
  5   3  27  1   
  6   4   6  1   
  7   4  28  1   
  8   4  29  1   
  9   5   7  1   
 10   5  30  1   
 11   5  31  1   
 12   6   8  1   
 13   6   9  1   
 14   7  10  ar  
 15   7  11  ar  
 16   8  12  1   
 17   8  32  1   
 18   8  33  1   
 19   9  13  1   
 20   9  34  1   
 21   9  35  1   
 22  10  14  ar  
 23  10  15  1   
 24  11  16  ar  
 25  11  36  1   
 26  12  13  1   
 27  12  17  1   
 28  12  37  1   
 29  13  18  1   
 30  13  38  1   
 31  14  19  ar  
 32  14  39  1   
 33  15  40  1   
 34  15  41  1   
 35  15  42  1   
 36  16  19  ar  
 37  16  43  1   
 38  17  20  1   
 39  18  21  1   
 40  18  44  1   
 41  18  45  1   
 42  19  46  1   
 43  20  47  1   
 44  20  48  1   
 45  20  49  1   
 46  21  22  1   
 47  21  23  2   
 48  22  24  1   
 49  23  25  1   
 50  23  50  1   
 51  24  25  2   
 52  25  26  1   
 53  26  51  1   
 54  26  52  1   
 55  26  53  1   
@<TRIPOS>SUBSTRUCTURE
  1 ****   8 GROUP 4 **** **** 0

# MOE 2024.06 (io_trps.svl 2023.06)
