@<TRIPOS>MOLECULE
NONAME
48 50 1 0 0 
SMALL
USER_CHARGES


@<TRIPOS>ATOM
  1 F        1.8960     0.9840     2.8150 F     1 <1>  -0.1900 
  2 C        2.2410     1.1800     1.5690 C.ar  1 <1>   0.1900 
  3 C        2.2170     0.1110     0.6800 C.ar  1 <1>   0.0860 
  4 C        2.6190     2.4490     1.1640 C.ar  1 <1>   0.1900 
  5 C        2.5970     0.3810    -0.6410 C.ar  1 <1>   0.0820 
  6 C        1.8160    -1.2060     1.1010 C.2   1 <1>   0.5440 
  7 F        2.6320     3.4390     2.0210 F     1 <1>  -0.1900 
  8 C        2.9870     2.7070    -0.1440 C.ar  1 <1>  -0.1500 
  9 O        2.5810    -0.5990    -1.5630 O.3   1 <1>  -0.3630 
 10 C        2.9710     1.6580    -1.0480 C.ar  1 <1>  -0.1500 
 11 O        2.6660    -2.0340     1.3830 O.2   1 <1>  -0.5700 
 12 N        0.4910    -1.5740     1.1630 N.am  1 <1>  -0.6600 
 13 C        3.7850    -1.3120    -1.7450 C.3   1 <1>   0.0400 
 14 C        0.0920    -2.9200     1.6620 C.3   1 <1>   0.1400 
 15 C       -0.5700    -0.9250     0.3420 C.3   1 <1>   0.1400 
 16 C       -0.1220    -3.8410     0.4390 C.3   1 <1>   0.4230 
 17 C       -0.8530    -1.8200    -0.8740 C.3   1 <1>  -0.1600 
 18 N       -0.4040    -5.2770     0.7810 N.4   1 <1>  -0.9590 
 19 C       -1.2440    -3.2700    -0.4590 C.3   1 <1>  -0.1060 
 20 C       -0.4720    -6.1310    -0.4310 C.3   1 <1>   0.3430 
 21 C        0.4640    -5.8550     1.8400 C.3   1 <1>   0.2630 
 22 C       -2.5630    -3.2690     0.3390 C.2   1 <1>   0.9060 
 23 C       -1.3750    -4.1350    -1.7340 C.3   1 <1>  -0.1600 
 24 C       -1.5520    -5.6220    -1.3880 C.3   1 <1>  -0.1600 
 25 O       -3.4010    -2.3940     0.1270 O.co2 1 <1>  -0.9000 
 26 O       -2.7510    -4.1550     1.1900 O.co2 1 <1>  -0.9000 
 27 H        3.2760     3.7000    -0.4400 H     1 <1>   0.1500 
 28 H        3.2440     1.8240    -2.0760 H     1 <1>   0.1500 
 29 H        3.6240    -2.0580    -2.5020 H     1 <1>   0.0800 
 30 H        4.0590    -1.7830    -0.8170 H     1 <1>   0.0800 
 31 H        4.5530    -0.6280    -2.0590 H     1 <1>   0.0800 
 32 H        0.8650    -3.3050     2.3000 H     1 <1>   0.0800 
 33 H       -0.8100    -2.8300     2.2430 H     1 <1>   0.0800 
 34 H       -1.4630    -0.8070     0.9350 H     1 <1>   0.0800 
 35 H       -0.2640     0.0520     0.0120 H     1 <1>   0.0800 
 36 H        0.7960    -3.8130    -0.1220 H     1 <1>   0.0800 
 37 H       -1.6530    -1.3800    -1.4450 H     1 <1>   0.0800 
 38 H        0.0210    -1.8300    -1.5020 H     1 <1>   0.0800 
 39 H       -1.3940    -5.1990     1.1430 H     1 <1>   0.4500 
 40 H        0.4830    -6.1240    -0.9300 H     1 <1>   0.0800 
 41 H       -0.7020    -7.1460    -0.1480 H     1 <1>   0.0800 
 42 H        1.4970    -5.8270     1.5340 H     1 <1>   0.0800 
 43 H        0.1820    -6.8770     2.0320 H     1 <1>   0.0800 
 44 H        0.3550    -5.2970     2.7550 H     1 <1>   0.0800 
 45 H       -2.2230    -3.7970    -2.3080 H     1 <1>   0.0800 
 46 H       -0.4960    -4.0190    -2.3450 H     1 <1>   0.0800 
 47 H       -1.5260    -6.2040    -2.2920 H     1 <1>   0.0800 
 48 H       -2.5190    -5.7780    -0.9390 H     1 <1>   0.0800 
@<TRIPOS>BOND
  1   1   2  1   
  2   2   3  ar  
  3   2   4  ar  
  4   3   5  ar  
  5   3   6  1   
  6   4   7  1   
  7   4   8  ar  
  8   5   9  1   
  9   5  10  ar  
 10   6  11  2   
 11   6  12  am  
 12   8  10  ar  
 13   8  27  1   
 14   9  13  1   
 15  10  28  1   
 16  12  14  1   
 17  12  15  1   
 18  13  29  1   
 19  13  30  1   
 20  13  31  1   
 21  14  16  1   
 22  14  32  1   
 23  14  33  1   
 24  15  17  1   
 25  15  34  1   
 26  15  35  1   
 27  16  18  1   
 28  16  19  1   
 29  16  36  1   
 30  17  19  1   
 31  17  37  1   
 32  17  38  1   
 33  18  20  1   
 34  18  21  1   
 35  18  39  1   
 36  19  22  1   
 37  19  23  1   
 38  20  24  1   
 39  20  40  1   
 40  20  41  1   
 41  21  42  1   
 42  21  43  1   
 43  21  44  1   
 44  22  25  ar  
 45  22  26  ar  
 46  23  24  1   
 47  23  45  1   
 48  23  46  1   
 49  24  47  1   
 50  24  48  1   
@<TRIPOS>SUBSTRUCTURE
  1 ****  12 GROUP 4 **** **** 0

# MOE 2024.06 (io_trps.svl 2023.06)
