@<TRIPOS>MOLECULE
NONAME
54 56 1 0 0 
SMALL
USER_CHARGES


@<TRIPOS>ATOM
  1 O       -0.7930    -0.4690    -0.1090 O.3   1 <1>  -0.3630 
  2 C       -0.9390     0.7630     0.4420 C.ar  1 <1>   0.0820 
  3 C       -1.9050    -1.2600    -0.4430 C.3   1 <1>   0.1200 
  4 C        0.2220     1.4760     0.6890 C.ar  1 <1>  -0.1500 
  5 C       -2.1710     1.3280     0.7620 C.ar  1 <1>  -0.1500 
  6 C       -1.3650    -2.5560    -1.0560 C.3   1 <1>   0.3430 
  7 C        0.1730     2.7420     1.2470 C.ar  1 <1>   0.0820 
  8 C       -2.2260     2.5940     1.3210 C.ar  1 <1>  -0.1500 
  9 N       -2.4500    -3.5090    -1.4650 N.4   1 <1>  -0.9590 
 10 O        1.3600     3.3660     1.4520 O.3   1 <1>  -0.3630 
 11 C       -1.0610     3.3020     1.5640 C.ar  1 <1>  -0.1500 
 12 C       -1.9040    -4.8740    -1.7480 C.3   1 <1>   0.3430 
 13 C       -3.2590    -3.0280    -2.6180 C.3   1 <1>   0.3430 
 14 C        1.4230     4.6560     2.0170 C.3   1 <1>   0.0400 
 15 C       -2.8420    -5.9700    -1.1950 C.3   1 <1>   0.2090 
 16 C       -4.7040    -3.5060    -2.4800 C.3   1 <1>  -0.1600 
 17 N       -4.2830    -5.5280    -1.0740 N.pl3 1 <1>  -0.8380 
 18 C       -4.8760    -5.0250    -2.3560 C.3   1 <1>   0.2090 
 19 C       -5.0920    -5.9270    -0.0430 C.ar  1 <1>   0.1000 
 20 C       -6.2660    -5.2300     0.2860 C.ar  1 <1>  -0.1500 
 21 C       -4.8210    -7.0680     0.7320 C.ar  1 <1>  -0.1500 
 22 C       -7.0940    -5.6420     1.3010 C.ar  1 <1>   0.2180 
 23 C       -5.6620    -7.4600     1.7420 C.ar  1 <1>   0.2110 
 24 N       -6.7820    -6.7490     2.0170 N.ar  1 <1>  -0.1790 
 25 C       -8.3680    -4.8930     1.6570 C.3   1 <1>  -0.0970 
 26 H       -2.5010    -0.7080    -1.1470 H     1 <1>   0.0800 
 27 H       -2.4540    -1.4610     0.4600 H     1 <1>   0.0800 
 28 H        1.1760     1.0470     0.4470 H     1 <1>   0.1500 
 29 H       -3.0940     0.8100     0.5910 H     1 <1>   0.1500 
 30 H       -0.7330    -3.0290    -0.3220 H     1 <1>   0.0800 
 31 H       -0.7590    -2.3090    -1.9130 H     1 <1>   0.0800 
 32 H       -3.1770     3.0330     1.5690 H     1 <1>   0.1500 
 33 H       -3.1200    -3.6660    -0.6910 H     1 <1>   0.4500 
 34 H       -1.1340     4.2810     1.9970 H     1 <1>   0.1500 
 35 H       -0.9340    -4.9940    -1.2940 H     1 <1>   0.0800 
 36 H       -1.7830    -5.0090    -2.8100 H     1 <1>   0.0800 
 37 H       -2.8350    -3.3850    -3.5430 H     1 <1>   0.0800 
 38 H       -3.2560    -1.9510    -2.6490 H     1 <1>   0.0800 
 39 H        2.4580     4.9410     2.0830 H     1 <1>   0.0800 
 40 H        0.9880     4.6280     3.0000 H     1 <1>   0.0800 
 41 H        0.8950     5.3430     1.3790 H     1 <1>   0.0800 
 42 H       -2.4700    -6.2440    -0.2240 H     1 <1>   0.0800 
 43 H       -2.7800    -6.8440    -1.8220 H     1 <1>   0.0800 
 44 H       -5.2360    -3.1860    -3.3580 H     1 <1>   0.0800 
 45 H       -5.1670    -3.0160    -1.6440 H     1 <1>   0.0800 
 46 H       -4.4180    -5.5230    -3.1950 H     1 <1>   0.0800 
 47 H       -5.9260    -5.2670    -2.3860 H     1 <1>   0.0800 
 48 H       -6.5180    -4.3510    -0.2750 H     1 <1>   0.1500 
 49 H       -3.9520    -7.6630     0.5240 H     1 <1>   0.1500 
 50 H       -5.4510    -8.3400     2.3300 H     1 <1>   0.1500 
 51 H       -7.4080    -7.0540     2.7710 H     1 <1>   0.4570 
 52 H       -8.5000    -4.0390     1.0160 H     1 <1>   0.0800 
 53 H       -8.3280    -4.5430     2.6740 H     1 <1>   0.0800 
 54 H       -9.2260    -5.5320     1.5390 H     1 <1>   0.0800 
@<TRIPOS>BOND
  1   1   2  1   
  2   1   3  1   
  3   2   4  ar  
  4   2   5  ar  
  5   3   6  1   
  6   3  26  1   
  7   3  27  1   
  8   4   7  ar  
  9   4  28  1   
 10   5   8  ar  
 11   5  29  1   
 12   6   9  1   
 13   6  30  1   
 14   6  31  1   
 15   7  10  1   
 16   7  11  ar  
 17   8  11  ar  
 18   8  32  1   
 19   9  12  1   
 20   9  13  1   
 21   9  33  1   
 22  10  14  1   
 23  11  34  1   
 24  12  15  1   
 25  12  35  1   
 26  12  36  1   
 27  13  16  1   
 28  13  37  1   
 29  13  38  1   
 30  14  39  1   
 31  14  40  1   
 32  14  41  1   
 33  15  17  1   
 34  15  42  1   
 35  15  43  1   
 36  16  18  1   
 37  16  44  1   
 38  16  45  1   
 39  17  18  1   
 40  17  19  1   
 41  18  46  1   
 42  18  47  1   
 43  19  20  ar  
 44  19  21  ar  
 45  20  22  ar  
 46  20  48  1   
 47  21  23  ar  
 48  21  49  1   
 49  22  24  ar  
 50  22  25  1   
 51  23  24  ar  
 52  23  50  1   
 53  24  51  1   
 54  25  52  1   
 55  25  53  1   
 56  25  54  1   
@<TRIPOS>SUBSTRUCTURE
  1 ****   3 GROUP 4 **** **** 0

# MOE 2024.06 (io_trps.svl 2023.06)
