@<TRIPOS>MOLECULE
NONAME
42 45 1 0 0 
SMALL
USER_CHARGES


@<TRIPOS>ATOM
  1 O        0.8030     1.3160     1.2530 O.3   1 <1>  -0.0190 
  2 N        1.6260     0.3490     1.5430 N.2   1 <1>  -0.4100 
  3 C        0.8670     1.6450    -0.0100 C.2   1 <1>  -0.0400 
  4 C        2.2250     0.0500     0.4470 C.2   1 <1>   0.1080 
  5 C        1.7770     0.8540    -0.5970 C.2   1 <1>  -0.1500 
  6 C       -0.0070     2.7610    -0.5480 C.3   1 <1>   0.0200 
  7 C        3.2760    -1.0300     0.3200 C.3   1 <1>  -0.0590 
  8 C        0.3310     4.1000     0.1230 C.3   1 <1>  -0.0800 
  9 C       -0.4570     5.2720    -0.4530 C.3   1 <1>   0.2000 
 10 C        1.7910     4.5190    -0.0470 C.3   1 <1>   0.2090 
 11 O       -1.7060     5.3480     0.1480 O.3   1 <1>  -0.6800 
 12 C        0.3930     6.5120    -0.1700 C.3   1 <1>   0.2090 
 13 N        1.7810     6.0050    -0.0100 N.pl3 1 <1>  -0.8380 
 14 C        2.8860     6.7460    -0.3800 C.ar  1 <1>   0.4100 
 15 N        3.9240     6.1020    -0.8760 N.ar  1 <1>  -0.6200 
 16 C        2.9170     8.1200    -0.2340 C.ar  1 <1>  -0.1500 
 17 C        4.9540     6.8500    -1.2190 C.ar  1 <1>   0.4700 
 18 C        4.0430     8.7900    -0.6250 C.ar  1 <1>   0.2780 
 19 N        5.0830     8.1610    -1.1330 N.ar  1 <1>  -0.6200 
 20 C        4.1470    10.3020    -0.4960 C.3   1 <1>  -0.0680 
 21 C        5.0430    10.9030     0.5430 C.3   1 <1>  -0.2000 
 22 C        3.5570    11.0510     0.6640 C.3   1 <1>  -0.2000 
 23 H        2.1080     0.8210    -1.6180 H     1 <1>   0.1500 
 24 H        0.1350     2.8370    -1.6120 H     1 <1>   0.0800 
 25 H       -1.0390     2.5170    -0.3660 H     1 <1>   0.0800 
 26 H        2.9640    -1.7600    -0.4040 H     1 <1>   0.0800 
 27 H        3.4170    -1.5180     1.2680 H     1 <1>   0.0800 
 28 H        4.2090    -0.5970     0.0100 H     1 <1>   0.0800 
 29 H        0.1480     4.0270     1.1810 H     1 <1>   0.0800 
 30 H       -0.5970     5.1680    -1.5150 H     1 <1>   0.0800 
 31 H        2.1710     4.1880    -0.9990 H     1 <1>   0.0800 
 32 H        2.4100     4.1220     0.7400 H     1 <1>   0.0800 
 33 H       -1.6140     5.3540     1.1210 H     1 <1>   0.4000 
 34 H        0.0850     6.9860     0.7450 H     1 <1>   0.0800 
 35 H        0.3320     7.2060    -0.9900 H     1 <1>   0.0800 
 36 H        2.0790     8.6390     0.1810 H     1 <1>   0.1500 
 37 H        5.8010     6.3220    -1.6250 H     1 <1>   0.1500 
 38 H        4.1390    10.7810    -1.4590 H     1 <1>   0.1000 
 39 H        5.5610    10.2350     1.2100 H     1 <1>   0.1000 
 40 H        5.6380    11.7560     0.2700 H     1 <1>   0.1000 
 41 H        3.1190    12.0170     0.4840 H     1 <1>   0.1000 
 42 H        3.0670    10.5170     1.4590 H     1 <1>   0.1000 
@<TRIPOS>BOND
  1   1   2  1   
  2   1   3  1   
  3   2   4  2   
  4   3   5  2   
  5   3   6  1   
  6   4   5  1   
  7   4   7  1   
  8   5  23  1   
  9   6   8  1   
 10   6  24  1   
 11   6  25  1   
 12   7  26  1   
 13   7  27  1   
 14   7  28  1   
 15   8   9  1   
 16   8  10  1   
 17   8  29  1   
 18   9  11  1   
 19   9  12  1   
 20   9  30  1   
 21  10  13  1   
 22  10  31  1   
 23  10  32  1   
 24  11  33  1   
 25  12  13  1   
 26  12  34  1   
 27  12  35  1   
 28  13  14  1   
 29  14  15  ar  
 30  14  16  ar  
 31  15  17  ar  
 32  16  18  ar  
 33  16  36  1   
 34  17  19  ar  
 35  17  37  1   
 36  18  19  ar  
 37  18  20  1   
 38  20  21  1   
 39  20  22  1   
 40  20  38  1   
 41  21  22  1   
 42  21  39  1   
 43  21  40  1   
 44  22  41  1   
 45  22  42  1   
@<TRIPOS>SUBSTRUCTURE
  1 ****  10 GROUP 4 **** **** 0

# MOE 2024.06 (io_trps.svl 2023.06)
