@<TRIPOS>MOLECULE
NONAME
46 49 1 0 0 
SMALL
USER_CHARGES


@<TRIPOS>ATOM
  1 S        0.8630     0.0840     1.7980 S.3   1 <1>  -0.0800 
  2 C        1.1140    -1.2790     0.7290 C.ar  1 <1>   0.0400 
  3 C        1.7370     1.1140     0.6680 C.2   1 <1>   0.1980 
  4 C        1.8260    -0.8340    -0.3690 C.ar  1 <1>   0.2270 
  5 C        0.7010    -2.5890     0.8910 C.ar  1 <1>  -0.1500 
  6 N        2.1620     0.5190    -0.3730 N.2   1 <1>  -0.5650 
  7 C        1.8730     2.5730     1.0670 C.3   1 <1>   0.0200 
  8 C        2.1440    -1.7510    -1.3610 C.ar  1 <1>  -0.1500 
  9 C        1.0270    -3.4910    -0.1080 C.ar  1 <1>  -0.1500 
 10 C        2.7040     3.3800     0.0560 C.3   1 <1>  -0.0990 
 11 C        1.7440    -3.0730    -1.2270 C.ar  1 <1>  -0.1500 
 12 C        2.8640     4.8460     0.4330 C.2   1 <1>   0.5690 
 13 O        2.1880     5.2740     1.3410 O.2   1 <1>  -0.5700 
 14 N        3.7510     5.6510    -0.2440 N.am  1 <1>  -0.6600 
 15 C        4.1100     6.9910     0.3280 C.3   1 <1>   0.1400 
 16 C        4.5460     5.2090    -1.4350 C.3   1 <1>   0.1400 
 17 C        5.5620     7.1070     0.8490 C.3   1 <1>   0.2200 
 18 C        6.0670     5.1020    -1.2020 C.3   1 <1>  -0.0190 
 19 N        6.5080     7.3750    -0.2720 N.am  1 <1>  -0.6600 
 20 C        6.0580     5.9390     1.7410 C.3   1 <1>   0.1200 
 21 C        6.7250     6.4620    -1.2630 C.2   1 <1>   0.5690 
 22 C        6.5500     4.3180     0.0340 C.3   1 <1>   0.1200 
 23 C        7.1590     8.7160    -0.2770 C.3   1 <1>   0.0600 
 24 O        5.8820     4.6500     1.2120 O.3   1 <1>  -0.5600 
 25 O        7.4400     6.6980    -2.2080 O.2   1 <1>  -0.5700 
 26 H        0.1480    -2.8860     1.7640 H     1 <1>   0.1500 
 27 H        0.8890     2.9990     1.1470 H     1 <1>   0.0800 
 28 H        2.3420     2.6270     2.0340 H     1 <1>   0.0800 
 29 H        2.6970    -1.4190    -2.2190 H     1 <1>   0.1500 
 30 H        0.7250    -4.5210    -0.0220 H     1 <1>   0.1500 
 31 H        2.2350     3.3230    -0.9080 H     1 <1>   0.0800 
 32 H        3.6800     2.9350    -0.0060 H     1 <1>   0.0800 
 33 H        1.9900    -3.7850    -1.9960 H     1 <1>   0.1500 
 34 H        3.9400     7.7470    -0.4180 H     1 <1>   0.0800 
 35 H        3.4560     7.2180     1.1500 H     1 <1>   0.0800 
 36 H        4.1930     4.2560    -1.7820 H     1 <1>   0.0800 
 37 H        4.3690     5.9080    -2.2350 H     1 <1>   0.0800 
 38 H        5.5770     7.9800     1.4780 H     1 <1>   0.0800 
 39 H        6.4530     4.5670    -2.0510 H     1 <1>   0.0800 
 40 H        5.5020     5.9580     2.6620 H     1 <1>   0.0800 
 41 H        7.0990     6.0690     1.9780 H     1 <1>   0.0800 
 42 H        7.6060     4.4620     0.1880 H     1 <1>   0.0800 
 43 H        6.3750     3.2690    -0.1270 H     1 <1>   0.0800 
 44 H        7.7230     8.8510     0.6300 H     1 <1>   0.0800 
 45 H        6.4100     9.4850    -0.3500 H     1 <1>   0.0800 
 46 H        7.8310     8.8140    -1.1130 H     1 <1>   0.0800 
@<TRIPOS>BOND
  1   1   2  1   
  2   1   3  1   
  3   2   4  ar  
  4   2   5  ar  
  5   3   6  2   
  6   3   7  1   
  7   4   6  1   
  8   4   8  ar  
  9   5   9  ar  
 10   5  26  1   
 11   7  10  1   
 12   7  27  1   
 13   7  28  1   
 14   8  11  ar  
 15   8  29  1   
 16   9  11  ar  
 17   9  30  1   
 18  10  12  1   
 19  10  31  1   
 20  10  32  1   
 21  11  33  1   
 22  12  13  2   
 23  12  14  am  
 24  14  15  1   
 25  14  16  1   
 26  15  17  1   
 27  15  34  1   
 28  15  35  1   
 29  16  18  1   
 30  16  36  1   
 31  16  37  1   
 32  17  19  1   
 33  17  20  1   
 34  17  38  1   
 35  18  21  1   
 36  18  22  1   
 37  18  39  1   
 38  19  21  am  
 39  19  23  1   
 40  20  24  1   
 41  20  40  1   
 42  20  41  1   
 43  21  25  2   
 44  22  24  1   
 45  22  42  1   
 46  22  43  1   
 47  23  44  1   
 48  23  45  1   
 49  23  46  1   
@<TRIPOS>SUBSTRUCTURE
  1 ****  10 GROUP 4 **** **** 0

# MOE 2024.06 (io_trps.svl 2023.06)
