@<TRIPOS>MOLECULE
NONAME
52 55 1 0 0 
SMALL
USER_CHARGES


@<TRIPOS>ATOM
  1 F       -0.8240     0.0740     0.6120 F     1 <1>  -0.1900 
  2 C       -2.0710     0.4690     0.6260 C.ar  1 <1>   0.1900 
  3 C       -2.5530     1.4400    -0.2590 C.ar  1 <1>   0.0830 
  4 C       -2.8930    -0.1260     1.5630 C.ar  1 <1>  -0.1500 
  5 O       -1.8450     2.0980    -1.2210 O.3   1 <1>  -0.3630 
  6 C       -3.8910     1.7860    -0.1670 C.ar  1 <1>  -0.1500 
  7 C       -4.2240     0.2430     1.6290 C.ar  1 <1>  -0.1500 
  8 C       -0.4620     1.9070    -1.4250 C.3   1 <1>   0.0400 
  9 C       -4.7540     1.2010     0.7620 C.ar  1 <1>   0.0530 
 10 C       -6.1430     1.5830     0.8150 C.2   1 <1>   0.0870 
 11 O       -6.5070     2.8090     0.5370 O.3   1 <1>  -0.0190 
 12 C       -7.2780     0.8930     1.0950 C.2   1 <1>  -0.0860 
 13 N       -7.8000     2.9880     0.6170 N.2   1 <1>  -0.4100 
 14 C       -8.2900     1.8470     0.9620 C.2   1 <1>   0.3720 
 15 C       -7.4720    -0.4850     1.4040 C.2   1 <1>   0.7160 
 16 N       -9.6620     1.6040     1.1570 N.pl3 1 <1>  -0.8210 
 17 O       -7.2750    -0.8880     2.5370 O.2   1 <1>  -0.5700 
 18 N       -7.8730    -1.3810     0.4430 N.am  1 <1>  -0.6600 
 19 C      -10.0180     1.0330     2.4890 C.3   1 <1>   0.1290 
 20 C      -10.5860     2.6920     0.7250 C.3   1 <1>   0.1290 
 21 C       -8.3020    -2.7630     0.7690 C.3   1 <1>   0.1400 
 22 C       -8.3360    -1.0070    -0.9190 C.3   1 <1>   0.1400 
 23 C       -8.8470    -3.3080    -0.5510 C.3   1 <1>  -0.0800 
 24 C       -9.3970    -2.0570    -1.2490 C.3   1 <1>  -0.0800 
 25 C       -9.8420    -4.4750    -0.4090 C.3   1 <1>  -0.0220 
 26 C      -10.7680    -1.5960    -0.7010 C.3   1 <1>  -0.0220 
 27 C      -11.2740    -4.0160    -0.2120 C.2   1 <1>  -0.2880 
 28 C      -11.6810    -2.7530    -0.3400 C.2   1 <1>  -0.2880 
 29 H       -2.4940    -0.8670     2.2330 H     1 <1>   0.1500 
 30 H       -4.2720     2.5310    -0.8420 H     1 <1>   0.1500 
 31 H       -4.8550    -0.2170     2.3690 H     1 <1>   0.1500 
 32 H       -0.1480     2.5600    -2.2190 H     1 <1>   0.0800 
 33 H       -0.2880     0.8830    -1.7060 H     1 <1>   0.0800 
 34 H        0.0640     2.1550    -0.5200 H     1 <1>   0.0800 
 35 H      -10.9730     1.4000     2.8230 H     1 <1>   0.0800 
 36 H       -9.2730     1.2980     3.2210 H     1 <1>   0.0800 
 37 H      -10.0680    -0.0400     2.4210 H     1 <1>   0.0800 
 38 H      -11.6000     2.3330     0.7190 H     1 <1>   0.0800 
 39 H      -10.3300     3.0160    -0.2690 H     1 <1>   0.0800 
 40 H      -10.5060     3.5300     1.3960 H     1 <1>   0.0800 
 41 H       -7.4730    -3.3450     1.1330 H     1 <1>   0.0800 
 42 H       -9.0780    -2.7260     1.5150 H     1 <1>   0.0800 
 43 H       -8.7410    -0.0100    -0.9530 H     1 <1>   0.0800 
 44 H       -7.5090    -1.0820    -1.6030 H     1 <1>   0.0800 
 45 H       -7.9990    -3.6680    -1.1090 H     1 <1>   0.0800 
 46 H       -9.4740    -2.2180    -2.3100 H     1 <1>   0.0800 
 47 H       -9.8090    -5.0700    -1.3050 H     1 <1>   0.0800 
 48 H       -9.5440    -5.1040     0.4120 H     1 <1>   0.0800 
 49 H      -10.6400    -0.9960     0.1830 H     1 <1>   0.0800 
 50 H      -11.2470    -0.9780    -1.4410 H     1 <1>   0.0800 
 51 H      -11.9440    -4.8210     0.0400 H     1 <1>   0.1500 
 52 H      -12.7040    -2.4510    -0.1850 H     1 <1>   0.1500 
@<TRIPOS>BOND
  1   1   2  1   
  2   2   3  ar  
  3   2   4  ar  
  4   3   5  1   
  5   3   6  ar  
  6   4   7  ar  
  7   4  29  1   
  8   5   8  1   
  9   6   9  ar  
 10   6  30  1   
 11   7   9  ar  
 12   7  31  1   
 13   8  32  1   
 14   8  33  1   
 15   8  34  1   
 16   9  10  1   
 17  10  11  1   
 18  10  12  2   
 19  11  13  1   
 20  12  14  1   
 21  12  15  1   
 22  13  14  2   
 23  14  16  1   
 24  15  17  2   
 25  15  18  am  
 26  16  19  1   
 27  16  20  1   
 28  18  21  1   
 29  18  22  1   
 30  19  35  1   
 31  19  36  1   
 32  19  37  1   
 33  20  38  1   
 34  20  39  1   
 35  20  40  1   
 36  21  23  1   
 37  21  41  1   
 38  21  42  1   
 39  22  24  1   
 40  22  43  1   
 41  22  44  1   
 42  23  24  1   
 43  23  25  1   
 44  23  45  1   
 45  24  26  1   
 46  24  46  1   
 47  25  27  1   
 48  25  47  1   
 49  25  48  1   
 50  26  28  1   
 51  26  49  1   
 52  26  50  1   
 53  27  28  2   
 54  27  51  1   
 55  28  52  1   
@<TRIPOS>SUBSTRUCTURE
  1 ****  12 GROUP 4 **** **** 0

# MOE 2024.06 (io_trps.svl 2023.06)
