@<TRIPOS>MOLECULE
NONAME
47 49 1 0 0 
SMALL
USER_CHARGES


@<TRIPOS>ATOM
  1 CL       0.9370    -4.4760    -1.5690 Cl    1 <1>  -0.1770 
  2 C       -0.0420    -3.7170    -0.3350 C.ar  1 <1>   0.1770 
  3 C        0.5050    -2.7700     0.5180 C.ar  1 <1>   0.1770 
  4 C       -1.3720    -4.0800    -0.2290 C.ar  1 <1>  -0.1500 
  5 CL       2.1870    -2.3080     0.3860 Cl    1 <1>  -0.1770 
  6 C       -0.2770    -2.1740     1.4920 C.ar  1 <1>  -0.1500 
  7 C       -2.1630    -3.4810     0.7490 C.ar  1 <1>   0.0830 
  8 C       -1.6100    -2.5340     1.6020 C.ar  1 <1>  -0.1500 
  9 O       -3.4750    -3.7650     0.9310 O.3   1 <1>  -0.3630 
 10 C       -4.1530    -4.7000     0.1020 C.3   1 <1>   0.1810 
 11 C       -5.6240    -4.8330     0.4900 C.2   1 <1>   0.5690 
 12 O       -5.9950    -5.9320     0.8350 O.2   1 <1>  -0.5700 
 13 N       -6.4910    -3.7680     0.4090 N.am  1 <1>  -0.6600 
 14 C       -7.9310    -3.9040     0.7950 C.3   1 <1>   0.1400 
 15 C       -6.1360    -2.3990    -0.0530 C.3   1 <1>   0.1400 
 16 C       -8.8560    -3.5650    -0.4010 C.3   1 <1>   0.0000 
 17 C       -7.0080    -2.0210    -1.2560 C.3   1 <1>  -0.1600 
 18 C      -10.3400    -3.6650    -0.0060 C.3   1 <1>   0.2000 
 19 C       -8.5070    -2.1600    -0.9390 C.3   1 <1>  -0.1600 
 20 C       -8.7500    -4.6520    -1.4850 C.3   1 <1>  -0.1600 
 21 O      -10.5670    -3.1390     1.2680 O.3   1 <1>  -0.5600 
 22 C      -10.6860    -5.1560    -0.0670 C.3   1 <1>  -0.1600 
 23 C       -9.6580    -5.7920    -1.0130 C.3   1 <1>  -0.1600 
 24 C      -11.9040    -2.9150     1.5820 C.3   1 <1>   0.0400 
 25 H       -1.7540    -4.8180    -0.9060 H     1 <1>   0.1500 
 26 H        0.1540    -1.4420     2.1510 H     1 <1>   0.1500 
 27 H       -2.2340    -2.0830     2.3550 H     1 <1>   0.1500 
 28 H       -4.0830    -4.3720    -0.9180 H     1 <1>   0.0800 
 29 H       -3.6730    -5.6550     0.2130 H     1 <1>   0.0800 
 30 H       -8.1370    -4.8970     1.1530 H     1 <1>   0.0800 
 31 H       -8.1270    -3.2260     1.6070 H     1 <1>   0.0800 
 32 H       -6.3080    -1.7070     0.7530 H     1 <1>   0.0800 
 33 H       -5.1000    -2.3320    -0.3300 H     1 <1>   0.0800 
 34 H       -6.7960    -1.0050    -1.5380 H     1 <1>   0.0800 
 35 H       -6.7490    -2.6510    -2.0880 H     1 <1>   0.0800 
 36 H      -10.9330    -3.1210    -0.7220 H     1 <1>   0.0800 
 37 H       -9.0850    -1.9430    -1.8210 H     1 <1>   0.0800 
 38 H       -8.7720    -1.4320    -0.1900 H     1 <1>   0.0800 
 39 H       -9.1280    -4.2720    -2.4180 H     1 <1>   0.0800 
 40 H       -7.7410    -4.9920    -1.6400 H     1 <1>   0.0800 
 41 H      -10.5960    -5.6000     0.9090 H     1 <1>   0.0800 
 42 H      -11.6860    -5.2960    -0.4380 H     1 <1>   0.0800 
 43 H       -9.0740    -6.5190    -0.4730 H     1 <1>   0.0800 
 44 H      -10.1320    -6.2800    -1.8480 H     1 <1>   0.0800 
 45 H      -11.9480    -2.4930     2.5710 H     1 <1>   0.0800 
 46 H      -12.4390    -3.8490     1.5650 H     1 <1>   0.0800 
 47 H      -12.3250    -2.2230     0.8740 H     1 <1>   0.0800 
@<TRIPOS>BOND
  1   1   2  1   
  2   2   3  ar  
  3   2   4  ar  
  4   3   5  1   
  5   3   6  ar  
  6   4   7  ar  
  7   4  25  1   
  8   6   8  ar  
  9   6  26  1   
 10   7   8  ar  
 11   7   9  1   
 12   8  27  1   
 13   9  10  1   
 14  10  11  1   
 15  10  28  1   
 16  10  29  1   
 17  11  12  2   
 18  11  13  am  
 19  13  14  1   
 20  13  15  1   
 21  14  16  1   
 22  14  30  1   
 23  14  31  1   
 24  15  17  1   
 25  15  32  1   
 26  15  33  1   
 27  16  18  1   
 28  16  19  1   
 29  16  20  1   
 30  17  19  1   
 31  17  34  1   
 32  17  35  1   
 33  18  21  1   
 34  18  22  1   
 35  18  36  1   
 36  19  37  1   
 37  19  38  1   
 38  20  23  1   
 39  20  39  1   
 40  20  40  1   
 41  21  24  1   
 42  22  23  1   
 43  22  41  1   
 44  22  42  1   
 45  23  43  1   
 46  23  44  1   
 47  24  45  1   
 48  24  46  1   
 49  24  47  1   
@<TRIPOS>SUBSTRUCTURE
  1 ****  13 GROUP 4 **** **** 0

# MOE 2024.06 (io_trps.svl 2023.06)
