@<TRIPOS>MOLECULE
NONAME
51 53 1 0 0 
SMALL
USER_CHARGES


@<TRIPOS>ATOM
  1 O       -0.9440     0.9600    -0.7050 O.2   1 <1>  -0.5700 
  2 C       -0.3930     0.6670     0.3310 C.2   1 <1>   0.5690 
  3 N        0.7850     1.2190     0.7050 N.am  1 <1>  -0.7300 
  4 C       -1.0110    -0.4120     1.2300 C.3   1 <1>   0.1710 
  5 C        1.7310     1.8270    -0.2280 C.3   1 <1>   0.3640 
  6 N       -0.5150    -1.8040     0.9960 N.3   1 <1>  -0.8100 
  7 C        2.7930     0.7680    -0.5410 C.ar  1 <1>  -0.1440 
  8 C        2.3040     3.0910     0.4070 C.3   1 <1>  -0.2400 
  9 C        0.9400    -1.9610     1.2590 C.3   1 <1>   0.2910 
 10 C       -0.8270    -2.2220    -0.3890 C.3   1 <1>   0.2910 
 11 C        2.8800     0.1570    -1.7910 C.ar  1 <1>  -0.1440 
 12 C        3.6700     0.3680     0.4620 C.ar  1 <1>  -0.1500 
 13 C        1.3260    -1.6050     2.6940 C.2   1 <1>   0.0460 
 14 C       -0.6540    -3.7240    -0.5830 C.2   1 <1>   0.0460 
 15 C        3.8370    -0.8220    -2.0090 C.ar  1 <1>  -0.1500 
 16 C        1.9420     0.5130    -2.9370 C.3   1 <1>  -0.0970 
 17 C        4.6180    -0.6150     0.2440 C.ar  1 <1>  -0.1440 
 18 N        1.6360    -0.3460     3.1000 N.2   1 <1>  -0.5650 
 19 C        1.4320    -2.4400     3.7380 C.2   1 <1>  -0.0100 
 20 N        0.4920    -4.2670    -1.0610 N.2   1 <1>  -0.5650 
 21 C       -1.5380    -4.7030    -0.3430 C.2   1 <1>  -0.0100 
 22 C        4.7010    -1.2070    -1.0010 C.ar  1 <1>  -0.1500 
 23 C        5.5450    -1.0330     1.3710 C.3   1 <1>  -0.0970 
 24 C        1.9010    -0.5080     4.3480 C.2   1 <1>   0.3280 
 25 O        1.7960    -1.7420     4.7780 O.3   1 <1>  -0.2800 
 26 C        0.2250    -5.5240    -1.0760 C.2   1 <1>   0.3280 
 27 O       -0.9780    -5.8380    -0.6560 O.3   1 <1>  -0.2800 
 28 H        1.2360     0.8320     1.5450 H     1 <1>   0.3700 
 29 H       -2.0750    -0.3960     1.0740 H     1 <1>   0.0800 
 30 H       -0.8500    -0.1410     2.2570 H     1 <1>   0.0800 
 31 H        1.2080     2.1190    -1.1220 H     1 <1>   0.0800 
 32 H        2.7400     2.8870     1.3660 H     1 <1>   0.0800 
 33 H        1.5240     3.8200     0.5230 H     1 <1>   0.0800 
 34 H        3.0610     3.5010    -0.2370 H     1 <1>   0.0800 
 35 H        1.5190    -1.3770     0.5670 H     1 <1>   0.0800 
 36 H        1.2110    -2.9900     1.1070 H     1 <1>   0.0800 
 37 H       -0.2050    -1.6960    -1.0940 H     1 <1>   0.0800 
 38 H       -1.8520    -1.9770    -0.6070 H     1 <1>   0.0800 
 39 H        3.6110     0.8130     1.4390 H     1 <1>   0.1500 
 40 H        3.9140    -1.3000    -2.9690 H     1 <1>   0.1500 
 41 H        0.9200     0.3550    -2.6410 H     1 <1>   0.0800 
 42 H        2.1350    -0.0970    -3.8000 H     1 <1>   0.0800 
 43 H        2.0730     1.5420    -3.2160 H     1 <1>   0.0800 
 44 H        1.2730    -3.4990     3.8280 H     1 <1>   0.1500 
 45 H       -2.5440    -4.6850     0.0370 H     1 <1>   0.1500 
 46 H        5.4340    -1.9710    -1.1940 H     1 <1>   0.1500 
 47 H        4.9840    -1.1600     2.2800 H     1 <1>   0.0800 
 48 H        6.2940    -0.2780     1.5240 H     1 <1>   0.0800 
 49 H        6.0320    -1.9630     1.1390 H     1 <1>   0.0800 
 50 H        2.1940     0.2570     5.0460 H     1 <1>   0.1500 
 51 H        0.8840    -6.3140    -1.3940 H     1 <1>   0.1500 
@<TRIPOS>BOND
  1   1   2  2   
  2   2   3  am  
  3   2   4  1   
  4   3   5  1   
  5   3  28  1   
  6   4   6  1   
  7   4  29  1   
  8   4  30  1   
  9   5   7  1   
 10   5   8  1   
 11   5  31  1   
 12   6   9  1   
 13   6  10  1   
 14   7  11  ar  
 15   7  12  ar  
 16   8  32  1   
 17   8  33  1   
 18   8  34  1   
 19   9  13  1   
 20   9  35  1   
 21   9  36  1   
 22  10  14  1   
 23  10  37  1   
 24  10  38  1   
 25  11  15  ar  
 26  11  16  1   
 27  12  17  ar  
 28  12  39  1   
 29  13  18  1   
 30  13  19  2   
 31  14  20  1   
 32  14  21  2   
 33  15  22  ar  
 34  15  40  1   
 35  16  41  1   
 36  16  42  1   
 37  16  43  1   
 38  17  22  ar  
 39  17  23  1   
 40  18  24  2   
 41  19  25  1   
 42  19  44  1   
 43  20  26  2   
 44  21  27  1   
 45  21  45  1   
 46  22  46  1   
 47  23  47  1   
 48  23  48  1   
 49  23  49  1   
 50  24  25  1   
 51  24  50  1   
 52  26  27  1   
 53  26  51  1   
@<TRIPOS>SUBSTRUCTURE
  1 ****   9 GROUP 4 **** **** 0

# MOE 2024.06 (io_trps.svl 2023.06)
