@<TRIPOS>MOLECULE
NONAME
37 39 1 0 0 
SMALL
USER_CHARGES


@<TRIPOS>ATOM
  1 O       -0.4960    -0.4320    -0.7190 O.3   1 <1>  -0.2800 
  2 C       -0.3150    -1.7350    -0.7170 C.2   1 <1>  -0.0100 
  3 C       -1.4260    -0.1540     0.1710 C.2   1 <1>  -0.0100 
  4 C       -1.1420    -2.3290     0.1720 C.2   1 <1>  -0.1810 
  5 C       -1.8700    -1.2830     0.7620 C.2   1 <1>  -0.1500 
  6 C       -1.2700    -3.8020     0.4870 C.3   1 <1>   0.5240 
  7 N       -2.3120    -4.3760    -0.4040 N.4   1 <1>  -0.9590 
  8 C       -3.6840    -3.8390    -0.1360 C.3   1 <1>   0.3430 
  9 C       -2.3800    -5.8700    -0.3450 C.3   1 <1>   0.3430 
 10 C       -4.6320    -5.0230    -0.3160 C.3   1 <1>   0.2000 
 11 C       -3.8060    -6.2430     0.0710 C.3   1 <1>  -0.0800 
 12 O       -5.7530    -4.9190     0.4910 O.3   1 <1>  -0.6800 
 13 C       -4.3200    -7.5430    -0.5790 C.3   1 <1>  -0.0160 
 14 C       -3.5180    -8.7640    -0.1460 C.ar  1 <1>   0.1670 
 15 N       -2.2320    -8.7700    -0.4660 N.ar  1 <1>  -0.6200 
 16 C       -4.1450    -9.8010     0.5440 C.ar  1 <1>   0.1600 
 17 C       -1.6280    -9.8810    -0.0680 C.ar  1 <1>   0.1600 
 18 N       -3.5370   -10.8990     0.9550 N.ar  1 <1>  -0.6200 
 19 C       -2.2590   -10.9090     0.6210 C.ar  1 <1>   0.1600 
 20 H        0.4260    -2.1430    -1.3860 H     1 <1>   0.1500 
 21 H       -1.7070     0.8760     0.3200 H     1 <1>   0.1500 
 22 H       -2.6180    -1.3650     1.5320 H     1 <1>   0.1500 
 23 H       -1.5320    -3.9420     1.5230 H     1 <1>   0.0800 
 24 H       -0.3240    -4.2860     0.3030 H     1 <1>   0.0800 
 25 H       -2.0520    -4.0990    -1.3610 H     1 <1>   0.4500 
 26 H       -3.7480    -3.4870     0.8800 H     1 <1>   0.0800 
 27 H       -3.9290    -3.0360    -0.8120 H     1 <1>   0.0800 
 28 H       -2.1720    -6.2820    -1.3200 H     1 <1>   0.0800 
 29 H       -1.6670    -6.2800     0.3530 H     1 <1>   0.0800 
 30 H       -4.9600    -5.0720    -1.3410 H     1 <1>   0.0800 
 31 H       -3.8080    -6.3600     1.1410 H     1 <1>   0.0800 
 32 H       -5.5680    -5.0980     1.4360 H     1 <1>   0.4000 
 33 H       -4.2710    -7.4670    -1.6510 H     1 <1>   0.0800 
 34 H       -5.3550    -7.6810    -0.3170 H     1 <1>   0.0800 
 35 H       -5.1950    -9.7250     0.7670 H     1 <1>   0.1500 
 36 H       -0.5820    -9.9870    -0.2960 H     1 <1>   0.1500 
 37 H       -1.6830   -11.7730     0.9060 H     1 <1>   0.1500 
@<TRIPOS>BOND
  1   1   2  1   
  2   1   3  1   
  3   2   4  2   
  4   2  20  1   
  5   3   5  2   
  6   3  21  1   
  7   4   5  1   
  8   4   6  1   
  9   5  22  1   
 10   6   7  1   
 11   6  23  1   
 12   6  24  1   
 13   7   8  1   
 14   7   9  1   
 15   7  25  1   
 16   8  10  1   
 17   8  26  1   
 18   8  27  1   
 19   9  11  1   
 20   9  28  1   
 21   9  29  1   
 22  10  11  1   
 23  10  12  1   
 24  10  30  1   
 25  11  13  1   
 26  11  31  1   
 27  12  32  1   
 28  13  14  1   
 29  13  33  1   
 30  13  34  1   
 31  14  15  ar  
 32  14  16  ar  
 33  15  17  ar  
 34  16  18  ar  
 35  16  35  1   
 36  17  19  ar  
 37  17  36  1   
 38  18  19  ar  
 39  19  37  1   
@<TRIPOS>SUBSTRUCTURE
  1 ****   9 GROUP 4 **** **** 0

# MOE 2024.06 (io_trps.svl 2023.06)
