@<TRIPOS>MOLECULE
Untitled Document
56 59 1 0 0 
SMALL
USER_CHARGES


@<TRIPOS>ATOM
  1 O       -4.6540     5.2880    -0.5740 O.2   1 <1>  -0.5700 
  2 C       -4.4610     4.1280    -0.2840 C.2   1 <1>   0.5690 
  3 N       -5.3160     3.3480     0.4290 N.am  1 <1>  -0.4690 
  4 C       -3.2460     3.3120    -0.7050 C.3   1 <1>  -0.0190 
  5 C       -4.7970     2.0680     0.6050 C.2   1 <1>  -0.0290 
  6 C       -6.3030     3.9190     1.3620 C.3   1 <1>   0.2840 
  7 C       -3.3050     2.1380     0.3080 C.3   1 <1>   0.0320 
  8 C       -1.8960     4.0630    -0.7410 C.3   1 <1>  -0.0990 
  9 C       -5.4540     0.9390     0.9020 C.2   1 <1>  -0.2880 
 10 C       -7.7220     3.6780     0.8620 C.ar  1 <1>  -0.1440 
 11 C       -2.5250     2.5090     1.5970 C.2   1 <1>   0.9060 
 12 C       -2.8750     0.7720    -0.2850 C.3   1 <1>  -0.1600 
 13 C       -1.8220     5.0830    -1.8620 C.2   1 <1>   0.5690 
 14 C       -4.7890    -0.4290     0.9430 C.3   1 <1>  -0.0220 
 15 C       -8.1430     4.2400    -0.3330 C.ar  1 <1>  -0.1500 
 16 C       -8.6100     2.9040     1.5920 C.ar  1 <1>  -0.1500 
 17 O       -3.0080     3.3020     2.4190 O.co2 1 <1>  -0.9000 
 18 O       -1.3730     2.0750     1.7500 O.co2 1 <1>  -0.9000 
 19 C       -3.2720    -0.3720     0.6710 C.3   1 <1>  -0.1600 
 20 O       -1.7140     4.6850    -2.9960 O.2   1 <1>  -0.5700 
 21 N       -1.8380     6.4190    -1.6300 N.am  1 <1>  -0.7300 
 22 C       -9.4320     4.0310    -0.7890 C.ar  1 <1>  -0.1500 
 23 C       -9.8980     2.6980     1.1330 C.ar  1 <1>  -0.1500 
 24 C       -2.1530     7.1450    -0.3720 C.3   1 <1>   0.0600 
 25 C      -10.3340     3.2570    -0.0650 C.ar  1 <1>   0.0000 
 26 C      -11.6810     3.0390    -0.5420 C.ar  1 <1>   0.0000 
 27 C      -12.5450     4.1080    -0.7620 C.ar  1 <1>  -0.1500 
 28 C      -12.1520     1.7540    -0.7930 C.ar  1 <1>  -0.1500 
 29 C      -13.8350     3.9020    -1.2170 C.ar  1 <1>  -0.1500 
 30 C      -13.4410     1.5410    -1.2470 C.ar  1 <1>  -0.1500 
 31 C      -14.2860     2.6160    -1.4600 C.ar  1 <1>  -0.1500 
 32 H       -3.4570     2.9360    -1.6890 H     1 <1>   0.0800 
 33 H       -6.1570     3.4700     2.3290 H     1 <1>   0.0800 
 34 H       -6.1310     4.9760     1.4640 H     1 <1>   0.0800 
 35 H       -1.1110     3.3480    -0.9030 H     1 <1>   0.0800 
 36 H       -1.6950     4.5330     0.2020 H     1 <1>   0.0800 
 37 H       -6.5110     0.9180     1.0950 H     1 <1>   0.1500 
 38 H       -3.3550     0.6180    -1.2350 H     1 <1>   0.0800 
 39 H       -1.8100     0.7650    -0.4400 H     1 <1>   0.0800 
 40 H       -4.9630    -0.8880     1.9000 H     1 <1>   0.0800 
 41 H       -5.2520    -1.0430     0.1910 H     1 <1>   0.0800 
 42 H       -7.4570     4.8380    -0.9100 H     1 <1>   0.1500 
 43 H       -8.2960     2.4590     2.5200 H     1 <1>   0.1500 
 44 H       -2.9410    -1.3130     0.2710 H     1 <1>   0.0800 
 45 H       -2.7600    -0.2260     1.6080 H     1 <1>   0.0800 
 46 H       -1.7870     6.9920    -2.4730 H     1 <1>   0.3700 
 47 H       -9.7440     4.4680    -1.7200 H     1 <1>   0.1500 
 48 H      -10.5800     2.0990     1.7090 H     1 <1>   0.1500 
 49 H       -2.5480     6.4790     0.3760 H     1 <1>   0.0800 
 50 H       -2.8970     7.8970    -0.5700 H     1 <1>   0.0800 
 51 H       -1.2640     7.6130     0.0120 H     1 <1>   0.0800 
 52 H      -12.1990     5.1080    -0.5710 H     1 <1>   0.1500 
 53 H      -11.4960     0.9170    -0.6330 H     1 <1>   0.1500 
 54 H      -14.4890     4.7400    -1.3800 H     1 <1>   0.1500 
 55 H      -13.7870     0.5400    -1.4360 H     1 <1>   0.1500 
 56 H      -15.2890     2.4530    -1.8130 H     1 <1>   0.1500 
@<TRIPOS>BOND
  1   1   2  2   
  2   2   3  am  
  3   2   4  1   
  4   3   5  1   
  5   3   6  1   
  6   4   7  1   
  7   4   8  1   
  8   4  32  1   
  9   5   7  1   
 10   5   9  2   
 11   6  10  1   
 12   6  33  1   
 13   6  34  1   
 14   7  11  1   
 15   7  12  1   
 16   8  13  1   
 17   8  35  1   
 18   8  36  1   
 19   9  14  1   
 20   9  37  1   
 21  10  15  ar  
 22  10  16  ar  
 23  11  17  ar  
 24  11  18  ar  
 25  12  19  1   
 26  12  38  1   
 27  12  39  1   
 28  13  20  2   
 29  13  21  am  
 30  14  19  1   
 31  14  40  1   
 32  14  41  1   
 33  15  22  ar  
 34  15  42  1   
 35  16  23  ar  
 36  16  43  1   
 37  19  44  1   
 38  19  45  1   
 39  21  24  1   
 40  21  46  1   
 41  22  25  ar  
 42  22  47  1   
 43  23  25  ar  
 44  23  48  1   
 45  24  49  1   
 46  24  50  1   
 47  24  51  1   
 48  25  26  1   
 49  26  27  ar  
 50  26  28  ar  
 51  27  29  ar  
 52  27  52  1   
 53  28  30  ar  
 54  28  53  1   
 55  29  31  ar  
 56  29  54  1   
 57  30  31  ar  
 58  30  55  1   
 59  31  56  1   
@<TRIPOS>SUBSTRUCTURE
  1 ****   3 GROUP 4 **** **** 0

# MOE 2024.06 (io_trps.svl 2023.06)
