@<TRIPOS>MOLECULE
NONAME
42 43 1 0 0 
SMALL
USER_CHARGES


@<TRIPOS>ATOM
  1 F        0.0670    -0.7450    -0.4970 F     1 <1>  -0.1900 
  2 C       -0.5530    -1.8730    -0.2520 C.ar  1 <1>   0.1900 
  3 C        0.0750    -2.9370     0.4050 C.ar  1 <1>   0.0820 
  4 C       -1.8620    -1.9600    -0.6830 C.ar  1 <1>  -0.1500 
  5 O        1.3560    -2.9700     0.8750 O.3   1 <1>  -0.3630 
  6 C       -0.6650    -4.0900     0.6090 C.ar  1 <1>  -0.1500 
  7 C       -2.5690    -3.1280    -0.4630 C.ar  1 <1>  -0.1500 
  8 C        2.2130    -1.8510     0.8480 C.3   1 <1>   0.0400 
  9 C       -1.9910    -4.2180     0.1880 C.ar  1 <1>   0.0530 
 10 C       -2.7150    -5.4490     0.4090 C.2   1 <1>   0.0870 
 11 O       -2.0580    -6.5860     0.3640 O.3   1 <1>  -0.0190 
 12 C       -4.0170    -5.7580     0.6530 C.2   1 <1>  -0.2330 
 13 N       -2.8240    -7.6280     0.5500 N.2   1 <1>  -0.4100 
 14 C       -4.0030    -7.1490     0.7310 C.2   1 <1>   0.3720 
 15 C       -5.1960    -4.9590     0.8120 C.2   1 <1>   1.0330 
 16 N       -5.1270    -7.9240     0.9630 N.pl3 1 <1>  -0.8520 
 17 O       -5.1240    -3.7370     1.0170 O.co2 1 <1>  -0.9000 
 18 O       -6.3280    -5.4770     0.7300 O.co2 1 <1>  -0.9000 
 19 C       -5.3800    -8.9700    -0.0570 C.3   1 <1>   0.2090 
 20 C       -6.7920    -9.5670     0.0950 C.3   1 <1>   0.2000 
 21 O       -6.9120   -10.6880    -0.7380 O.3   1 <1>  -0.5600 
 22 C       -7.8950    -8.5670    -0.2920 C.3   1 <1>  -0.1600 
 23 C       -6.5050   -11.8910    -0.1670 C.3   1 <1>   0.0400 
 24 C       -9.3110    -9.1460    -0.1510 C.3   1 <1>  -0.2400 
 25 H       -2.3270    -1.1280    -1.1800 H     1 <1>   0.1500 
 26 H       -0.1970    -4.9150     1.1150 H     1 <1>   0.1500 
 27 H       -3.5900    -3.1960    -0.7970 H     1 <1>   0.1500 
 28 H        3.1350    -2.1240     1.3290 H     1 <1>   0.0800 
 29 H        1.7490    -1.0410     1.3820 H     1 <1>   0.0800 
 30 H        2.4040    -1.5800    -0.1760 H     1 <1>   0.0800 
 31 H       -5.9220    -7.2460     0.9720 H     1 <1>   0.4000 
 32 H       -4.6420    -9.7420     0.0660 H     1 <1>   0.0800 
 33 H       -5.2740    -8.5440    -1.0400 H     1 <1>   0.0800 
 34 H       -6.9380    -9.8770     1.1160 H     1 <1>   0.0800 
 35 H       -7.7350    -8.2360    -1.3030 H     1 <1>   0.0800 
 36 H       -7.8190    -7.6990     0.3410 H     1 <1>   0.0800 
 37 H       -6.6280   -12.6670    -0.9000 H     1 <1>   0.0800 
 38 H       -7.1210   -12.1000     0.6900 H     1 <1>   0.0800 
 39 H       -5.4700   -11.8240     0.1190 H     1 <1>   0.0800 
 40 H       -9.4410    -9.9830    -0.8150 H     1 <1>   0.0800 
 41 H      -10.0380    -8.3940    -0.3990 H     1 <1>   0.0800 
 42 H       -9.4810    -9.4720     0.8590 H     1 <1>   0.0800 
@<TRIPOS>BOND
  1   1   2  1   
  2   2   3  ar  
  3   2   4  ar  
  4   3   5  1   
  5   3   6  ar  
  6   4   7  ar  
  7   4  25  1   
  8   5   8  1   
  9   6   9  ar  
 10   6  26  1   
 11   7   9  ar  
 12   7  27  1   
 13   8  28  1   
 14   8  29  1   
 15   8  30  1   
 16   9  10  1   
 17  10  11  1   
 18  10  12  2   
 19  11  13  1   
 20  12  14  1   
 21  12  15  1   
 22  13  14  2   
 23  14  16  1   
 24  15  17  ar  
 25  15  18  ar  
 26  16  19  1   
 27  16  31  1   
 28  19  20  1   
 29  19  32  1   
 30  19  33  1   
 31  20  21  1   
 32  20  22  1   
 33  20  34  1   
 34  21  23  1   
 35  22  24  1   
 36  22  35  1   
 37  22  36  1   
 38  23  37  1   
 39  23  38  1   
 40  23  39  1   
 41  24  40  1   
 42  24  41  1   
 43  24  42  1   
@<TRIPOS>SUBSTRUCTURE
  1 ****  12 GROUP 4 **** **** 0

# MOE 2024.06 (io_trps.svl 2023.06)
