@<TRIPOS>MOLECULE
NONAME
46 48 1 0 0 
SMALL
USER_CHARGES


@<TRIPOS>ATOM
  1 O        1.2370    -0.5030    -1.6500 O.3   1 <1>  -0.0190 
  2 N        0.0290    -0.9020    -1.3810 N.2   1 <1>  -0.4100 
  3 C        2.0440    -0.6800    -0.6380 C.2   1 <1>  -0.0400 
  4 C        0.0560    -1.3430    -0.1730 C.2   1 <1>   0.1080 
  5 C        1.3360    -1.2260     0.3630 C.2   1 <1>  -0.1500 
  6 C        3.4980    -0.2770    -0.7610 C.3   1 <1>   0.3890 
  7 C       -1.1480    -1.9110     0.5550 C.3   1 <1>   0.0210 
  8 N        3.5840     1.1940    -0.8870 N.pl3 1 <1>  -0.8690 
  9 C       -1.0840    -3.4400     0.6310 C.3   1 <1>  -0.2400 
 10 C        4.5660     2.0480    -0.5690 C.ar  1 <1>   0.4100 
 11 N        4.2660     3.3150    -0.7250 N.ar  1 <1>  -0.6200 
 12 C        5.8260     1.6280    -0.1070 C.ar  1 <1>  -0.1500 
 13 C        5.1880     4.2230    -0.4310 C.ar  1 <1>   0.7710 
 14 C        6.7560     2.5670     0.1950 C.ar  1 <1>   0.2180 
 15 N        6.4020     3.8630     0.0240 N.ar  1 <1>  -0.1790 
 16 N        4.9060     5.5460    -0.5810 N.pl3 1 <1>  -0.8380 
 17 C        8.1490     2.2430     0.7060 C.3   1 <1>  -0.0970 
 18 C        5.8490     6.6980    -0.4350 C.3   1 <1>   0.2090 
 19 C        3.5190     6.0230    -0.9070 C.3   1 <1>   0.2090 
 20 C        5.3950     7.5720     0.7380 C.3   1 <1>  -0.1600 
 21 C        3.0090     6.8980     0.2430 C.3   1 <1>  -0.1600 
 22 C        3.9560     8.0700     0.5360 C.3   1 <1>  -0.1600 
 23 H        1.6390    -1.5170     1.3520 H     1 <1>   0.1500 
 24 H        3.9230    -0.7400    -1.6350 H     1 <1>   0.0800 
 25 H        4.0360    -0.6060     0.1100 H     1 <1>   0.0800 
 26 H       -2.0420    -1.6150     0.0350 H     1 <1>   0.0800 
 27 H       -1.1890    -1.4970     1.5470 H     1 <1>   0.0800 
 28 H        2.7120     1.6070    -1.2400 H     1 <1>   0.4000 
 29 H       -1.0480    -3.8540    -0.3620 H     1 <1>   0.0800 
 30 H       -1.9540    -3.8230     1.1340 H     1 <1>   0.0800 
 31 H       -0.2060    -3.7520     1.1670 H     1 <1>   0.0800 
 32 H        6.0240     0.5790    -0.0050 H     1 <1>   0.1500 
 33 H        7.0230     4.6280     0.2480 H     1 <1>   0.4570 
 34 H        8.2820     1.1790     0.7900 H     1 <1>   0.0800 
 35 H        8.3030     2.6770     1.6790 H     1 <1>   0.0800 
 36 H        8.8960     2.6220     0.0300 H     1 <1>   0.0800 
 37 H        5.8310     7.2830    -1.3410 H     1 <1>   0.0800 
 38 H        6.8630     6.3780    -0.2790 H     1 <1>   0.0800 
 39 H        2.8310     5.2090    -1.0590 H     1 <1>   0.0800 
 40 H        3.5450     6.5970    -1.8180 H     1 <1>   0.0800 
 41 H        6.0530     8.4190     0.8300 H     1 <1>   0.0800 
 42 H        5.4570     7.0080     1.6520 H     1 <1>   0.0800 
 43 H        2.9010     6.2860     1.1220 H     1 <1>   0.0800 
 44 H        2.0350     7.2780    -0.0090 H     1 <1>   0.0800 
 45 H        3.9310     8.7610    -0.2900 H     1 <1>   0.0800 
 46 H        3.6240     8.5970     1.4150 H     1 <1>   0.0800 
@<TRIPOS>BOND
  1   1   2  1   
  2   1   3  1   
  3   2   4  2   
  4   3   5  2   
  5   3   6  1   
  6   4   5  1   
  7   4   7  1   
  8   5  23  1   
  9   6   8  1   
 10   6  24  1   
 11   6  25  1   
 12   7   9  1   
 13   7  26  1   
 14   7  27  1   
 15   8  10  1   
 16   8  28  1   
 17   9  29  1   
 18   9  30  1   
 19   9  31  1   
 20  10  11  ar  
 21  10  12  ar  
 22  11  13  ar  
 23  12  14  ar  
 24  12  32  1   
 25  13  15  ar  
 26  13  16  1   
 27  14  15  ar  
 28  14  17  1   
 29  15  33  1   
 30  16  18  1   
 31  16  19  1   
 32  17  34  1   
 33  17  35  1   
 34  17  36  1   
 35  18  20  1   
 36  18  37  1   
 37  18  38  1   
 38  19  21  1   
 39  19  39  1   
 40  19  40  1   
 41  20  22  1   
 42  20  41  1   
 43  20  42  1   
 44  21  22  1   
 45  21  43  1   
 46  21  44  1   
 47  22  45  1   
 48  22  46  1   
@<TRIPOS>SUBSTRUCTURE
  1 ****  10 GROUP 4 **** **** 0

# MOE 2024.06 (io_trps.svl 2023.06)
