@<TRIPOS>MOLECULE
NONAME
49 51 1 0 0 
SMALL
USER_CHARGES


@<TRIPOS>ATOM
  1 O       -0.0540    -0.7030     0.1620 O.3   1 <1>  -0.3630 
  2 C        1.1220    -1.2630    -0.2270 C.ar  1 <1>   0.0830 
  3 C       -0.1990    -0.4090     1.5350 C.3   1 <1>   0.0400 
  4 C        1.4750    -2.5990     0.1110 C.ar  1 <1>   0.3100 
  5 C        1.9450    -0.4760    -0.9820 C.ar  1 <1>  -0.1500 
  6 N        0.5790    -3.3380     0.8210 N.ar  1 <1>  -0.6200 
  7 C        2.7390    -3.1040    -0.3140 C.ar  1 <1>   0.0000 
  8 C        3.1700    -0.9640    -1.4150 C.ar  1 <1>  -0.1500 
  9 C        0.9020    -4.5460     1.1410 C.ar  1 <1>   0.4100 
 10 C        3.5720    -2.2430    -1.0930 C.ar  1 <1>   0.0830 
 11 C        3.0560    -4.4370     0.0810 C.ar  1 <1>  -0.1440 
 12 N       -0.0550    -5.2210     1.8380 N.pl3 1 <1>  -0.8690 
 13 C        2.1310    -5.1270     0.8010 C.ar  1 <1>  -0.1500 
 14 O        4.7780    -2.7080    -1.5170 O.3   1 <1>  -0.3630 
 15 C        4.3650    -5.1490    -0.2460 C.3   1 <1>  -0.0970 
 16 C       -0.3940    -6.6390     1.6020 C.3   1 <1>   0.2890 
 17 C        5.6750    -1.9450    -2.2950 C.3   1 <1>   0.0400 
 18 C       -0.8860    -6.8370     0.1600 C.3   1 <1>   0.0210 
 19 C       -1.4500    -7.0150     2.6400 C.3   1 <1>  -0.2400 
 20 C       -1.2570    -8.2830    -0.1110 C.2   1 <1>   0.1080 
 21 N       -0.4290    -9.2690     0.0490 N.2   1 <1>  -0.7070 
 22 C       -2.5050    -8.7120    -0.5510 C.2   1 <1>  -0.1500 
 23 N       -1.1340   -10.3640    -0.2910 N.pl3 1 <1>   0.3000 
 24 C       -2.3950   -10.0530    -0.6570 C.2   1 <1>  -0.3320 
 25 C       -3.4320   -11.0720    -1.0930 C.3   1 <1>  -0.0600 
 26 H       -1.0920     0.1750     1.6590 H     1 <1>   0.0800 
 27 H        0.6580     0.1490     1.8660 H     1 <1>   0.0800 
 28 H       -0.2860    -1.3260     2.0880 H     1 <1>   0.0800 
 29 H        1.6440     0.5240    -1.2400 H     1 <1>   0.1500 
 30 H        3.7760    -0.3020    -2.0030 H     1 <1>   0.1500 
 31 H       -0.8770    -4.6300     1.9690 H     1 <1>   0.4000 
 32 H        2.3120    -6.1300     1.1330 H     1 <1>   0.1500 
 33 H        5.1950    -4.5970     0.1580 H     1 <1>   0.0800 
 34 H        4.4800    -5.2370    -1.3110 H     1 <1>   0.0800 
 35 H        4.3880    -6.1380     0.1730 H     1 <1>   0.0800 
 36 H        0.4800    -7.2490     1.7620 H     1 <1>   0.0800 
 37 H        6.5430    -2.5480    -2.4900 H     1 <1>   0.0800 
 38 H        5.9590    -1.0670    -1.7410 H     1 <1>   0.0800 
 39 H        5.1990    -1.6820    -3.2230 H     1 <1>   0.0800 
 40 H       -0.1050    -6.5640    -0.5250 H     1 <1>   0.0800 
 41 H       -1.7350    -6.2070    -0.0230 H     1 <1>   0.0800 
 42 H       -2.3530    -6.4540     2.4850 H     1 <1>   0.0800 
 43 H       -1.0730    -6.8230     3.6290 H     1 <1>   0.0800 
 44 H       -1.6790    -8.0630     2.5690 H     1 <1>   0.0800 
 45 H       -3.3550    -8.0860    -0.7560 H     1 <1>   0.1500 
 46 H       -0.7260   -11.3060    -0.2640 H     1 <1>   0.2700 
 47 H       -4.3570   -10.5780    -1.3340 H     1 <1>   0.0800 
 48 H       -3.6170   -11.7770    -0.3020 H     1 <1>   0.0800 
 49 H       -3.0900   -11.6020    -1.9640 H     1 <1>   0.0800 
@<TRIPOS>BOND
  1   1   2  1   
  2   1   3  1   
  3   2   4  ar  
  4   2   5  ar  
  5   3  26  1   
  6   3  27  1   
  7   3  28  1   
  8   4   6  ar  
  9   4   7  ar  
 10   5   8  ar  
 11   5  29  1   
 12   6   9  ar  
 13   7  10  ar  
 14   7  11  ar  
 15   8  10  ar  
 16   8  30  1   
 17   9  12  1   
 18   9  13  ar  
 19  10  14  1   
 20  11  13  ar  
 21  11  15  1   
 22  12  16  1   
 23  12  31  1   
 24  13  32  1   
 25  14  17  1   
 26  15  33  1   
 27  15  34  1   
 28  15  35  1   
 29  16  18  1   
 30  16  19  1   
 31  16  36  1   
 32  17  37  1   
 33  17  38  1   
 34  17  39  1   
 35  18  20  1   
 36  18  40  1   
 37  18  41  1   
 38  19  42  1   
 39  19  43  1   
 40  19  44  1   
 41  20  21  2   
 42  20  22  1   
 43  21  23  1   
 44  22  24  2   
 45  22  45  1   
 46  23  24  1   
 47  23  46  1   
 48  24  25  1   
 49  25  47  1   
 50  25  48  1   
 51  25  49  1   
@<TRIPOS>SUBSTRUCTURE
  1 ****   9 GROUP 4 **** **** 0

# MOE 2024.06 (io_trps.svl 2023.06)
