@<TRIPOS>MOLECULE
NONAME
39 41 1 0 0 
SMALL
USER_CHARGES


@<TRIPOS>ATOM
  1 O       -0.0400    -0.2250     1.7680 O.3   1 <1>  -0.5600 
  2 C        1.0410     0.4230     1.1650 C.3   1 <1>   0.1200 
  3 C       -1.2040     0.0420     1.0590 C.3   1 <1>   0.1200 
  4 C        0.4690     1.5790     0.3390 C.3   1 <1>   0.2890 
  5 C       -1.0360     1.4660     0.5450 C.3   1 <1>  -0.0800 
  6 N        0.9530     2.8930     0.8120 N.pl3 1 <1>  -0.8690 
  7 C       -1.8470     1.7750    -0.7230 C.3   1 <1>  -0.0170 
  8 C        0.9080     4.0170     0.0660 C.ar  1 <1>   0.7200 
  9 C       -3.3360     1.5920    -0.4780 C.ar  1 <1>  -0.1440 
 10 N        0.7850     5.1220     0.7730 N.ar  1 <1>  -0.6200 
 11 N        0.9730     3.8960    -1.2540 N.ar  1 <1>  -0.6200 
 12 C       -4.0670     2.5190     0.2370 C.ar  1 <1>  -0.1500 
 13 C       -4.0320     0.4970    -0.9500 C.ar  1 <1>  -0.1500 
 14 C        0.7450     6.2330     0.0800 C.ar  1 <1>   0.3930 
 15 C        0.9340     5.0230    -1.9240 C.ar  1 <1>   0.1600 
 16 C       -5.4200     2.3110     0.4430 C.ar  1 <1>   0.1600 
 17 C       -5.3880     0.3850    -0.6880 C.ar  1 <1>   0.1600 
 18 O        0.6260     7.3570     0.8110 O.3   1 <1>  -0.3630 
 19 C        0.8210     6.2380    -1.3000 C.ar  1 <1>  -0.1500 
 20 N       -6.0990     1.2650    -0.0010 N.ar  1 <1>  -0.6200 
 21 C        0.6580     8.6490     0.2470 C.3   1 <1>   0.0400 
 22 H        1.7110     0.7640     1.9340 H     1 <1>   0.0800 
 23 H        1.5390    -0.2860     0.5290 H     1 <1>   0.0800 
 24 H       -1.2710    -0.6660     0.2510 H     1 <1>   0.0800 
 25 H       -2.0530    -0.0620     1.7130 H     1 <1>   0.0800 
 26 H        0.7400     1.4300    -0.6920 H     1 <1>   0.0800 
 27 H       -1.3440     2.1290     1.3350 H     1 <1>   0.0800 
 28 H        0.7820     3.0890     1.7980 H     1 <1>   0.4000 
 29 H       -1.5270     1.1380    -1.5290 H     1 <1>   0.0800 
 30 H       -1.6630     2.7920    -1.0230 H     1 <1>   0.0800 
 31 H       -3.5960     3.3990     0.6350 H     1 <1>   0.1500 
 32 H       -3.5370    -0.2680    -1.5180 H     1 <1>   0.1500 
 33 H        0.9940     4.9720    -2.9980 H     1 <1>   0.1500 
 34 H       -5.9740     3.0450     1.0040 H     1 <1>   0.1500 
 35 H       -5.9160    -0.4750    -1.0630 H     1 <1>   0.1500 
 36 H        0.7910     7.1410    -1.8760 H     1 <1>   0.1500 
 37 H        0.5790     9.3630     1.0470 H     1 <1>   0.0800 
 38 H       -0.1750     8.7610    -0.4240 H     1 <1>   0.0800 
 39 H        1.5930     8.7840    -0.2690 H     1 <1>   0.0800 
@<TRIPOS>BOND
  1   1   2  1   
  2   1   3  1   
  3   2   4  1   
  4   2  22  1   
  5   2  23  1   
  6   3   5  1   
  7   3  24  1   
  8   3  25  1   
  9   4   5  1   
 10   4   6  1   
 11   4  26  1   
 12   5   7  1   
 13   5  27  1   
 14   6   8  1   
 15   6  28  1   
 16   7   9  1   
 17   7  29  1   
 18   7  30  1   
 19   8  10  ar  
 20   8  11  ar  
 21   9  12  ar  
 22   9  13  ar  
 23  10  14  ar  
 24  11  15  ar  
 25  12  16  ar  
 26  12  31  1   
 27  13  17  ar  
 28  13  32  1   
 29  14  18  1   
 30  14  19  ar  
 31  15  19  ar  
 32  15  33  1   
 33  16  20  ar  
 34  16  34  1   
 35  17  20  ar  
 36  17  35  1   
 37  18  21  1   
 38  19  36  1   
 39  21  37  1   
 40  21  38  1   
 41  21  39  1   
@<TRIPOS>SUBSTRUCTURE
  1 ****   5 GROUP 4 **** **** 0

# MOE 2024.06 (io_trps.svl 2023.06)
