@<TRIPOS>MOLECULE
NONAME
45 46 1 0 0 
SMALL
USER_CHARGES


@<TRIPOS>ATOM
  1 O       -1.9640     0.3040     2.3540 O.2   1 <1>  -0.5700 
  2 C       -2.2060     0.6720     1.2300 C.2   1 <1>   0.5690 
  3 N       -2.4750    -0.2120     0.2190 N.am  1 <1>  -0.6600 
  4 C       -2.1930     2.1750     0.9780 C.3   1 <1>  -0.0990 
  5 C       -2.4500    -1.6930     0.4860 C.3   1 <1>   0.3640 
  6 C       -2.8460     0.1950    -1.1730 C.3   1 <1>   0.1400 
  7 C       -0.8390     2.6730     0.4470 C.3   1 <1>  -0.2400 
  8 C       -1.1010    -2.3270     0.1000 C.ar  1 <1>  -0.1430 
  9 C       -3.6450    -2.4150    -0.2180 C.3   1 <1>   0.2000 
 10 C       -3.1430    -1.0110    -2.0770 C.3   1 <1>   0.1200 
 11 C       -0.8890    -3.6630     0.4240 C.ar  1 <1>  -0.1500 
 12 C       -0.0760    -1.6360    -0.5410 C.ar  1 <1>  -0.1500 
 13 O       -4.0590    -1.8480    -1.4440 O.3   1 <1>  -0.5600 
 14 C       -4.8820    -2.4470     0.6870 C.3   1 <1>   0.1200 
 15 C        0.2910    -4.3080     0.0950 C.ar  1 <1>   0.0830 
 16 C        1.1170    -2.2640    -0.8570 C.ar  1 <1>  -0.1500 
 17 O       -4.6890    -3.3420     1.7350 O.3   1 <1>  -0.6800 
 18 O        0.3860    -5.6250     0.4040 O.3   1 <1>  -0.3630 
 19 C        1.3160    -3.5940    -0.5330 C.ar  1 <1>   0.0830 
 20 C        0.5370    -6.5210    -0.6760 C.3   1 <1>   0.0400 
 21 O        2.5190    -4.1400    -0.8350 O.3   1 <1>  -0.3630 
 22 C        3.3350    -4.4780     0.2640 C.3   1 <1>   0.0400 
 23 H       -2.9810     2.4460     0.3020 H     1 <1>   0.0800 
 24 H       -2.3980     2.6670     1.9120 H     1 <1>   0.0800 
 25 H       -2.5570    -1.8580     1.5450 H     1 <1>   0.0800 
 26 H       -3.7250     0.8140    -1.1370 H     1 <1>   0.0800 
 27 H       -2.0470     0.7700    -1.6070 H     1 <1>   0.0800 
 28 H       -0.6030     2.2120    -0.4950 H     1 <1>   0.0800 
 29 H       -0.0610     2.4320     1.1500 H     1 <1>   0.0800 
 30 H       -0.8640     3.7400     0.3140 H     1 <1>   0.0800 
 31 H       -3.3720    -3.4300    -0.4400 H     1 <1>   0.0800 
 32 H       -2.2520    -1.5710    -2.3000 H     1 <1>   0.0800 
 33 H       -3.5820    -0.6820    -3.0030 H     1 <1>   0.0800 
 34 H       -1.6440    -4.2270     0.9410 H     1 <1>   0.1500 
 35 H       -0.1820    -0.5980    -0.7920 H     1 <1>   0.1500 
 36 H       -5.7500    -2.7620     0.1350 H     1 <1>   0.0800 
 37 H       -5.0570    -1.4720     1.1100 H     1 <1>   0.0800 
 38 H        1.9040    -1.7220    -1.3480 H     1 <1>   0.1500 
 39 H       -4.8080    -4.2640     1.4330 H     1 <1>   0.4000 
 40 H        0.4360    -7.5220    -0.2990 H     1 <1>   0.0800 
 41 H        1.5090    -6.3920    -1.1150 H     1 <1>   0.0800 
 42 H       -0.2310    -6.3200    -1.4030 H     1 <1>   0.0800 
 43 H        4.2800    -4.8260    -0.1120 H     1 <1>   0.0800 
 44 H        2.8590    -5.2540     0.8360 H     1 <1>   0.0800 
 45 H        3.4790    -3.6020     0.8720 H     1 <1>   0.0800 
@<TRIPOS>BOND
  1   1   2  2   
  2   2   3  am  
  3   2   4  1   
  4   3   5  1   
  5   3   6  1   
  6   4   7  1   
  7   4  23  1   
  8   4  24  1   
  9   5   8  1   
 10   5   9  1   
 11   5  25  1   
 12   6  10  1   
 13   6  26  1   
 14   6  27  1   
 15   7  28  1   
 16   7  29  1   
 17   7  30  1   
 18   8  11  ar  
 19   8  12  ar  
 20   9  13  1   
 21   9  14  1   
 22   9  31  1   
 23  10  13  1   
 24  10  32  1   
 25  10  33  1   
 26  11  15  ar  
 27  11  34  1   
 28  12  16  ar  
 29  12  35  1   
 30  14  17  1   
 31  14  36  1   
 32  14  37  1   
 33  15  18  1   
 34  15  19  ar  
 35  16  19  ar  
 36  16  38  1   
 37  17  39  1   
 38  18  20  1   
 39  19  21  1   
 40  20  40  1   
 41  20  41  1   
 42  20  42  1   
 43  21  22  1   
 44  22  43  1   
 45  22  44  1   
 46  22  45  1   
@<TRIPOS>SUBSTRUCTURE
  1 ****   8 GROUP 4 **** **** 0

# MOE 2024.06 (io_trps.svl 2023.06)
