@<TRIPOS>MOLECULE
NONAME
54 58 1 0 0 
SMALL
USER_CHARGES


@<TRIPOS>ATOM
  1 O        0.6080     1.0060     0.1010 O.2   1 <1>  -0.5700 
  2 C       -0.1580     1.9420    -0.0370 C.2   1 <1>   0.7160 
  3 N       -1.4590     1.8110     0.4080 N.am  1 <1>  -0.6600 
  4 C        0.3060     3.1480    -0.6810 C.2   1 <1>  -0.0860 
  5 C       -2.5680     2.7170    -0.0300 C.3   1 <1>   0.1400 
  6 C       -1.9190     0.5860     1.1250 C.3   1 <1>   0.1400 
  7 C        0.9000     3.2290    -1.9440 C.2   1 <1>   0.1080 
  8 C        0.2960     4.4470    -0.2660 C.2   1 <1>  -0.3020 
  9 C       -3.4540     3.1370     1.1590 C.3   1 <1>   0.1440 
 10 C       -2.8100     0.9640     2.3150 C.3   1 <1>  -0.1600 
 11 N        1.2070     4.4400    -2.2810 N.2   1 <1>  -0.7070 
 12 C        1.1690     2.0470    -2.8510 C.3   1 <1>  -0.0590 
 13 N        0.8390     5.1930    -1.2380 N.pl3 1 <1>   0.3140 
 14 C       -4.5800     4.0060     0.6300 C.ar  1 <1>   0.1660 
 15 C       -3.9710     1.8800     1.8920 C.3   1 <1>  -0.1600 
 16 C       -2.7150     4.1040     2.1210 C.3   1 <1>  -0.1600 
 17 C        1.0530     6.6440    -1.2400 C.3   1 <1>   0.0160 
 18 N       -5.6100     3.5780    -0.0590 N.ar  1 <1>  -0.6200 
 19 C       -4.3900     5.3170     0.9400 C.ar  1 <1>  -0.1440 
 20 C       -3.1170     5.5330     1.7170 C.3   1 <1>  -0.0160 
 21 C       -6.4910     4.5140    -0.4390 C.ar  1 <1>   0.6200 
 22 C       -5.3350     6.2150     0.5160 C.ar  1 <1>   0.1600 
 23 N       -6.3840     5.8240    -0.1710 N.ar  1 <1>  -0.6200 
 24 C       -7.6520     4.0730    -1.2020 C.ar  1 <1>   0.0000 
 25 C       -8.3160     4.9250    -2.0890 C.ar  1 <1>  -0.1500 
 26 C       -8.1580     2.7740    -1.0830 C.ar  1 <1>  -0.1500 
 27 C       -9.4170     4.5090    -2.8160 C.ar  1 <1>  -0.1500 
 28 C       -9.2580     2.3500    -1.8070 C.ar  1 <1>  -0.1500 
 29 C       -9.8910     3.2180    -2.6760 C.ar  1 <1>  -0.1500 
 30 H       -3.1760     2.1900    -0.7450 H     1 <1>   0.0800 
 31 H       -2.1870     3.5940    -0.5210 H     1 <1>   0.0800 
 32 H       -1.0770     0.0160     1.4810 H     1 <1>   0.0800 
 33 H       -2.4710    -0.0310     0.4360 H     1 <1>   0.0800 
 34 H       -0.0560     4.8550     0.6600 H     1 <1>   0.1500 
 35 H       -2.2050     1.4490     3.0600 H     1 <1>   0.0800 
 36 H       -3.2050     0.0650     2.7550 H     1 <1>   0.0800 
 37 H        0.2620     1.4970    -3.0160 H     1 <1>   0.0800 
 38 H        1.8970     1.4020    -2.3950 H     1 <1>   0.0800 
 39 H        1.5500     2.3890    -3.7960 H     1 <1>   0.0800 
 40 H       -4.6200     1.3330     1.2300 H     1 <1>   0.0800 
 41 H       -4.5530     2.1640     2.7510 H     1 <1>   0.0800 
 42 H       -1.6490     3.9630     2.1090 H     1 <1>   0.0800 
 43 H       -3.0590     3.9380     3.1270 H     1 <1>   0.0800 
 44 H        0.7280     7.0600    -0.3060 H     1 <1>   0.0800 
 45 H        0.4970     7.0760    -2.0500 H     1 <1>   0.0800 
 46 H        2.1000     6.8370    -1.3810 H     1 <1>   0.0800 
 47 H       -2.3730     5.9730     1.0760 H     1 <1>   0.0800 
 48 H       -3.2760     6.1580     2.5790 H     1 <1>   0.0800 
 49 H       -5.2310     7.2630     0.7390 H     1 <1>   0.1500 
 50 H       -7.9630     5.9340    -2.2130 H     1 <1>   0.1500 
 51 H       -7.6810     2.0830    -0.4100 H     1 <1>   0.1500 
 52 H       -9.9050     5.1910    -3.4900 H     1 <1>   0.1500 
 53 H       -9.6210     1.3440    -1.6920 H     1 <1>   0.1500 
 54 H      -10.7470     2.8920    -3.2400 H     1 <1>   0.1500 
@<TRIPOS>BOND
  1   1   2  2   
  2   2   3  am  
  3   2   4  1   
  4   3   5  1   
  5   3   6  1   
  6   4   7  1   
  7   4   8  2   
  8   5   9  1   
  9   5  30  1   
 10   5  31  1   
 11   6  10  1   
 12   6  32  1   
 13   6  33  1   
 14   7  11  2   
 15   7  12  1   
 16   8  13  1   
 17   8  34  1   
 18   9  14  1   
 19   9  15  1   
 20   9  16  1   
 21  10  15  1   
 22  10  35  1   
 23  10  36  1   
 24  11  13  1   
 25  12  37  1   
 26  12  38  1   
 27  12  39  1   
 28  13  17  1   
 29  14  18  ar  
 30  14  19  ar  
 31  15  40  1   
 32  15  41  1   
 33  16  20  1   
 34  16  42  1   
 35  16  43  1   
 36  17  44  1   
 37  17  45  1   
 38  17  46  1   
 39  18  21  ar  
 40  19  20  1   
 41  19  22  ar  
 42  20  47  1   
 43  20  48  1   
 44  21  23  ar  
 45  21  24  1   
 46  22  23  ar  
 47  22  49  1   
 48  24  25  ar  
 49  24  26  ar  
 50  25  27  ar  
 51  25  50  1   
 52  26  28  ar  
 53  26  51  1   
 54  27  29  ar  
 55  27  52  1   
 56  28  29  ar  
 57  28  53  1   
 58  29  54  1   
@<TRIPOS>SUBSTRUCTURE
  1 ****   5 GROUP 4 **** **** 0

# MOE 2024.06 (io_trps.svl 2023.06)
