@<TRIPOS>MOLECULE
NONAME
51 53 1 0 0 
SMALL
USER_CHARGES


@<TRIPOS>ATOM
  1 O        3.1600    -2.1390     2.7340 O.2   1 <1>  -0.5700 
  2 C        2.3370    -1.4300     2.2030 C.2   1 <1>   0.5690 
  3 N        2.7320    -0.3240     1.4820 N.am  1 <1>  -0.6600 
  4 C        0.8750    -1.8500     2.3350 C.3   1 <1>   0.0440 
  5 C        4.2110    -0.1160     1.2570 C.3   1 <1>   0.2200 
  6 C        1.7970     0.5730     0.7340 C.3   1 <1>   0.1400 
  7 C        0.2020    -2.2300     1.0090 C.ar  1 <1>  -0.1440 
  8 C        4.6330     1.3600     1.1580 C.3   1 <1>   0.1200 
  9 C        4.6730    -0.9050     0.0090 C.3   1 <1>   0.3430 
 10 C        2.3090     1.0050    -0.6540 C.3   1 <1>  -0.0800 
 11 C        0.8290    -3.0040     0.0320 C.ar  1 <1>   0.0820 
 12 C       -1.0820    -1.7660     0.7590 C.ar  1 <1>  -0.1500 
 13 O        4.5310     1.8180    -0.1580 O.3   1 <1>  -0.5600 
 14 N        3.5440    -1.2640    -0.9220 N.4   1 <1>  -0.9590 
 15 C        3.2640     2.2060    -0.5650 C.3   1 <1>   0.1200 
 16 C        2.8510    -0.1080    -1.5800 C.3   1 <1>   0.3430 
 17 O        2.0700    -3.4970     0.2080 O.3   1 <1>  -0.3630 
 18 C        0.2000    -3.2690    -1.1720 C.ar  1 <1>  -0.1500 
 19 C       -1.7160    -2.0350    -0.4420 C.ar  1 <1>  -0.1500 
 20 C        3.9770    -2.2730    -1.9270 C.3   1 <1>   0.2630 
 21 C        2.1530    -4.7230     0.9060 C.3   1 <1>   0.0400 
 22 C       -1.0690    -2.7830    -1.4200 C.ar  1 <1>   0.0830 
 23 O       -1.6080    -3.0780    -2.6280 O.3   1 <1>  -0.3620 
 24 C       -2.9610    -2.7940    -2.9150 C.3   1 <1>   0.0400 
 25 H        0.8190    -2.6930     2.9990 H     1 <1>   0.0800 
 26 H        0.3440    -1.0450     2.8070 H     1 <1>   0.0800 
 27 H        4.7450    -0.5060     2.1070 H     1 <1>   0.0800 
 28 H        0.8480     0.0980     0.5940 H     1 <1>   0.0800 
 29 H        1.6130     1.4490     1.3340 H     1 <1>   0.0800 
 30 H        5.6710     1.4440     1.4280 H     1 <1>   0.0800 
 31 H        4.0630     1.9880     1.8220 H     1 <1>   0.0800 
 32 H        5.1360    -1.8130     0.3580 H     1 <1>   0.0800 
 33 H        5.4250    -0.3400    -0.5160 H     1 <1>   0.0800 
 34 H        1.4470     1.4020    -1.1600 H     1 <1>   0.0800 
 35 H       -1.6050    -1.1850     1.5010 H     1 <1>   0.1500 
 36 H        2.8430    -1.7260    -0.3070 H     1 <1>   0.4500 
 37 H        2.8970     2.9610     0.1110 H     1 <1>   0.0800 
 38 H        3.3760     2.6580    -1.5360 H     1 <1>   0.0800 
 39 H        3.5210     0.3430    -2.2940 H     1 <1>   0.0800 
 40 H        2.0140    -0.5020    -2.1340 H     1 <1>   0.0800 
 41 H        0.6910    -3.8620    -1.9210 H     1 <1>   0.1500 
 42 H       -2.7090    -1.6560    -0.5990 H     1 <1>   0.1500 
 43 H        4.7280    -1.8560    -2.5780 H     1 <1>   0.0800 
 44 H        3.1350    -2.5900    -2.5200 H     1 <1>   0.0800 
 45 H        4.3850    -3.1370    -1.4290 H     1 <1>   0.0800 
 46 H        3.1870    -5.0060     0.9740 H     1 <1>   0.0800 
 47 H        1.5970    -5.4710     0.3670 H     1 <1>   0.0800 
 48 H        1.7460    -4.5960     1.8930 H     1 <1>   0.0800 
 49 H       -3.1810    -3.1760    -3.8960 H     1 <1>   0.0800 
 50 H       -3.1080    -1.7290    -2.8970 H     1 <1>   0.0800 
 51 H       -3.5830    -3.2830    -2.1860 H     1 <1>   0.0800 
@<TRIPOS>BOND
  1   1   2  2   
  2   2   3  am  
  3   2   4  1   
  4   3   5  1   
  5   3   6  1   
  6   4   7  1   
  7   4  25  1   
  8   4  26  1   
  9   5   8  1   
 10   5   9  1   
 11   5  27  1   
 12   6  10  1   
 13   6  28  1   
 14   6  29  1   
 15   7  11  ar  
 16   7  12  ar  
 17   8  13  1   
 18   8  30  1   
 19   8  31  1   
 20   9  14  1   
 21   9  32  1   
 22   9  33  1   
 23  10  15  1   
 24  10  16  1   
 25  10  34  1   
 26  11  17  1   
 27  11  18  ar  
 28  12  19  ar  
 29  12  35  1   
 30  13  15  1   
 31  14  16  1   
 32  14  20  1   
 33  14  36  1   
 34  15  37  1   
 35  15  38  1   
 36  16  39  1   
 37  16  40  1   
 38  17  21  1   
 39  18  22  ar  
 40  18  41  1   
 41  19  22  ar  
 42  19  42  1   
 43  20  43  1   
 44  20  44  1   
 45  20  45  1   
 46  21  46  1   
 47  21  47  1   
 48  21  48  1   
 49  22  23  1   
 50  23  24  1   
 51  24  49  1   
 52  24  50  1   
 53  24  51  1   
@<TRIPOS>SUBSTRUCTURE
  1 ****  11 GROUP 4 **** **** 0

# MOE 2024.06 (io_trps.svl 2023.06)
