@<TRIPOS>MOLECULE
NONAME
38 39 1 0 0 
SMALL
USER_CHARGES


@<TRIPOS>ATOM
  1 O       -1.0570    -0.9740     0.7360 O.2   1 <1>  -0.5700 
  2 C       -1.6020     0.0600     0.4130 C.2   1 <1>   0.5690 
  3 N       -2.5530     0.0690    -0.5770 N.am  1 <1>  -0.6600 
  4 C       -1.2170     1.3180     1.1830 C.3   1 <1>   0.0820 
  5 C       -3.0430    -1.2190    -1.1440 C.3   1 <1>   0.3200 
  6 C       -3.2980     1.2900    -1.0300 C.3   1 <1>   0.1400 
  7 C       -0.4470     2.3350     0.3470 C.2   1 <1>  -0.1810 
  8 C       -3.9820    -1.8840    -0.1510 C.2   1 <1>   0.0060 
  9 C       -4.7210     1.3900    -0.4510 C.3   1 <1>   0.1200 
 10 C       -0.6870     3.6430     0.1560 C.2   1 <1>  -0.0400 
 11 C        0.7010     2.1070    -0.4140 C.2   1 <1>   0.1080 
 12 N       -5.2710    -1.9440    -0.2690 N.2   1 <1>  -0.5650 
 13 N       -3.5170    -2.4550     0.9800 N.pl3 1 <1>   0.0330 
 14 O       -4.7340     1.0370     0.8910 O.3   1 <1>  -0.6800 
 15 O        0.2330     4.1080    -0.6440 O.3   1 <1>  -0.0190 
 16 C       -1.7570     4.5840     0.6730 C.3   1 <1>  -0.0600 
 17 N        1.0800     3.1860    -0.9980 N.2   1 <1>  -0.4100 
 18 C        1.4310     0.7880    -0.5570 C.3   1 <1>  -0.0590 
 19 C       -5.6660    -2.5970     0.8420 C.2   1 <1>   0.0770 
 20 C       -4.6070    -2.9130     1.6190 C.2   1 <1>  -0.3020 
 21 H       -0.6040     1.0340     2.0190 H     1 <1>   0.0800 
 22 H       -2.1100     1.7600     1.5810 H     1 <1>   0.0800 
 23 H       -2.2090    -1.8690    -1.3480 H     1 <1>   0.0800 
 24 H       -3.5630    -1.0440    -2.0700 H     1 <1>   0.0800 
 25 H       -3.3570     1.2900    -2.1050 H     1 <1>   0.0800 
 26 H       -2.7640     2.1790    -0.7590 H     1 <1>   0.0800 
 27 H       -5.3940     0.7320    -0.9750 H     1 <1>   0.0800 
 28 H       -5.0870     2.3980    -0.5370 H     1 <1>   0.0800 
 29 H       -2.5300    -2.4670     1.2730 H     1 <1>   0.2700 
 30 H       -4.7480     0.0530     0.9450 H     1 <1>   0.4000 
 31 H       -2.4510     4.0660     1.3090 H     1 <1>   0.0800 
 32 H       -2.2940     5.0100    -0.1550 H     1 <1>   0.0800 
 33 H       -1.2980     5.3780     1.2340 H     1 <1>   0.0800 
 34 H        1.5440     0.3200     0.4030 H     1 <1>   0.0800 
 35 H        2.4060     0.9530    -0.9780 H     1 <1>   0.0800 
 36 H        0.8790     0.1350    -1.2060 H     1 <1>   0.0800 
 37 H       -6.7070    -2.8060     1.0280 H     1 <1>   0.1500 
 38 H       -4.5710    -3.4230     2.5650 H     1 <1>   0.1500 
@<TRIPOS>BOND
  1   1   2  2   
  2   2   3  am  
  3   2   4  1   
  4   3   5  1   
  5   3   6  1   
  6   4   7  1   
  7   4  21  1   
  8   4  22  1   
  9   5   8  1   
 10   5  23  1   
 11   5  24  1   
 12   6   9  1   
 13   6  25  1   
 14   6  26  1   
 15   7  10  2   
 16   7  11  1   
 17   8  12  2   
 18   8  13  1   
 19   9  14  1   
 20   9  27  1   
 21   9  28  1   
 22  10  15  1   
 23  10  16  1   
 24  11  17  2   
 25  11  18  1   
 26  12  19  1   
 27  13  20  1   
 28  13  29  1   
 29  14  30  1   
 30  15  17  1   
 31  16  31  1   
 32  16  32  1   
 33  16  33  1   
 34  18  34  1   
 35  18  35  1   
 36  18  36  1   
 37  19  20  2   
 38  19  37  1   
 39  20  38  1   
@<TRIPOS>SUBSTRUCTURE
  1 ****   2 GROUP 4 **** **** 0

# MOE 2024.06 (io_trps.svl 2023.06)
