@<TRIPOS>MOLECULE
NONAME
49 51 1 0 0 
SMALL
USER_CHARGES


@<TRIPOS>ATOM
  1 S        0.1370     0.0480    -0.8040 S.o2  1 <1>   1.3330 
  2 O        1.5820     0.0460    -0.7620 O.2   1 <1>  -0.6500 
  3 O       -0.5410     0.0720    -2.0810 O.2   1 <1>  -0.6500 
  4 N       -0.4130    -1.3000     0.0680 N.am  1 <1>  -0.8490 
  5 C       -0.4750     1.4320     0.1540 C.3   1 <1>  -0.0550 
  6 C        0.4400    -1.6400     1.2120 C.3   1 <1>   0.1160 
  7 C       -0.5900    -2.4760    -0.7880 C.3   1 <1>   0.1160 
  8 C       -0.1760     2.7980    -0.4960 C.3   1 <1>  -0.0800 
  9 C       -0.8290     3.9880     0.2120 C.3   1 <1>   0.2000 
 10 C        1.3170     3.1580    -0.5530 C.3   1 <1>   0.1400 
 11 O       -0.6450     3.8590     1.5800 O.3   1 <1>  -0.6800 
 12 C       -0.0070     5.1830    -0.2650 C.3   1 <1>   0.1400 
 13 N        1.3650     4.6360    -0.4140 N.am  1 <1>  -0.6600 
 14 C        2.5370     5.3340    -0.3450 C.2   1 <1>   0.5690 
 15 O        3.6050     4.7700    -0.3660 O.2   1 <1>  -0.5700 
 16 C        2.5000     6.8470    -0.2290 C.3   1 <1>  -0.0990 
 17 C        3.8730     7.5120    -0.4290 C.3   1 <1>   0.0200 
 18 C        3.7900     9.0250    -0.3390 C.2   1 <1>   0.1980 
 19 S        5.3050     9.9000    -0.5410 S.3   1 <1>  -0.0800 
 20 N        2.7740     9.7620    -0.1360 N.2   1 <1>  -0.5650 
 21 C        4.4450    11.4090    -0.3240 C.ar  1 <1>   0.0400 
 22 C        3.1100    11.1140    -0.1210 C.ar  1 <1>   0.2270 
 23 C        4.9480    12.6970    -0.3400 C.ar  1 <1>  -0.1500 
 24 C        2.2280    12.1670     0.0770 C.ar  1 <1>  -0.1500 
 25 C        4.0540    13.7350    -0.1410 C.ar  1 <1>  -0.1500 
 26 C        2.7020    13.4700     0.0660 C.ar  1 <1>  -0.1500 
 27 H       -1.5370     1.3300     0.2600 H     1 <1>   0.0800 
 28 H       -0.0470     1.4000     1.1370 H     1 <1>   0.0800 
 29 H        0.0000    -2.4460     1.7740 H     1 <1>   0.0800 
 30 H        0.5440    -0.7900     1.8640 H     1 <1>   0.0800 
 31 H        1.4190    -1.9400     0.8760 H     1 <1>   0.0800 
 32 H       -0.9560    -3.3070    -0.2100 H     1 <1>   0.0800 
 33 H        0.3450    -2.7480    -1.2490 H     1 <1>   0.0800 
 34 H       -1.3090    -2.2640    -1.5620 H     1 <1>   0.0800 
 35 H       -0.5420     2.7800    -1.5090 H     1 <1>   0.0800 
 36 H       -1.8820     4.0860     0.0110 H     1 <1>   0.0800 
 37 H        1.7650     2.8500    -1.4840 H     1 <1>   0.0800 
 38 H        1.8600     2.7100     0.2620 H     1 <1>   0.0800 
 39 H        0.3100     3.9550     1.7770 H     1 <1>   0.4000 
 40 H       -0.0520     5.9990     0.4370 H     1 <1>   0.0800 
 41 H       -0.3600     5.5120    -1.2270 H     1 <1>   0.0800 
 42 H        1.8220     7.2320    -0.9680 H     1 <1>   0.0800 
 43 H        2.1240     7.1060     0.7430 H     1 <1>   0.0800 
 44 H        4.2650     7.2420    -1.3930 H     1 <1>   0.0800 
 45 H        4.5570     7.1580     0.3220 H     1 <1>   0.0800 
 46 H        5.9960    12.8750    -0.5020 H     1 <1>   0.1500 
 47 H        1.1880    11.9510     0.2360 H     1 <1>   0.1500 
 48 H        4.4030    14.7540    -0.1460 H     1 <1>   0.1500 
 49 H        2.0190    14.2880     0.2200 H     1 <1>   0.1500 
@<TRIPOS>BOND
  1   1   2  2   
  2   1   3  2   
  3   1   4  am  
  4   1   5  1   
  5   4   6  1   
  6   4   7  1   
  7   5   8  1   
  8   5  27  1   
  9   5  28  1   
 10   6  29  1   
 11   6  30  1   
 12   6  31  1   
 13   7  32  1   
 14   7  33  1   
 15   7  34  1   
 16   8   9  1   
 17   8  10  1   
 18   8  35  1   
 19   9  11  1   
 20   9  12  1   
 21   9  36  1   
 22  10  13  1   
 23  10  37  1   
 24  10  38  1   
 25  11  39  1   
 26  12  13  1   
 27  12  40  1   
 28  12  41  1   
 29  13  14  am  
 30  14  15  2   
 31  14  16  1   
 32  16  17  1   
 33  16  42  1   
 34  16  43  1   
 35  17  18  1   
 36  17  44  1   
 37  17  45  1   
 38  18  19  1   
 39  18  20  2   
 40  19  21  1   
 41  20  22  1   
 42  21  22  ar  
 43  21  23  ar  
 44  22  24  ar  
 45  23  25  ar  
 46  23  46  1   
 47  24  26  ar  
 48  24  47  1   
 49  25  26  ar  
 50  25  48  1   
 51  26  49  1   
@<TRIPOS>SUBSTRUCTURE
  1 ****  14 GROUP 4 **** **** 0

# MOE 2024.06 (io_trps.svl 2023.06)
