@<TRIPOS>MOLECULE
NONAME
44 46 1 0 0 
SMALL
USER_CHARGES


@<TRIPOS>ATOM
  1 O       -0.9380     1.1000     1.8670 O.3   1 <1>  -0.0190 
  2 N       -0.5460     2.3210     1.6700 N.2   1 <1>  -0.4100 
  3 C       -1.5280     0.7690     0.7450 C.2   1 <1>   0.2980 
  4 C       -0.9040     2.6460     0.4900 C.2   1 <1>   0.3350 
  5 N       -1.5460     1.6780    -0.1470 N.2   1 <1>  -0.5650 
  6 C       -2.1190    -0.6340     0.6380 C.3   1 <1>   0.1000 
  7 C       -0.6640     3.9820    -0.1840 C.3   1 <1>   0.0210 
  8 C       -1.0750    -1.7410     0.7860 C.3   1 <1>  -0.1600 
  9 C       -2.7830    -0.9610    -0.7010 C.3   1 <1>  -0.1600 
 10 C        0.0900     4.9570     0.7210 C.3   1 <1>   0.2090 
 11 C       -1.7080    -2.9870     0.1580 C.3   1 <1>  -0.1600 
 12 C       -2.8400    -2.4890    -0.7490 C.3   1 <1>  -0.1600 
 13 N        0.2220     6.2740     0.0480 N.pl3 1 <1>  -0.8690 
 14 C        1.3980     6.6070    -0.6140 C.ar  1 <1>   0.4100 
 15 N        2.0080     5.6360    -1.2670 N.ar  1 <1>  -0.6200 
 16 C        1.8850     7.9550    -0.5590 C.ar  1 <1>   0.4100 
 17 C        3.1200     6.0530    -1.8580 C.ar  1 <1>   0.1600 
 18 N        3.0000     8.3440    -1.1550 N.ar  1 <1>  -0.6200 
 19 N        1.1740     8.9460     0.1370 N.pl3 1 <1>  -0.8380 
 20 C        3.5960     7.3510    -1.8040 C.ar  1 <1>   0.1600 
 21 C        0.0360     9.5370    -0.6150 C.3   1 <1>   0.1290 
 22 C        1.9690     9.9570     0.8870 C.3   1 <1>   0.1290 
 23 H       -2.8530    -0.7500     1.4160 H     1 <1>   0.0800 
 24 H       -1.6140     4.4070    -0.4500 H     1 <1>   0.0800 
 25 H       -0.0970     3.8170    -1.0800 H     1 <1>   0.0800 
 26 H       -0.8020    -1.8990     1.8150 H     1 <1>   0.0800 
 27 H       -0.1940    -1.4720     0.2270 H     1 <1>   0.0800 
 28 H       -2.1620    -0.6070    -1.5060 H     1 <1>   0.0800 
 29 H       -3.7570    -0.5110    -0.7870 H     1 <1>   0.0800 
 30 H        1.0650     4.5590     0.9520 H     1 <1>   0.0800 
 31 H       -0.4480     5.0850     1.6440 H     1 <1>   0.0800 
 32 H       -2.1120    -3.6250     0.9260 H     1 <1>   0.0800 
 33 H       -0.9750    -3.5420    -0.4020 H     1 <1>   0.0800 
 34 H       -2.7270    -2.8490    -1.7580 H     1 <1>   0.0800 
 35 H       -3.7860    -2.8300    -0.3630 H     1 <1>   0.0800 
 36 H       -0.0350     7.0650     0.6520 H     1 <1>   0.4000 
 37 H        3.6760     5.3190    -2.4130 H     1 <1>   0.1500 
 38 H        4.5100     7.5900    -2.3170 H     1 <1>   0.1500 
 39 H       -0.4750     8.7720    -1.1750 H     1 <1>   0.0800 
 40 H        0.4000    10.2820    -1.3010 H     1 <1>   0.0800 
 41 H       -0.6590     9.9900     0.0690 H     1 <1>   0.0800 
 42 H        2.8000     9.4770     1.3750 H     1 <1>   0.0800 
 43 H        1.3540    10.4300     1.6310 H     1 <1>   0.0800 
 44 H        2.3510    10.7020     0.2090 H     1 <1>   0.0800 
@<TRIPOS>BOND
  1   1   2  1   
  2   1   3  1   
  3   2   4  2   
  4   3   5  2   
  5   3   6  1   
  6   4   5  1   
  7   4   7  1   
  8   6   8  1   
  9   6   9  1   
 10   6  23  1   
 11   7  10  1   
 12   7  24  1   
 13   7  25  1   
 14   8  11  1   
 15   8  26  1   
 16   8  27  1   
 17   9  12  1   
 18   9  28  1   
 19   9  29  1   
 20  10  13  1   
 21  10  30  1   
 22  10  31  1   
 23  11  12  1   
 24  11  32  1   
 25  11  33  1   
 26  12  34  1   
 27  12  35  1   
 28  13  14  1   
 29  13  36  1   
 30  14  15  ar  
 31  14  16  ar  
 32  15  17  ar  
 33  16  18  ar  
 34  16  19  1   
 35  17  20  ar  
 36  17  37  1   
 37  18  20  ar  
 38  19  21  1   
 39  19  22  1   
 40  20  38  1   
 41  21  39  1   
 42  21  40  1   
 43  21  41  1   
 44  22  42  1   
 45  22  43  1   
 46  22  44  1   
@<TRIPOS>SUBSTRUCTURE
  1 ****   7 GROUP 4 **** **** 0

# MOE 2024.06 (io_trps.svl 2023.06)
