@<TRIPOS>MOLECULE
NONAME
54 57 1 0 0 
SMALL
USER_CHARGES


@<TRIPOS>ATOM
  1 O        0.0210     0.4250    -0.2200 O.2   1 <1>  -0.5700 
  2 C       -0.5650     1.4400     0.0760 C.2   1 <1>   0.5690 
  3 N       -1.9280     1.5330    -0.0340 N.am  1 <1>  -0.6600 
  4 C        0.2540     2.6210     0.5920 C.3   1 <1>  -0.0990 
  5 C       -2.7580     2.7210     0.3420 C.3   1 <1>   0.1400 
  6 C       -2.7070     0.3570    -0.5360 C.3   1 <1>   0.1400 
  7 C        1.7760     2.4600     0.4100 C.3   1 <1>  -0.1600 
  8 C       -3.5760     3.2360    -0.8650 C.3   1 <1>   0.1440 
  9 C       -4.1340     0.7390    -0.9670 C.3   1 <1>  -0.1600 
 10 C        2.5400     3.6610     0.9840 C.3   1 <1>   0.0960 
 11 C       -4.6670     4.1360    -0.3110 C.ar  1 <1>   0.1660 
 12 C       -4.1410     2.0740    -1.7270 C.3   1 <1>  -0.1600 
 13 C       -2.7540     4.2240    -1.7360 C.3   1 <1>  -0.1600 
 14 N        3.9770     3.5850     0.6590 N.pl3 1 <1>   0.3140 
 15 N       -5.7410     3.7250     0.3150 N.ar  1 <1>  -0.6200 
 16 C       -4.3880     5.4520    -0.5190 C.ar  1 <1>  -0.1440 
 17 C       -3.0780     5.6440    -1.2400 C.3   1 <1>  -0.0170 
 18 N        4.5660     4.4350    -0.1690 N.2   1 <1>  -0.7070 
 19 C        4.8950     2.7250     1.1110 C.2   1 <1>   0.0360 
 20 C       -6.5660     4.6900     0.7280 C.ar  1 <1>   0.7200 
 21 C       -5.2920     6.3760    -0.0580 C.ar  1 <1>   0.1600 
 22 C        5.7930     4.0280    -0.1580 C.2   1 <1>   0.3660 
 23 N        6.0560     2.9700     0.6200 N.2   1 <1>  -0.5650 
 24 N       -6.3840     6.0050     0.5670 N.ar  1 <1>  -0.6200 
 25 N       -7.7130     4.2910     1.3870 N.pl3 1 <1>  -0.8380 
 26 C       -8.1980     2.8840     1.3490 C.3   1 <1>   0.1290 
 27 C       -8.5670     5.2500     2.1400 C.3   1 <1>   0.1290 
 28 H        0.0280     2.7430     1.6360 H     1 <1>   0.0800 
 29 H       -0.0560     3.5050     0.0680 H     1 <1>   0.0800 
 30 H       -2.1640     3.5160     0.7480 H     1 <1>   0.0800 
 31 H       -3.4400     2.4130     1.1180 H     1 <1>   0.0800 
 32 H       -2.7440    -0.3980     0.2300 H     1 <1>   0.0800 
 33 H       -2.1870    -0.0590    -1.3830 H     1 <1>   0.0800 
 34 H        1.9910     2.3670    -0.6420 H     1 <1>   0.0800 
 35 H        2.1010     1.5590     0.9020 H     1 <1>   0.0800 
 36 H       -4.7670     0.8120    -0.0990 H     1 <1>   0.0800 
 37 H       -4.5350    -0.0410    -1.5900 H     1 <1>   0.0800 
 38 H        2.4330     3.7020     2.0520 H     1 <1>   0.0800 
 39 H        2.1580     4.5750     0.5660 H     1 <1>   0.0800 
 40 H       -3.5350     1.9440    -2.6060 H     1 <1>   0.0800 
 41 H       -5.1400     2.3070    -2.0520 H     1 <1>   0.0800 
 42 H       -3.0830     4.1590    -2.7580 H     1 <1>   0.0800 
 43 H       -1.7000     4.0130    -1.7100 H     1 <1>   0.0800 
 44 H       -3.1710     6.3380    -2.0580 H     1 <1>   0.0800 
 45 H       -2.3300     5.9890    -0.5480 H     1 <1>   0.0800 
 46 H        4.6680     1.9320     1.8000 H     1 <1>   0.1500 
 47 H       -5.1190     7.4280    -0.2010 H     1 <1>   0.1500 
 48 H        6.5760     4.4950    -0.7330 H     1 <1>   0.1500 
 49 H       -7.8810     2.3990     0.4420 H     1 <1>   0.0800 
 50 H       -9.2720     2.8610     1.3870 H     1 <1>   0.0800 
 51 H       -7.8000     2.3440     2.1910 H     1 <1>   0.0800 
 52 H       -7.9740     6.0610     2.5270 H     1 <1>   0.0800 
 53 H       -9.0400     4.7540     2.9680 H     1 <1>   0.0800 
 54 H       -9.3200     5.6510     1.4850 H     1 <1>   0.0800 
@<TRIPOS>BOND
  1   1   2  2   
  2   2   3  am  
  3   2   4  1   
  4   3   5  1   
  5   3   6  1   
  6   4   7  1   
  7   4  28  1   
  8   4  29  1   
  9   5   8  1   
 10   5  30  1   
 11   5  31  1   
 12   6   9  1   
 13   6  32  1   
 14   6  33  1   
 15   7  10  1   
 16   7  34  1   
 17   7  35  1   
 18   8  11  1   
 19   8  12  1   
 20   8  13  1   
 21   9  12  1   
 22   9  36  1   
 23   9  37  1   
 24  10  14  1   
 25  10  38  1   
 26  10  39  1   
 27  11  15  ar  
 28  11  16  ar  
 29  12  40  1   
 30  12  41  1   
 31  13  17  1   
 32  13  42  1   
 33  13  43  1   
 34  14  18  1   
 35  14  19  1   
 36  15  20  ar  
 37  16  17  1   
 38  16  21  ar  
 39  17  44  1   
 40  17  45  1   
 41  18  22  2   
 42  19  23  2   
 43  19  46  1   
 44  20  24  ar  
 45  20  25  1   
 46  21  24  ar  
 47  21  47  1   
 48  22  23  1   
 49  22  48  1   
 50  25  26  1   
 51  25  27  1   
 52  26  49  1   
 53  26  50  1   
 54  26  51  1   
 55  27  52  1   
 56  27  53  1   
 57  27  54  1   
@<TRIPOS>SUBSTRUCTURE
  1 ****   5 GROUP 4 **** **** 0

# MOE 2024.06 (io_trps.svl 2023.06)
