@<TRIPOS>MOLECULE
NONAME
53 56 1 0 0 
SMALL
USER_CHARGES


@<TRIPOS>ATOM
  1 O       -0.4220    -0.1660    -0.6450 O.2   1 <1>  -0.5700 
  2 C       -1.4080     0.5390    -0.7640 C.2   1 <1>   0.5440 
  3 N       -2.6490    -0.0520    -0.6830 N.am  1 <1>  -0.6600 
  4 C       -1.2520     1.9670    -0.9660 C.ar  1 <1>   0.0860 
  5 C       -3.9120     0.6660    -0.4010 C.3   1 <1>   0.1400 
  6 C       -2.8230    -1.5080    -0.4910 C.3   1 <1>   0.1400 
  7 C       -0.3720     2.7030    -0.1900 C.ar  1 <1>  -0.1500 
  8 C       -1.9890     2.6490    -1.9600 C.ar  1 <1>  -0.1500 
  9 C       -4.7710    -0.3300     0.3900 C.3   1 <1>  -0.0800 
 10 C       -4.2880    -1.7120    -0.0910 C.3   1 <1>  -0.0800 
 11 C       -0.2360     4.0810    -0.3670 C.ar  1 <1>   0.0000 
 12 C       -1.8710     4.0040    -2.1510 C.ar  1 <1>  -0.1500 
 13 C       -6.3150    -0.1100     0.3260 C.3   1 <1>   0.2800 
 14 C       -5.1510    -2.2220    -1.2550 C.3   1 <1>  -0.1600 
 15 C       -0.9890     4.7230    -1.3420 C.ar  1 <1>  -0.1520 
 16 C        0.5490     5.0790     0.2540 C.2   1 <1>  -0.1810 
 17 O       -6.6640     0.5210    -0.8540 O.3   1 <1>  -0.6800 
 18 C       -7.0430    -1.4670     0.3250 C.3   1 <1>  -0.1600 
 19 C       -6.8420     0.7700     1.4800 C.3   1 <1>  -0.1600 
 20 C       -6.6230    -2.3940    -0.8370 C.3   1 <1>  -0.1600 
 21 N       -0.6800     6.0550    -1.3140 N.pl3 1 <1>   0.0330 
 22 C        0.2570     6.2630    -0.3400 C.2   1 <1>  -0.3320 
 23 C        1.5200     4.7740     1.3800 C.3   1 <1>  -0.0590 
 24 C       -6.2600     2.1930     1.5530 C.3   1 <1>  -0.2400 
 25 C        0.8020     7.6560    -0.0720 C.3   1 <1>  -0.0600 
 26 H       -3.7330     1.5660     0.1610 H     1 <1>   0.0800 
 27 H       -4.3670     0.9170    -1.3420 H     1 <1>   0.0800 
 28 H       -2.5740    -2.0340    -1.3960 H     1 <1>   0.0800 
 29 H       -2.1710    -1.8370     0.3000 H     1 <1>   0.0800 
 30 H        0.2180     2.2110     0.5610 H     1 <1>   0.1500 
 31 H       -2.6550     2.0750    -2.5800 H     1 <1>   0.1500 
 32 H       -4.4690    -0.2530     1.4190 H     1 <1>   0.0800 
 33 H       -4.3380    -2.4290     0.7100 H     1 <1>   0.0800 
 34 H       -2.4410     4.5110    -2.9090 H     1 <1>   0.1500 
 35 H       -5.0970    -1.5090    -2.0610 H     1 <1>   0.0800 
 36 H       -4.7690    -3.1580    -1.6230 H     1 <1>   0.0800 
 37 H       -7.6340     0.5750    -0.9140 H     1 <1>   0.4000 
 38 H       -6.8110    -1.9650     1.2500 H     1 <1>   0.0800 
 39 H       -8.1090    -1.3260     0.3080 H     1 <1>   0.0800 
 40 H       -7.9120     0.8440     1.4010 H     1 <1>   0.0800 
 41 H       -6.6350     0.2750     2.4130 H     1 <1>   0.0800 
 42 H       -6.7980    -3.4140    -0.5440 H     1 <1>   0.0800 
 43 H       -7.2430    -2.1950    -1.6950 H     1 <1>   0.0800 
 44 H       -1.0860     6.7680    -1.9260 H     1 <1>   0.2700 
 45 H        2.2540     4.0660     1.0400 H     1 <1>   0.0800 
 46 H        0.9870     4.3520     2.2120 H     1 <1>   0.0800 
 47 H        2.0250     5.6620     1.7080 H     1 <1>   0.0800 
 48 H       -6.3930     2.7100     0.6180 H     1 <1>   0.0800 
 49 H       -5.2120     2.1670     1.7890 H     1 <1>   0.0800 
 50 H       -6.7600     2.7530     2.3230 H     1 <1>   0.0800 
 51 H        1.5250     7.6410     0.7220 H     1 <1>   0.0800 
 52 H        0.0020     8.3160     0.2110 H     1 <1>   0.0800 
 53 H        1.2780     8.0410    -0.9560 H     1 <1>   0.0800 
@<TRIPOS>BOND
  1   1   2  2   
  2   2   3  am  
  3   2   4  1   
  4   3   5  1   
  5   3   6  1   
  6   4   7  ar  
  7   4   8  ar  
  8   5   9  1   
  9   5  26  1   
 10   5  27  1   
 11   6  10  1   
 12   6  28  1   
 13   6  29  1   
 14   7  11  ar  
 15   7  30  1   
 16   8  12  ar  
 17   8  31  1   
 18   9  10  1   
 19   9  13  1   
 20   9  32  1   
 21  10  14  1   
 22  10  33  1   
 23  11  15  ar  
 24  11  16  1   
 25  12  15  ar  
 26  12  34  1   
 27  13  17  1   
 28  13  18  1   
 29  13  19  1   
 30  14  20  1   
 31  14  35  1   
 32  14  36  1   
 33  15  21  1   
 34  16  22  2   
 35  16  23  1   
 36  17  37  1   
 37  18  20  1   
 38  18  38  1   
 39  18  39  1   
 40  19  24  1   
 41  19  40  1   
 42  19  41  1   
 43  20  42  1   
 44  20  43  1   
 45  21  22  1   
 46  21  44  1   
 47  22  25  1   
 48  23  45  1   
 49  23  46  1   
 50  23  47  1   
 51  24  48  1   
 52  24  49  1   
 53  24  50  1   
 54  25  51  1   
 55  25  52  1   
 56  25  53  1   
@<TRIPOS>SUBSTRUCTURE
  1 ****   5 GROUP 4 **** **** 0

# MOE 2024.06 (io_trps.svl 2023.06)
