@<TRIPOS>MOLECULE
NONAME
61 64 1 0 0 
SMALL
USER_CHARGES


@<TRIPOS>ATOM
  1 O        0.6320     0.2880    -1.1330 O.3   1 <1>  -0.5600 
  2 C        1.8400    -0.4170    -1.2910 C.3   1 <1>   0.2000 
  3 C        0.7500     1.6790    -1.1130 C.3   1 <1>   0.1200 
  4 C        2.8720    -0.0230    -0.1970 C.3   1 <1>   0.5660 
  5 C        1.5390    -1.9240    -1.2270 C.3   1 <1>   0.1200 
  6 C        1.6320     2.1140     0.0680 C.3   1 <1>   0.3430 
  7 N        2.9790     1.4540     0.0250 N.4   1 <1>  -0.9590 
  8 C        4.2640    -0.5400    -0.5350 C.ar  1 <1>  -0.1430 
  9 O        1.2910    -2.3110     0.0880 O.3   1 <1>  -0.6800 
 10 C        3.7890     1.7660     1.2330 C.3   1 <1>   0.4870 
 11 C        4.8890    -1.4100     0.3470 C.ar  1 <1>  -0.1500 
 12 C        4.9280    -0.1590    -1.6960 C.ar  1 <1>  -0.1500 
 13 C        4.0230     3.2580     1.2540 C.ar  1 <1>  -0.1430 
 14 C        6.1630    -1.8860     0.0920 C.ar  1 <1>   0.0820 
 15 C        6.2070    -0.6220    -1.9530 C.ar  1 <1>  -0.1500 
 16 C        4.9380     3.8100     0.3480 C.ar  1 <1>   0.0000 
 17 C        3.3450     4.0900     2.1190 C.ar  1 <1>  -0.1500 
 18 O        6.6890    -2.7470     0.9950 O.3   1 <1>  -0.3630 
 19 C        6.8400    -1.4670    -1.0590 C.ar  1 <1>   0.0820 
 20 C        5.1130     5.1890     0.2970 C.ar  1 <1>  -0.1520 
 21 C        5.8120     3.2640    -0.6190 C.2   1 <1>  -0.1500 
 22 C        3.5420     5.4750     2.0760 C.ar  1 <1>  -0.1500 
 23 C        6.9930    -4.0480     0.5370 C.3   1 <1>   0.0400 
 24 O        8.1060    -1.8460    -1.3520 O.3   1 <1>  -0.3630 
 25 N        6.0360     5.4780    -0.6820 N.pl3 1 <1>   0.0480 
 26 C        4.4150     6.0280     1.1690 C.ar  1 <1>  -0.1500 
 27 C        6.4490     4.2930    -1.2230 C.2   1 <1>  -0.3020 
 28 C        9.1220    -1.3820    -0.4890 C.3   1 <1>   0.0400 
 29 C        6.5360     6.8180    -1.0560 C.3   1 <1>   0.0960 
 30 C        7.6810     7.2410    -0.1320 C.3   1 <1>  -0.2400 
 31 H        2.2190    -0.1840    -2.2700 H     1 <1>   0.0800 
 32 H        1.1580     2.0120    -2.0520 H     1 <1>   0.0800 
 33 H       -0.2400     2.0880    -1.0050 H     1 <1>   0.0800 
 34 H        2.5500    -0.4850     0.7210 H     1 <1>   0.0800 
 35 H        2.3800    -2.4940    -1.5840 H     1 <1>   0.0800 
 36 H        0.6750    -2.1550    -1.8270 H     1 <1>   0.0800 
 37 H        1.1260     1.8530     0.9830 H     1 <1>   0.0800 
 38 H        1.7490     3.1860     0.0490 H     1 <1>   0.0800 
 39 H        3.5040     1.8490    -0.7620 H     1 <1>   0.4500 
 40 H        0.8720    -3.1980     0.1140 H     1 <1>   0.4000 
 41 H        3.2700     1.4570     2.1250 H     1 <1>   0.0800 
 42 H        4.7400     1.2590     1.1930 H     1 <1>   0.0800 
 43 H        4.3960    -1.7430     1.2450 H     1 <1>   0.1500 
 44 H        4.4730     0.5010    -2.4160 H     1 <1>   0.1500 
 45 H        6.7290    -0.3280    -2.8470 H     1 <1>   0.1500 
 46 H        2.6480     3.7010     2.8420 H     1 <1>   0.1500 
 47 H        5.9540     2.2180    -0.8150 H     1 <1>   0.1500 
 48 H        3.0030     6.1070     2.7610 H     1 <1>   0.1500 
 49 H        7.2610    -4.6490     1.3870 H     1 <1>   0.0800 
 50 H        7.8170    -4.0040    -0.1510 H     1 <1>   0.0800 
 51 H        6.1240    -4.4610     0.0540 H     1 <1>   0.0800 
 52 H        4.5670     7.0930     1.1320 H     1 <1>   0.1500 
 53 H        7.1890     4.2570    -2.0030 H     1 <1>   0.1500 
 54 H       10.0700    -1.6970    -0.8860 H     1 <1>   0.0800 
 55 H        8.9790    -1.8010     0.4910 H     1 <1>   0.0800 
 56 H        9.0790    -0.3080    -0.4470 H     1 <1>   0.0800 
 57 H        6.8780     6.7870    -2.0750 H     1 <1>   0.0800 
 58 H        5.7250     7.5210    -0.9910 H     1 <1>   0.0800 
 59 H        8.4980     6.5460    -0.2080 H     1 <1>   0.0800 
 60 H        7.3440     7.2830     0.8890 H     1 <1>   0.0800 
 61 H        8.0360     8.2160    -0.4150 H     1 <1>   0.0800 
@<TRIPOS>BOND
  1   1   2  1   
  2   1   3  1   
  3   2   4  1   
  4   2   5  1   
  5   2  31  1   
  6   3   6  1   
  7   3  32  1   
  8   3  33  1   
  9   4   7  1   
 10   4   8  1   
 11   4  34  1   
 12   5   9  1   
 13   5  35  1   
 14   5  36  1   
 15   6   7  1   
 16   6  37  1   
 17   6  38  1   
 18   7  10  1   
 19   7  39  1   
 20   8  11  ar  
 21   8  12  ar  
 22   9  40  1   
 23  10  13  1   
 24  10  41  1   
 25  10  42  1   
 26  11  14  ar  
 27  11  43  1   
 28  12  15  ar  
 29  12  44  1   
 30  13  16  ar  
 31  13  17  ar  
 32  14  18  1   
 33  14  19  ar  
 34  15  19  ar  
 35  15  45  1   
 36  16  20  ar  
 37  16  21  1   
 38  17  22  ar  
 39  17  46  1   
 40  18  23  1   
 41  19  24  1   
 42  20  25  1   
 43  20  26  ar  
 44  21  27  2   
 45  21  47  1   
 46  22  26  ar  
 47  22  48  1   
 48  23  49  1   
 49  23  50  1   
 50  23  51  1   
 51  24  28  1   
 52  25  27  1   
 53  25  29  1   
 54  26  52  1   
 55  27  53  1   
 56  28  54  1   
 57  28  55  1   
 58  28  56  1   
 59  29  30  1   
 60  29  57  1   
 61  29  58  1   
 62  30  59  1   
 63  30  60  1   
 64  30  61  1   
@<TRIPOS>SUBSTRUCTURE
  1 ****   7 GROUP 4 **** **** 0

# MOE 2024.06 (io_trps.svl 2023.06)
