@<TRIPOS>MOLECULE
NONAME
51 54 1 0 0 
SMALL
USER_CHARGES


@<TRIPOS>ATOM
  1 O        0.6020     0.1890    -0.4080 O.2   1 <1>  -0.5700 
  2 C        1.8090     0.2520    -0.4830 C.2   1 <1>   0.7150 
  3 N        2.4460    -0.9470    -0.4460 N.am  1 <1>  -0.7300 
  4 C        2.4520     1.5280    -0.6050 C.2   1 <1>  -0.2370 
  5 C        3.8500    -1.3560    -0.1620 C.3   1 <1>   0.1400 
  6 N        3.7310     1.7550    -0.9860 N.pl3 1 <1>   0.3140 
  7 C        1.9250     2.7630    -0.3950 C.2   1 <1>  -0.1500 
  8 C        4.8880    -0.2230    -0.1440 C.3   1 <1>   0.2000 
  9 N        4.0370     3.0550    -1.0170 N.2   1 <1>  -0.7070 
 10 C        4.7520     0.7500    -1.3120 C.3   1 <1>   0.0960 
 11 C        2.9320     3.6870    -0.6550 C.2   1 <1>   0.2030 
 12 O        6.1530    -0.7970    -0.1930 O.3   1 <1>  -0.6800 
 13 C        2.7940     5.1310    -0.5330 C.2   1 <1>   0.7160 
 14 O        1.7770     5.6530    -0.1080 O.2   1 <1>  -0.5700 
 15 N        3.8520     5.9210    -0.8760 N.am  1 <1>  -0.7300 
 16 C        4.0310     7.3570    -0.5440 C.3   1 <1>   0.1400 
 17 C        5.1780     7.6370     0.4620 C.3   1 <1>   0.1430 
 18 C        5.2050     9.1670     0.6580 C.ar  1 <1>  -0.1430 
 19 C        4.9810     6.8850     1.7940 C.3   1 <1>  -0.1600 
 20 C        6.5330     7.0800    -0.0220 C.3   1 <1>  -0.1600 
 21 C        6.0150     9.9840    -0.1250 C.ar  1 <1>  -0.1500 
 22 C        4.3850     9.7740     1.6040 C.ar  1 <1>  -0.1500 
 23 C        5.6830     5.5280     1.6740 C.3   1 <1>  -0.1600 
 24 C        6.6650     5.6480     0.5080 C.3   1 <1>  -0.1600 
 25 C        6.0230    11.3570     0.0470 C.ar  1 <1>  -0.1500 
 26 C        4.3910    11.1470     1.7790 C.ar  1 <1>  -0.1500 
 27 C        5.2130    11.9410     1.0020 C.ar  1 <1>  -0.1500 
 28 H        1.7730    -1.7160    -0.3920 H     1 <1>   0.3700 
 29 H        4.1330    -2.0720    -0.9140 H     1 <1>   0.0800 
 30 H        3.8730    -1.8520     0.7930 H     1 <1>   0.0800 
 31 H        0.9220     3.0070    -0.0860 H     1 <1>   0.1500 
 32 H        4.8340     0.3130     0.7890 H     1 <1>   0.0800 
 33 H        5.6810     1.2670    -1.4680 H     1 <1>   0.0800 
 34 H        4.4650     0.2430    -2.2140 H     1 <1>   0.0800 
 35 H        6.3090    -1.2670    -1.0350 H     1 <1>   0.4000 
 36 H        4.6990     5.4080    -1.1300 H     1 <1>   0.3700 
 37 H        3.1120     7.7450    -0.1390 H     1 <1>   0.0800 
 38 H        4.2280     7.8940    -1.4550 H     1 <1>   0.0800 
 39 H        3.9400     6.7690     2.0430 H     1 <1>   0.0800 
 40 H        5.4630     7.4370     2.5820 H     1 <1>   0.0800 
 41 H        7.3250     7.6590     0.4210 H     1 <1>   0.0800 
 42 H        6.6340     7.1210    -1.0920 H     1 <1>   0.0800 
 43 H        6.6490     9.5650    -0.8850 H     1 <1>   0.1500 
 44 H        3.7250     9.1850     2.2160 H     1 <1>   0.1500 
 45 H        4.9650     4.7530     1.4690 H     1 <1>   0.0800 
 46 H        6.1950     5.2850     2.5900 H     1 <1>   0.0800 
 47 H        7.6740     5.4530     0.8300 H     1 <1>   0.0800 
 48 H        6.4100     4.9350    -0.2570 H     1 <1>   0.0800 
 49 H        6.6600    11.9720    -0.5640 H     1 <1>   0.1500 
 50 H        3.7530    11.5970     2.5200 H     1 <1>   0.1500 
 51 H        5.2190    13.0080     1.1380 H     1 <1>   0.1500 
@<TRIPOS>BOND
  1   1   2  2   
  2   2   3  am  
  3   2   4  1   
  4   3   5  1   
  5   3  28  1   
  6   4   6  1   
  7   4   7  2   
  8   5   8  1   
  9   5  29  1   
 10   5  30  1   
 11   6   9  1   
 12   6  10  1   
 13   7  11  1   
 14   7  31  1   
 15   8  10  1   
 16   8  12  1   
 17   8  32  1   
 18   9  11  2   
 19  10  33  1   
 20  10  34  1   
 21  11  13  1   
 22  12  35  1   
 23  13  14  2   
 24  13  15  am  
 25  15  16  1   
 26  15  36  1   
 27  16  17  1   
 28  16  37  1   
 29  16  38  1   
 30  17  18  1   
 31  17  19  1   
 32  17  20  1   
 33  18  21  ar  
 34  18  22  ar  
 35  19  23  1   
 36  19  39  1   
 37  19  40  1   
 38  20  24  1   
 39  20  41  1   
 40  20  42  1   
 41  21  25  ar  
 42  21  43  1   
 43  22  26  ar  
 44  22  44  1   
 45  23  24  1   
 46  23  45  1   
 47  23  46  1   
 48  24  47  1   
 49  24  48  1   
 50  25  27  ar  
 51  25  49  1   
 52  26  27  ar  
 53  26  50  1   
 54  27  51  1   
@<TRIPOS>SUBSTRUCTURE
  1 ****  15 GROUP 4 **** **** 0

# MOE 2024.06 (io_trps.svl 2023.06)
