@<TRIPOS>MOLECULE
NONAME
61 64 1 0 0 
SMALL
USER_CHARGES


@<TRIPOS>ATOM
  1 O        0.6360     0.2270    -0.9530 O.3   1 <1>  -0.5600 
  2 C        1.8280    -0.5090    -1.0810 C.3   1 <1>   0.2000 
  3 C        0.7690     1.6070    -1.1170 C.3   1 <1>   0.1200 
  4 C        2.9180     0.0010    -0.0960 C.3   1 <1>   0.5660 
  5 C        1.5180    -1.9910    -0.8140 C.3   1 <1>   0.1200 
  6 C        1.6990     2.1710    -0.0300 C.3   1 <1>   0.3430 
  7 N        3.0380     1.4940    -0.0340 N.4   1 <1>  -0.9590 
  8 C        4.2920    -0.5460    -0.4610 C.ar  1 <1>  -0.1430 
  9 O        1.3450    -2.2060     0.5520 O.3   1 <1>  -0.6800 
 10 C        3.8750     1.9220     1.1220 C.3   1 <1>   0.4870 
 11 C        4.9950    -1.2810     0.4830 C.ar  1 <1>  -0.1500 
 12 C        4.8660    -0.3150    -1.7070 C.ar  1 <1>  -0.1500 
 13 C        4.1970     3.3910     0.9370 C.ar  1 <1>  -0.1430 
 14 C        6.2610    -1.7640     0.2050 C.ar  1 <1>   0.0820 
 15 C        6.1360    -0.7890    -1.9880 C.ar  1 <1>  -0.1500 
 16 C        5.1710     3.7870    -0.0130 C.ar  1 <1>   0.0000 
 17 C        3.5110     4.3240     1.6700 C.ar  1 <1>  -0.1500 
 18 O        6.8690    -2.4870     1.1750 O.3   1 <1>  -0.3630 
 19 C        6.8500    -1.4920    -1.0350 C.ar  1 <1>   0.0820 
 20 C        5.3460     5.1690    -0.2670 C.ar  1 <1>   0.0000 
 21 C        5.9870     2.8720    -0.7230 C.ar  1 <1>  -0.1500 
 22 C        3.7240     5.6860     1.4590 C.ar  1 <1>  -0.1500 
 23 C        7.1480    -3.8400     0.8810 C.3   1 <1>   0.0400 
 24 O        8.1050    -1.8820    -1.3640 O.3   1 <1>  -0.3630 
 25 C        4.6130     6.1100     0.5000 C.ar  1 <1>   0.0820 
 26 C        6.2560     5.5560    -1.2760 C.ar  1 <1>  -0.1500 
 27 C        6.8660     3.2830    -1.6830 C.ar  1 <1>  -0.1500 
 28 C        9.1640    -1.3240    -0.6160 C.3   1 <1>   0.0400 
 29 O        4.8360     7.4230     0.2400 O.3   1 <1>  -0.3630 
 30 C        6.9940     4.6420    -1.9720 C.ar  1 <1>  -0.1500 
 31 C        4.2620     8.4590     1.0060 C.3   1 <1>   0.0400 
 32 H        2.1560    -0.4050    -2.0990 H     1 <1>   0.0800 
 33 H        1.1450     1.8120    -2.1040 H     1 <1>   0.0800 
 34 H       -0.2110     2.0420    -1.0250 H     1 <1>   0.0800 
 35 H        2.6540    -0.3620     0.8830 H     1 <1>   0.0800 
 36 H        2.3320    -2.6140    -1.1440 H     1 <1>   0.0800 
 37 H        0.6180    -2.2810    -1.3300 H     1 <1>   0.0800 
 38 H        1.2210     2.0320     0.9250 H     1 <1>   0.0800 
 39 H        1.8240     3.2310    -0.1860 H     1 <1>   0.0800 
 40 H        3.5490     1.7910    -0.8730 H     1 <1>   0.4500 
 41 H        0.9170    -3.0740     0.7130 H     1 <1>   0.4000 
 42 H        3.3400     1.7710     2.0450 H     1 <1>   0.0800 
 43 H        4.7910     1.3550     1.1640 H     1 <1>   0.0800 
 44 H        4.5730    -1.5000     1.4490 H     1 <1>   0.1500 
 45 H        4.3490     0.2350    -2.4750 H     1 <1>   0.1500 
 46 H        6.5880    -0.6110    -2.9490 H     1 <1>   0.1500 
 47 H        2.7900     4.0400     2.4180 H     1 <1>   0.1500 
 48 H        5.9440     1.8240    -0.5030 H     1 <1>   0.1500 
 49 H        3.1680     6.3810     2.0610 H     1 <1>   0.1500 
 50 H        7.5240    -4.3080     1.7730 H     1 <1>   0.0800 
 51 H        7.8880    -3.8940     0.1030 H     1 <1>   0.0800 
 52 H        6.2400    -4.3240     0.5660 H     1 <1>   0.0800 
 53 H        6.3690     6.6040    -1.4920 H     1 <1>   0.1500 
 54 H        7.4770     2.5780    -2.2210 H     1 <1>   0.1500 
 55 H       10.0910    -1.6400    -1.0600 H     1 <1>   0.0800 
 56 H        9.1100    -1.6730     0.3990 H     1 <1>   0.0800 
 57 H        9.0880    -0.2520    -0.6480 H     1 <1>   0.0800 
 58 H        7.6850     4.9570    -2.7360 H     1 <1>   0.1500 
 59 H        4.6280     9.3960     0.6260 H     1 <1>   0.0800 
 60 H        4.5580     8.3420     2.0330 H     1 <1>   0.0800 
 61 H        3.1920     8.4200     0.9040 H     1 <1>   0.0800 
@<TRIPOS>BOND
  1   1   2  1   
  2   1   3  1   
  3   2   4  1   
  4   2   5  1   
  5   2  32  1   
  6   3   6  1   
  7   3  33  1   
  8   3  34  1   
  9   4   7  1   
 10   4   8  1   
 11   4  35  1   
 12   5   9  1   
 13   5  36  1   
 14   5  37  1   
 15   6   7  1   
 16   6  38  1   
 17   6  39  1   
 18   7  10  1   
 19   7  40  1   
 20   8  11  ar  
 21   8  12  ar  
 22   9  41  1   
 23  10  13  1   
 24  10  42  1   
 25  10  43  1   
 26  11  14  ar  
 27  11  44  1   
 28  12  15  ar  
 29  12  45  1   
 30  13  16  ar  
 31  13  17  ar  
 32  14  18  1   
 33  14  19  ar  
 34  15  19  ar  
 35  15  46  1   
 36  16  20  ar  
 37  16  21  ar  
 38  17  22  ar  
 39  17  47  1   
 40  18  23  1   
 41  19  24  1   
 42  20  25  ar  
 43  20  26  ar  
 44  21  27  ar  
 45  21  48  1   
 46  22  25  ar  
 47  22  49  1   
 48  23  50  1   
 49  23  51  1   
 50  23  52  1   
 51  24  28  1   
 52  25  29  1   
 53  26  30  ar  
 54  26  53  1   
 55  27  30  ar  
 56  27  54  1   
 57  28  55  1   
 58  28  56  1   
 59  28  57  1   
 60  29  31  1   
 61  30  58  1   
 62  31  59  1   
 63  31  60  1   
 64  31  61  1   
@<TRIPOS>SUBSTRUCTURE
  1 ****  10 GROUP 4 **** **** 0

# MOE 2024.06 (io_trps.svl 2023.06)
