@<TRIPOS>MOLECULE
NONAME
51 54 1 0 0 
SMALL
USER_CHARGES


@<TRIPOS>ATOM
  1 O        3.3660    -1.7710     1.8880 O.2   1 <1>  -0.5700 
  2 C        4.0060    -0.9290     1.3150 C.2   1 <1>   0.5690 
  3 N        3.4990     0.2220     0.8450 N.am  1 <1>  -0.7300 
  4 C        5.4760    -1.0190     1.0140 C.3   1 <1>  -0.0990 
  5 C        4.4600     1.0240     0.0890 C.3   1 <1>   0.3000 
  6 C        5.7930     0.4380     0.6210 C.3   1 <1>  -0.1860 
  7 C        4.1630     0.7490    -1.4000 C.3   1 <1>  -0.1600 
  8 C        4.2820     2.5230     0.4140 C.3   1 <1>  -0.1600 
  9 C        6.9320     0.6640    -0.3330 C.2   1 <1>   0.9060 
 10 C        4.9870     1.6000    -2.3760 C.3   1 <1>   0.3430 
 11 C        4.4420     3.4520    -0.7960 C.3   1 <1>   0.3430 
 12 O        7.1440    -0.1350    -1.2420 O.co2 1 <1>  -0.9000 
 13 O        7.4520     1.7850    -0.3280 O.co2 1 <1>  -0.9000 
 14 N        5.4200     2.8810    -1.7550 N.4   1 <1>  -0.9590 
 15 C        5.9780     3.8270    -2.7500 C.3   1 <1>   0.4860 
 16 C        6.4640     5.0830    -2.0490 C.ar  1 <1>  -0.1440 
 17 C        7.5270     5.0080    -1.1640 C.ar  1 <1>  -0.1500 
 18 C        5.8480     6.3050    -2.2720 C.ar  1 <1>  -0.1500 
 19 C        7.9860     6.1230    -0.4670 C.ar  1 <1>   0.0530 
 20 C        6.2930     7.4300    -1.6030 C.ar  1 <1>  -0.1500 
 21 C        9.0740     6.0080     0.4770 C.2   1 <1>   0.0870 
 22 C        7.3470     7.3370    -0.7120 C.ar  1 <1>  -0.1500 
 23 O        9.6410     7.0930     0.9900 O.3   1 <1>  -0.2800 
 24 C        9.6890     4.9110     0.9970 C.2   1 <1>  -0.1500 
 25 C       10.5960     6.7230     1.8150 C.2   1 <1>  -0.0400 
 26 C       10.6780     5.3770     1.8650 C.2   1 <1>  -0.1500 
 27 C       11.3950     7.7900     2.5280 C.3   1 <1>  -0.0600 
 28 H        2.4990     0.4170     0.8850 H     1 <1>   0.3700 
 29 H        5.6290    -1.6970     0.1940 H     1 <1>   0.0800 
 30 H        6.0370    -1.3390     1.8720 H     1 <1>   0.0800 
 31 H        6.0580     0.9460     1.5290 H     1 <1>   0.0800 
 32 H        3.1240     0.9440    -1.5930 H     1 <1>   0.0800 
 33 H        4.3430    -0.2870    -1.6280 H     1 <1>   0.0800 
 34 H        4.9980     2.8290     1.1560 H     1 <1>   0.0800 
 35 H        3.3080     2.6990     0.8320 H     1 <1>   0.0800 
 36 H        4.4000     1.7900    -3.2590 H     1 <1>   0.0800 
 37 H        5.8630     1.0440    -2.6750 H     1 <1>   0.0800 
 38 H        4.7710     4.4200    -0.4520 H     1 <1>   0.0800 
 39 H        3.4920     3.5720    -1.2890 H     1 <1>   0.0800 
 40 H        6.2630     2.6190    -1.1780 H     1 <1>   0.4500 
 41 H        5.2260     4.0830    -3.4760 H     1 <1>   0.0800 
 42 H        6.8070     3.3630    -3.2600 H     1 <1>   0.0800 
 43 H        8.0200     4.0650    -1.0000 H     1 <1>   0.1500 
 44 H        5.0250     6.3950    -2.9610 H     1 <1>   0.1500 
 45 H        5.8220     8.3830    -1.7730 H     1 <1>   0.1500 
 46 H        7.6840     8.2170    -0.1930 H     1 <1>   0.1500 
 47 H        9.4750     3.8730     0.8000 H     1 <1>   0.1500 
 48 H       11.3470     4.7610     2.4370 H     1 <1>   0.1500 
 49 H       10.7390     8.3950     3.1260 H     1 <1>   0.0800 
 50 H       11.8860     8.4160     1.8060 H     1 <1>   0.0800 
 51 H       12.1350     7.3390     3.1630 H     1 <1>   0.0800 
@<TRIPOS>BOND
  1   1   2  2   
  2   2   3  am  
  3   2   4  1   
  4   3   5  1   
  5   3  28  1   
  6   4   6  1   
  7   4  29  1   
  8   4  30  1   
  9   5   6  1   
 10   5   7  1   
 11   5   8  1   
 12   6   9  1   
 13   6  31  1   
 14   7  10  1   
 15   7  32  1   
 16   7  33  1   
 17   8  11  1   
 18   8  34  1   
 19   8  35  1   
 20   9  12  ar  
 21   9  13  ar  
 22  10  14  1   
 23  10  36  1   
 24  10  37  1   
 25  11  14  1   
 26  11  38  1   
 27  11  39  1   
 28  14  15  1   
 29  14  40  1   
 30  15  16  1   
 31  15  41  1   
 32  15  42  1   
 33  16  17  ar  
 34  16  18  ar  
 35  17  19  ar  
 36  17  43  1   
 37  18  20  ar  
 38  18  44  1   
 39  19  21  1   
 40  19  22  ar  
 41  20  22  ar  
 42  20  45  1   
 43  21  23  1   
 44  21  24  2   
 45  22  46  1   
 46  23  25  1   
 47  24  26  1   
 48  24  47  1   
 49  25  26  2   
 50  25  27  1   
 51  26  48  1   
 52  27  49  1   
 53  27  50  1   
 54  27  51  1   
@<TRIPOS>SUBSTRUCTURE
  1 ****  13 GROUP 4 **** **** 0

# MOE 2024.06 (io_trps.svl 2023.06)
