@<TRIPOS>MOLECULE
NONAME
47 49 1 0 0 
SMALL
USER_CHARGES


@<TRIPOS>ATOM
  1 O       -1.1810     3.1940    -3.0960 O.co2 1 <1>  -0.9000 
  2 C       -1.6150     2.7720    -2.0040 C.2   1 <1>   0.9790 
  3 O       -2.5300     1.9220    -2.0490 O.co2 1 <1>  -0.9000 
  4 C       -1.1040     3.2380    -0.7060 C.ar  1 <1>   0.1310 
  5 N       -0.0450     4.0710    -0.5960 N.ar  1 <1>  -0.6200 
  6 C       -1.7690     2.7760     0.4360 C.ar  1 <1>   0.1600 
  7 C        0.2700     4.3870     0.6460 C.ar  1 <1>   0.4100 
  8 N       -1.4670     3.0800     1.6930 N.ar  1 <1>  -0.6200 
  9 N        1.3500     5.2380     0.8080 N.pl3 1 <1>  -0.8380 
 10 C       -0.4330     3.8940     1.7510 C.ar  1 <1>   0.1600 
 11 C        1.1810     6.5600     0.1570 C.3   1 <1>   0.2090 
 12 C        2.6550     4.6140     0.4800 C.3   1 <1>   0.2090 
 13 C        2.2800     7.5130     0.6360 C.3   1 <1>  -0.1600 
 14 C        3.7920     5.5200     0.9560 C.3   1 <1>  -0.1600 
 15 C        3.6850     6.9360     0.3530 C.3   1 <1>  -0.0800 
 16 C        4.8520     7.8370     0.8200 C.3   1 <1>   0.2000 
 17 O        4.7980     7.9990     2.1910 O.3   1 <1>  -0.6800 
 18 C        4.8610     9.2270     0.1680 C.3   1 <1>  -0.1600 
 19 C        6.1070    10.0450     0.5340 C.3   1 <1>  -0.0170 
 20 C        6.0830    11.3820    -0.1880 C.ar  1 <1>  -0.1430 
 21 C        6.6370    11.5060    -1.4530 C.ar  1 <1>  -0.1500 
 22 C        5.5000    12.4890     0.4100 C.ar  1 <1>  -0.1500 
 23 C        6.6090    12.7230    -2.1130 C.ar  1 <1>  -0.1500 
 24 C        5.4700    13.7060    -0.2490 C.ar  1 <1>  -0.1500 
 25 C        6.0250    13.8230    -1.5110 C.ar  1 <1>  -0.1500 
 26 H       -2.6060     2.1120     0.2950 H     1 <1>   0.1500 
 27 H       -0.0970     4.2110     2.7190 H     1 <1>   0.1500 
 28 H        0.2120     6.9600     0.4040 H     1 <1>   0.0800 
 29 H        1.2310     6.4410    -0.9130 H     1 <1>   0.0800 
 30 H        2.7180     4.4620    -0.5860 H     1 <1>   0.0800 
 31 H        2.7240     3.6530     0.9600 H     1 <1>   0.0800 
 32 H        2.1440     7.6780     1.6900 H     1 <1>   0.0800 
 33 H        2.1500     8.4500     0.1290 H     1 <1>   0.0800 
 34 H        4.7310     5.0760     0.6790 H     1 <1>   0.0800 
 35 H        3.7580     5.5680     2.0300 H     1 <1>   0.0800 
 36 H        3.7790     6.8310    -0.7150 H     1 <1>   0.0800 
 37 H        5.7840     7.3430     0.6000 H     1 <1>   0.0800 
 38 H        3.8990     8.2740     2.4500 H     1 <1>   0.4000 
 39 H        3.9840     9.7790     0.4510 H     1 <1>   0.0800 
 40 H        4.8370     9.1050    -0.9010 H     1 <1>   0.0800 
 41 H        6.9950     9.5030     0.2610 H     1 <1>   0.0800 
 42 H        6.1420    10.2100     1.5970 H     1 <1>   0.0800 
 43 H        7.0930    10.6560    -1.9280 H     1 <1>   0.1500 
 44 H        5.0660    12.4060     1.3910 H     1 <1>   0.1500 
 45 H        7.0410    12.8120    -3.0940 H     1 <1>   0.1500 
 46 H        5.0170    14.5610     0.2210 H     1 <1>   0.1500 
 47 H        6.0020    14.7690    -2.0240 H     1 <1>   0.1500 
@<TRIPOS>BOND
  1   1   2  ar  
  2   2   3  ar  
  3   2   4  1   
  4   4   5  ar  
  5   4   6  ar  
  6   5   7  ar  
  7   6   8  ar  
  8   6  26  1   
  9   7   9  1   
 10   7  10  ar  
 11   8  10  ar  
 12   9  11  1   
 13   9  12  1   
 14  10  27  1   
 15  11  13  1   
 16  11  28  1   
 17  11  29  1   
 18  12  14  1   
 19  12  30  1   
 20  12  31  1   
 21  13  15  1   
 22  13  32  1   
 23  13  33  1   
 24  14  15  1   
 25  14  34  1   
 26  14  35  1   
 27  15  16  1   
 28  15  36  1   
 29  16  17  1   
 30  16  18  1   
 31  16  37  1   
 32  17  38  1   
 33  18  19  1   
 34  18  39  1   
 35  18  40  1   
 36  19  20  1   
 37  19  41  1   
 38  19  42  1   
 39  20  21  ar  
 40  20  22  ar  
 41  21  23  ar  
 42  21  43  1   
 43  22  24  ar  
 44  22  44  1   
 45  23  25  ar  
 46  23  45  1   
 47  24  25  ar  
 48  24  46  1   
 49  25  47  1   
@<TRIPOS>SUBSTRUCTURE
  1 ****  13 GROUP 4 **** **** 0

# MOE 2024.06 (io_trps.svl 2023.06)
