@<TRIPOS>MOLECULE
NONAME
50 52 1 0 0 
SMALL
USER_CHARGES


@<TRIPOS>ATOM
  1 CL       1.3970    -0.4120     2.4810 Cl    1 <1>  -0.1770 
  2 C        1.6710    -1.1450     0.9100 C.ar  1 <1>   0.1770 
  3 C        1.3070    -2.4630     0.6620 C.ar  1 <1>   0.4100 
  4 C        2.2510    -0.4300    -0.1000 C.ar  1 <1>   0.1600 
  5 N        1.5180    -3.0050    -0.5260 N.ar  1 <1>  -0.6200 
  6 N        0.7120    -3.2470     1.6290 N.pl3 1 <1>  -0.8690 
  7 N        2.4700    -0.9630    -1.2900 N.ar  1 <1>  -0.6200 
  8 C        2.0910    -2.2230    -1.4270 C.ar  1 <1>   0.4770 
  9 C        0.5890    -4.7140     1.5410 C.3   1 <1>   0.2090 
 10 C        2.3430    -2.8370    -2.7840 C.3   1 <1>  -0.0970 
 11 C       -0.7370    -5.0340     0.8480 C.3   1 <1>  -0.1600 
 12 C       -0.7930    -6.4790     0.3450 C.3   1 <1>   0.4230 
 13 N       -1.9270    -6.7600    -0.6230 N.4   1 <1>  -0.9590 
 14 C       -0.8170    -7.5090     1.4850 C.3   1 <1>  -0.1600 
 15 C       -3.2410    -6.1000    -0.2870 C.3   1 <1>   0.4230 
 16 C       -2.0910    -8.2380    -0.8960 C.3   1 <1>   0.3430 
 17 C       -0.5240    -8.9250     0.9570 C.3   1 <1>  -0.1600 
 18 C       -4.4750    -6.7880    -0.8880 C.3   1 <1>  -0.1600 
 19 C       -3.3180    -4.6650    -0.8370 C.3   1 <1>  -0.1600 
 20 C       -0.8480    -9.0540    -0.5400 C.3   1 <1>  -0.1600 
 21 C       -5.5180    -5.6850    -1.0150 C.3   1 <1>  -0.1600 
 22 C       -4.7070    -4.4750    -1.4570 C.3   1 <1>  -0.1600 
 23 H        2.5420     0.5930     0.0620 H     1 <1>   0.1500 
 24 H        0.6610    -2.8460     2.5730 H     1 <1>   0.4000 
 25 H        0.6230    -5.1350     2.5310 H     1 <1>   0.0800 
 26 H        1.4190    -5.1060     0.9740 H     1 <1>   0.0800 
 27 H        2.3780    -3.9080    -2.7110 H     1 <1>   0.0800 
 28 H        3.2790    -2.4850    -3.1750 H     1 <1>   0.0800 
 29 H        1.5540    -2.5520    -3.4540 H     1 <1>   0.0800 
 30 H       -0.8040    -4.3820    -0.0020 H     1 <1>   0.0800 
 31 H       -1.5390    -4.8290     1.5320 H     1 <1>   0.0800 
 32 H        0.1290    -6.6420    -0.1910 H     1 <1>   0.0800 
 33 H       -1.6380    -6.3330    -1.5110 H     1 <1>   0.4500 
 34 H       -1.7780    -7.4830     1.9690 H     1 <1>   0.0800 
 35 H       -0.0800    -7.2750     2.2320 H     1 <1>   0.0800 
 36 H       -3.3700    -6.0690     0.7830 H     1 <1>   0.0800 
 37 H       -2.3420    -8.3920    -1.9340 H     1 <1>   0.0800 
 38 H       -2.9020    -8.6220    -0.3000 H     1 <1>   0.0800 
 39 H       -1.1050    -9.6360     1.5220 H     1 <1>   0.0800 
 40 H        0.5150    -9.1680     1.1090 H     1 <1>   0.0800 
 41 H       -4.8400    -7.5840    -0.2630 H     1 <1>   0.0800 
 42 H       -4.2730    -7.1540    -1.8800 H     1 <1>   0.0800 
 43 H       -2.5680    -4.4710    -1.5830 H     1 <1>   0.0800 
 44 H       -3.2030    -3.9630    -0.0290 H     1 <1>   0.0800 
 45 H       -0.0170    -8.7230    -1.1400 H     1 <1>   0.0800 
 46 H       -1.0190   -10.0900    -0.7780 H     1 <1>   0.0800 
 47 H       -5.9680    -5.4910    -0.0550 H     1 <1>   0.0800 
 48 H       -6.2920    -5.9320    -1.7220 H     1 <1>   0.0800 
 49 H       -4.6270    -4.4710    -2.5320 H     1 <1>   0.0800 
 50 H       -5.1690    -3.5530    -1.1440 H     1 <1>   0.0800 
@<TRIPOS>BOND
  1   1   2  1   
  2   2   3  ar  
  3   2   4  ar  
  4   3   5  ar  
  5   3   6  1   
  6   4   7  ar  
  7   4  23  1   
  8   5   8  ar  
  9   6   9  1   
 10   6  24  1   
 11   7   8  ar  
 12   8  10  1   
 13   9  11  1   
 14   9  25  1   
 15   9  26  1   
 16  10  27  1   
 17  10  28  1   
 18  10  29  1   
 19  11  12  1   
 20  11  30  1   
 21  11  31  1   
 22  12  13  1   
 23  12  14  1   
 24  12  32  1   
 25  13  15  1   
 26  13  16  1   
 27  13  33  1   
 28  14  17  1   
 29  14  34  1   
 30  14  35  1   
 31  15  18  1   
 32  15  19  1   
 33  15  36  1   
 34  16  20  1   
 35  16  37  1   
 36  16  38  1   
 37  17  20  1   
 38  17  39  1   
 39  17  40  1   
 40  18  21  1   
 41  18  41  1   
 42  18  42  1   
 43  19  22  1   
 44  19  43  1   
 45  19  44  1   
 46  20  45  1   
 47  20  46  1   
 48  21  22  1   
 49  21  47  1   
 50  21  48  1   
 51  22  49  1   
 52  22  50  1   
@<TRIPOS>SUBSTRUCTURE
  1 ****  11 GROUP 4 **** **** 0

# MOE 2024.06 (io_trps.svl 2023.06)
