@<TRIPOS>MOLECULE
NONAME
42 42 1 0 0 
SMALL
USER_CHARGES


@<TRIPOS>ATOM
  1 S        1.6090    -1.4970    -0.7100 S.3   1 <1>  -0.3310 
  2 C        0.3150    -2.3820     0.1730 C.ar  1 <1>   0.1020 
  3 C        2.5900    -0.5800     0.5590 C.3   1 <1>  -0.0100 
  4 C       -0.5670    -3.1170    -0.5960 C.ar  1 <1>  -0.1500 
  5 C        0.1970    -2.3440     1.5520 C.ar  1 <1>  -0.1500 
  6 C       -1.5830    -3.8380     0.0150 C.ar  1 <1>  -0.1430 
  7 C       -0.8230    -3.0540     2.1620 C.ar  1 <1>  -0.1500 
  8 C       -1.7100    -3.7950     1.3980 C.ar  1 <1>  -0.1500 
  9 C       -2.5410    -4.6560    -0.8270 C.3   1 <1>   0.4860 
 10 N       -2.3860    -6.1030    -0.5030 N.4   1 <1>  -0.9590 
 11 C       -1.2650    -6.8420    -1.1510 C.3   1 <1>   0.4230 
 12 C       -3.6750    -6.8120    -0.7050 C.3   1 <1>   0.3430 
 13 C        0.0210    -6.6390    -0.3570 C.3   1 <1>  -0.2400 
 14 C       -1.0850    -6.4630    -2.6210 C.3   1 <1>  -0.2400 
 15 C       -3.7470    -7.9900     0.2520 C.3   1 <1>  -0.1600 
 16 C       -5.0850    -8.7260     0.1150 C.3   1 <1>  -0.2660 
 17 C       -5.1100    -9.8940     1.0630 C.2   1 <1>   0.9060 
 18 O       -4.5750   -10.9400     0.6950 O.co2 1 <1>  -0.9000 
 19 O       -5.5870    -9.7150     2.1830 O.co2 1 <1>  -0.9000 
 20 H        3.3570    -0.0320     0.0410 H     1 <1>   0.0800 
 21 H        3.0230    -1.3000     1.2300 H     1 <1>   0.0800 
 22 H        1.9250     0.0900     1.0730 H     1 <1>   0.0800 
 23 H       -0.4400    -3.1120    -1.6640 H     1 <1>   0.1500 
 24 H        0.8780    -1.7760     2.1560 H     1 <1>   0.1500 
 25 H       -0.9260    -3.0250     3.2340 H     1 <1>   0.1500 
 26 H       -2.4990    -4.3300     1.9000 H     1 <1>   0.1500 
 27 H       -2.3730    -4.4760    -1.8750 H     1 <1>   0.0800 
 28 H       -3.5430    -4.3370    -0.5930 H     1 <1>   0.0800 
 29 H       -2.1940    -6.1400     0.5040 H     1 <1>   0.4500 
 30 H       -1.4890    -7.8970    -1.1140 H     1 <1>   0.0800 
 31 H       -3.7670    -7.1540    -1.7240 H     1 <1>   0.0800 
 32 H       -4.5010    -6.1520    -0.4910 H     1 <1>   0.0800 
 33 H        0.3920    -5.6360    -0.4400 H     1 <1>   0.0800 
 34 H        0.7800    -7.2970    -0.7400 H     1 <1>   0.0800 
 35 H       -0.1300    -6.8830     0.6790 H     1 <1>   0.0800 
 36 H       -0.7050    -5.4630    -2.7300 H     1 <1>   0.0800 
 37 H       -2.0090    -6.5680    -3.1600 H     1 <1>   0.0800 
 38 H       -0.3690    -7.1290    -3.0680 H     1 <1>   0.0800 
 39 H       -3.6560    -7.6510     1.2700 H     1 <1>   0.0800 
 40 H       -2.9620    -8.7000     0.0560 H     1 <1>   0.0800 
 41 H       -5.2180    -9.1100    -0.8790 H     1 <1>   0.0800 
 42 H       -5.9100    -8.0840     0.3580 H     1 <1>   0.0800 
@<TRIPOS>BOND
  1   1   2  1   
  2   1   3  1   
  3   2   4  ar  
  4   2   5  ar  
  5   3  20  1   
  6   3  21  1   
  7   3  22  1   
  8   4   6  ar  
  9   4  23  1   
 10   5   7  ar  
 11   5  24  1   
 12   6   8  ar  
 13   6   9  1   
 14   7   8  ar  
 15   7  25  1   
 16   8  26  1   
 17   9  10  1   
 18   9  27  1   
 19   9  28  1   
 20  10  11  1   
 21  10  12  1   
 22  10  29  1   
 23  11  13  1   
 24  11  14  1   
 25  11  30  1   
 26  12  15  1   
 27  12  31  1   
 28  12  32  1   
 29  13  33  1   
 30  13  34  1   
 31  13  35  1   
 32  14  36  1   
 33  14  37  1   
 34  14  38  1   
 35  15  16  1   
 36  15  39  1   
 37  15  40  1   
 38  16  17  1   
 39  16  41  1   
 40  16  42  1   
 41  17  18  ar  
 42  17  19  ar  
@<TRIPOS>SUBSTRUCTURE
  1 ****  10 GROUP 4 **** **** 0

# MOE 2024.06 (io_trps.svl 2023.06)
