@<TRIPOS>MOLECULE
NONAME
50 52 1 0 0 
SMALL
USER_CHARGES


@<TRIPOS>ATOM
  1 F        1.7460     0.9890    -2.7750 F     1 <1>  -0.1900 
  2 C        2.5610     1.4820    -1.8650 C.ar  1 <1>   0.1900 
  3 C        3.2190     0.6680    -0.9470 C.ar  1 <1>   0.4100 
  4 C        2.7700     2.8300    -1.8160 C.ar  1 <1>   0.1600 
  5 N        4.0300     1.1920    -0.0610 N.ar  1 <1>  -0.6200 
  6 N        3.1160    -0.7000    -0.8530 N.pl3 1 <1>  -0.8690 
  7 N        3.5780     3.3680    -0.9250 N.ar  1 <1>  -0.6200 
  8 C        4.1780     2.5150    -0.0910 C.ar  1 <1>   0.7200 
  9 C        1.8510    -1.4340    -1.0940 C.3   1 <1>   0.1290 
 10 N        5.0410     3.0590     0.8400 N.pl3 1 <1>  -0.8380 
 11 C        6.2690     2.3360     1.2680 C.3   1 <1>   0.2090 
 12 C        4.9870     4.4910     1.2290 C.3   1 <1>   0.2090 
 13 C        7.4970     3.0530     0.7050 C.3   1 <1>  -0.1600 
 14 C        6.2030     5.2180     0.6510 C.3   1 <1>  -0.1600 
 15 C        7.5200     4.5480     1.0850 C.3   1 <1>  -0.0190 
 16 C        8.7250     5.2910     0.5090 C.2   1 <1>   0.5690 
 17 O        9.2950     4.8710    -0.4700 O.2   1 <1>  -0.5700 
 18 N        9.1220     6.4360     1.1220 N.am  1 <1>  -0.7300 
 19 C       10.2630     7.2700     0.6730 C.3   1 <1>   0.1400 
 20 C        9.7680     8.3690    -0.2660 C.3   1 <1>  -0.0170 
 21 C       10.9320     9.2350    -0.7190 C.ar  1 <1>  -0.1430 
 22 C       11.7290     8.8230    -1.7760 C.ar  1 <1>  -0.1500 
 23 C       11.2110    10.4350    -0.0830 C.ar  1 <1>  -0.1500 
 24 C       12.7950     9.6020    -2.1920 C.ar  1 <1>  -0.1500 
 25 C       12.2770    11.2150    -0.4990 C.ar  1 <1>  -0.1500 
 26 C       13.0690    10.7990    -1.5540 C.ar  1 <1>  -0.1500 
 27 H        2.2720     3.4780    -2.5150 H     1 <1>   0.1500 
 28 H        3.6670    -1.0520    -0.0640 H     1 <1>   0.4000 
 29 H        1.0120    -0.8470    -0.7590 H     1 <1>   0.0800 
 30 H        1.8620    -2.3670    -0.5570 H     1 <1>   0.0800 
 31 H        1.7440    -1.6370    -2.1460 H     1 <1>   0.0800 
 32 H        6.2650     1.3170     0.9210 H     1 <1>   0.0800 
 33 H        6.3080     2.3190     2.3440 H     1 <1>   0.0800 
 34 H        4.9950     4.5580     2.3030 H     1 <1>   0.0800 
 35 H        4.0790     4.9550     0.8820 H     1 <1>   0.0800 
 36 H        7.4870     2.9500    -0.3670 H     1 <1>   0.0800 
 37 H        8.3880     2.5720     1.0680 H     1 <1>   0.0800 
 38 H        6.1850     6.2430     0.9730 H     1 <1>   0.0800 
 39 H        6.1290     5.2100    -0.4230 H     1 <1>   0.0800 
 40 H        7.5910     4.6070     2.1560 H     1 <1>   0.0800 
 41 H        8.6070     6.7850     1.9300 H     1 <1>   0.3700 
 42 H       10.9800     6.6540     0.1560 H     1 <1>   0.0800 
 43 H       10.7510     7.7050     1.5280 H     1 <1>   0.0800 
 44 H        9.0370     8.9760     0.2360 H     1 <1>   0.0800 
 45 H        9.3030     7.9190    -1.1260 H     1 <1>   0.0800 
 46 H       11.5230     7.8930    -2.2770 H     1 <1>   0.1500 
 47 H       10.6030    10.7700     0.7390 H     1 <1>   0.1500 
 48 H       13.4090     9.2760    -3.0130 H     1 <1>   0.1500 
 49 H       12.4890    12.1450    -0.0020 H     1 <1>   0.1500 
 50 H       13.8970    11.4040    -1.8780 H     1 <1>   0.1500 
@<TRIPOS>BOND
  1   1   2  1   
  2   2   3  ar  
  3   2   4  ar  
  4   3   5  ar  
  5   3   6  1   
  6   4   7  ar  
  7   4  27  1   
  8   5   8  ar  
  9   6   9  1   
 10   6  28  1   
 11   7   8  ar  
 12   8  10  1   
 13   9  29  1   
 14   9  30  1   
 15   9  31  1   
 16  10  11  1   
 17  10  12  1   
 18  11  13  1   
 19  11  32  1   
 20  11  33  1   
 21  12  14  1   
 22  12  34  1   
 23  12  35  1   
 24  13  15  1   
 25  13  36  1   
 26  13  37  1   
 27  14  15  1   
 28  14  38  1   
 29  14  39  1   
 30  15  16  1   
 31  15  40  1   
 32  16  17  2   
 33  16  18  am  
 34  18  19  1   
 35  18  41  1   
 36  19  20  1   
 37  19  42  1   
 38  19  43  1   
 39  20  21  1   
 40  20  44  1   
 41  20  45  1   
 42  21  22  ar  
 43  21  23  ar  
 44  22  24  ar  
 45  22  46  1   
 46  23  25  ar  
 47  23  47  1   
 48  24  26  ar  
 49  24  48  1   
 50  25  26  ar  
 51  25  49  1   
 52  26  50  1   
@<TRIPOS>SUBSTRUCTURE
  1 ****  14 GROUP 4 **** **** 0

# MOE 2024.06 (io_trps.svl 2023.06)
