@<TRIPOS>MOLECULE
NONAME
45 48 1 0 0 
SMALL
USER_CHARGES


@<TRIPOS>ATOM
  1 O        0.3480     0.7090     1.0820 O.3   1 <1>  -0.0190 
  2 N        1.1820    -0.2900     1.0380 N.2   1 <1>  -0.4100 
  3 C        0.7520     1.7170     0.3550 C.2   1 <1>  -0.0400 
  4 C        2.1400     0.0790     0.2670 C.2   1 <1>   0.1080 
  5 C        1.9210     1.3690    -0.2080 C.2   1 <1>  -0.1500 
  6 C       -0.1100     2.9670     0.2990 C.3   1 <1>   0.0200 
  7 C        3.3360    -0.7820    -0.0720 C.3   1 <1>  -0.0590 
  8 C        0.5920     4.1520    -0.3930 C.3   1 <1>  -0.0800 
  9 C       -0.2870     5.3860    -0.6140 C.3   1 <1>   0.2000 
 10 C        1.8140     4.6800     0.3800 C.3   1 <1>   0.1100 
 11 O       -1.0860     5.5930     0.4950 O.3   1 <1>  -0.6800 
 12 C        0.7380     6.5120    -0.6400 C.3   1 <1>   0.1100 
 13 N        1.6830     6.1440     0.4260 N.3   1 <1>  -0.8100 
 14 C        2.9790     6.8620     0.3580 C.3   1 <1>   0.2900 
 15 C        2.8980     8.3830     0.5220 C.2   1 <1>   0.2980 
 16 O        3.9550     9.0760     0.2080 O.3   1 <1>  -0.2800 
 17 N        1.9100     9.0790     0.9360 N.2   1 <1>  -0.3380 
 18 C        3.5310    10.2920     0.4660 C.2   1 <1>   0.4250 
 19 N        2.3180    10.3260     0.8990 N.2   1 <1>  -0.3380 
 20 C        4.4090    11.4260     0.2530 C.ar  1 <1>   0.0530 
 21 C        5.7150    11.2680    -0.2200 C.ar  1 <1>  -0.1500 
 22 C        3.9800    12.7290     0.5130 C.ar  1 <1>  -0.1500 
 23 C        6.5480    12.3540    -0.4220 C.ar  1 <1>  -0.1500 
 24 C        4.8080    13.8190     0.3130 C.ar  1 <1>  -0.1500 
 25 C        6.0960    13.6330    -0.1560 C.ar  1 <1>  -0.1500 
 26 H        2.5650     1.9140    -0.8720 H     1 <1>   0.1500 
 27 H       -1.0190     2.7320    -0.2260 H     1 <1>   0.0800 
 28 H       -0.3780     3.2400     1.3050 H     1 <1>   0.0800 
 29 H        3.4260    -0.8820    -1.1380 H     1 <1>   0.0800 
 30 H        3.2170    -1.7600     0.3600 H     1 <1>   0.0800 
 31 H        4.2300    -0.3350     0.3210 H     1 <1>   0.0800 
 32 H        0.9310     3.8260    -1.3600 H     1 <1>   0.0800 
 33 H       -0.9070     5.3340    -1.4910 H     1 <1>   0.0800 
 34 H        2.7190     4.3860    -0.1240 H     1 <1>   0.0800 
 35 H        1.8350     4.2970     1.3870 H     1 <1>   0.0800 
 36 H       -0.4940     5.9290     1.2030 H     1 <1>   0.4000 
 37 H        0.2800     7.4700    -0.4590 H     1 <1>   0.0800 
 38 H        1.2380     6.5260    -1.5930 H     1 <1>   0.0800 
 39 H        3.6190     6.4880     1.1380 H     1 <1>   0.0800 
 40 H        3.4500     6.6500    -0.5850 H     1 <1>   0.0800 
 41 H        6.0880    10.2820    -0.4340 H     1 <1>   0.1500 
 42 H        2.9810    12.8920     0.8790 H     1 <1>   0.1500 
 43 H        7.5490    12.2050    -0.7880 H     1 <1>   0.1500 
 44 H        4.4510    14.8130     0.5220 H     1 <1>   0.1500 
 45 H        6.7420    14.4800    -0.3130 H     1 <1>   0.1500 
@<TRIPOS>BOND
  1   1   2  1   
  2   1   3  1   
  3   2   4  2   
  4   3   5  2   
  5   3   6  1   
  6   4   5  1   
  7   4   7  1   
  8   5  26  1   
  9   6   8  1   
 10   6  27  1   
 11   6  28  1   
 12   7  29  1   
 13   7  30  1   
 14   7  31  1   
 15   8   9  1   
 16   8  10  1   
 17   8  32  1   
 18   9  11  1   
 19   9  12  1   
 20   9  33  1   
 21  10  13  1   
 22  10  34  1   
 23  10  35  1   
 24  11  36  1   
 25  12  13  1   
 26  12  37  1   
 27  12  38  1   
 28  13  14  1   
 29  14  15  1   
 30  14  39  1   
 31  14  40  1   
 32  15  16  1   
 33  15  17  2   
 34  16  18  1   
 35  17  19  1   
 36  18  19  2   
 37  18  20  1   
 38  20  21  ar  
 39  20  22  ar  
 40  21  23  ar  
 41  21  41  1   
 42  22  24  ar  
 43  22  42  1   
 44  23  25  ar  
 45  23  43  1   
 46  24  25  ar  
 47  24  44  1   
 48  25  45  1   
@<TRIPOS>SUBSTRUCTURE
  1 ****  14 GROUP 4 **** **** 0

# MOE 2024.06 (io_trps.svl 2023.06)
