@<TRIPOS>MOLECULE
NONAME
65 68 1 0 0 
SMALL
USER_CHARGES


@<TRIPOS>ATOM
  1 O        0.1110     1.2650    -0.4450 O.3   1 <1>  -0.5600 
  2 C        1.0430     0.5030    -1.1510 C.3   1 <1>   0.1200 
  3 C        0.5770     1.7820     0.7660 C.3   1 <1>   0.1200 
  4 C        2.2840     1.3530    -1.4840 C.3   1 <1>   0.3430 
  5 C        1.7970     2.6900     0.5230 C.3   1 <1>   0.3430 
  6 N        2.8870     1.9870    -0.2520 N.4   1 <1>  -0.9590 
  7 C        4.0430     2.8860    -0.5660 C.3   1 <1>   0.4230 
  8 C        4.6240     3.4780     0.7330 C.3   1 <1>  -0.1600 
  9 C        5.1210     2.1170    -1.3600 C.3   1 <1>  -0.1600 
 10 C        5.8850     4.3030     0.4340 C.3   1 <1>  -0.0800 
 11 C        6.4290     2.9160    -1.5510 C.3   1 <1>  -0.1600 
 12 C        7.0180     3.4630    -0.2280 C.3   1 <1>   0.0000 
 13 C        6.3650     5.1250     1.6490 C.3   1 <1>  -0.1600 
 14 C        8.2490     4.3690    -0.5430 C.3   1 <1>   0.2090 
 15 C        7.5070     2.2500     0.6160 C.3   1 <1>   0.1200 
 16 C        7.7560     5.7480     1.4340 C.3   1 <1>   0.2090 
 17 N        8.0900     5.7520    -0.0110 N.pl3 1 <1>  -0.8380 
 18 O        8.0030     2.6460     1.8530 O.3   1 <1>  -0.5600 
 19 C        8.9520     6.7260    -0.4600 C.ar  1 <1>   0.4100 
 20 C        8.6630     1.6460     2.5590 C.3   1 <1>   0.0400 
 21 N       10.2360     6.4290    -0.4620 N.ar  1 <1>  -0.6200 
 22 C        8.4970     7.9670    -0.8870 C.ar  1 <1>  -0.1430 
 23 C       11.0480     7.3780    -0.8780 C.ar  1 <1>   0.4770 
 24 C        9.4470     8.8650    -1.3000 C.ar  1 <1>   0.1600 
 25 C        7.0170     8.3350    -0.9180 C.3   1 <1>  -0.0170 
 26 N       10.7360     8.5890    -1.3010 N.ar  1 <1>  -0.6200 
 27 C       12.5190     7.0420    -0.8770 C.3   1 <1>  -0.0970 
 28 C        6.3550     7.8080    -2.1940 C.3   1 <1>  -0.2400 
 29 H        1.3040    -0.3610    -0.5640 H     1 <1>   0.0800 
 30 H        0.5690     0.1680    -2.0580 H     1 <1>   0.0800 
 31 H       -0.2240     2.3480     1.2080 H     1 <1>   0.0800 
 32 H        0.8210     0.9650     1.4230 H     1 <1>   0.0800 
 33 H        1.9900     2.1200    -2.1810 H     1 <1>   0.0800 
 34 H        3.0100     0.7240    -1.9710 H     1 <1>   0.0800 
 35 H        2.1740     3.0200     1.4770 H     1 <1>   0.0800 
 36 H        1.4680     3.5610    -0.0210 H     1 <1>   0.0800 
 37 H        3.2450     1.2310     0.3430 H     1 <1>   0.4500 
 38 H        3.7010     3.7050    -1.1780 H     1 <1>   0.0800 
 39 H        3.9120     4.1430     1.1840 H     1 <1>   0.0800 
 40 H        4.8620     2.7010     1.4370 H     1 <1>   0.0800 
 41 H        5.3440     1.1890    -0.8660 H     1 <1>   0.0800 
 42 H        4.7530     1.8870    -2.3440 H     1 <1>   0.0800 
 43 H        5.5950     5.0440    -0.2950 H     1 <1>   0.0800 
 44 H        6.2310     3.7460    -2.2100 H     1 <1>   0.0800 
 45 H        7.1590     2.2950    -2.0440 H     1 <1>   0.0800 
 46 H        6.4020     4.5150     2.5330 H     1 <1>   0.0800 
 47 H        5.6650     5.9180     1.8400 H     1 <1>   0.0800 
 48 H        8.4100     4.4340    -1.6050 H     1 <1>   0.0800 
 49 H        9.1440     3.9460    -0.1160 H     1 <1>   0.0800 
 50 H        8.2970     1.7440     0.0860 H     1 <1>   0.0800 
 51 H        6.7170     1.5490     0.8010 H     1 <1>   0.0800 
 52 H        8.5000     5.1700     1.9560 H     1 <1>   0.0800 
 53 H        7.7850     6.7510     1.8250 H     1 <1>   0.0800 
 54 H        8.9840     2.0570     3.5000 H     1 <1>   0.0800 
 55 H        9.5230     1.3230     1.9970 H     1 <1>   0.0800 
 56 H        7.9900     0.8250     2.7310 H     1 <1>   0.0800 
 57 H        9.1540     9.8410    -1.6450 H     1 <1>   0.1500 
 58 H        6.5200     7.9250    -0.0580 H     1 <1>   0.0800 
 59 H        6.9060     9.4050    -0.8740 H     1 <1>   0.0800 
 60 H       13.0820     7.8780    -0.5060 H     1 <1>   0.0800 
 61 H       12.8310     6.8220    -1.8800 H     1 <1>   0.0800 
 62 H       12.7070     6.1890    -0.2530 H     1 <1>   0.0800 
 63 H        6.4440     6.7370    -2.2360 H     1 <1>   0.0800 
 64 H        6.8330     8.2280    -3.0610 H     1 <1>   0.0800 
 65 H        5.3130     8.0730    -2.2080 H     1 <1>   0.0800 
@<TRIPOS>BOND
  1   1   2  1   
  2   1   3  1   
  3   2   4  1   
  4   2  29  1   
  5   2  30  1   
  6   3   5  1   
  7   3  31  1   
  8   3  32  1   
  9   4   6  1   
 10   4  33  1   
 11   4  34  1   
 12   5   6  1   
 13   5  35  1   
 14   5  36  1   
 15   6   7  1   
 16   6  37  1   
 17   7   8  1   
 18   7   9  1   
 19   7  38  1   
 20   8  10  1   
 21   8  39  1   
 22   8  40  1   
 23   9  11  1   
 24   9  41  1   
 25   9  42  1   
 26  10  12  1   
 27  10  13  1   
 28  10  43  1   
 29  11  12  1   
 30  11  44  1   
 31  11  45  1   
 32  12  14  1   
 33  12  15  1   
 34  13  16  1   
 35  13  46  1   
 36  13  47  1   
 37  14  17  1   
 38  14  48  1   
 39  14  49  1   
 40  15  18  1   
 41  15  50  1   
 42  15  51  1   
 43  16  17  1   
 44  16  52  1   
 45  16  53  1   
 46  17  19  1   
 47  18  20  1   
 48  19  21  ar  
 49  19  22  ar  
 50  20  54  1   
 51  20  55  1   
 52  20  56  1   
 53  21  23  ar  
 54  22  24  ar  
 55  22  25  1   
 56  23  26  ar  
 57  23  27  1   
 58  24  26  ar  
 59  24  57  1   
 60  25  28  1   
 61  25  58  1   
 62  25  59  1   
 63  27  60  1   
 64  27  61  1   
 65  27  62  1   
 66  28  63  1   
 67  28  64  1   
 68  28  65  1   
@<TRIPOS>SUBSTRUCTURE
  1 ****  10 GROUP 4 **** **** 0

# MOE 2024.06 (io_trps.svl 2023.06)
