@<TRIPOS>MOLECULE
NONAME
55 58 1 0 0 
SMALL
USER_CHARGES


@<TRIPOS>ATOM
  1 O       -0.4790     0.8570    -0.6950 O.2   1 <1>  -0.5700 
  2 C       -1.5990     1.1510    -0.3410 C.2   1 <1>   0.5690 
  3 N       -2.6120     0.2210    -0.3500 N.am  1 <1>  -0.6600 
  4 C       -1.8550     2.5910     0.1300 C.3   1 <1>  -0.0190 
  5 C       -3.9680     0.4670     0.2280 C.3   1 <1>   0.1400 
  6 C       -2.3640    -1.1340    -0.9300 C.3   1 <1>   0.1400 
  7 C       -1.0090     3.6680    -0.5570 C.3   1 <1>  -0.1600 
  8 C       -1.5490     2.8120     1.6140 C.3   1 <1>  -0.1600 
  9 C       -4.6400    -0.8520     0.6040 C.3   1 <1>  -0.1600 
 10 C       -3.6310    -1.6900    -1.5860 C.3   1 <1>  -0.1600 
 11 C       -1.0960     4.8800     0.3690 C.3   1 <1>  -0.1600 
 12 C       -1.3610     4.3230     1.7740 C.3   1 <1>  -0.1600 
 13 C       -4.8530    -1.7310    -0.6420 C.3   1 <1>   0.4240 
 14 O       -5.8980    -1.1480    -1.3850 O.3   1 <1>  -0.5600 
 15 C       -5.1750    -3.1880    -0.2410 C.ar  1 <1>  -0.1440 
 16 C       -7.2100    -1.4790    -1.0440 C.3   1 <1>   0.1200 
 17 C       -6.3940    -3.7740    -0.5530 C.ar  1 <1>  -0.1440 
 18 C       -4.2370    -3.9490     0.4440 C.ar  1 <1>  -0.1500 
 19 C       -7.4330    -2.9660    -1.3030 C.3   1 <1>  -0.0170 
 20 C       -6.6630    -5.0820    -0.1840 C.ar  1 <1>  -0.1500 
 21 C       -4.4840    -5.2590     0.8160 C.ar  1 <1>   0.0820 
 22 C       -5.7250    -5.8420     0.5100 C.ar  1 <1>   0.0820 
 23 O       -3.4530    -5.8660     1.4710 O.3   1 <1>  -0.3620 
 24 O       -5.9990    -7.1200     0.9040 O.3   1 <1>  -0.3620 
 25 C       -3.2480    -7.2590     1.4010 C.3   1 <1>   0.0400 
 26 C       -7.2820    -7.6910     0.7700 C.3   1 <1>   0.0400 
 27 H       -2.8820     2.8470    -0.0520 H     1 <1>   0.0800 
 28 H       -4.5710     0.9870    -0.4970 H     1 <1>   0.0800 
 29 H       -3.8850     1.0780     1.1090 H     1 <1>   0.0800 
 30 H       -2.0290    -1.7920    -0.1460 H     1 <1>   0.0800 
 31 H       -1.5820    -1.0800    -1.6680 H     1 <1>   0.0800 
 32 H       -1.3620     3.8850    -1.5500 H     1 <1>   0.0800 
 33 H        0.0180     3.3450    -0.6150 H     1 <1>   0.0800 
 34 H       -0.6260     2.3120     1.8580 H     1 <1>   0.0800 
 35 H       -2.3280     2.4330     2.2510 H     1 <1>   0.0800 
 36 H       -5.5760    -0.6640     1.0930 H     1 <1>   0.0800 
 37 H       -4.0150    -1.3560     1.3170 H     1 <1>   0.0800 
 38 H       -3.4240    -2.6760    -1.9580 H     1 <1>   0.0800 
 39 H       -3.8470    -1.0720    -2.4400 H     1 <1>   0.0800 
 40 H       -1.9200     5.5050     0.0700 H     1 <1>   0.0800 
 41 H       -0.1900     5.4600     0.3360 H     1 <1>   0.0800 
 42 H       -0.5360     4.5310     2.4340 H     1 <1>   0.0800 
 43 H       -2.2520     4.7710     2.1800 H     1 <1>   0.0800 
 44 H       -7.8680    -0.8880    -1.6570 H     1 <1>   0.0800 
 45 H       -7.3820    -1.2390    -0.0100 H     1 <1>   0.0800 
 46 H       -3.2810    -3.5330     0.7020 H     1 <1>   0.1500 
 47 H       -7.3530    -3.1610    -2.3580 H     1 <1>   0.0800 
 48 H       -8.4220    -3.2360    -0.9810 H     1 <1>   0.0800 
 49 H       -7.6170    -5.4940    -0.4500 H     1 <1>   0.1500 
 50 H       -2.2340    -7.4640     1.6910 H     1 <1>   0.0800 
 51 H       -3.4180    -7.5890     0.3910 H     1 <1>   0.0800 
 52 H       -3.9260    -7.7430     2.0800 H     1 <1>   0.0800 
 53 H       -7.2600    -8.6700     1.2150 H     1 <1>   0.0800 
 54 H       -7.5210    -7.7720    -0.2760 H     1 <1>   0.0800 
 55 H       -7.9960    -7.0730     1.2840 H     1 <1>   0.0800 
@<TRIPOS>BOND
  1   1   2  2   
  2   2   3  am  
  3   2   4  1   
  4   3   5  1   
  5   3   6  1   
  6   4   7  1   
  7   4   8  1   
  8   4  27  1   
  9   5   9  1   
 10   5  28  1   
 11   5  29  1   
 12   6  10  1   
 13   6  30  1   
 14   6  31  1   
 15   7  11  1   
 16   7  32  1   
 17   7  33  1   
 18   8  12  1   
 19   8  34  1   
 20   8  35  1   
 21   9  13  1   
 22   9  36  1   
 23   9  37  1   
 24  10  13  1   
 25  10  38  1   
 26  10  39  1   
 27  11  12  1   
 28  11  40  1   
 29  11  41  1   
 30  12  42  1   
 31  12  43  1   
 32  13  14  1   
 33  13  15  1   
 34  14  16  1   
 35  15  17  ar  
 36  15  18  ar  
 37  16  19  1   
 38  16  44  1   
 39  16  45  1   
 40  17  19  1   
 41  17  20  ar  
 42  18  21  ar  
 43  18  46  1   
 44  19  47  1   
 45  19  48  1   
 46  20  22  ar  
 47  20  49  1   
 48  21  22  ar  
 49  21  23  1   
 50  22  24  1   
 51  23  25  1   
 52  24  26  1   
 53  25  50  1   
 54  25  51  1   
 55  25  52  1   
 56  26  53  1   
 57  26  54  1   
 58  26  55  1   
@<TRIPOS>SUBSTRUCTURE
  1 ****  13 GROUP 4 **** **** 0

# MOE 2024.06 (io_trps.svl 2023.06)
