@<TRIPOS>MOLECULE
NONAME
47 50 1 0 0 
SMALL
USER_CHARGES


@<TRIPOS>ATOM
  1 S        2.0590     0.0450     2.3280 S.3   1 <1>  -0.0800 
  2 C        1.2970    -0.2800     0.7750 C.2   1 <1>   0.4620 
  3 C        2.5810     1.5920     1.7270 C.2   1 <1>  -0.1100 
  4 N        1.4320     0.6760    -0.0730 N.2   1 <1>  -0.5650 
  5 N        0.6440    -1.4730     0.5820 N.pl3 1 <1>  -0.8220 
  6 C        2.1550     1.7290     0.4610 C.2   1 <1>   0.0460 
  7 C        0.6670    -2.6060     1.5270 C.3   1 <1>   0.2090 
  8 C        0.1070    -1.8680    -0.7340 C.3   1 <1>   0.2090 
  9 C        2.3940     2.9270    -0.4490 C.3   1 <1>   0.3900 
 10 C       -0.1090    -3.7090     0.8160 C.3   1 <1>  -0.1600 
 11 C        0.0320    -3.3890    -0.6710 C.3   1 <1>  -0.1600 
 12 N        3.3760     3.8800     0.1370 N.pl3 1 <1>  -0.8690 
 13 C        4.6960     3.8180    -0.2170 C.ar  1 <1>   0.4100 
 14 N        5.2200     5.0010    -0.4520 N.ar  1 <1>  -0.6200 
 15 C        5.4230     2.6200    -0.3200 C.ar  1 <1>   0.1600 
 16 C        6.5170     4.9580    -0.8100 C.ar  1 <1>   0.3960 
 17 N        6.6890     2.5410    -0.6740 N.ar  1 <1>  -0.6200 
 18 C        7.2650     6.1820    -1.1110 C.2   1 <1>   0.5440 
 19 C        7.2000     3.7410    -0.9160 C.ar  1 <1>   0.1600 
 20 O        8.1740     6.1330    -1.9240 O.2   1 <1>  -0.5700 
 21 N        7.0270     7.4040    -0.5090 N.am  1 <1>  -0.6600 
 22 C        7.7850     8.6270    -0.8540 C.3   1 <1>   0.1400 
 23 C        6.0860     7.6620     0.6040 C.3   1 <1>   0.1400 
 24 C        7.1190     9.7410    -0.0530 C.3   1 <1>  -0.1600 
 25 C        6.4840     9.0320     1.1400 C.3   1 <1>  -0.1600 
 26 H        3.1470     2.2310     2.3810 H     1 <1>   0.1500 
 27 H        0.2050    -2.3370     2.4620 H     1 <1>   0.0800 
 28 H        1.6870    -2.9090     1.6940 H     1 <1>   0.0800 
 29 H        0.7480    -1.5320    -1.5330 H     1 <1>   0.0800 
 30 H       -0.8740    -1.4410    -0.8530 H     1 <1>   0.0800 
 31 H        1.4580     3.4310    -0.6130 H     1 <1>   0.0800 
 32 H        2.7530     2.5770    -1.4020 H     1 <1>   0.0800 
 33 H       -1.1430    -3.6460     1.1050 H     1 <1>   0.0800 
 34 H        0.2670    -4.6860     1.0640 H     1 <1>   0.0800 
 35 H        0.9550    -3.7950    -1.0470 H     1 <1>   0.0800 
 36 H       -0.7850    -3.7720    -1.2550 H     1 <1>   0.0800 
 37 H        3.0430     4.8460     0.1140 H     1 <1>   0.4000 
 38 H        4.9160     1.7000    -0.0930 H     1 <1>   0.1500 
 39 H        8.2330     3.7690    -1.2170 H     1 <1>   0.1500 
 40 H        7.7430     8.8160    -1.9130 H     1 <1>   0.0800 
 41 H        8.8100     8.5010    -0.5510 H     1 <1>   0.0800 
 42 H        6.1600     6.9020     1.3630 H     1 <1>   0.0800 
 43 H        5.0820     7.6900     0.2140 H     1 <1>   0.0800 
 44 H        6.3550    10.1950    -0.6580 H     1 <1>   0.0800 
 45 H        7.8260    10.4950     0.2450 H     1 <1>   0.0800 
 46 H        7.2150     8.9020     1.9200 H     1 <1>   0.0800 
 47 H        5.6400     9.5680     1.5360 H     1 <1>   0.0800 
@<TRIPOS>BOND
  1   1   2  1   
  2   1   3  1   
  3   2   4  2   
  4   2   5  1   
  5   3   6  2   
  6   3  26  1   
  7   4   6  1   
  8   5   7  1   
  9   5   8  1   
 10   6   9  1   
 11   7  10  1   
 12   7  27  1   
 13   7  28  1   
 14   8  11  1   
 15   8  29  1   
 16   8  30  1   
 17   9  12  1   
 18   9  31  1   
 19   9  32  1   
 20  10  11  1   
 21  10  33  1   
 22  10  34  1   
 23  11  35  1   
 24  11  36  1   
 25  12  13  1   
 26  12  37  1   
 27  13  14  ar  
 28  13  15  ar  
 29  14  16  ar  
 30  15  17  ar  
 31  15  38  1   
 32  16  18  1   
 33  16  19  ar  
 34  17  19  ar  
 35  18  20  2   
 36  18  21  am  
 37  19  39  1   
 38  21  22  1   
 39  21  23  1   
 40  22  24  1   
 41  22  40  1   
 42  22  41  1   
 43  23  25  1   
 44  23  42  1   
 45  23  43  1   
 46  24  25  1   
 47  24  44  1   
 48  24  45  1   
 49  25  46  1   
 50  25  47  1   
@<TRIPOS>SUBSTRUCTURE
  1 ****  13 GROUP 4 **** **** 0

# MOE 2024.06 (io_trps.svl 2023.06)
