@<TRIPOS>MOLECULE
NONAME
39 40 1 0 0 
SMALL
USER_CHARGES


@<TRIPOS>ATOM
  1 O        0.0810    -0.1560    -0.0780 O.2   1 <1>  -0.5700 
  2 C        1.1850    -0.5290     0.2350 C.2   1 <1>   0.5690 
  3 N        2.2170     0.3300     0.5020 N.am  1 <1>  -0.4940 
  4 C        1.4550    -2.0260     0.3730 C.3   1 <1>  -0.0190 
  5 C        2.3180     1.7410     0.4250 C.2   1 <1>  -0.0880 
  6 C        2.8330    -2.4860    -0.1600 C.3   1 <1>  -0.0220 
  7 C        0.4110    -2.9450    -0.3030 C.3   1 <1>  -0.0220 
  8 N        1.3520     2.6730     0.6690 N.pl3 1 <1>   0.3140 
  9 C        3.4410     2.4320     0.1150 C.2   1 <1>  -0.1810 
 10 C        2.5450    -3.8700    -0.6810 C.2   1 <1>  -0.2880 
 11 C        1.2440    -4.1180    -0.7570 C.2   1 <1>  -0.2880 
 12 N        1.8350     3.9260     0.5310 N.2   1 <1>  -0.7070 
 13 C       -0.0300     2.4790     1.1230 C.3   1 <1>   0.0160 
 14 C        3.0770     3.7740     0.1970 C.2   1 <1>   0.1080 
 15 C        4.8070     1.8740    -0.2520 C.3   1 <1>   0.0210 
 16 C        3.9820     4.9650    -0.0630 C.3   1 <1>   0.0210 
 17 C        5.6670     1.6930     1.0000 C.3   1 <1>  -0.2400 
 18 C        3.9540     5.3680    -1.5410 C.3   1 <1>  -0.2400 
 19 H        3.1060    -0.1230     0.7020 H     1 <1>   0.3700 
 20 H        1.4290    -2.2550     1.4230 H     1 <1>   0.0800 
 21 H        3.5680    -2.5090     0.6260 H     1 <1>   0.0800 
 22 H        3.1740    -1.8680    -0.9730 H     1 <1>   0.0800 
 23 H       -0.0430    -2.4770    -1.1600 H     1 <1>   0.0800 
 24 H       -0.3530    -3.2410     0.3950 H     1 <1>   0.0800 
 25 H        3.3690    -4.5110    -0.9500 H     1 <1>   0.1500 
 26 H        0.7430    -5.0070    -1.1030 H     1 <1>   0.1500 
 27 H       -0.0690     1.6560     1.8100 H     1 <1>   0.0800 
 28 H       -0.6510     2.2760     0.2710 H     1 <1>   0.0800 
 29 H       -0.3700     3.3730     1.6110 H     1 <1>   0.0800 
 30 H        5.2980     2.5390    -0.9400 H     1 <1>   0.0800 
 31 H        4.6860     0.9280    -0.7490 H     1 <1>   0.0800 
 32 H        4.9870     4.7300     0.2350 H     1 <1>   0.0800 
 33 H        3.6450     5.7900     0.5390 H     1 <1>   0.0800 
 34 H        5.8080     2.6400     1.4920 H     1 <1>   0.0800 
 35 H        6.6300     1.2950     0.7350 H     1 <1>   0.0800 
 36 H        5.1880     1.0200     1.6880 H     1 <1>   0.0800 
 37 H        4.2890     4.5540    -2.1580 H     1 <1>   0.0800 
 38 H        4.5880     6.2200    -1.7070 H     1 <1>   0.0800 
 39 H        2.9470     5.6220    -1.8260 H     1 <1>   0.0800 
@<TRIPOS>BOND
  1   1   2  2   
  2   2   3  am  
  3   2   4  1   
  4   3   5  1   
  5   3  19  1   
  6   4   6  1   
  7   4   7  1   
  8   4  20  1   
  9   5   8  1   
 10   5   9  2   
 11   6  10  1   
 12   6  21  1   
 13   6  22  1   
 14   7  11  1   
 15   7  23  1   
 16   7  24  1   
 17   8  12  1   
 18   8  13  1   
 19   9  14  1   
 20   9  15  1   
 21  10  11  2   
 22  10  25  1   
 23  11  26  1   
 24  12  14  2   
 25  13  27  1   
 26  13  28  1   
 27  13  29  1   
 28  14  16  1   
 29  15  17  1   
 30  15  30  1   
 31  15  31  1   
 32  16  18  1   
 33  16  32  1   
 34  16  33  1   
 35  17  34  1   
 36  17  35  1   
 37  17  36  1   
 38  18  37  1   
 39  18  38  1   
 40  18  39  1   
@<TRIPOS>SUBSTRUCTURE
  1 ****   3 GROUP 4 **** **** 0

# MOE 2024.06 (io_trps.svl 2023.06)
