@<TRIPOS>MOLECULE
NONAME
43 44 1 0 0 
SMALL
USER_CHARGES


@<TRIPOS>ATOM
  1 O       -1.8270     1.7820    -2.2960 O.2   1 <1>  -0.5700 
  2 C       -2.1560     1.8490    -1.1220 C.2   1 <1>   0.5440 
  3 N       -3.2500     1.1160    -0.6990 N.am  1 <1>  -0.6600 
  4 C       -1.3550     2.6360    -0.1840 C.ar  1 <1>   0.3960 
  5 C       -3.9150     0.1080    -1.5960 C.3   1 <1>   0.1400 
  6 C       -3.7320     1.1690     0.7210 C.3   1 <1>   0.1400 
  7 N       -1.6990     3.9150     0.0540 N.ar  1 <1>  -0.6200 
  8 C       -0.2610     2.0340     0.4580 C.ar  1 <1>  -0.1440 
  9 C       -4.3810    -1.0920    -0.7640 C.3   1 <1>   0.2000 
 10 C       -5.2000     0.7450     0.7990 C.3   1 <1>  -0.1600 
 11 C       -0.9530     4.5880     0.9060 C.ar  1 <1>   0.1600 
 12 C        0.5010     2.7600     1.3490 C.ar  1 <1>  -0.1500 
 13 C        0.1010     0.5760     0.1890 C.3   1 <1>  -0.0960 
 14 O       -4.8440    -2.1240    -1.5630 O.3   1 <1>  -0.6800 
 15 C       -5.4260    -0.7270     0.3240 C.3   1 <1>  -0.1060 
 16 C        0.1410     4.0690     1.5720 C.ar  1 <1>  -0.1500 
 17 C       -5.1190    -1.7410     1.4400 C.2   1 <1>   0.9060 
 18 C       -6.9250    -0.8890    -0.0960 C.3   1 <1>  -0.1600 
 19 O       -4.6740    -1.3610     2.5300 O.co2 1 <1>  -0.9000 
 20 O       -5.2670    -2.9460     1.1850 O.co2 1 <1>  -0.9000 
 21 C       -7.3850    -0.1470    -1.3670 C.3   1 <1>  -0.1600 
 22 C       -8.8740    -0.3930    -1.6290 C.3   1 <1>  -0.2400 
 23 H       -4.7520     0.5710    -2.0840 H     1 <1>   0.0800 
 24 H       -3.2200    -0.2330    -2.3430 H     1 <1>   0.0800 
 25 H       -3.1360     0.5090     1.3300 H     1 <1>   0.0800 
 26 H       -3.6330     2.1690     1.1050 H     1 <1>   0.0800 
 27 H       -3.4970    -1.4780    -0.2830 H     1 <1>   0.0800 
 28 H       -5.5480     0.8560     1.8120 H     1 <1>   0.0800 
 29 H       -5.7580     1.4420     0.2070 H     1 <1>   0.0800 
 30 H       -1.2270     5.6140     1.0870 H     1 <1>   0.1500 
 31 H        1.3460     2.3270     1.8570 H     1 <1>   0.1500 
 32 H        0.9820     0.2860     0.7330 H     1 <1>   0.0800 
 33 H        0.2880     0.4290    -0.8610 H     1 <1>   0.0800 
 34 H       -0.7080    -0.0680     0.4880 H     1 <1>   0.0800 
 35 H       -5.1360    -2.8280    -0.9300 H     1 <1>   0.4000 
 36 H        0.7010     4.6840     2.2540 H     1 <1>   0.1500 
 37 H       -7.1290    -1.9370    -0.2400 H     1 <1>   0.0800 
 38 H       -7.5360    -0.5760     0.7330 H     1 <1>   0.0800 
 39 H       -7.2230     0.9110    -1.2770 H     1 <1>   0.0800 
 40 H       -6.8250    -0.5000    -2.2150 H     1 <1>   0.0800 
 41 H       -9.4640    -0.0340    -0.8050 H     1 <1>   0.0800 
 42 H       -9.0590    -1.4460    -1.7570 H     1 <1>   0.0800 
 43 H       -9.1800     0.1200    -2.5230 H     1 <1>   0.0800 
@<TRIPOS>BOND
  1   1   2  2   
  2   2   3  am  
  3   2   4  1   
  4   3   5  1   
  5   3   6  1   
  6   4   7  ar  
  7   4   8  ar  
  8   5   9  1   
  9   5  23  1   
 10   5  24  1   
 11   6  10  1   
 12   6  25  1   
 13   6  26  1   
 14   7  11  ar  
 15   8  12  ar  
 16   8  13  1   
 17   9  14  1   
 18   9  15  1   
 19   9  27  1   
 20  10  15  1   
 21  10  28  1   
 22  10  29  1   
 23  11  16  ar  
 24  11  30  1   
 25  12  16  ar  
 26  12  31  1   
 27  13  32  1   
 28  13  33  1   
 29  13  34  1   
 30  14  35  1   
 31  15  17  1   
 32  15  18  1   
 33  16  36  1   
 34  17  19  ar  
 35  17  20  ar  
 36  18  21  1   
 37  18  37  1   
 38  18  38  1   
 39  21  22  1   
 40  21  39  1   
 41  21  40  1   
 42  22  41  1   
 43  22  42  1   
 44  22  43  1   
@<TRIPOS>SUBSTRUCTURE
  1 ****   3 GROUP 4 **** **** 0

# MOE 2024.06 (io_trps.svl 2023.06)
