@<TRIPOS>MOLECULE
NONAME
54 56 1 0 0 
SMALL
USER_CHARGES


@<TRIPOS>ATOM
  1 O        0.1790     0.6070    -0.7770 O.2   1 <1>  -0.5700 
  2 C        0.1100     1.7410    -0.3660 C.2   1 <1>   0.5690 
  3 N       -1.0890     2.3690    -0.1510 N.am  1 <1>  -0.6600 
  4 C        1.4200     2.4910    -0.1130 C.3   1 <1>   0.1810 
  5 C       -1.1450     3.7850     0.3450 C.3   1 <1>   0.3640 
  6 C       -2.3930     1.6500    -0.2520 C.3   1 <1>   0.0600 
  7 O        1.2670     3.6100     0.7240 O.3   1 <1>  -0.5600 
  8 C       -2.1300     4.5990    -0.5100 C.ar  1 <1>  -0.1430 
  9 C        0.2330     4.4880     0.3280 C.3   1 <1>   0.2610 
 10 C       -3.1480     5.3730     0.0480 C.ar  1 <1>  -0.1430 
 11 C       -1.9870     4.5710    -1.8930 C.ar  1 <1>  -0.1500 
 12 C        0.1860     5.7300     1.2330 C.2   1 <1>   0.5690 
 13 C       -3.9800     6.1100    -0.7830 C.ar  1 <1>  -0.1500 
 14 C       -3.3970     5.4470     1.5500 C.3   1 <1>  -0.0960 
 15 C       -2.8220     5.3060    -2.7130 C.ar  1 <1>  -0.1500 
 16 O       -0.0130     5.5680     2.4170 O.2   1 <1>  -0.5700 
 17 N        0.3450     6.9980     0.7260 N.am  1 <1>  -0.6600 
 18 C       -3.8190     6.0810    -2.1560 C.ar  1 <1>  -0.1500 
 19 C        0.5920     8.1530     1.6510 C.3   1 <1>   0.3200 
 20 C        0.3020     7.3530    -0.7220 C.3   1 <1>   0.0600 
 21 C        1.8850     8.8820     1.3110 C.2   1 <1>   0.2980 
 22 O        3.0220     8.2620     1.5030 O.3   1 <1>  -0.0190 
 23 N        1.9760    10.0620     0.8370 N.2   1 <1>  -0.5650 
 24 N        3.9150     9.1210     1.1170 N.2   1 <1>  -0.4100 
 25 C        3.2930    10.1660     0.7330 C.2   1 <1>   0.3350 
 26 C        3.9190    11.4440     0.1960 C.3   1 <1>   0.0210 
 27 C        5.4540    11.3940     0.1050 C.3   1 <1>  -0.1600 
 28 C        6.0320    12.7030    -0.4450 C.3   1 <1>  -0.2400 
 29 H        1.8320     2.8190    -1.0490 H     1 <1>   0.0800 
 30 H        2.1210     1.8270     0.3590 H     1 <1>   0.0800 
 31 H       -1.4800     3.7460     1.3650 H     1 <1>   0.0800 
 32 H       -2.9520     1.7750     0.6590 H     1 <1>   0.0800 
 33 H       -2.2360     0.5980    -0.4170 H     1 <1>   0.0800 
 34 H       -2.9670     2.0430    -1.0740 H     1 <1>   0.0800 
 35 H        0.4600     4.7900    -0.6740 H     1 <1>   0.0800 
 36 H       -1.2200     3.9650    -2.3460 H     1 <1>   0.1500 
 37 H       -4.7660     6.7140    -0.3660 H     1 <1>   0.1500 
 38 H       -4.2900     6.0050     1.7660 H     1 <1>   0.0800 
 39 H       -2.5770     5.9340     2.0430 H     1 <1>   0.0800 
 40 H       -3.5210     4.4610     1.9590 H     1 <1>   0.0800 
 41 H       -2.6990     5.2730    -3.7820 H     1 <1>   0.1500 
 42 H       -4.4730     6.6560    -2.7870 H     1 <1>   0.1500 
 43 H       -0.2290     8.8420     1.5750 H     1 <1>   0.0800 
 44 H        0.6520     7.8230     2.6730 H     1 <1>   0.0800 
 45 H        0.0150     8.3840    -0.8450 H     1 <1>   0.0800 
 46 H       -0.4200     6.7470    -1.2400 H     1 <1>   0.0800 
 47 H        1.2740     7.2110    -1.1620 H     1 <1>   0.0800 
 48 H        3.5100    11.6300    -0.7810 H     1 <1>   0.0800 
 49 H        3.6250    12.2540     0.8380 H     1 <1>   0.0800 
 50 H        5.8630    11.2080     1.0840 H     1 <1>   0.0800 
 51 H        5.7470    10.5780    -0.5340 H     1 <1>   0.0800 
 52 H        5.7720    13.5290     0.1940 H     1 <1>   0.0800 
 53 H        5.6570    12.8950    -1.4350 H     1 <1>   0.0800 
 54 H        7.1050    12.6370    -0.4950 H     1 <1>   0.0800 
@<TRIPOS>BOND
  1   1   2  2   
  2   2   3  am  
  3   2   4  1   
  4   3   5  1   
  5   3   6  1   
  6   4   7  1   
  7   4  29  1   
  8   4  30  1   
  9   5   8  1   
 10   5   9  1   
 11   5  31  1   
 12   6  32  1   
 13   6  33  1   
 14   6  34  1   
 15   7   9  1   
 16   8  10  ar  
 17   8  11  ar  
 18   9  12  1   
 19   9  35  1   
 20  10  13  ar  
 21  10  14  1   
 22  11  15  ar  
 23  11  36  1   
 24  12  16  2   
 25  12  17  am  
 26  13  18  ar  
 27  13  37  1   
 28  14  38  1   
 29  14  39  1   
 30  14  40  1   
 31  15  18  ar  
 32  15  41  1   
 33  17  19  1   
 34  17  20  1   
 35  18  42  1   
 36  19  21  1   
 37  19  43  1   
 38  19  44  1   
 39  20  45  1   
 40  20  46  1   
 41  20  47  1   
 42  21  22  1   
 43  21  23  2   
 44  22  24  1   
 45  23  25  1   
 46  24  25  2   
 47  25  26  1   
 48  26  27  1   
 49  26  48  1   
 50  26  49  1   
 51  27  28  1   
 52  27  50  1   
 53  27  51  1   
 54  28  52  1   
 55  28  53  1   
 56  28  54  1   
@<TRIPOS>SUBSTRUCTURE
  1 ****  17 GROUP 4 **** **** 0

# MOE 2024.06 (io_trps.svl 2023.06)
