@<TRIPOS>MOLECULE
NONAME
48 49 1 0 0 
SMALL
USER_CHARGES


@<TRIPOS>ATOM
  1 F       -0.5630    -0.9060    -0.3190 F     1 <1>  -0.3400 
  2 C       -1.5350    -0.0040    -0.3910 C.3   1 <1>   1.0200 
  3 F       -2.4770    -0.5350    -1.1600 F     1 <1>  -0.3400 
  4 F       -2.0520     0.0890     0.8280 F     1 <1>  -0.3400 
  5 C       -1.0460     1.3650    -0.9510 C.3   1 <1>   0.1100 
  6 N       -0.1360     2.2200    -0.1090 N.3   1 <1>  -0.8100 
  7 C        0.0210     3.5700    -0.6990 C.3   1 <1>   0.1100 
  8 C        1.1870     1.5890     0.1360 C.3   1 <1>   0.1100 
  9 C        0.9070     4.4880     0.1690 C.3   1 <1>   0.3430 
 10 C        2.0980     2.4690     1.0140 C.3   1 <1>   0.3430 
 11 N        2.2270     3.8480     0.4520 N.4   1 <1>  -0.9590 
 12 C        3.1960     4.6670     1.2810 C.3   1 <1>   0.4600 
 13 C        3.1370     6.1140     0.7910 C.ar  1 <1>  -0.1430 
 14 C        4.6150     4.0540     1.2100 C.2   1 <1>   0.9060 
 15 C        2.4880     7.0710     1.5570 C.ar  1 <1>  -0.1500 
 16 C        3.6950     6.4780    -0.4260 C.ar  1 <1>  -0.1500 
 17 O        5.3110     3.9900     2.2260 O.co2 1 <1>  -0.9000 
 18 O        4.9200     3.4890     0.1450 O.co2 1 <1>  -0.9000 
 19 C        2.3820     8.3790     1.1150 C.ar  1 <1>  -0.1430 
 20 C        3.6000     7.7800    -0.8870 C.ar  1 <1>  -0.1430 
 21 C        2.9520     8.7320    -0.1050 C.ar  1 <1>   0.0830 
 22 C        1.6480     9.4030     1.9690 C.3   1 <1>  -0.0970 
 23 C        4.2100     8.1350    -2.2360 C.3   1 <1>  -0.0970 
 24 O        2.8660    10.0100    -0.5370 O.3   1 <1>  -0.3630 
 25 C        3.9350    10.8550    -0.1750 C.3   1 <1>   0.0400 
 26 H       -1.9380     1.9310    -1.1480 H     1 <1>   0.0800 
 27 H       -0.5740     1.1740    -1.8980 H     1 <1>   0.0800 
 28 H       -0.9470     4.0310    -0.7980 H     1 <1>   0.0800 
 29 H        0.4530     3.4940    -1.6830 H     1 <1>   0.0800 
 30 H        1.6840     1.3910    -0.7980 H     1 <1>   0.0800 
 31 H        1.0550     0.6520     0.6470 H     1 <1>   0.0800 
 32 H        0.3970     4.6880     1.0960 H     1 <1>   0.0800 
 33 H        1.0550     5.4260    -0.3400 H     1 <1>   0.0800 
 34 H        3.0730     2.0100     1.0830 H     1 <1>   0.0800 
 35 H        1.6820     2.5180     2.0060 H     1 <1>   0.0800 
 36 H        2.7730     3.7330    -0.4190 H     1 <1>   0.4500 
 37 H        2.8990     4.6410     2.3130 H     1 <1>   0.0800 
 38 H        2.0610     6.7980     2.5060 H     1 <1>   0.1500 
 39 H        4.2140     5.7430    -1.0210 H     1 <1>   0.1500 
 40 H        1.0160     8.9200     2.6930 H     1 <1>   0.0800 
 41 H        1.0310    10.0290     1.3500 H     1 <1>   0.0800 
 42 H        2.3580    10.0200     2.4890 H     1 <1>   0.0800 
 43 H        4.3290     7.2570    -2.8450 H     1 <1>   0.0800 
 44 H        5.1750     8.5850    -2.0910 H     1 <1>   0.0800 
 45 H        3.5780     8.8270    -2.7620 H     1 <1>   0.0800 
 46 H        3.7430    11.8320    -0.5790 H     1 <1>   0.0800 
 47 H        4.8480    10.4590    -0.5820 H     1 <1>   0.0800 
 48 H        3.9970    10.9020     0.8970 H     1 <1>   0.0800 
@<TRIPOS>BOND
  1   1   2  1   
  2   2   3  1   
  3   2   4  1   
  4   2   5  1   
  5   5   6  1   
  6   5  26  1   
  7   5  27  1   
  8   6   7  1   
  9   6   8  1   
 10   7   9  1   
 11   7  28  1   
 12   7  29  1   
 13   8  10  1   
 14   8  30  1   
 15   8  31  1   
 16   9  11  1   
 17   9  32  1   
 18   9  33  1   
 19  10  11  1   
 20  10  34  1   
 21  10  35  1   
 22  11  12  1   
 23  11  36  1   
 24  12  13  1   
 25  12  14  1   
 26  12  37  1   
 27  13  15  ar  
 28  13  16  ar  
 29  14  17  ar  
 30  14  18  ar  
 31  15  19  ar  
 32  15  38  1   
 33  16  20  ar  
 34  16  39  1   
 35  19  21  ar  
 36  19  22  1   
 37  20  21  ar  
 38  20  23  1   
 39  21  24  1   
 40  22  40  1   
 41  22  41  1   
 42  22  42  1   
 43  23  43  1   
 44  23  44  1   
 45  23  45  1   
 46  24  25  1   
 47  25  46  1   
 48  25  47  1   
 49  25  48  1   
@<TRIPOS>SUBSTRUCTURE
  1 ****  11 GROUP 4 **** **** 0

# MOE 2024.06 (io_trps.svl 2023.06)
