@<TRIPOS>MOLECULE
NONAME
51 55 1 0 0 
SMALL
USER_CHARGES


@<TRIPOS>ATOM
  1 O       -1.1690     4.3900    -2.4640 O.2   1 <1>  -0.5700 
  2 C       -0.7570     3.9890    -1.3870 C.2   1 <1>   0.7160 
  3 N       -1.6810     3.4610    -0.5000 N.am  1 <1>  -0.6600 
  4 C        0.6770     4.0930    -1.1110 C.2   1 <1>   0.1410 
  5 C       -3.1510     3.6990    -0.6910 C.3   1 <1>   0.1400 
  6 C       -1.2820     2.6810     0.7120 C.3   1 <1>   0.1400 
  7 N        1.2550     4.0350     0.1220 N.2   1 <1>  -0.5650 
  8 C        1.6520     4.2900    -2.0490 C.2   1 <1>  -0.3020 
  9 C       -3.8420     3.9560     0.6600 C.3   1 <1>   0.1440 
 10 C       -2.4550     1.8630     1.2680 C.3   1 <1>  -0.1600 
 11 C        2.5290     4.1900    -0.0920 C.2   1 <1>   0.3120 
 12 N        2.8320     4.3530    -1.4250 N.pl3 1 <1>   0.3340 
 13 C       -5.3080     4.2880     0.4640 C.ar  1 <1>   0.1660 
 14 C       -3.6940     2.7240     1.5900 C.3   1 <1>  -0.1600 
 15 C       -3.3040     5.2480     1.3360 C.3   1 <1>  -0.1600 
 16 N        3.4930     4.1920     0.8880 N.2   1 <1>  -0.5760 
 17 C        4.1430     4.5340    -1.8240 C.2   1 <1>  -0.1810 
 18 N       -6.1420     3.6070    -0.2810 N.ar  1 <1>  -0.6200 
 19 C       -5.6730     5.3980     1.1640 C.ar  1 <1>  -0.1440 
 20 C       -4.5160     5.9810     1.9350 C.3   1 <1>  -0.0170 
 21 C        4.7120     4.3610     0.5030 C.2   1 <1>   0.3760 
 22 C        5.0950     4.5380    -0.8570 C.2   1 <1>  -0.1360 
 23 C       -7.3900     4.0790    -0.3160 C.ar  1 <1>   0.7200 
 24 C       -6.9780     5.8090     1.0710 C.ar  1 <1>   0.1600 
 25 N       -7.8460     5.1560     0.3330 N.ar  1 <1>  -0.6200 
 26 N       -8.2960     3.3890    -1.0980 N.pl3 1 <1>  -0.8380 
 27 C       -9.6130     3.9700    -1.4780 C.3   1 <1>   0.1290 
 28 C       -8.0050     2.0330    -1.6390 C.3   1 <1>   0.1290 
 29 H       -3.5900     2.8370    -1.1630 H     1 <1>   0.0800 
 30 H       -3.3140     4.5440    -1.3390 H     1 <1>   0.0800 
 31 H       -0.9310     3.3630     1.4680 H     1 <1>   0.0800 
 32 H       -0.4720     2.0170     0.4610 H     1 <1>   0.0800 
 33 H        1.5380     4.3900    -3.1130 H     1 <1>   0.1500 
 34 H       -2.1400     1.3390     2.1530 H     1 <1>   0.0800 
 35 H       -2.7180     1.1210     0.5350 H     1 <1>   0.0800 
 36 H       -4.5630     2.0950     1.4900 H     1 <1>   0.0800 
 37 H       -3.6590     3.0460     2.6150 H     1 <1>   0.0800 
 38 H       -2.8690     5.8850     0.5840 H     1 <1>   0.0800 
 39 H       -2.5500     5.0490     2.0760 H     1 <1>   0.0800 
 40 H        4.3280     4.6590    -2.8760 H     1 <1>   0.1500 
 41 H       -4.4410     7.0460     1.8010 H     1 <1>   0.0800 
 42 H       -4.6240     5.7470     2.9800 H     1 <1>   0.0800 
 43 H        5.4940     4.3700     1.2420 H     1 <1>   0.0600 
 44 H        6.1390     4.6720    -1.0740 H     1 <1>   0.1500 
 45 H       -7.3150     6.6790     1.6050 H     1 <1>   0.1500 
 46 H       -9.5560     5.0440    -1.5160 H     1 <1>   0.0800 
 47 H      -10.3540     3.6840    -0.7530 H     1 <1>   0.0800 
 48 H       -9.9080     3.6140    -2.4500 H     1 <1>   0.0800 
 49 H       -7.3360     1.5010    -0.9850 H     1 <1>   0.0800 
 50 H       -7.5470     2.1240    -2.6080 H     1 <1>   0.0800 
 51 H       -8.9150     1.4660    -1.7260 H     1 <1>   0.0800 
@<TRIPOS>BOND
  1   1   2  2   
  2   2   3  am  
  3   2   4  1   
  4   3   5  1   
  5   3   6  1   
  6   4   7  1   
  7   4   8  2   
  8   5   9  1   
  9   5  29  1   
 10   5  30  1   
 11   6  10  1   
 12   6  31  1   
 13   6  32  1   
 14   7  11  2   
 15   8  12  1   
 16   8  33  1   
 17   9  13  1   
 18   9  14  1   
 19   9  15  1   
 20  10  14  1   
 21  10  34  1   
 22  10  35  1   
 23  11  12  1   
 24  11  16  1   
 25  12  17  1   
 26  13  18  ar  
 27  13  19  ar  
 28  14  36  1   
 29  14  37  1   
 30  15  20  1   
 31  15  38  1   
 32  15  39  1   
 33  16  21  2   
 34  17  22  2   
 35  17  40  1   
 36  18  23  ar  
 37  19  20  1   
 38  19  24  ar  
 39  20  41  1   
 40  20  42  1   
 41  21  22  1   
 42  21  43  1   
 43  22  44  1   
 44  23  25  ar  
 45  23  26  1   
 46  24  25  ar  
 47  24  45  1   
 48  26  27  1   
 49  26  28  1   
 50  27  46  1   
 51  27  47  1   
 52  27  48  1   
 53  28  49  1   
 54  28  50  1   
 55  28  51  1   
@<TRIPOS>SUBSTRUCTURE
  1 ****   3 GROUP 4 **** **** 0

# MOE 2024.06 (io_trps.svl 2023.06)
