@<TRIPOS>MOLECULE
NONAME
51 56 1 0 0 
SMALL
USER_CHARGES


@<TRIPOS>ATOM
  1 O       -0.8200     0.5020    -1.7100 O.2   1 <1>  -0.5700 
  2 C       -1.7950     1.1100    -1.3030 C.2   1 <1>   0.7150 
  3 N       -3.0280     0.4900    -1.3860 N.am  1 <1>  -0.6600 
  4 C       -1.5990     2.4290    -0.7500 C.2   1 <1>   0.0550 
  5 C       -3.2850    -0.6020    -2.3670 C.3   1 <1>   0.1400 
  6 C       -4.1690     0.7540    -0.4640 C.3   1 <1>   0.1400 
  7 O       -2.5730     3.3050    -0.6320 O.3   1 <1>  -0.0190 
  8 C       -0.4870     3.0500    -0.2940 C.2   1 <1>  -0.1500 
  9 C       -3.6080    -1.8940    -1.6160 C.3   1 <1>  -0.1600 
 10 C       -4.5110    -0.5300     0.2960 C.3   1 <1>  -0.1600 
 11 N       -2.1870     4.4340    -0.1210 N.2   1 <1>  -0.4100 
 12 C       -0.9240     4.3070     0.0910 C.2   1 <1>   0.2030 
 13 C       -4.7860    -1.7000    -0.6530 C.3   1 <1>   0.4600 
 14 C       -0.0450     5.3980     0.6760 C.3   1 <1>  -0.0140 
 15 O       -5.9360    -1.3440    -1.3910 O.3   1 <1>  -0.5600 
 16 C       -5.0660    -2.9710     0.1390 C.2   1 <1>  -0.3320 
 17 C        0.9620     5.0820     1.7420 C.3   1 <1>  -0.2000 
 18 C       -0.2700     5.8610     2.0830 C.3   1 <1>  -0.2000 
 19 C       -6.6790    -2.3740    -1.9990 C.3   1 <1>   0.1200 
 20 N       -4.2450    -3.5500     1.0670 N.pl3 1 <1>   0.0330 
 21 C       -6.1890    -3.7060     0.0200 C.2   1 <1>  -0.1810 
 22 C       -7.2810    -3.3200    -0.9460 C.3   1 <1>   0.0210 
 23 C       -4.8730    -4.6730     1.5480 C.ar  1 <1>  -0.1520 
 24 C       -6.1040    -4.7970     0.9100 C.ar  1 <1>   0.0000 
 25 C       -4.4650    -5.6070     2.5040 C.ar  1 <1>  -0.1500 
 26 C       -6.9450    -5.8680     1.2290 C.ar  1 <1>  -0.1500 
 27 C       -5.3020    -6.6560     2.8080 C.ar  1 <1>  -0.1500 
 28 C       -6.5420    -6.7860     2.1710 C.ar  1 <1>  -0.1500 
 29 H       -2.4300    -0.7540    -3.0030 H     1 <1>   0.0800 
 30 H       -4.1180    -0.3230    -2.9910 H     1 <1>   0.0800 
 31 H       -5.0200     1.0830    -1.0370 H     1 <1>   0.0800 
 32 H       -3.9250     1.5190     0.2510 H     1 <1>   0.0800 
 33 H        0.5160     2.6700    -0.2400 H     1 <1>   0.1500 
 34 H       -2.7370    -2.1900    -1.0620 H     1 <1>   0.0800 
 35 H       -3.8250    -2.6820    -2.3110 H     1 <1>   0.0800 
 36 H       -5.3770    -0.3700     0.9130 H     1 <1>   0.0800 
 37 H       -3.6900    -0.7730     0.9430 H     1 <1>   0.0800 
 38 H        0.2100     6.1470    -0.0520 H     1 <1>   0.1000 
 39 H        1.9090     5.5920     1.7230 H     1 <1>   0.1000 
 40 H        1.0430     4.0730     2.1090 H     1 <1>   0.1000 
 41 H       -1.0500     5.3870     2.6550 H     1 <1>   0.1000 
 42 H       -0.1850     6.9130     2.2940 H     1 <1>   0.1000 
 43 H       -6.0300    -2.9180    -2.6620 H     1 <1>   0.0800 
 44 H       -7.4610    -1.9170    -2.5770 H     1 <1>   0.0800 
 45 H       -3.3220    -3.2190     1.3640 H     1 <1>   0.2700 
 46 H       -7.6760    -4.1950    -1.4280 H     1 <1>   0.0800 
 47 H       -8.0760    -2.8270    -0.4180 H     1 <1>   0.0800 
 48 H       -3.5120    -5.4990     2.9890 H     1 <1>   0.1500 
 49 H       -7.8940    -5.9540     0.7330 H     1 <1>   0.1500 
 50 H       -5.0110    -7.3880     3.5410 H     1 <1>   0.1500 
 51 H       -7.1780    -7.6150     2.4280 H     1 <1>   0.1500 
@<TRIPOS>BOND
  1   1   2  2   
  2   2   3  am  
  3   2   4  1   
  4   3   5  1   
  5   3   6  1   
  6   4   7  1   
  7   4   8  2   
  8   5   9  1   
  9   5  29  1   
 10   5  30  1   
 11   6  10  1   
 12   6  31  1   
 13   6  32  1   
 14   7  11  1   
 15   8  12  1   
 16   8  33  1   
 17   9  13  1   
 18   9  34  1   
 19   9  35  1   
 20  10  13  1   
 21  10  36  1   
 22  10  37  1   
 23  11  12  2   
 24  12  14  1   
 25  13  15  1   
 26  13  16  1   
 27  14  17  1   
 28  14  18  1   
 29  14  38  1   
 30  15  19  1   
 31  16  20  1   
 32  16  21  2   
 33  17  18  1   
 34  17  39  1   
 35  17  40  1   
 36  18  41  1   
 37  18  42  1   
 38  19  22  1   
 39  19  43  1   
 40  19  44  1   
 41  20  23  1   
 42  20  45  1   
 43  21  22  1   
 44  21  24  1   
 45  22  46  1   
 46  22  47  1   
 47  23  24  ar  
 48  23  25  ar  
 49  24  26  ar  
 50  25  27  ar  
 51  25  48  1   
 52  26  28  ar  
 53  26  49  1   
 54  27  28  ar  
 55  27  50  1   
 56  28  51  1   
@<TRIPOS>SUBSTRUCTURE
  1 ****  10 GROUP 4 **** **** 0

# MOE 2024.06 (io_trps.svl 2023.06)
