@<TRIPOS>MOLECULE
NONAME
45 48 1 0 0 
SMALL
USER_CHARGES


@<TRIPOS>ATOM
  1 F        2.1400     1.2850    -2.1890 F     1 <1>  -0.1900 
  2 C        2.9870     1.5870    -1.2270 C.ar  1 <1>   0.1900 
  3 C        3.3420     0.6640    -0.2440 C.ar  1 <1>   0.4100 
  4 C        3.5410     2.8370    -1.2000 C.ar  1 <1>   0.1600 
  5 N        4.2130     1.0070     0.6880 N.ar  1 <1>  -0.6200 
  6 N        2.8320    -0.6250    -0.1760 N.pl3 1 <1>  -0.8380 
  7 N        4.4070     3.1880    -0.2650 N.ar  1 <1>  -0.6200 
  8 C        4.6840     2.2350     0.6190 C.ar  1 <1>   0.7200 
  9 C        1.3580    -0.8400    -0.0640 C.3   1 <1>   0.2090 
 10 C        3.6130    -1.7120     0.4900 C.3   1 <1>   0.2090 
 11 N        5.5680     2.5310     1.5970 N.pl3 1 <1>  -0.8690 
 12 C        0.9820    -2.2720    -0.4850 C.3   1 <1>   0.1200 
 13 C        3.1100    -3.0990     0.0490 C.3   1 <1>   0.1200 
 14 C        5.6310     3.8940     2.1710 C.3   1 <1>   0.3770 
 15 O        1.7250    -3.2180     0.2340 O.3   1 <1>  -0.5600 
 16 C        6.5560     4.7910     1.3470 C.2   1 <1>   0.1820 
 17 N        6.8110     6.1160     1.6200 N.pl3 1 <1>  -0.7000 
 18 C        7.2550     4.4670     0.2400 C.2   1 <1>   0.2000 
 19 C        7.6510     6.5820     0.6800 C.cat 1 <1>   0.7910 
 20 N        7.9480     5.5830    -0.1810 N.pl3 1 <1>  -0.6290 
 21 C        8.2000     7.8620     0.5020 C.2   1 <1>  -0.1410 
 22 C        8.7880     5.8040    -1.2480 C.2   1 <1>   0.2290 
 23 C        9.0410     8.1020    -0.5520 C.2   1 <1>  -0.1380 
 24 C        9.3310     7.0410    -1.4370 C.2   1 <1>  -0.1500 
 25 C        9.6670     9.4650    -0.7990 C.3   1 <1>  -0.1020 
 26 H        3.2730     3.5560    -1.9540 H     1 <1>   0.1500 
 27 H        0.8250    -0.1380    -0.6800 H     1 <1>   0.0800 
 28 H        1.0540    -0.6840     0.9560 H     1 <1>   0.0800 
 29 H        3.5140    -1.6200     1.5580 H     1 <1>   0.0800 
 30 H        4.6550    -1.6150     0.2400 H     1 <1>   0.0800 
 31 H        5.5710     1.7740     2.2840 H     1 <1>   0.4000 
 32 H        1.1680    -2.4140    -1.5360 H     1 <1>   0.0800 
 33 H       -0.0590    -2.4550    -0.2890 H     1 <1>   0.0800 
 34 H        3.5860    -3.8670     0.6310 H     1 <1>   0.0800 
 35 H        3.3330    -3.2630    -0.9910 H     1 <1>   0.0800 
 36 H        5.9980     3.8340     3.1810 H     1 <1>   0.0800 
 37 H        4.6420     4.3210     2.1940 H     1 <1>   0.0800 
 38 H        6.4260     6.6810     2.3790 H     1 <1>   0.4500 
 39 H        7.2960     3.5190    -0.2730 H     1 <1>   0.1500 
 40 H        7.9430     8.6300     1.2060 H     1 <1>   0.1500 
 41 H        8.9930     4.9790    -1.9130 H     1 <1>   0.1500 
 42 H        9.9910     7.2250    -2.2690 H     1 <1>   0.1500 
 43 H       10.7400     9.3890    -0.7740 H     1 <1>   0.0800 
 44 H        9.3590    10.1740    -0.0520 H     1 <1>   0.0800 
 45 H        9.3710     9.8380    -1.7640 H     1 <1>   0.0800 
@<TRIPOS>BOND
  1   1   2  1   
  2   2   3  ar  
  3   2   4  ar  
  4   3   5  ar  
  5   3   6  1   
  6   4   7  ar  
  7   4  26  1   
  8   5   8  ar  
  9   6   9  1   
 10   6  10  1   
 11   7   8  ar  
 12   8  11  1   
 13   9  12  1   
 14   9  27  1   
 15   9  28  1   
 16  10  13  1   
 17  10  29  1   
 18  10  30  1   
 19  11  14  1   
 20  11  31  1   
 21  12  15  1   
 22  12  32  1   
 23  12  33  1   
 24  13  15  1   
 25  13  34  1   
 26  13  35  1   
 27  14  16  1   
 28  14  36  1   
 29  14  37  1   
 30  16  17  1   
 31  16  18  2   
 32  17  19  ar  
 33  17  38  1   
 34  18  20  1   
 35  18  39  1   
 36  19  20  ar  
 37  19  21  1   
 38  20  22  1   
 39  21  23  2   
 40  21  40  1   
 41  22  24  2   
 42  22  41  1   
 43  23  24  1   
 44  23  25  1   
 45  24  42  1   
 46  25  43  1   
 47  25  44  1   
 48  25  45  1   
@<TRIPOS>SUBSTRUCTURE
  1 ****   7 GROUP 4 **** **** 0

# MOE 2024.06 (io_trps.svl 2023.06)
