@<TRIPOS>MOLECULE
NONAME
56 59 1 0 0 
SMALL
USER_CHARGES


@<TRIPOS>ATOM
  1 O       -0.3810     0.3420    -0.3410 O.2   1 <1>  -0.5700 
  2 C       -1.4470     0.9270    -0.2890 C.2   1 <1>   0.5440 
  3 N       -2.5970     0.1830    -0.1400 N.am  1 <1>  -0.6600 
  4 C       -1.4810     2.3700    -0.3970 C.ar  1 <1>   0.0860 
  5 C       -3.9560     0.6500    -0.5130 C.3   1 <1>   0.1400 
  6 C       -2.5660    -1.2960    -0.0310 C.3   1 <1>   0.1400 
  7 C       -0.7870     3.0290    -1.4120 C.ar  1 <1>  -0.1500 
  8 C       -2.1940     3.1630     0.5040 C.ar  1 <1>  -0.1500 
  9 C       -4.7560    -0.6280    -0.7660 C.3   1 <1>   0.2000 
 10 C       -4.0350    -1.7240     0.0140 C.3   1 <1>  -0.0800 
 11 C       -0.8170     4.4040    -1.5310 C.ar  1 <1>  -0.1500 
 12 C       -2.2250     4.5390     0.3890 C.ar  1 <1>  -0.1500 
 13 O       -6.0640    -0.5120    -0.3180 O.3   1 <1>  -0.6800 
 14 C       -4.3020    -3.1290    -0.5530 C.3   1 <1>  -0.0170 
 15 C       -1.5350     5.1860    -0.6330 C.ar  1 <1>   0.1000 
 16 C       -3.6260    -4.2080     0.2760 C.ar  1 <1>   0.1670 
 17 N       -1.5370     6.5680    -0.7600 N.pl3 1 <1>  -0.8380 
 18 N       -2.3530    -4.4490     0.0080 N.ar  1 <1>  -0.6200 
 19 C       -4.3450    -4.8830     1.2610 C.ar  1 <1>   0.1600 
 20 C       -2.7800     7.3790    -0.5810 C.3   1 <1>   0.2090 
 21 C       -0.2430     7.3140    -0.7400 C.3   1 <1>   0.2090 
 22 C       -1.8510    -5.3960     0.7840 C.ar  1 <1>   0.1600 
 23 N       -3.8460    -5.8290     2.0390 N.ar  1 <1>  -0.6200 
 24 C       -2.6510     8.3430     0.6190 C.3   1 <1>   0.3430 
 25 C       -0.1740     8.2730     0.4670 C.3   1 <1>   0.3430 
 26 C       -2.5740    -6.0630     1.7660 C.ar  1 <1>   0.1600 
 27 N       -1.3870     9.1690     0.5730 N.4   1 <1>  -0.9590 
 28 C       -1.2880    10.0740     1.7570 C.3   1 <1>   0.2630 
 29 H       -4.3760     1.2080     0.3050 H     1 <1>   0.0800 
 30 H       -3.9180     1.2590    -1.4000 H     1 <1>   0.0800 
 31 H       -2.0710    -1.7030    -0.8980 H     1 <1>   0.0800 
 32 H       -2.0330    -1.6040     0.8520 H     1 <1>   0.0800 
 33 H       -0.2190     2.4390    -2.1120 H     1 <1>   0.1500 
 34 H       -2.7210     2.6810     1.3090 H     1 <1>   0.1500 
 35 H       -4.7740    -0.8430    -1.8210 H     1 <1>   0.0800 
 36 H       -4.3410    -1.6900     1.0450 H     1 <1>   0.0800 
 37 H       -0.2830     4.8810    -2.3320 H     1 <1>   0.1500 
 38 H       -2.7780     5.1130     1.1050 H     1 <1>   0.1500 
 39 H       -6.0800    -0.3110     0.6370 H     1 <1>   0.4000 
 40 H       -3.9470    -3.1910    -1.5670 H     1 <1>   0.0800 
 41 H       -5.3630    -3.3050    -0.5730 H     1 <1>   0.0800 
 42 H       -5.3790    -4.6280     1.4140 H     1 <1>   0.1500 
 43 H       -2.9610     7.9420    -1.4800 H     1 <1>   0.0800 
 44 H       -3.6250     6.7280    -0.4350 H     1 <1>   0.0800 
 45 H        0.5770     6.6180    -0.6820 H     1 <1>   0.0800 
 46 H       -0.1390     7.8680    -1.6570 H     1 <1>   0.0800 
 47 H       -0.8190    -5.6570     0.6350 H     1 <1>   0.1500 
 48 H       -2.6600     7.7540     1.5210 H     1 <1>   0.0800 
 49 H       -3.5120     8.9900     0.6400 H     1 <1>   0.0800 
 50 H        0.7190     8.8710     0.3870 H     1 <1>   0.0800 
 51 H       -0.0900     7.6760     1.3600 H     1 <1>   0.0800 
 52 H       -2.0770    -6.8190     2.3480 H     1 <1>   0.1500 
 53 H       -1.4230     9.7390    -0.2840 H     1 <1>   0.4500 
 54 H       -1.2470     9.4980     2.6680 H     1 <1>   0.0800 
 55 H       -2.1440    10.7290     1.8020 H     1 <1>   0.0800 
 56 H       -0.3980    10.6800     1.6930 H     1 <1>   0.0800 
@<TRIPOS>BOND
  1   1   2  2   
  2   2   3  am  
  3   2   4  1   
  4   3   5  1   
  5   3   6  1   
  6   4   7  ar  
  7   4   8  ar  
  8   5   9  1   
  9   5  29  1   
 10   5  30  1   
 11   6  10  1   
 12   6  31  1   
 13   6  32  1   
 14   7  11  ar  
 15   7  33  1   
 16   8  12  ar  
 17   8  34  1   
 18   9  10  1   
 19   9  13  1   
 20   9  35  1   
 21  10  14  1   
 22  10  36  1   
 23  11  15  ar  
 24  11  37  1   
 25  12  15  ar  
 26  12  38  1   
 27  13  39  1   
 28  14  16  1   
 29  14  40  1   
 30  14  41  1   
 31  15  17  1   
 32  16  18  ar  
 33  16  19  ar  
 34  17  20  1   
 35  17  21  1   
 36  18  22  ar  
 37  19  23  ar  
 38  19  42  1   
 39  20  24  1   
 40  20  43  1   
 41  20  44  1   
 42  21  25  1   
 43  21  45  1   
 44  21  46  1   
 45  22  26  ar  
 46  22  47  1   
 47  23  26  ar  
 48  24  27  1   
 49  24  48  1   
 50  24  49  1   
 51  25  27  1   
 52  25  50  1   
 53  25  51  1   
 54  26  52  1   
 55  27  28  1   
 56  27  53  1   
 57  28  54  1   
 58  28  55  1   
 59  28  56  1   
@<TRIPOS>SUBSTRUCTURE
  1 ****   2 GROUP 4 **** **** 0

# MOE 2024.06 (io_trps.svl 2023.06)
