@<TRIPOS>MOLECULE
NONAME
64 68 1 0 0 
SMALL
USER_CHARGES


@<TRIPOS>ATOM
  1 O        0.3410     1.9130     1.3200 O.2   1 <1>  -0.5700 
  2 C       -0.5590     1.8790     0.5110 C.2   1 <1>   0.5690 
  3 N       -1.4630     0.8340     0.5530 N.am  1 <1>  -0.6600 
  4 C       -0.6370     3.0190    -0.5310 C.3   1 <1>   0.0610 
  5 C       -1.4430    -0.1440     1.6860 C.3   1 <1>   0.1400 
  6 C       -2.4810     0.4500    -0.4730 C.3   1 <1>   0.1400 
  7 C        0.1250     4.2970    -0.0820 C.3   1 <1>   0.2200 
  8 C       -2.0630     3.6210    -0.7460 C.3   1 <1>  -0.1600 
  9 C       -0.0640     2.5110    -1.8850 C.3   1 <1>  -0.0220 
 10 C       -2.8620    -0.3560     2.2390 C.3   1 <1>   0.1200 
 11 C       -3.8510     0.2310     0.1900 C.3   1 <1>   0.1200 
 12 N       -0.4880     5.2870    -0.9610 N.am  1 <1>  -0.6600 
 13 C       -0.3620     4.8600     1.2720 C.3   1 <1>  -0.1600 
 14 C       -1.8760     5.1340    -0.5550 C.3   1 <1>   0.2200 
 15 C        1.4140     2.1480    -1.8220 C.2   1 <1>  -0.2880 
 16 O       -3.7490    -0.7140     1.2150 O.3   1 <1>  -0.5600 
 17 C        0.1520     6.2210    -1.7220 C.2   1 <1>   0.5690 
 18 C       -1.7530     5.4280     0.9400 C.3   1 <1>  -0.1600 
 19 C        1.9750     0.9360    -1.7330 C.2   1 <1>  -0.2760 
 20 O        1.3490     6.1830    -1.8850 O.2   1 <1>  -0.5700 
 21 C       -0.6140     7.3290    -2.4060 C.3   1 <1>   0.1570 
 22 C        3.4840     0.7680    -1.6820 C.3   1 <1>  -0.1020 
 23 C        1.2460    -0.3970    -1.6500 C.3   1 <1>  -0.1020 
 24 N       -1.2820     8.1820    -1.4150 N.pl3 1 <1>   0.3140 
 25 N       -2.6240     8.3730    -1.4430 N.2   1 <1>  -0.7070 
 26 C       -0.6970     8.8640    -0.3830 C.ar  1 <1>  -0.1520 
 27 C       -2.8720     9.1630    -0.4520 C.2   1 <1>   0.1390 
 28 C       -1.7210     9.5170     0.2690 C.ar  1 <1>   0.0000 
 29 C        0.6260     8.9760     0.0620 C.ar  1 <1>  -0.1500 
 30 C       -1.4430    10.3100     1.3910 C.ar  1 <1>  -0.1500 
 31 C        0.8910     9.7540     1.1640 C.ar  1 <1>  -0.1500 
 32 C       -0.1460    10.4220     1.8300 C.ar  1 <1>  -0.1500 
 33 H       -1.0500    -1.0830     1.3370 H     1 <1>   0.0800 
 34 H       -0.8080     0.2030     2.4820 H     1 <1>   0.0800 
 35 H       -2.5720     1.1870    -1.2440 H     1 <1>   0.0800 
 36 H       -2.1750    -0.4700    -0.9400 H     1 <1>   0.0800 
 37 H        1.1980     4.2400    -0.1590 H     1 <1>   0.0800 
 38 H       -2.7770     3.2460    -0.0360 H     1 <1>   0.0800 
 39 H       -2.4320     3.4320    -1.7380 H     1 <1>   0.0800 
 40 H       -0.6270     1.6640    -2.2210 H     1 <1>   0.0800 
 41 H       -0.1790     3.2650    -2.6440 H     1 <1>   0.0800 
 42 H       -3.2210     0.5430     2.7090 H     1 <1>   0.0800 
 43 H       -2.8610    -1.1490     2.9650 H     1 <1>   0.0800 
 44 H       -4.5570    -0.1430    -0.5300 H     1 <1>   0.0800 
 45 H       -4.2280     1.1500     0.6030 H     1 <1>   0.0800 
 46 H       -0.4000     4.1280     2.0560 H     1 <1>   0.0800 
 47 H        0.2980     5.6510     1.5810 H     1 <1>   0.0800 
 48 H       -2.5850     5.7490    -1.0840 H     1 <1>   0.0800 
 49 H        2.0260     3.0350    -1.8590 H     1 <1>   0.1500 
 50 H       -1.7790     6.4900     1.1120 H     1 <1>   0.0800 
 51 H       -2.5350     4.9610     1.5110 H     1 <1>   0.0800 
 52 H       -1.3510     6.9070    -3.0600 H     1 <1>   0.0800 
 53 H        0.0600     7.9350    -2.9800 H     1 <1>   0.0800 
 54 H        3.7720     0.2940    -0.7600 H     1 <1>   0.0800 
 55 H        3.9780     1.7220    -1.7390 H     1 <1>   0.0800 
 56 H        3.8200     0.1630    -2.5060 H     1 <1>   0.0800 
 57 H        1.5340    -1.0260    -2.4730 H     1 <1>   0.0800 
 58 H        0.1820    -0.2800    -1.6740 H     1 <1>   0.0800 
 59 H        1.5010    -0.8920    -0.7300 H     1 <1>   0.0800 
 60 H       -3.8560     9.5170    -0.1980 H     1 <1>   0.1500 
 61 H        1.4200     8.4580    -0.4500 H     1 <1>   0.1500 
 62 H       -2.2490    10.8160     1.8910 H     1 <1>   0.1500 
 63 H        1.8990     9.8570     1.5280 H     1 <1>   0.1500 
 64 H        0.0900    11.0250     2.6900 H     1 <1>   0.1500 
@<TRIPOS>BOND
  1   1   2  2   
  2   2   3  am  
  3   2   4  1   
  4   3   5  1   
  5   3   6  1   
  6   4   7  1   
  7   4   8  1   
  8   4   9  1   
  9   5  10  1   
 10   5  33  1   
 11   5  34  1   
 12   6  11  1   
 13   6  35  1   
 14   6  36  1   
 15   7  12  1   
 16   7  13  1   
 17   7  37  1   
 18   8  14  1   
 19   8  38  1   
 20   8  39  1   
 21   9  15  1   
 22   9  40  1   
 23   9  41  1   
 24  10  16  1   
 25  10  42  1   
 26  10  43  1   
 27  11  16  1   
 28  11  44  1   
 29  11  45  1   
 30  12  14  1   
 31  12  17  am  
 32  13  18  1   
 33  13  46  1   
 34  13  47  1   
 35  14  18  1   
 36  14  48  1   
 37  15  19  2   
 38  15  49  1   
 39  17  20  2   
 40  17  21  1   
 41  18  50  1   
 42  18  51  1   
 43  19  22  1   
 44  19  23  1   
 45  21  24  1   
 46  21  52  1   
 47  21  53  1   
 48  22  54  1   
 49  22  55  1   
 50  22  56  1   
 51  23  57  1   
 52  23  58  1   
 53  23  59  1   
 54  24  25  1   
 55  24  26  1   
 56  25  27  2   
 57  26  28  ar  
 58  26  29  ar  
 59  27  28  1   
 60  27  60  1   
 61  28  30  ar  
 62  29  31  ar  
 63  29  61  1   
 64  30  32  ar  
 65  30  62  1   
 66  31  32  ar  
 67  31  63  1   
 68  32  64  1   
@<TRIPOS>SUBSTRUCTURE
  1 ****   7 GROUP 4 **** **** 0

# MOE 2024.06 (io_trps.svl 2023.06)
