@<TRIPOS>MOLECULE
NONAME
41 44 1 0 0 
SMALL
USER_CHARGES


@<TRIPOS>ATOM
  1 O        0.3480     0.9280    -0.1000 O.2   1 <1>  -0.5700 
  2 C       -0.3020     1.8740     0.3120 C.2   1 <1>   0.7160 
  3 N       -1.6760     1.8480     0.1480 N.am  1 <1>  -0.6600 
  4 C        0.3940     2.9740     0.9460 C.2   1 <1>  -0.0860 
  5 C       -2.6170     2.7790     0.8600 C.3   1 <1>   0.1400 
  6 C       -2.3070     0.8010    -0.7170 C.3   1 <1>   0.1400 
  7 C        0.2600     4.3340     0.7950 C.2   1 <1>  -0.3020 
  8 C        1.4390     2.8190     1.8800 C.2   1 <1>  -0.1500 
  9 C       -3.8230     3.1450    -0.0290 C.3   1 <1>   0.1440 
 10 C       -3.7790     0.5750    -0.3520 C.3   1 <1>  -0.1600 
 11 N        1.1400     4.9890     1.5860 N.pl3 1 <1>   0.0330 
 12 C        1.8640     4.0520     2.2500 C.2   1 <1>  -0.3020 
 13 C       -4.6700     4.1720     0.7070 C.ar  1 <1>   0.1670 
 14 C       -4.6240     1.8640    -0.3930 C.3   1 <1>  -0.1600 
 15 C       -3.3690     3.9380    -1.2910 C.3   1 <1>  -0.1600 
 16 N       -5.4310     3.9290     1.7490 N.ar  1 <1>  -0.6200 
 17 C       -4.5370     5.4180     0.1670 C.ar  1 <1>  -0.1440 
 18 C       -3.5830     5.4320    -0.9980 C.3   1 <1>  -0.0170 
 19 C       -6.0650     4.9940     2.2190 C.ar  1 <1>   0.7200 
 20 C       -5.2510     6.4460     0.7350 C.ar  1 <1>   0.1600 
 21 N       -6.0330     6.2410     1.7710 N.ar  1 <1>  -0.6200 
 22 N       -6.8600     4.7770     3.2670 N.pl3 1 <1>  -0.9000 
 23 H       -2.1200     3.6780     1.1680 H     1 <1>   0.0800 
 24 H       -2.9750     2.2930     1.7510 H     1 <1>   0.0800 
 25 H       -1.7740    -0.1290    -0.6120 H     1 <1>   0.0800 
 26 H       -2.2310     1.1110    -1.7450 H     1 <1>   0.0800 
 27 H       -0.4230     4.8530     0.1470 H     1 <1>   0.1500 
 28 H        1.8090     1.8630     2.2120 H     1 <1>   0.1500 
 29 H       -3.8120     0.1610     0.6410 H     1 <1>   0.0800 
 30 H       -4.2050    -0.1570    -1.0140 H     1 <1>   0.0800 
 31 H        1.2550     6.0060     1.6680 H     1 <1>   0.2700 
 32 H        2.6450     4.3110     2.9450 H     1 <1>   0.1500 
 33 H       -5.0770     1.9680    -1.3620 H     1 <1>   0.0800 
 34 H       -5.4340     1.7350     0.3040 H     1 <1>   0.0800 
 35 H       -3.9870     3.6810    -2.1330 H     1 <1>   0.0800 
 36 H       -2.3470     3.7400    -1.5630 H     1 <1>   0.0800 
 37 H       -3.9990     5.9460    -1.8470 H     1 <1>   0.0800 
 38 H       -2.6590     5.8990    -0.7040 H     1 <1>   0.0800 
 39 H       -5.1800     7.4440     0.3380 H     1 <1>   0.1500 
 40 H       -7.5680     5.4890     3.4250 H     1 <1>   0.4000 
 41 H       -7.1370     3.8110     3.4070 H     1 <1>   0.4000 
@<TRIPOS>BOND
  1   1   2  2   
  2   2   3  am  
  3   2   4  1   
  4   3   5  1   
  5   3   6  1   
  6   4   7  2   
  7   4   8  1   
  8   5   9  1   
  9   5  23  1   
 10   5  24  1   
 11   6  10  1   
 12   6  25  1   
 13   6  26  1   
 14   7  11  1   
 15   7  27  1   
 16   8  12  2   
 17   8  28  1   
 18   9  13  1   
 19   9  14  1   
 20   9  15  1   
 21  10  14  1   
 22  10  29  1   
 23  10  30  1   
 24  11  12  1   
 25  11  31  1   
 26  12  32  1   
 27  13  16  ar  
 28  13  17  ar  
 29  14  33  1   
 30  14  34  1   
 31  15  18  1   
 32  15  35  1   
 33  15  36  1   
 34  16  19  ar  
 35  17  18  1   
 36  17  20  ar  
 37  18  37  1   
 38  18  38  1   
 39  19  21  ar  
 40  19  22  1   
 41  20  21  ar  
 42  20  39  1   
 43  22  40  1   
 44  22  41  1   
@<TRIPOS>SUBSTRUCTURE
  1 ****   5 GROUP 4 **** **** 0

# MOE 2024.06 (io_trps.svl 2023.06)
