@<TRIPOS>MOLECULE
NONAME
46 48 1 0 0 
SMALL
USER_CHARGES


@<TRIPOS>ATOM
  1 O       -1.7770     0.9690    -1.7420 O.2   1 <1>  -0.5700 
  2 C       -1.8630     1.1640    -0.5450 C.2   1 <1>   0.5440 
  3 N       -2.1030     0.0910     0.2640 N.am  1 <1>  -0.7300 
  4 C       -1.7100     2.5000     0.0090 C.ar  1 <1>   0.0860 
  5 C       -2.2860    -1.3030    -0.1990 C.3   1 <1>   0.2200 
  6 C       -0.9950     3.4780    -0.6810 C.ar  1 <1>  -0.1500 
  7 C       -2.2650     2.8600     1.2380 C.ar  1 <1>  -0.1500 
  8 C       -3.7670    -1.6360    -0.1940 C.3   1 <1>  -0.0800 
  9 C       -1.7480    -2.2660     0.8540 C.3   1 <1>   0.1200 
 10 C       -0.8260     4.7600    -0.1680 C.ar  1 <1>   0.0820 
 11 C       -2.1020     4.1300     1.7590 C.ar  1 <1>  -0.1500 
 12 C       -4.0050    -2.0420     1.2660 C.3   1 <1>   0.1200 
 13 C       -4.0940    -2.7740    -1.1790 C.3   1 <1>  -0.0160 
 14 O       -2.7640    -2.4080     1.8010 O.3   1 <1>  -0.5600 
 15 O       -0.1320     5.7290    -0.8220 O.3   1 <1>  -0.3630 
 16 C       -1.3820     5.0860     1.0640 C.ar  1 <1>  -0.1440 
 17 C       -5.5840    -3.0810    -1.1980 C.ar  1 <1>  -0.1440 
 18 C        0.4190     5.5120    -2.1030 C.3   1 <1>   0.0400 
 19 C       -1.2100     6.4810     1.6490 C.3   1 <1>  -0.0970 
 20 C       -6.1110    -4.2060    -0.5970 C.ar  1 <1>  -0.1500 
 21 C       -6.4870    -2.2440    -1.8210 C.ar  1 <1>  -0.1500 
 22 C       -7.4770    -4.4300    -0.6420 C.ar  1 <1>   0.1600 
 23 C       -7.8350    -2.5590    -1.8090 C.ar  1 <1>   0.1600 
 24 N       -8.3520    -3.6320    -1.2320 N.ar  1 <1>  -0.6200 
 25 H       -2.1440     0.2060     1.2780 H     1 <1>   0.3700 
 26 H       -1.8180    -1.4460    -1.1590 H     1 <1>   0.0800 
 27 H       -0.5750     3.2050    -1.6300 H     1 <1>   0.1500 
 28 H       -2.8390     2.1430     1.7960 H     1 <1>   0.1500 
 29 H       -4.3570    -0.7750    -0.4560 H     1 <1>   0.0800 
 30 H       -0.8540    -1.9040     1.3310 H     1 <1>   0.0800 
 31 H       -1.5640    -3.2340     0.4240 H     1 <1>   0.0800 
 32 H       -2.5410     4.3720     2.7110 H     1 <1>   0.1500 
 33 H       -4.6870    -2.8660     1.3700 H     1 <1>   0.0800 
 34 H       -4.3680    -1.2050     1.8360 H     1 <1>   0.0800 
 35 H       -3.5450    -3.6630    -0.9210 H     1 <1>   0.0800 
 36 H       -3.7920    -2.4830    -2.1710 H     1 <1>   0.0800 
 37 H        0.8940     6.4220    -2.4200 H     1 <1>   0.0800 
 38 H       -0.3720     5.2550    -2.7850 H     1 <1>   0.0800 
 39 H        1.1460     4.7220    -2.0410 H     1 <1>   0.0800 
 40 H       -1.6930     6.5670     2.6050 H     1 <1>   0.0800 
 41 H       -1.6350     7.2090     0.9820 H     1 <1>   0.0800 
 42 H       -0.1640     6.6970     1.7710 H     1 <1>   0.0800 
 43 H       -5.4750    -4.9110    -0.0930 H     1 <1>   0.1500 
 44 H       -6.1550    -1.3490    -2.3170 H     1 <1>   0.1500 
 45 H       -7.8710    -5.3120    -0.1670 H     1 <1>   0.1500 
 46 H       -8.5240    -1.8940    -2.3000 H     1 <1>   0.1500 
@<TRIPOS>BOND
  1   1   2  2   
  2   2   3  am  
  3   2   4  1   
  4   3   5  1   
  5   3  25  1   
  6   4   6  ar  
  7   4   7  ar  
  8   5   8  1   
  9   5   9  1   
 10   5  26  1   
 11   6  10  ar  
 12   6  27  1   
 13   7  11  ar  
 14   7  28  1   
 15   8  12  1   
 16   8  13  1   
 17   8  29  1   
 18   9  14  1   
 19   9  30  1   
 20   9  31  1   
 21  10  15  1   
 22  10  16  ar  
 23  11  16  ar  
 24  11  32  1   
 25  12  14  1   
 26  12  33  1   
 27  12  34  1   
 28  13  17  1   
 29  13  35  1   
 30  13  36  1   
 31  15  18  1   
 32  16  19  1   
 33  17  20  ar  
 34  17  21  ar  
 35  18  37  1   
 36  18  38  1   
 37  18  39  1   
 38  19  40  1   
 39  19  41  1   
 40  19  42  1   
 41  20  22  ar  
 42  20  43  1   
 43  21  23  ar  
 44  21  44  1   
 45  22  24  ar  
 46  22  45  1   
 47  23  24  ar  
 48  23  46  1   
@<TRIPOS>SUBSTRUCTURE
  1 ****   3 GROUP 4 **** **** 0

# MOE 2024.06 (io_trps.svl 2023.06)
