@<TRIPOS>MOLECULE
NONAME
43 44 1 0 0 
SMALL
USER_CHARGES


@<TRIPOS>ATOM
  1 S        0.3840     0.1530     0.9310 S.3   1 <1>  -0.4600 
  2 C        0.5820     1.9320     1.2140 C.3   1 <1>   0.0700 
  3 C        1.3240    -0.1070    -0.5960 C.3   1 <1>   0.0700 
  4 C        2.0770     2.2740     1.2050 C.3   1 <1>   0.3430 
  5 C        2.7400     0.4550    -0.4120 C.3   1 <1>   0.3430 
  6 N        2.7420     1.9260    -0.1020 N.4   1 <1>  -0.9590 
  7 C        4.1320     2.5240    -0.1710 C.3   1 <1>   0.4040 
  8 C        4.1160     4.0610    -0.2650 C.2   1 <1>   0.5690 
  9 O        3.0910     4.5760    -0.6470 O.2   1 <1>  -0.5700 
 10 N        5.2090     4.7940     0.0860 N.am  1 <1>  -0.7300 
 11 C        5.2670     6.2800     0.0670 C.3   1 <1>   0.1400 
 12 C        6.1650     6.7580    -1.0740 C.3   1 <1>  -0.0170 
 13 C        6.3220     8.2710    -1.0140 C.ar  1 <1>  -0.1430 
 14 C        7.1880     8.8650    -0.0990 C.ar  1 <1>   0.0830 
 15 C        5.5880     9.0670    -1.8800 C.ar  1 <1>  -0.1500 
 16 O        7.8840     8.0480     0.7380 O.3   1 <1>  -0.3620 
 17 C        7.3090    10.2530    -0.0670 C.ar  1 <1>  -0.1500 
 18 C        5.7120    10.4450    -1.8430 C.ar  1 <1>  -0.1500 
 19 C        8.8350     8.5580     1.6470 C.3   1 <1>   0.0400 
 20 C        6.5730    11.0370    -0.9370 C.ar  1 <1>  -0.1500 
 21 H        0.1390     2.1500     2.1700 H     1 <1>   0.0800 
 22 H        0.0460     2.4540     0.4410 H     1 <1>   0.0800 
 23 H        0.7970     0.3820    -1.3960 H     1 <1>   0.0800 
 24 H        1.3460    -1.1680    -0.7740 H     1 <1>   0.0800 
 25 H        2.5590     1.7460     2.0120 H     1 <1>   0.0800 
 26 H        2.1800     3.3320     1.3910 H     1 <1>   0.0800 
 27 H        3.2960     0.2770    -1.3190 H     1 <1>   0.0800 
 28 H        3.2240    -0.0850     0.3850 H     1 <1>   0.0800 
 29 H        2.2070     2.4320    -0.8290 H     1 <1>   0.4500 
 30 H        4.6380     2.1540    -1.0460 H     1 <1>   0.0800 
 31 H        4.7000     2.2330     0.6950 H     1 <1>   0.0800 
 32 H        6.0890     4.3610     0.3800 H     1 <1>   0.3700 
 33 H        5.6580     6.6320     1.0070 H     1 <1>   0.0800 
 34 H        4.2800     6.6960    -0.0580 H     1 <1>   0.0800 
 35 H        5.7300     6.4720    -2.0150 H     1 <1>   0.0800 
 36 H        7.1350     6.3000    -0.9990 H     1 <1>   0.0800 
 37 H        4.9130     8.6220    -2.5900 H     1 <1>   0.1500 
 38 H        7.9660    10.7420     0.6250 H     1 <1>   0.1500 
 39 H        5.1390    11.0550    -2.5190 H     1 <1>   0.1500 
 40 H        9.2730     7.7300     2.1740 H     1 <1>   0.0800 
 41 H        8.3380     9.2110     2.3430 H     1 <1>   0.0800 
 42 H        9.5950     9.0850     1.0980 H     1 <1>   0.0800 
 43 H        6.6680    12.1080    -0.9100 H     1 <1>   0.1500 
@<TRIPOS>BOND
  1   1   2  1   
  2   1   3  1   
  3   2   4  1   
  4   2  21  1   
  5   2  22  1   
  6   3   5  1   
  7   3  23  1   
  8   3  24  1   
  9   4   6  1   
 10   4  25  1   
 11   4  26  1   
 12   5   6  1   
 13   5  27  1   
 14   5  28  1   
 15   6   7  1   
 16   6  29  1   
 17   7   8  1   
 18   7  30  1   
 19   7  31  1   
 20   8   9  2   
 21   8  10  am  
 22  10  11  1   
 23  10  32  1   
 24  11  12  1   
 25  11  33  1   
 26  11  34  1   
 27  12  13  1   
 28  12  35  1   
 29  12  36  1   
 30  13  14  ar  
 31  13  15  ar  
 32  14  16  1   
 33  14  17  ar  
 34  15  18  ar  
 35  15  37  1   
 36  16  19  1   
 37  17  20  ar  
 38  17  38  1   
 39  18  20  ar  
 40  18  39  1   
 41  19  40  1   
 42  19  41  1   
 43  19  42  1   
 44  20  43  1   
@<TRIPOS>SUBSTRUCTURE
  1 ****  10 GROUP 4 **** **** 0

# MOE 2024.06 (io_trps.svl 2023.06)
