@<TRIPOS>MOLECULE
NONAME
46 48 1 0 0 
SMALL
USER_CHARGES


@<TRIPOS>ATOM
  1 O       -0.0050    -0.4290    -1.1940 O.2   1 <1>  -0.5700 
  2 C        0.9470     0.1740    -0.7230 C.2   1 <1>   0.5440 
  3 N        0.7000     1.3230     0.0070 N.am  1 <1>  -0.6600 
  4 C        2.2880    -0.3260    -0.9280 C.ar  1 <1>   0.0860 
  5 C        1.6520     1.8750     1.0090 C.3   1 <1>   0.0600 
  6 C       -0.6390     1.9760     0.0020 C.3   1 <1>   0.0600 
  7 C        2.6020    -1.6730    -0.6700 C.ar  1 <1>   0.4100 
  8 C        3.3070     0.4980    -1.3880 C.ar  1 <1>  -0.1500 
  9 N        3.8180    -2.1960    -0.8160 N.ar  1 <1>  -0.6200 
 10 N        1.6260    -2.5350    -0.2370 N.pl3 1 <1>  -0.8690 
 11 C        4.5620    -0.0440    -1.5450 C.ar  1 <1>  -0.1500 
 12 C        4.7600    -1.3800    -1.2450 C.ar  1 <1>   0.1600 
 13 C        1.6910    -4.0030    -0.4260 C.3   1 <1>   0.2890 
 14 C        0.3160    -4.6510    -0.5600 C.3   1 <1>  -0.0800 
 15 C        2.3050    -4.7180     0.7790 C.3   1 <1>   0.1200 
 16 C        0.6200    -6.0460    -0.0170 C.3   1 <1>   0.1200 
 17 C       -0.8010    -3.9620     0.2590 C.3   1 <1>  -0.0170 
 18 O        1.5150    -5.8500     1.0300 O.3   1 <1>  -0.5600 
 19 C       -2.1300    -4.6900     0.1280 C.ar  1 <1>  -0.1430 
 20 C       -2.6120    -5.5230     1.1170 C.ar  1 <1>  -0.1500 
 21 C       -2.9230    -4.5470    -0.9920 C.ar  1 <1>  -0.1500 
 22 C       -3.8290    -6.1600     0.9400 C.ar  1 <1>   0.1600 
 23 C       -4.1260    -5.2290    -1.0690 C.ar  1 <1>   0.1600 
 24 N       -4.5970    -6.0360    -0.1310 N.ar  1 <1>  -0.6200 
 25 H        1.1370     2.0650     1.9350 H     1 <1>   0.0800 
 26 H        2.0690     2.7980     0.6440 H     1 <1>   0.0800 
 27 H        2.4500     1.1810     1.2060 H     1 <1>   0.0800 
 28 H       -0.5260     3.0450    -0.0250 H     1 <1>   0.0800 
 29 H       -1.1810     1.6960     0.8890 H     1 <1>   0.0800 
 30 H       -1.2060     1.6700    -0.8610 H     1 <1>   0.0800 
 31 H        3.1110     1.5310    -1.6160 H     1 <1>   0.1500 
 32 H        0.6790    -2.1550    -0.3740 H     1 <1>   0.4000 
 33 H        5.3820     0.5560    -1.8970 H     1 <1>   0.1500 
 34 H        5.7460    -1.7960    -1.3670 H     1 <1>   0.1500 
 35 H        2.2820    -4.2310    -1.2980 H     1 <1>   0.0800 
 36 H        0.0250    -4.7100    -1.5930 H     1 <1>   0.0800 
 37 H        2.2830    -4.0950     1.6550 H     1 <1>   0.0800 
 38 H        3.3110    -5.0340     0.5700 H     1 <1>   0.0800 
 39 H        1.1140    -6.6470    -0.7620 H     1 <1>   0.0800 
 40 H       -0.2440    -6.5700     0.3480 H     1 <1>   0.0800 
 41 H       -0.9490    -2.9550    -0.0880 H     1 <1>   0.0800 
 42 H       -0.5150    -3.9080     1.2960 H     1 <1>   0.0800 
 43 H       -2.0520    -5.6820     2.0200 H     1 <1>   0.1500 
 44 H       -2.6180    -3.9090    -1.8010 H     1 <1>   0.1500 
 45 H       -4.1890    -6.8070     1.7210 H     1 <1>   0.1500 
 46 H       -4.7320    -5.1050    -1.9500 H     1 <1>   0.1500 
@<TRIPOS>BOND
  1   1   2  2   
  2   2   3  am  
  3   2   4  1   
  4   3   5  1   
  5   3   6  1   
  6   4   7  ar  
  7   4   8  ar  
  8   5  25  1   
  9   5  26  1   
 10   5  27  1   
 11   6  28  1   
 12   6  29  1   
 13   6  30  1   
 14   7   9  ar  
 15   7  10  1   
 16   8  11  ar  
 17   8  31  1   
 18   9  12  ar  
 19  10  13  1   
 20  10  32  1   
 21  11  12  ar  
 22  11  33  1   
 23  12  34  1   
 24  13  14  1   
 25  13  15  1   
 26  13  35  1   
 27  14  16  1   
 28  14  17  1   
 29  14  36  1   
 30  15  18  1   
 31  15  37  1   
 32  15  38  1   
 33  16  18  1   
 34  16  39  1   
 35  16  40  1   
 36  17  19  1   
 37  17  41  1   
 38  17  42  1   
 39  19  20  ar  
 40  19  21  ar  
 41  20  22  ar  
 42  20  43  1   
 43  21  23  ar  
 44  21  44  1   
 45  22  24  ar  
 46  22  45  1   
 47  23  24  ar  
 48  23  46  1   
@<TRIPOS>SUBSTRUCTURE
  1 ****  10 GROUP 4 **** **** 0

# MOE 2024.06 (io_trps.svl 2023.06)
