@<TRIPOS>MOLECULE
NONAME
47 49 1 0 0 
SMALL
USER_CHARGES


@<TRIPOS>ATOM
  1 CL      -2.2810    -0.3860    -2.7860 Cl    1 <1>  -0.1770 
  2 C       -2.4920    -1.7910    -1.7740 C.ar  1 <1>   0.1770 
  3 C       -3.4370    -1.7610    -0.7660 C.ar  1 <1>  -0.1500 
  4 C       -1.7140    -2.9110    -1.9980 C.ar  1 <1>  -0.1500 
  5 C       -3.6210    -2.8760     0.0420 C.ar  1 <1>  -0.1440 
  6 C       -1.8870    -4.0220    -1.1900 C.ar  1 <1>  -0.1500 
  7 C       -2.8320    -4.0010    -0.1770 C.ar  1 <1>  -0.1500 
  8 C       -4.6770    -2.8440     1.1460 C.3   1 <1>   0.4040 
  9 O       -4.0340    -2.5000     2.3330 O.3   1 <1>  -0.6800 
 10 C       -5.4480    -4.1810     1.2900 C.2   1 <1>   0.5690 
 11 O       -5.0800    -4.9480     2.1570 O.2   1 <1>  -0.5700 
 12 N       -6.5120    -4.4980     0.4710 N.am  1 <1>  -0.6600 
 13 C       -7.3090    -5.7440     0.6890 C.3   1 <1>   0.1400 
 14 C       -6.9540    -3.6670    -0.6820 C.3   1 <1>   0.1400 
 15 C       -8.7770    -5.4430     1.0250 C.3   1 <1>   0.1400 
 16 C       -8.1660    -2.8320    -0.2650 C.3   1 <1>  -0.1600 
 17 N       -9.5470    -4.9860    -0.1760 N.am  1 <1>  -0.6600 
 18 C       -9.5150    -3.5260    -0.5020 C.3   1 <1>   0.1400 
 19 C      -10.5020    -5.7840    -0.7770 C.2   1 <1>   0.7150 
 20 O      -11.3430    -5.2580    -1.4830 O.2   1 <1>  -0.5700 
 21 C      -10.5570    -7.2040    -0.5730 C.2   1 <1>  -0.2370 
 22 N      -11.7070    -7.8750    -0.2990 N.pl3 1 <1>   0.3140 
 23 C       -9.5880    -8.1630    -0.6090 C.2   1 <1>  -0.1500 
 24 N      -11.5020    -9.1900    -0.1340 N.2   1 <1>  -0.7070 
 25 C      -13.0610    -7.3110    -0.1760 C.3   1 <1>   0.0160 
 26 C      -10.2290    -9.3540    -0.3280 C.2   1 <1>   0.1390 
 27 H       -4.0140    -0.8660    -0.6180 H     1 <1>   0.1500 
 28 H       -0.9860    -2.9090    -2.7880 H     1 <1>   0.1500 
 29 H       -1.2860    -4.9010    -1.3470 H     1 <1>   0.1500 
 30 H       -2.9460    -4.8750     0.4440 H     1 <1>   0.1500 
 31 H       -5.3830    -2.0590     0.9490 H     1 <1>   0.0800 
 32 H       -3.7720    -3.3390     2.7690 H     1 <1>   0.4000 
 33 H       -6.8910    -6.3100     1.5020 H     1 <1>   0.0800 
 34 H       -7.2520    -6.3570    -0.1910 H     1 <1>   0.0800 
 35 H       -7.2010    -4.2990    -1.5190 H     1 <1>   0.0800 
 36 H       -6.1580    -3.0170    -1.0000 H     1 <1>   0.0800 
 37 H       -8.8240    -4.6970     1.7990 H     1 <1>   0.0800 
 38 H       -9.2260    -6.3350     1.4250 H     1 <1>   0.0800 
 39 H       -8.1710    -1.9270    -0.8460 H     1 <1>   0.0800 
 40 H       -8.0800    -2.5370     0.7660 H     1 <1>   0.0800 
 41 H       -9.7650    -3.4070    -1.5440 H     1 <1>   0.0800 
 42 H      -10.2800    -3.0260     0.0670 H     1 <1>   0.0800 
 43 H       -8.5420    -8.0530    -0.8190 H     1 <1>   0.1500 
 44 H      -13.0450    -6.4900     0.5150 H     1 <1>   0.0800 
 45 H      -13.7310    -8.0720     0.1800 H     1 <1>   0.0800 
 46 H      -13.3870    -6.9680    -1.1410 H     1 <1>   0.0800 
 47 H       -9.7470   -10.3160    -0.2740 H     1 <1>   0.1500 
@<TRIPOS>BOND
  1   1   2  1   
  2   2   3  ar  
  3   2   4  ar  
  4   3   5  ar  
  5   3  27  1   
  6   4   6  ar  
  7   4  28  1   
  8   5   7  ar  
  9   5   8  1   
 10   6   7  ar  
 11   6  29  1   
 12   7  30  1   
 13   8   9  1   
 14   8  10  1   
 15   8  31  1   
 16   9  32  1   
 17  10  11  2   
 18  10  12  am  
 19  12  13  1   
 20  12  14  1   
 21  13  15  1   
 22  13  33  1   
 23  13  34  1   
 24  14  16  1   
 25  14  35  1   
 26  14  36  1   
 27  15  17  1   
 28  15  37  1   
 29  15  38  1   
 30  16  18  1   
 31  16  39  1   
 32  16  40  1   
 33  17  18  1   
 34  17  19  am  
 35  18  41  1   
 36  18  42  1   
 37  19  20  2   
 38  19  21  1   
 39  21  22  1   
 40  21  23  2   
 41  22  24  1   
 42  22  25  1   
 43  23  26  1   
 44  23  43  1   
 45  24  26  2   
 46  25  44  1   
 47  25  45  1   
 48  25  46  1   
 49  26  47  1   
@<TRIPOS>SUBSTRUCTURE
  1 ****  12 GROUP 4 **** **** 0

# MOE 2024.06 (io_trps.svl 2023.06)
