@<TRIPOS>MOLECULE
NONAME
47 48 1 0 0 
SMALL
USER_CHARGES


@<TRIPOS>ATOM
  1 O        0.9810     0.1010     1.0570 O.2   1 <1>  -0.5700 
  2 C        1.4370    -0.4920     0.0970 C.2   1 <1>   0.7160 
  3 N        1.9740     0.2080    -0.9450 N.am  1 <1>  -0.7300 
  4 C        1.4330    -1.9370     0.0200 C.2   1 <1>  -0.0860 
  5 C        2.3200     1.6420    -1.0400 C.3   1 <1>   0.3640 
  6 C        0.5390    -2.8650     0.5020 C.2   1 <1>  -0.3320 
  7 C        2.4340    -2.6960    -0.6200 C.2   1 <1>  -0.1500 
  8 C        3.6780     1.8530    -0.3790 C.ar  1 <1>  -0.1440 
  9 C        1.1910     2.5560    -0.5230 C.3   1 <1>  -0.1600 
 10 N        0.9500    -4.1220     0.1900 N.pl3 1 <1>   0.0480 
 11 C       -0.7440    -2.5850     1.2730 C.3   1 <1>  -0.0600 
 12 C        2.1140    -4.0070    -0.5060 C.2   1 <1>  -0.3320 
 13 C        4.7900     2.1300    -1.1630 C.ar  1 <1>   0.1600 
 14 C        3.8480     1.7670     0.9910 C.ar  1 <1>  -0.1500 
 15 C        1.1980     3.9910    -1.0910 C.3   1 <1>  -0.0800 
 16 C        0.2740    -5.3920     0.5230 C.3   1 <1>   0.0160 
 17 C        2.9000    -5.1910    -1.0430 C.3   1 <1>  -0.0600 
 18 N        6.0170     2.3300    -0.7090 N.ar  1 <1>  -0.6200 
 19 C        5.1180     1.9700     1.4840 C.ar  1 <1>  -0.1500 
 20 C        2.3890     4.8230    -0.5960 C.3   1 <1>  -0.2400 
 21 C       -0.1030     4.7010    -0.6920 C.3   1 <1>  -0.2400 
 22 C        6.1510     2.2450     0.6050 C.ar  1 <1>   0.1600 
 23 H        2.3760    -0.3670    -1.6820 H     1 <1>   0.3700 
 24 H        2.4240     1.8550    -2.0900 H     1 <1>   0.0800 
 25 H        3.3030    -2.2830    -1.1010 H     1 <1>   0.1500 
 26 H        1.2160     2.6010     0.5500 H     1 <1>   0.0800 
 27 H        0.2570     2.1000    -0.8030 H     1 <1>   0.0800 
 28 H       -0.9410    -1.5300     1.3260 H     1 <1>   0.0800 
 29 H       -0.6590    -2.9610     2.2770 H     1 <1>   0.0800 
 30 H       -1.5800    -3.0560     0.7880 H     1 <1>   0.0800 
 31 H        4.6680     2.1940    -2.2300 H     1 <1>   0.1500 
 32 H        3.0260     1.5450     1.6510 H     1 <1>   0.1500 
 33 H        1.2310     3.9450    -2.1670 H     1 <1>   0.0800 
 34 H       -0.4370    -5.2360     1.3120 H     1 <1>   0.0800 
 35 H        1.0050    -6.1080     0.8490 H     1 <1>   0.0800 
 36 H       -0.2310    -5.7600    -0.3500 H     1 <1>   0.0800 
 37 H        3.7690    -4.8480    -1.5750 H     1 <1>   0.0800 
 38 H        2.2910    -5.7660    -1.7170 H     1 <1>   0.0800 
 39 H        3.2220    -5.8200    -0.2330 H     1 <1>   0.0800 
 40 H        5.3060     1.9140     2.5400 H     1 <1>   0.1500 
 41 H        2.4450     4.8040     0.4780 H     1 <1>   0.0800 
 42 H        2.2900     5.8450    -0.9140 H     1 <1>   0.0800 
 43 H        3.3140     4.4510    -0.9940 H     1 <1>   0.0800 
 44 H       -0.1810     4.7730     0.3790 H     1 <1>   0.0800 
 45 H       -0.9560     4.1590    -1.0610 H     1 <1>   0.0800 
 46 H       -0.1320     5.6930    -1.1060 H     1 <1>   0.0800 
 47 H        7.1380     2.4020     1.0030 H     1 <1>   0.1500 
@<TRIPOS>BOND
  1   1   2  2   
  2   2   3  am  
  3   2   4  1   
  4   3   5  1   
  5   3  23  1   
  6   4   6  2   
  7   4   7  1   
  8   5   8  1   
  9   5   9  1   
 10   5  24  1   
 11   6  10  1   
 12   6  11  1   
 13   7  12  2   
 14   7  25  1   
 15   8  13  ar  
 16   8  14  ar  
 17   9  15  1   
 18   9  26  1   
 19   9  27  1   
 20  10  12  1   
 21  10  16  1   
 22  11  28  1   
 23  11  29  1   
 24  11  30  1   
 25  12  17  1   
 26  13  18  ar  
 27  13  31  1   
 28  14  19  ar  
 29  14  32  1   
 30  15  20  1   
 31  15  21  1   
 32  15  33  1   
 33  16  34  1   
 34  16  35  1   
 35  16  36  1   
 36  17  37  1   
 37  17  38  1   
 38  17  39  1   
 39  18  22  ar  
 40  19  22  ar  
 41  19  40  1   
 42  20  41  1   
 43  20  42  1   
 44  20  43  1   
 45  21  44  1   
 46  21  45  1   
 47  21  46  1   
 48  22  47  1   
@<TRIPOS>SUBSTRUCTURE
  1 ****   3 GROUP 4 **** **** 0

# MOE 2024.06 (io_trps.svl 2023.06)
