@<TRIPOS>MOLECULE
NONAME
52 54 1 0 0 
SMALL
USER_CHARGES


@<TRIPOS>ATOM
  1 O       -2.4400    -1.8670     1.1050 O.2   1 <1>  -0.5700 
  2 C       -1.5890    -2.0830     0.2660 C.2   1 <1>   0.7800 
  3 O       -0.3410    -2.3760     0.6190 O.3   1 <1>  -0.4300 
  4 N       -1.8410    -2.0630    -1.0550 N.am  1 <1>  -0.7300 
  5 C        0.0330    -2.4370     1.9800 C.3   1 <1>   0.0400 
  6 C       -3.2060    -2.0610    -1.6320 C.3   1 <1>   0.2810 
  7 C       -3.7170    -3.5010    -1.8740 C.2   1 <1>   0.5690 
  8 C       -3.1620    -1.2460    -2.9260 C.3   1 <1>  -0.2400 
  9 O       -2.9780    -4.2630    -2.4610 O.2   1 <1>  -0.5700 
 10 N       -4.9510    -3.9220    -1.4320 N.am  1 <1>  -0.6600 
 11 C       -5.3370    -5.3640    -1.5350 C.3   1 <1>   0.1400 
 12 C       -5.9370    -3.0870    -0.6900 C.3   1 <1>   0.1400 
 13 C       -5.0030    -6.1360    -0.2490 C.3   1 <1>   0.1400 
 14 C       -5.6390    -3.0240     0.8160 C.3   1 <1>  -0.1600 
 15 N       -5.6090    -5.5100     0.9720 N.am  1 <1>  -0.6600 
 16 C       -4.9430    -4.2520     1.4120 C.3   1 <1>   0.1400 
 17 C       -6.6330    -6.0750     1.7030 C.2   1 <1>   0.5440 
 18 O       -7.0170    -5.5240     2.7170 O.2   1 <1>  -0.5700 
 19 C       -7.2620    -7.3060     1.2890 C.ar  1 <1>   0.0860 
 20 C       -8.2240    -7.3360     0.2510 C.ar  1 <1>   0.0000 
 21 C       -6.9350    -8.5050     1.8660 C.ar  1 <1>  -0.1500 
 22 C       -8.7190    -8.5930    -0.1600 C.ar  1 <1>   0.3100 
 23 C       -8.7140    -6.1780    -0.3910 C.ar  1 <1>  -0.1500 
 24 C       -7.5000    -9.6920     1.4030 C.ar  1 <1>   0.1600 
 25 N       -8.3470    -9.7590     0.4230 N.ar  1 <1>  -0.6200 
 26 C       -9.6420    -8.6410    -1.2170 C.ar  1 <1>  -0.1500 
 27 C       -9.6180    -6.2570    -1.4150 C.ar  1 <1>  -0.1500 
 28 C      -10.0840    -7.5040    -1.8390 C.ar  1 <1>  -0.1500 
 29 H       -1.1340    -2.4930    -1.6520 H     1 <1>   0.3700 
 30 H        1.0780    -2.6840     2.0350 H     1 <1>   0.0800 
 31 H       -0.5540    -3.1950     2.4690 H     1 <1>   0.0800 
 32 H       -0.1460    -1.4780     2.4330 H     1 <1>   0.0800 
 33 H       -3.8570    -1.5590    -0.9430 H     1 <1>   0.0800 
 34 H       -2.5080    -1.7140    -3.6400 H     1 <1>   0.0800 
 35 H       -2.8190    -0.2470    -2.7240 H     1 <1>   0.0800 
 36 H       -4.1470    -1.1910    -3.3530 H     1 <1>   0.0800 
 37 H       -4.8170    -5.8240    -2.3580 H     1 <1>   0.0800 
 38 H       -6.3880    -5.4470    -1.7450 H     1 <1>   0.0800 
 39 H       -6.9170    -3.5090    -0.8270 H     1 <1>   0.0800 
 40 H       -5.9670    -2.0930    -1.1010 H     1 <1>   0.0800 
 41 H       -3.9330    -6.1680    -0.1350 H     1 <1>   0.0800 
 42 H       -5.3380    -7.1520    -0.3590 H     1 <1>   0.0800 
 43 H       -6.5640    -2.8670     1.3420 H     1 <1>   0.0800 
 44 H       -5.0290    -2.1640     1.0190 H     1 <1>   0.0800 
 45 H       -4.9560    -4.1850     2.4870 H     1 <1>   0.0800 
 46 H       -3.9100    -4.2640     1.1070 H     1 <1>   0.0800 
 47 H       -6.2320    -8.5400     2.6790 H     1 <1>   0.1500 
 48 H       -8.3710    -5.2130    -0.0590 H     1 <1>   0.1500 
 49 H       -7.2120   -10.6120     1.8840 H     1 <1>   0.1500 
 50 H       -9.9950    -9.6090    -1.5220 H     1 <1>   0.1500 
 51 H       -9.9830    -5.3690    -1.9020 H     1 <1>   0.1500 
 52 H      -10.7930    -7.5570    -2.6480 H     1 <1>   0.1500 
@<TRIPOS>BOND
  1   1   2  2   
  2   2   3  1   
  3   2   4  am  
  4   3   5  1   
  5   4   6  1   
  6   4  29  1   
  7   5  30  1   
  8   5  31  1   
  9   5  32  1   
 10   6   7  1   
 11   6   8  1   
 12   6  33  1   
 13   7   9  2   
 14   7  10  am  
 15   8  34  1   
 16   8  35  1   
 17   8  36  1   
 18  10  11  1   
 19  10  12  1   
 20  11  13  1   
 21  11  37  1   
 22  11  38  1   
 23  12  14  1   
 24  12  39  1   
 25  12  40  1   
 26  13  15  1   
 27  13  41  1   
 28  13  42  1   
 29  14  16  1   
 30  14  43  1   
 31  14  44  1   
 32  15  16  1   
 33  15  17  am  
 34  16  45  1   
 35  16  46  1   
 36  17  18  2   
 37  17  19  1   
 38  19  20  ar  
 39  19  21  ar  
 40  20  22  ar  
 41  20  23  ar  
 42  21  24  ar  
 43  21  47  1   
 44  22  25  ar  
 45  22  26  ar  
 46  23  27  ar  
 47  23  48  1   
 48  24  25  ar  
 49  24  49  1   
 50  26  28  ar  
 51  26  50  1   
 52  27  28  ar  
 53  27  51  1   
 54  28  52  1   
@<TRIPOS>SUBSTRUCTURE
  1 ****  15 GROUP 4 **** **** 0

# MOE 2024.06 (io_trps.svl 2023.06)
