@<TRIPOS>MOLECULE
NONAME
45 47 1 0 0 
SMALL
USER_CHARGES


@<TRIPOS>ATOM
  1 S        0.4820     0.0500     1.9410 S.o2  1 <1>   1.4470 
  2 O        1.1620    -1.0210     2.6400 O.2   1 <1>  -0.6500 
  3 O       -0.1190     1.1160     2.7120 O.2   1 <1>  -0.6500 
  4 N        1.6540     0.7590     0.9410 N.am  1 <1>  -0.8490 
  5 C       -0.7280    -0.6220     0.7670 C.ar  1 <1>  -0.0090 
  6 C        2.4180     1.8010     1.6550 C.3   1 <1>   0.1960 
  7 C        2.4800    -0.2370     0.2460 C.3   1 <1>   0.1960 
  8 C       -1.4020    -1.8070     1.0360 C.ar  1 <1>  -0.1500 
  9 C       -1.0190     0.0310    -0.4230 C.ar  1 <1>  -0.1500 
 10 C        3.5150     2.5150     0.8300 C.3   1 <1>   0.2200 
 11 C        3.2290     0.2980    -0.9930 C.3   1 <1>  -0.0190 
 12 C       -2.3300    -2.3380     0.1530 C.ar  1 <1>  -0.1440 
 13 C       -1.9410    -0.4870    -1.3150 C.ar  1 <1>  -0.1500 
 14 N        3.0480     2.7550    -0.5740 N.am  1 <1>  -0.6600 
 15 C        4.8740     1.7690     0.9300 C.3   1 <1>   0.1200 
 16 C        2.8270     1.7010    -1.4220 C.2   1 <1>   0.5690 
 17 C        4.7570     0.1770    -0.8540 C.3   1 <1>   0.1200 
 18 C       -2.6010    -1.6720    -1.0360 C.ar  1 <1>  -0.1430 
 19 C       -3.0300    -3.6420     0.5120 C.3   1 <1>  -0.0960 
 20 C        2.7310     4.1590    -0.9470 C.3   1 <1>   0.0600 
 21 O        5.3610     1.3050    -0.2960 O.3   1 <1>  -0.5600 
 22 O        2.3250     1.8380    -2.5150 O.2   1 <1>  -0.5700 
 23 C       -3.6090    -2.2120    -2.0410 C.3   1 <1>  -0.0970 
 24 H        1.7250     2.5640     1.9690 H     1 <1>   0.0800 
 25 H        2.8470     1.3870     2.5520 H     1 <1>   0.0800 
 26 H        3.1670    -0.6820     0.9470 H     1 <1>   0.0800 
 27 H        1.8360    -1.0300    -0.0970 H     1 <1>   0.0800 
 28 H       -1.1890    -2.3190     1.9590 H     1 <1>   0.1500 
 29 H       -0.5190     0.9560    -0.6610 H     1 <1>   0.1500 
 30 H        3.6690     3.4690     1.3020 H     1 <1>   0.0800 
 31 H        2.9610    -0.3620    -1.7980 H     1 <1>   0.0800 
 32 H       -2.1380     0.0440    -2.2300 H     1 <1>   0.1500 
 33 H        4.8290     0.9420     1.6160 H     1 <1>   0.0800 
 34 H        5.6100     2.4570     1.3070 H     1 <1>   0.0800 
 35 H        5.1860     0.0670    -1.8360 H     1 <1>   0.0800 
 36 H        5.0360    -0.6840    -0.2720 H     1 <1>   0.0800 
 37 H       -2.6950    -4.0130     1.4630 H     1 <1>   0.0800 
 38 H       -2.8230    -4.3890    -0.2330 H     1 <1>   0.0800 
 39 H       -4.0920    -3.4850     0.5670 H     1 <1>   0.0800 
 40 H        3.6050     4.7740    -0.8210 H     1 <1>   0.0800 
 41 H        1.9360     4.5290    -0.3250 H     1 <1>   0.0800 
 42 H        2.4190     4.2150    -1.9750 H     1 <1>   0.0800 
 43 H       -3.6860    -1.5640    -2.8960 H     1 <1>   0.0800 
 44 H       -4.5800    -2.2850    -1.5860 H     1 <1>   0.0800 
 45 H       -3.3050    -3.1840    -2.3820 H     1 <1>   0.0800 
@<TRIPOS>BOND
  1   1   2  2   
  2   1   3  2   
  3   1   4  am  
  4   1   5  1   
  5   4   6  1   
  6   4   7  1   
  7   5   8  ar  
  8   5   9  ar  
  9   6  10  1   
 10   6  24  1   
 11   6  25  1   
 12   7  11  1   
 13   7  26  1   
 14   7  27  1   
 15   8  12  ar  
 16   8  28  1   
 17   9  13  ar  
 18   9  29  1   
 19  10  14  1   
 20  10  15  1   
 21  10  30  1   
 22  11  16  1   
 23  11  17  1   
 24  11  31  1   
 25  12  18  ar  
 26  12  19  1   
 27  13  18  ar  
 28  13  32  1   
 29  14  16  am  
 30  14  20  1   
 31  15  21  1   
 32  15  33  1   
 33  15  34  1   
 34  16  22  2   
 35  17  21  1   
 36  17  35  1   
 37  17  36  1   
 38  18  23  1   
 39  19  37  1   
 40  19  38  1   
 41  19  39  1   
 42  20  40  1   
 43  20  41  1   
 44  20  42  1   
 45  23  43  1   
 46  23  44  1   
 47  23  45  1   
@<TRIPOS>SUBSTRUCTURE
  1 ****   4 GROUP 4 **** **** 0

# MOE 2024.06 (io_trps.svl 2023.06)
