@<TRIPOS>MOLECULE
NONAME
40 43 1 0 0 
SMALL
USER_CHARGES


@<TRIPOS>ATOM
  1 S       -0.8740     0.4620    -1.4440 S.3   1 <1>  -0.0800 
  2 C       -0.3950     1.9640    -0.6820 C.2   1 <1>  -0.1400 
  3 C        0.6940     0.3390    -2.2290 C.2   1 <1>  -0.1100 
  4 C        0.8590     2.3110    -1.0020 C.2   1 <1>  -0.1810 
  5 C       -1.3140     2.7470     0.2160 C.3   1 <1>   0.0200 
  6 C        1.4840     1.3800    -1.8980 C.2   1 <1>  -0.1500 
  7 C        1.4950     3.5830    -0.4340 C.3   1 <1>   0.4610 
  8 C       -0.7370     4.1680     0.3280 C.3   1 <1>   0.1200 
  9 O        0.6510     4.1360     0.5620 O.3   1 <1>  -0.5600 
 10 C        2.8130     3.2490     0.2730 C.3   1 <1>  -0.1600 
 11 C        1.7260     4.6230    -1.5390 C.3   1 <1>  -0.1600 
 12 C        3.5050     4.5120     0.7820 C.3   1 <1>   0.2090 
 13 C        2.4430     5.8590    -1.0010 C.3   1 <1>   0.2090 
 14 N        3.7160     5.4330    -0.3630 N.pl3 1 <1>  -0.8380 
 15 C        4.7540     6.3520    -0.2680 C.ar  1 <1>   0.4100 
 16 N        4.4570     7.6580    -0.2140 N.ar  1 <1>  -0.3100 
 17 C        6.0620     5.9050    -0.2290 C.ar  1 <1>  -0.1500 
 18 N        5.4100     8.5550    -0.1170 N.ar  1 <1>  -0.3100 
 19 C        7.0610     6.8420    -0.1270 C.ar  1 <1>  -0.1500 
 20 C        6.6780     8.1650    -0.0730 C.ar  1 <1>   0.1670 
 21 C        7.7160     9.2630     0.0400 C.3   1 <1>  -0.0970 
 22 H        0.8600    -0.5130    -2.8640 H     1 <1>   0.1500 
 23 H       -1.3610     2.2860     1.1850 H     1 <1>   0.0800 
 24 H       -2.3040     2.7870    -0.2000 H     1 <1>   0.0800 
 25 H        2.4880     1.5320    -2.2510 H     1 <1>   0.1500 
 26 H       -1.1960     4.6920     1.1480 H     1 <1>   0.0800 
 27 H       -0.9190     4.7190    -0.5770 H     1 <1>   0.0800 
 28 H        3.4770     2.7510    -0.4080 H     1 <1>   0.0800 
 29 H        2.6170     2.5810     1.0910 H     1 <1>   0.0800 
 30 H        0.7950     4.9020    -1.9910 H     1 <1>   0.0800 
 31 H        2.3370     4.1900    -2.3090 H     1 <1>   0.0800 
 32 H        4.4460     4.2560     1.2370 H     1 <1>   0.0800 
 33 H        2.8920     4.9990     1.5240 H     1 <1>   0.0800 
 34 H        1.8290     6.3660    -0.2750 H     1 <1>   0.0800 
 35 H        2.6500     6.5410    -1.8100 H     1 <1>   0.0800 
 36 H        6.2720     4.8550    -0.2860 H     1 <1>   0.1500 
 37 H        8.0940     6.5500    -0.0930 H     1 <1>   0.1500 
 38 H        7.5440     9.8280     0.9380 H     1 <1>   0.0800 
 39 H        7.6340     9.9220    -0.8050 H     1 <1>   0.0800 
 40 H        8.7090     8.8560     0.0690 H     1 <1>   0.0800 
@<TRIPOS>BOND
  1   1   2  1   
  2   1   3  1   
  3   2   4  2   
  4   2   5  1   
  5   3   6  2   
  6   3  22  1   
  7   4   6  1   
  8   4   7  1   
  9   5   8  1   
 10   5  23  1   
 11   5  24  1   
 12   6  25  1   
 13   7   9  1   
 14   7  10  1   
 15   7  11  1   
 16   8   9  1   
 17   8  26  1   
 18   8  27  1   
 19  10  12  1   
 20  10  28  1   
 21  10  29  1   
 22  11  13  1   
 23  11  30  1   
 24  11  31  1   
 25  12  14  1   
 26  12  32  1   
 27  12  33  1   
 28  13  14  1   
 29  13  34  1   
 30  13  35  1   
 31  14  15  1   
 32  15  16  ar  
 33  15  17  ar  
 34  16  18  ar  
 35  17  19  ar  
 36  17  36  1   
 37  18  20  ar  
 38  19  20  ar  
 39  19  37  1   
 40  20  21  1   
 41  21  38  1   
 42  21  39  1   
 43  21  40  1   
@<TRIPOS>SUBSTRUCTURE
  1 ****  14 GROUP 4 **** **** 0

# MOE 2024.06 (io_trps.svl 2023.06)
