@<TRIPOS>MOLECULE
NONAME
46 48 1 0 0 
SMALL
USER_CHARGES


@<TRIPOS>ATOM
  1 O        0.1220     0.6130     0.3550 O.co2 1 <1>  -0.9000 
  2 C        1.2680     0.3220     0.6890 C.2   1 <1>   0.9060 
  3 O        1.5230    -0.1200     1.8220 O.co2 1 <1>  -0.9000 
  4 C        2.3980     0.4460    -0.3500 C.3   1 <1>  -0.1060 
  5 C        3.7570     0.1320     0.3020 C.3   1 <1>   0.4230 
  6 C        2.4000     1.9050    -0.9080 C.3   1 <1>  -0.1600 
  7 C        2.1940    -0.5940    -1.4760 C.3   1 <1>  -0.1600 
  8 N        3.7430    -1.2240     0.9460 N.4   1 <1>  -0.9590 
  9 C        4.1810     1.3410     1.1580 C.3   1 <1>   0.2090 
 10 C        3.7870     2.5560    -1.0390 C.3   1 <1>   0.2090 
 11 C        2.2610    -2.0230    -0.9040 C.3   1 <1>  -0.1600 
 12 C        3.5230    -2.2870    -0.0710 C.3   1 <1>   0.3430 
 13 C        4.9140    -1.4980     1.8170 C.3   1 <1>   0.2630 
 14 N        4.5950     2.4390     0.2200 N.pl3 1 <1>  -0.8380 
 15 C        5.9620     2.5930     0.0360 C.ar  1 <1>   0.4100 
 16 N        6.6200     1.4750    -0.2620 N.ar  1 <1>  -0.6200 
 17 C        6.5990     3.8520     0.1350 C.ar  1 <1>   0.1670 
 18 C        7.9080     1.6800    -0.4690 C.ar  1 <1>   0.1670 
 19 N        7.8860     4.0470    -0.0740 N.ar  1 <1>  -0.6200 
 20 C        5.8070     5.0990     0.4950 C.3   1 <1>  -0.0970 
 21 C        8.5190     2.9260    -0.3790 C.ar  1 <1>   0.1600 
 22 C        8.7240     0.4550    -0.8260 C.3   1 <1>  -0.0970 
 23 H        4.4890     0.0860    -0.4850 H     1 <1>   0.0800 
 24 H        1.8290     2.5360    -0.2480 H     1 <1>   0.0800 
 25 H        1.8930     1.9400    -1.8560 H     1 <1>   0.0800 
 26 H        1.2300    -0.4410    -1.9350 H     1 <1>   0.0800 
 27 H        2.9480    -0.4670    -2.2330 H     1 <1>   0.0800 
 28 H        2.8720    -1.1520     1.5400 H     1 <1>   0.4500 
 29 H        5.0110     1.0970     1.7940 H     1 <1>   0.0800 
 30 H        3.3680     1.6820     1.7760 H     1 <1>   0.0800 
 31 H        3.6690     3.5980    -1.2830 H     1 <1>   0.0800 
 32 H        4.3230     2.0870    -1.8480 H     1 <1>   0.0800 
 33 H        2.2180    -2.7320    -1.7110 H     1 <1>   0.0800 
 34 H        1.3970    -2.2030    -0.2850 H     1 <1>   0.0800 
 35 H        4.3750    -2.3260    -0.7290 H     1 <1>   0.0800 
 36 H        3.4290    -3.2430     0.4180 H     1 <1>   0.0800 
 37 H        5.8270    -1.4100     1.2510 H     1 <1>   0.0800 
 38 H        4.8450    -2.4910     2.2280 H     1 <1>   0.0800 
 39 H        4.9400    -0.7950     2.6330 H     1 <1>   0.0800 
 40 H        4.9500     4.8540     1.0940 H     1 <1>   0.0800 
 41 H        5.4820     5.5870    -0.4040 H     1 <1>   0.0800 
 42 H        6.4260     5.7770     1.0540 H     1 <1>   0.0800 
 43 H        9.5750     3.0070    -0.5650 H     1 <1>   0.1500 
 44 H        9.7550     0.7090    -0.9930 H     1 <1>   0.0800 
 45 H        8.3300     0.0080    -1.7210 H     1 <1>   0.0800 
 46 H        8.6690    -0.2610    -0.0270 H     1 <1>   0.0800 
@<TRIPOS>BOND
  1   1   2  ar  
  2   2   3  ar  
  3   2   4  1   
  4   4   5  1   
  5   4   6  1   
  6   4   7  1   
  7   5   8  1   
  8   5   9  1   
  9   5  23  1   
 10   6  10  1   
 11   6  24  1   
 12   6  25  1   
 13   7  11  1   
 14   7  26  1   
 15   7  27  1   
 16   8  12  1   
 17   8  13  1   
 18   8  28  1   
 19   9  14  1   
 20   9  29  1   
 21   9  30  1   
 22  10  14  1   
 23  10  31  1   
 24  10  32  1   
 25  11  12  1   
 26  11  33  1   
 27  11  34  1   
 28  12  35  1   
 29  12  36  1   
 30  13  37  1   
 31  13  38  1   
 32  13  39  1   
 33  14  15  1   
 34  15  16  ar  
 35  15  17  ar  
 36  16  18  ar  
 37  17  19  ar  
 38  17  20  1   
 39  18  21  ar  
 40  18  22  1   
 41  19  21  ar  
 42  20  40  1   
 43  20  41  1   
 44  20  42  1   
 45  21  43  1   
 46  22  44  1   
 47  22  45  1   
 48  22  46  1   
@<TRIPOS>SUBSTRUCTURE
  1 ****   9 GROUP 4 **** **** 0

# MOE 2024.06 (io_trps.svl 2023.06)
