@<TRIPOS>MOLECULE
NONAME
53 56 1 0 0 
SMALL
USER_CHARGES


@<TRIPOS>ATOM
  1 O        0.5260    -0.2950    -0.3200 O.2   1 <1>  -0.5700 
  2 C        1.6630    -0.7300    -0.2520 C.2   1 <1>   0.7150 
  3 N        2.6970     0.0890    -0.6790 N.am  1 <1>  -0.6600 
  4 C        1.8690    -2.0730     0.2570 C.2   1 <1>   0.0550 
  5 C        4.0540    -0.4340    -1.0160 C.3   1 <1>   0.1400 
  6 C        2.4210     1.5100    -1.0390 C.3   1 <1>   0.1400 
  7 O        2.9570    -2.3950     0.9490 O.3   1 <1>  -0.2800 
  8 C        1.0810    -3.1680     0.1720 C.2   1 <1>   0.0460 
  9 C        5.0610    -0.1570     0.1130 C.3   1 <1>   0.1100 
 10 C        3.6220     2.4440    -0.8490 C.3   1 <1>  -0.1600 
 11 C        2.7410    -3.6630     1.2300 C.2   1 <1>   0.2980 
 12 N        1.6580    -4.1860     0.7990 N.2   1 <1>  -0.5650 
 13 C       -0.2650    -3.3690    -0.4930 C.3   1 <1>  -0.0590 
 14 N        5.5220     1.2510     0.1840 N.3   1 <1>  -0.8100 
 15 C        4.4110     2.1920     0.4390 C.3   1 <1>   0.1100 
 16 C        3.7860    -4.3960     2.0360 C.3   1 <1>  -0.0600 
 17 C        6.5800     1.3910     1.2030 C.3   1 <1>   0.2780 
 18 C        7.4910     2.5720     0.8740 C.2   1 <1>   0.1820 
 19 N        8.4370     3.0880     1.7270 N.pl3 1 <1>  -0.7000 
 20 C        7.5400     3.2890    -0.2660 C.2   1 <1>   0.2000 
 21 C        9.0490     4.1100     1.1030 C.cat 1 <1>   0.7910 
 22 N        8.5130     4.2580    -0.1290 N.pl3 1 <1>  -0.6290 
 23 C       10.0780     4.9600     1.5380 C.2   1 <1>  -0.1410 
 24 C        8.9680     5.2410    -0.9790 C.2   1 <1>   0.2290 
 25 C       10.5400     5.9430     0.7040 C.2   1 <1>  -0.1500 
 26 C        9.9700     6.0830    -0.5800 C.2   1 <1>  -0.1380 
 27 C       10.5030     7.1820    -1.4860 C.3   1 <1>  -0.1020 
 28 H        4.4040     0.0040    -1.9350 H     1 <1>   0.0800 
 29 H        3.9960    -1.4960    -1.1790 H     1 <1>   0.0800 
 30 H        1.6150     1.8720    -0.4210 H     1 <1>   0.0800 
 31 H        2.0860     1.5530    -2.0610 H     1 <1>   0.0800 
 32 H        5.9160    -0.7860    -0.0690 H     1 <1>   0.0800 
 33 H        4.6310    -0.4540     1.0540 H     1 <1>   0.0800 
 34 H        3.2350     3.4470    -0.8190 H     1 <1>   0.0800 
 35 H        4.2740     2.3900    -1.7020 H     1 <1>   0.0800 
 36 H       -0.5760    -2.4870    -1.0210 H     1 <1>   0.0800 
 37 H       -1.0020    -3.6040     0.2530 H     1 <1>   0.0800 
 38 H       -0.2050    -4.1850    -1.1900 H     1 <1>   0.0800 
 39 H        3.7640     1.8210     1.2180 H     1 <1>   0.0800 
 40 H        4.8090     3.1370     0.7670 H     1 <1>   0.0800 
 41 H        3.9090    -3.9160     2.9890 H     1 <1>   0.0800 
 42 H        4.7210    -4.3910     1.5090 H     1 <1>   0.0800 
 43 H        3.4770    -5.4130     2.1930 H     1 <1>   0.0800 
 44 H        7.1900     0.5040     1.2240 H     1 <1>   0.0800 
 45 H        6.1380     1.5170     2.1770 H     1 <1>   0.0800 
 46 H        8.6640     2.7730     2.6720 H     1 <1>   0.4500 
 47 H        6.9470     3.1660    -1.1590 H     1 <1>   0.1500 
 48 H       10.4850     4.8210     2.5210 H     1 <1>   0.1500 
 49 H        8.5100     5.3170    -1.9530 H     1 <1>   0.1500 
 50 H       11.3300     6.6120     1.0080 H     1 <1>   0.1500 
 51 H       10.3670     8.1430    -1.0210 H     1 <1>   0.0800 
 52 H        9.9930     7.1880    -2.4330 H     1 <1>   0.0800 
 53 H       11.5540     7.0350    -1.6670 H     1 <1>   0.0800 
@<TRIPOS>BOND
  1   1   2  2   
  2   2   3  am  
  3   2   4  1   
  4   3   5  1   
  5   3   6  1   
  6   4   7  1   
  7   4   8  2   
  8   5   9  1   
  9   5  28  1   
 10   5  29  1   
 11   6  10  1   
 12   6  30  1   
 13   6  31  1   
 14   7  11  1   
 15   8  12  1   
 16   8  13  1   
 17   9  14  1   
 18   9  32  1   
 19   9  33  1   
 20  10  15  1   
 21  10  34  1   
 22  10  35  1   
 23  11  12  2   
 24  11  16  1   
 25  13  36  1   
 26  13  37  1   
 27  13  38  1   
 28  14  15  1   
 29  14  17  1   
 30  15  39  1   
 31  15  40  1   
 32  16  41  1   
 33  16  42  1   
 34  16  43  1   
 35  17  18  1   
 36  17  44  1   
 37  17  45  1   
 38  18  19  1   
 39  18  20  2   
 40  19  21  ar  
 41  19  46  1   
 42  20  22  1   
 43  20  47  1   
 44  21  22  ar  
 45  21  23  1   
 46  22  24  1   
 47  23  25  2   
 48  23  48  1   
 49  24  26  2   
 50  24  49  1   
 51  25  26  1   
 52  25  50  1   
 53  26  27  1   
 54  27  51  1   
 55  27  52  1   
 56  27  53  1   
@<TRIPOS>SUBSTRUCTURE
  1 ****  14 GROUP 4 **** **** 0

# MOE 2024.06 (io_trps.svl 2023.06)
