@<TRIPOS>MOLECULE
NONAME
34 36 1 0 0 
SMALL
USER_CHARGES


@<TRIPOS>ATOM
  1 S       -0.2090     0.0660     0.2140 S.3   1 <1>  -0.0800 
  2 C        0.0320    -1.6540    -0.0950 C.ar  1 <1>   0.2970 
  3 C       -1.9490    -0.1580     0.4120 C.2   1 <1>  -0.1400 
  4 N        1.2150    -2.1890    -0.3100 N.ar  1 <1>  -0.5670 
  5 C       -1.1680    -2.3180    -0.0650 C.ar  1 <1>   0.0000 
  6 C       -2.2780    -1.4510     0.2410 C.2   1 <1>  -0.1500 
  7 C       -2.7680     1.0720     0.7400 C.3   1 <1>  -0.0600 
  8 C        1.1450    -3.4930    -0.4970 C.ar  1 <1>   0.4700 
  9 C       -1.0930    -3.6900    -0.3130 C.ar  1 <1>   0.4100 
 10 N        0.0770    -4.2780    -0.5060 N.ar  1 <1>  -0.6200 
 11 N       -2.2130    -4.4860    -0.3690 N.pl3 1 <1>  -0.8380 
 12 C       -2.1750    -5.9110     0.1080 C.3   1 <1>   0.2090 
 13 C       -3.3300    -4.1980    -1.3040 C.3   1 <1>   0.2090 
 14 C       -3.5770    -6.5560     0.2220 C.3   1 <1>   0.2000 
 15 C       -4.6800    -4.3960    -0.5960 C.3   1 <1>  -0.1600 
 16 O       -3.9020    -7.2120    -0.9580 O.3   1 <1>  -0.6800 
 17 C       -4.6590    -5.5010     0.4930 C.3   1 <1>  -0.1860 
 18 C       -6.0100    -6.1570     0.6820 C.2   1 <1>   0.9060 
 19 O       -6.6630    -5.8930     1.6940 O.co2 1 <1>  -0.9000 
 20 O       -6.4080    -6.9480    -0.1850 O.co2 1 <1>  -0.9000 
 21 H       -3.2670    -1.8620     0.3240 H     1 <1>   0.1500 
 22 H       -3.8060     0.8100     0.8410 H     1 <1>   0.0800 
 23 H       -2.6670     1.8000    -0.0450 H     1 <1>   0.0800 
 24 H       -2.4270     1.5040     1.6630 H     1 <1>   0.0800 
 25 H        2.0850    -3.9900    -0.6680 H     1 <1>   0.1500 
 26 H       -1.5580    -6.5010    -0.5480 H     1 <1>   0.0800 
 27 H       -1.7210    -5.9150     1.0820 H     1 <1>   0.0800 
 28 H       -3.2540    -3.2020    -1.7030 H     1 <1>   0.0800 
 29 H       -3.2630    -4.8880    -2.1280 H     1 <1>   0.0800 
 30 H       -3.5770    -7.2980     1.0020 H     1 <1>   0.0800 
 31 H       -5.0000    -3.4730    -0.1490 H     1 <1>   0.0800 
 32 H       -5.4080    -4.6510    -1.3470 H     1 <1>   0.0800 
 33 H       -4.8990    -7.3230    -0.9290 H     1 <1>   0.4000 
 34 H       -4.4090    -5.0330     1.4270 H     1 <1>   0.0800 
@<TRIPOS>BOND
  1   1   2  1   
  2   1   3  1   
  3   2   4  ar  
  4   2   5  ar  
  5   3   6  2   
  6   3   7  1   
  7   4   8  ar  
  8   5   6  1   
  9   5   9  ar  
 10   6  21  1   
 11   7  22  1   
 12   7  23  1   
 13   7  24  1   
 14   8  10  ar  
 15   8  25  1   
 16   9  10  ar  
 17   9  11  1   
 18  11  12  1   
 19  11  13  1   
 20  12  14  1   
 21  12  26  1   
 22  12  27  1   
 23  13  15  1   
 24  13  28  1   
 25  13  29  1   
 26  14  16  1   
 27  14  17  1   
 28  14  30  1   
 29  15  17  1   
 30  15  31  1   
 31  15  32  1   
 32  16  33  1   
 33  17  18  1   
 34  17  34  1   
 35  18  19  ar  
 36  18  20  ar  
@<TRIPOS>SUBSTRUCTURE
  1 ****  11 GROUP 4 **** **** 0

# MOE 2024.06 (io_trps.svl 2023.06)
