@<TRIPOS>MOLECULE
NONAME
51 53 1 0 0 
SMALL
USER_CHARGES


@<TRIPOS>ATOM
  1 O        0.5810     1.2000     0.8840 O.2   1 <1>  -0.5700 
  2 C        0.4620     2.2370     0.2730 C.2   1 <1>   0.5690 
  3 N       -0.6980     2.9740     0.3490 N.am  1 <1>  -0.6600 
  4 C        1.6120     2.7110    -0.6170 C.3   1 <1>   0.0440 
  5 C       -1.8280     2.5380     1.2240 C.3   1 <1>   0.1400 
  6 C       -1.0320     4.1670    -0.4760 C.3   1 <1>   0.1400 
  7 C        2.9260     1.9430    -0.4860 C.ar  1 <1>  -0.1440 
  8 C       -3.0400     2.1280     0.3650 C.3   1 <1>   0.0000 
  9 C       -2.2280     3.8430    -1.3790 C.3   1 <1>  -0.1600 
 10 C        4.0590     2.5640     0.0150 C.ar  1 <1>  -0.1500 
 11 C        3.0090     0.6190    -0.8810 C.ar  1 <1>  -0.1500 
 12 C       -4.1990     1.6550     1.2650 C.3   1 <1>   0.2000 
 13 C       -3.4280     3.3060    -0.5750 C.3   1 <1>  -0.1600 
 14 C       -2.7590     0.8490    -0.4450 C.3   1 <1>  -0.1600 
 15 C        5.2660     1.8910     0.1230 C.ar  1 <1>   0.0830 
 16 C        4.2010    -0.0750    -0.7710 C.ar  1 <1>  -0.1500 
 17 O       -4.9690     2.6960     1.7500 O.3   1 <1>  -0.6800 
 18 C       -5.0520     0.7150     0.4140 C.3   1 <1>  -0.1600 
 19 C       -4.1270     0.2060    -0.7000 C.3   1 <1>  -0.1600 
 20 O        6.2930     2.6440     0.6140 O.3   1 <1>  -0.3630 
 21 C        5.3410     0.5410    -0.2600 C.ar  1 <1>   0.0830 
 22 C        7.6340     2.3760     0.2730 C.3   1 <1>   0.0400 
 23 O        6.5060    -0.1560    -0.1180 O.3   1 <1>  -0.3630 
 24 C        6.5100    -1.5640    -0.0370 C.3   1 <1>   0.0400 
 25 H        1.2870     2.6490    -1.6380 H     1 <1>   0.0800 
 26 H        1.7980     3.7440    -0.3940 H     1 <1>   0.0800 
 27 H       -1.5290     1.7180     1.8530 H     1 <1>   0.0800 
 28 H       -2.1060     3.3530     1.8700 H     1 <1>   0.0800 
 29 H       -1.2850     4.9820     0.1820 H     1 <1>   0.0800 
 30 H       -0.2010     4.4780    -1.0820 H     1 <1>   0.0800 
 31 H       -2.5230     4.7350    -1.9030 H     1 <1>   0.0800 
 32 H       -1.9220     3.1260    -2.1190 H     1 <1>   0.0800 
 33 H        4.0240     3.5900     0.3310 H     1 <1>   0.1500 
 34 H        2.1370     0.1190    -1.2670 H     1 <1>   0.1500 
 35 H       -3.8080     1.1120     2.1100 H     1 <1>   0.0800 
 36 H       -4.2100     3.0100    -1.2510 H     1 <1>   0.0800 
 37 H       -3.8010     4.1230     0.0170 H     1 <1>   0.0800 
 38 H       -2.2230     1.0290    -1.3590 H     1 <1>   0.0800 
 39 H       -2.1680     0.1750     0.1520 H     1 <1>   0.0800 
 40 H        4.2150    -1.0990    -1.0890 H     1 <1>   0.1500 
 41 H       -5.3980     3.1560     1.0050 H     1 <1>   0.4000 
 42 H       -5.4120    -0.1010     1.0150 H     1 <1>   0.0800 
 43 H       -5.8870     1.2350    -0.0220 H     1 <1>   0.0800 
 44 H       -4.0520    -0.8680    -0.6920 H     1 <1>   0.0800 
 45 H       -4.5050     0.5190    -1.6580 H     1 <1>   0.0800 
 46 H        8.2160     3.2530     0.4890 H     1 <1>   0.0800 
 47 H        7.6900     2.1430    -0.7750 H     1 <1>   0.0800 
 48 H        7.9840     1.5520     0.8680 H     1 <1>   0.0800 
 49 H        7.4920    -1.8780     0.2650 H     1 <1>   0.0800 
 50 H        6.2800    -1.9710    -1.0050 H     1 <1>   0.0800 
 51 H        5.7850    -1.8740     0.6950 H     1 <1>   0.0800 
@<TRIPOS>BOND
  1   1   2  2   
  2   2   3  am  
  3   2   4  1   
  4   3   5  1   
  5   3   6  1   
  6   4   7  1   
  7   4  25  1   
  8   4  26  1   
  9   5   8  1   
 10   5  27  1   
 11   5  28  1   
 12   6   9  1   
 13   6  29  1   
 14   6  30  1   
 15   7  10  ar  
 16   7  11  ar  
 17   8  12  1   
 18   8  13  1   
 19   8  14  1   
 20   9  13  1   
 21   9  31  1   
 22   9  32  1   
 23  10  15  ar  
 24  10  33  1   
 25  11  16  ar  
 26  11  34  1   
 27  12  17  1   
 28  12  18  1   
 29  12  35  1   
 30  13  36  1   
 31  13  37  1   
 32  14  19  1   
 33  14  38  1   
 34  14  39  1   
 35  15  20  1   
 36  15  21  ar  
 37  16  21  ar  
 38  16  40  1   
 39  17  41  1   
 40  18  19  1   
 41  18  42  1   
 42  18  43  1   
 43  19  44  1   
 44  19  45  1   
 45  20  22  1   
 46  21  23  1   
 47  22  46  1   
 48  22  47  1   
 49  22  48  1   
 50  23  24  1   
 51  24  49  1   
 52  24  50  1   
 53  24  51  1   
@<TRIPOS>SUBSTRUCTURE
  1 ****   2 GROUP 4 **** **** 0

# MOE 2024.06 (io_trps.svl 2023.06)
