@<TRIPOS>MOLECULE
NONAME
46 49 1 0 0 
SMALL
USER_CHARGES


@<TRIPOS>ATOM
  1 O       -1.4770    -0.1080    -0.7940 O.3   1 <1>  -0.5600 
  2 C       -1.6550     0.1610     0.5630 C.3   1 <1>   0.1200 
  3 C       -2.0880     0.7420    -1.7090 C.3   1 <1>   0.1200 
  4 C       -3.1200     0.0310     1.0360 C.3   1 <1>   0.4230 
  5 C       -3.5900     0.4330    -1.8250 C.3   1 <1>  -0.0800 
  6 N       -3.9310     1.2380     0.5950 N.4   1 <1>  -0.9590 
  7 C       -3.7100    -1.3780     0.7150 C.3   1 <1>   0.2090 
  8 C       -3.8950    -1.0790    -1.8300 C.3   1 <1>   0.2090 
  9 C       -4.4620     1.1940    -0.8110 C.3   1 <1>   0.3430 
 10 C       -5.0700     1.4750     1.5360 C.3   1 <1>   0.2630 
 11 N       -4.5150    -1.5110    -0.5470 N.pl3 1 <1>  -0.8380 
 12 C       -5.8630    -1.8200    -0.4810 C.ar  1 <1>   0.4100 
 13 N       -6.6040    -1.1330     0.3940 N.ar  1 <1>  -0.3100 
 14 C       -6.4200    -2.7840    -1.3010 C.ar  1 <1>  -0.1500 
 15 N       -7.8890    -1.3500     0.4950 N.ar  1 <1>  -0.3100 
 16 C       -7.7670    -3.0170    -1.1900 C.ar  1 <1>  -0.1500 
 17 C       -8.4890    -2.2770    -0.2650 C.ar  1 <1>   0.3100 
 18 C       -9.9120    -2.4890    -0.1050 C.ar  1 <1>   0.0000 
 19 C      -10.4440    -3.7730     0.0240 C.ar  1 <1>  -0.1500 
 20 C      -10.8030    -1.4170    -0.0750 C.ar  1 <1>  -0.1500 
 21 C      -11.8040    -3.9770     0.1650 C.ar  1 <1>  -0.1500 
 22 C      -12.1640    -1.6140     0.0660 C.ar  1 <1>  -0.1500 
 23 C      -12.6680    -2.8970     0.1850 C.ar  1 <1>  -0.1500 
 24 H       -1.0530    -0.5570     1.0930 H     1 <1>   0.0800 
 25 H       -1.2610     1.1380     0.7760 H     1 <1>   0.0800 
 26 H       -1.8950     1.7660    -1.4390 H     1 <1>   0.0800 
 27 H       -1.6140     0.5520    -2.6580 H     1 <1>   0.0800 
 28 H       -3.0570     0.0750     2.1100 H     1 <1>   0.0800 
 29 H       -3.8870     0.7960    -2.7920 H     1 <1>   0.0800 
 30 H       -3.3030     2.0470     0.6480 H     1 <1>   0.4500 
 31 H       -4.3270    -1.6720     1.5470 H     1 <1>   0.0800 
 32 H       -2.9060    -2.0920     0.6770 H     1 <1>   0.0800 
 33 H       -3.0040    -1.6560    -2.0160 H     1 <1>   0.0800 
 34 H       -4.5810    -1.2870    -2.6340 H     1 <1>   0.0800 
 35 H       -5.4390     0.7360    -0.8070 H     1 <1>   0.0800 
 36 H       -4.5930     2.2050    -1.1600 H     1 <1>   0.0800 
 37 H       -5.7210     0.6180     1.5680 H     1 <1>   0.0800 
 38 H       -5.6480     2.3280     1.2220 H     1 <1>   0.0800 
 39 H       -4.7030     1.6570     2.5330 H     1 <1>   0.0800 
 40 H       -5.8070    -3.3300    -1.9920 H     1 <1>   0.1500 
 41 H       -8.2570    -3.7520    -1.8020 H     1 <1>   0.1500 
 42 H       -9.7850    -4.6230     0.0210 H     1 <1>   0.1500 
 43 H      -10.4210    -0.4140    -0.1640 H     1 <1>   0.1500 
 44 H      -12.1930    -4.9760     0.2630 H     1 <1>   0.1500 
 45 H      -12.8320    -0.7710     0.0850 H     1 <1>   0.1500 
 46 H      -13.7270    -3.0530     0.2950 H     1 <1>   0.1500 
@<TRIPOS>BOND
  1   1   2  1   
  2   1   3  1   
  3   2   4  1   
  4   2  24  1   
  5   2  25  1   
  6   3   5  1   
  7   3  26  1   
  8   3  27  1   
  9   4   6  1   
 10   4   7  1   
 11   4  28  1   
 12   5   8  1   
 13   5   9  1   
 14   5  29  1   
 15   6   9  1   
 16   6  10  1   
 17   6  30  1   
 18   7  11  1   
 19   7  31  1   
 20   7  32  1   
 21   8  11  1   
 22   8  33  1   
 23   8  34  1   
 24   9  35  1   
 25   9  36  1   
 26  10  37  1   
 27  10  38  1   
 28  10  39  1   
 29  11  12  1   
 30  12  13  ar  
 31  12  14  ar  
 32  13  15  ar  
 33  14  16  ar  
 34  14  40  1   
 35  15  17  ar  
 36  16  17  ar  
 37  16  41  1   
 38  17  18  1   
 39  18  19  ar  
 40  18  20  ar  
 41  19  21  ar  
 42  19  42  1   
 43  20  22  ar  
 44  20  43  1   
 45  21  23  ar  
 46  21  44  1   
 47  22  23  ar  
 48  22  45  1   
 49  23  46  1   
@<TRIPOS>SUBSTRUCTURE
  1 ****  13 GROUP 4 **** **** 0

# MOE 2024.06 (io_trps.svl 2023.06)
