@<TRIPOS>MOLECULE
NONAME
44 45 1 0 0 
SMALL
USER_CHARGES


@<TRIPOS>ATOM
  1 S       -2.4680    -1.8550     1.1810 S.3   1 <1>  -0.0800 
  2 C       -2.2970    -2.2590    -0.4960 C.2   1 <1>   0.4420 
  3 C       -2.2530    -0.1980     0.7360 C.2   1 <1>   0.1980 
  4 N       -2.1090    -1.2170    -1.2230 N.2   1 <1>  -0.3380 
  5 N       -2.3930    -3.5920    -0.8340 N.am  1 <1>  -0.4940 
  6 N       -2.0850    -0.0470    -0.5150 N.2   1 <1>  -0.3380 
  7 C       -2.2920     0.8320     1.8520 C.3   1 <1>   0.0200 
  8 C       -2.3100    -4.1810    -2.0620 C.2   1 <1>   0.5690 
  9 C       -2.1030     2.2700     1.3430 C.3   1 <1>  -0.1600 
 10 O       -2.0130    -3.5860    -3.0690 O.2   1 <1>  -0.5700 
 11 C       -2.6060    -5.6790    -2.1680 C.3   1 <1>   0.1710 
 12 C       -2.1460     3.2880     2.4880 C.3   1 <1>  -0.2400 
 13 N       -3.9380    -6.1300    -1.6720 N.3   1 <1>  -0.8100 
 14 C       -3.9970    -6.8860    -0.4090 C.3   1 <1>   0.2900 
 15 C       -5.1640    -5.6340    -2.3040 C.3   1 <1>   0.1100 
 16 C       -3.8130    -6.0060     0.8230 C.2   1 <1>   0.0060 
 17 C       -5.5150    -4.2180    -1.8500 C.3   1 <1>  -0.2400 
 18 N       -2.6490    -5.6450     1.2710 N.2   1 <1>  -0.5650 
 19 N       -4.8460    -5.5580     1.5800 N.pl3 1 <1>   0.0480 
 20 C       -2.9330    -4.9450     2.3840 C.2   1 <1>   0.0770 
 21 C       -4.2650    -4.8760     2.5830 C.2   1 <1>  -0.3020 
 22 C       -6.2960    -5.7820     1.4280 C.3   1 <1>   0.0160 
 23 H       -2.6060    -4.2400    -0.0650 H     1 <1>   0.3700 
 24 H       -1.5150     0.5990     2.5580 H     1 <1>   0.0800 
 25 H       -3.2380     0.7540     2.3560 H     1 <1>   0.0800 
 26 H       -2.8770     2.5000     0.6310 H     1 <1>   0.0800 
 27 H       -1.1560     2.3450     0.8340 H     1 <1>   0.0800 
 28 H       -1.8320    -6.2050    -1.6380 H     1 <1>   0.0800 
 29 H       -2.5230    -5.9540    -3.2040 H     1 <1>   0.0800 
 30 H       -3.0950     3.2480     2.9950 H     1 <1>   0.0800 
 31 H       -2.0110     4.2820     2.0990 H     1 <1>   0.0800 
 32 H       -1.3630     3.0920     3.1990 H     1 <1>   0.0800 
 33 H       -3.2130    -7.6230    -0.4130 H     1 <1>   0.0800 
 34 H       -4.9280    -7.4200    -0.3490 H     1 <1>   0.0800 
 35 H       -5.9770    -6.2990    -2.0660 H     1 <1>   0.0800 
 36 H       -5.0410    -5.6440    -3.3750 H     1 <1>   0.0800 
 37 H       -5.4380    -4.1160    -0.7850 H     1 <1>   0.0800 
 38 H       -6.5210    -3.9880    -2.1470 H     1 <1>   0.0800 
 39 H       -4.8700    -3.5000    -2.3220 H     1 <1>   0.0800 
 40 H       -2.1520    -4.5210     2.9940 H     1 <1>   0.1500 
 41 H       -4.8150    -4.3950     3.3710 H     1 <1>   0.1500 
 42 H       -6.5420    -5.9070     0.3900 H     1 <1>   0.0800 
 43 H       -6.8310    -4.9350     1.8170 H     1 <1>   0.0800 
 44 H       -6.5770    -6.6640     1.9740 H     1 <1>   0.0800 
@<TRIPOS>BOND
  1   1   2  1   
  2   1   3  1   
  3   2   4  2   
  4   2   5  1   
  5   3   6  2   
  6   3   7  1   
  7   4   6  1   
  8   5   8  am  
  9   5  23  1   
 10   7   9  1   
 11   7  24  1   
 12   7  25  1   
 13   8  10  2   
 14   8  11  1   
 15   9  12  1   
 16   9  26  1   
 17   9  27  1   
 18  11  13  1   
 19  11  28  1   
 20  11  29  1   
 21  12  30  1   
 22  12  31  1   
 23  12  32  1   
 24  13  14  1   
 25  13  15  1   
 26  14  16  1   
 27  14  33  1   
 28  14  34  1   
 29  15  17  1   
 30  15  35  1   
 31  15  36  1   
 32  16  18  2   
 33  16  19  1   
 34  17  37  1   
 35  17  38  1   
 36  17  39  1   
 37  18  20  1   
 38  19  21  1   
 39  19  22  1   
 40  20  21  2   
 41  20  40  1   
 42  21  41  1   
 43  22  42  1   
 44  22  43  1   
 45  22  44  1   
@<TRIPOS>SUBSTRUCTURE
  1 ****   5 GROUP 4 **** **** 0

# MOE 2024.06 (io_trps.svl 2023.06)
