@<TRIPOS>MOLECULE
NONAME
51 53 1 0 0 
SMALL
USER_CHARGES


@<TRIPOS>ATOM
  1 O       -0.9140    -0.3090    -1.3470 O.2   1 <1>  -0.5700 
  2 C       -1.7230     0.3990    -0.7770 C.2   1 <1>   0.5440 
  3 N       -1.3930     1.7170    -0.5380 N.am  1 <1>  -0.6600 
  4 C       -2.9830    -0.1700    -0.3660 C.ar  1 <1>   0.0860 
  5 C       -2.0270     2.5810     0.5020 C.3   1 <1>   0.1400 
  6 C       -0.1990     2.3530    -1.1700 C.3   1 <1>   0.1400 
  7 C       -3.0160    -1.3650     0.3480 C.ar  1 <1>   0.1600 
  8 C       -4.2100     0.4170    -0.6620 C.ar  1 <1>  -0.1500 
  9 C       -2.2570     4.0000    -0.0450 C.3   1 <1>   0.1200 
 10 C       -0.5220     3.7890    -1.6150 C.3   1 <1>   0.1200 
 11 N       -4.1000    -1.9740     0.7950 N.ar  1 <1>  -0.6200 
 12 C       -5.3480    -0.2060    -0.2120 C.ar  1 <1>  -0.1500 
 13 O       -1.0680     4.5300    -0.5590 O.3   1 <1>  -0.5600 
 14 C       -5.2620    -1.3920     0.5140 C.ar  1 <1>   0.4100 
 15 N       -6.4100    -1.9990     0.9740 N.pl3 1 <1>  -0.8380 
 16 C       -6.4900    -3.4850     1.0300 C.3   1 <1>   0.2090 
 17 C       -7.2640    -1.2700     1.9490 C.3   1 <1>   0.1290 
 18 C       -7.8030    -3.9540     0.4000 C.3   1 <1>  -0.1600 
 19 C       -7.9010    -5.4880     0.3950 C.3   1 <1>  -0.1600 
 20 C       -9.2220    -5.9850    -0.1990 C.3   1 <1>   0.2000 
 21 O       -9.2510    -7.3680    -0.1190 O.3   1 <1>  -0.5600 
 22 C       -9.4130    -5.6900    -1.6800 C.3   1 <1>  -0.1600 
 23 C      -10.1190    -7.9000    -1.0690 C.3   1 <1>   0.1200 
 24 C      -10.3200    -6.8210    -2.1310 C.3   1 <1>  -0.1600 
 25 H       -1.3710     2.6410     1.3530 H     1 <1>   0.0800 
 26 H       -2.9600     2.1680     0.8370 H     1 <1>   0.0800 
 27 H        0.1210     1.7830    -2.0250 H     1 <1>   0.0800 
 28 H        0.6100     2.3710    -0.4610 H     1 <1>   0.0800 
 29 H       -2.0730    -1.8390     0.5590 H     1 <1>   0.1500 
 30 H       -4.2540     1.3280    -1.2330 H     1 <1>   0.1500 
 31 H       -2.5920     4.6520     0.7420 H     1 <1>   0.0800 
 32 H       -2.9970     3.9920    -0.8270 H     1 <1>   0.0800 
 33 H       -1.2250     3.7810    -2.4300 H     1 <1>   0.0800 
 34 H        0.3750     4.2880    -1.9370 H     1 <1>   0.0800 
 35 H       -6.3200     0.1970    -0.4180 H     1 <1>   0.1500 
 36 H       -6.4200    -3.8130     2.0530 H     1 <1>   0.0800 
 37 H       -5.6680    -3.9180     0.4840 H     1 <1>   0.0800 
 38 H       -6.9010    -0.2660     2.0900 H     1 <1>   0.0800 
 39 H       -7.2490    -1.7740     2.9000 H     1 <1>   0.0800 
 40 H       -8.2750    -1.2270     1.5860 H     1 <1>   0.0800 
 41 H       -7.8450    -3.5830    -0.6090 H     1 <1>   0.0800 
 42 H       -8.6310    -3.5490     0.9530 H     1 <1>   0.0800 
 43 H       -7.8300    -5.8490     1.4060 H     1 <1>   0.0800 
 44 H       -7.0830    -5.9010    -0.1700 H     1 <1>   0.0800 
 45 H      -10.0600    -5.6140     0.3680 H     1 <1>   0.0800 
 46 H       -8.4660    -5.7500    -2.1880 H     1 <1>   0.0800 
 47 H       -9.8460    -4.7200    -1.8450 H     1 <1>   0.0800 
 48 H      -11.0450    -8.1490    -0.5800 H     1 <1>   0.0800 
 49 H       -9.6670    -8.7870    -1.4770 H     1 <1>   0.0800 
 50 H      -10.0580    -7.1800    -3.1110 H     1 <1>   0.0800 
 51 H      -11.3490    -6.5090    -2.1340 H     1 <1>   0.0800 
@<TRIPOS>BOND
  1   1   2  2   
  2   2   3  am  
  3   2   4  1   
  4   3   5  1   
  5   3   6  1   
  6   4   7  ar  
  7   4   8  ar  
  8   5   9  1   
  9   5  25  1   
 10   5  26  1   
 11   6  10  1   
 12   6  27  1   
 13   6  28  1   
 14   7  11  ar  
 15   7  29  1   
 16   8  12  ar  
 17   8  30  1   
 18   9  13  1   
 19   9  31  1   
 20   9  32  1   
 21  10  13  1   
 22  10  33  1   
 23  10  34  1   
 24  11  14  ar  
 25  12  14  ar  
 26  12  35  1   
 27  14  15  1   
 28  15  16  1   
 29  15  17  1   
 30  16  18  1   
 31  16  36  1   
 32  16  37  1   
 33  17  38  1   
 34  17  39  1   
 35  17  40  1   
 36  18  19  1   
 37  18  41  1   
 38  18  42  1   
 39  19  20  1   
 40  19  43  1   
 41  19  44  1   
 42  20  21  1   
 43  20  22  1   
 44  20  45  1   
 45  21  23  1   
 46  22  24  1   
 47  22  46  1   
 48  22  47  1   
 49  23  24  1   
 50  23  48  1   
 51  23  49  1   
 52  24  50  1   
 53  24  51  1   
@<TRIPOS>SUBSTRUCTURE
  1 ****  14 GROUP 4 **** **** 0

# MOE 2024.06 (io_trps.svl 2023.06)
