@<TRIPOS>MOLECULE
NONAME
54 57 1 0 0 
SMALL
USER_CHARGES


@<TRIPOS>ATOM
  1 O       -1.3340     0.9570    -2.4520 O.2   1 <1>  -0.5700 
  2 C       -2.2630     1.1780    -1.7100 C.2   1 <1>   0.5690 
  3 N       -3.3800     0.3830    -1.6900 N.am  1 <1>  -0.6600 
  4 C       -2.1660     2.3820    -0.7900 C.3   1 <1>  -0.0990 
  5 C       -3.4490    -0.8800    -2.4780 C.3   1 <1>   0.1400 
  6 C       -4.6010     0.6200    -0.8690 C.3   1 <1>   0.1400 
  7 C       -0.7640     3.0060    -0.7840 C.3   1 <1>   0.0960 
  8 C       -3.6050    -2.0640    -1.5190 C.3   1 <1>  -0.1600 
  9 C       -4.7670    -0.5310     0.1260 C.3   1 <1>  -0.1600 
 10 N       -0.7320     4.1920     0.0890 N.pl3 1 <1>   0.3140 
 11 C       -4.8170    -1.9000    -0.5840 C.3   1 <1>   0.4240 
 12 N       -0.8550     4.0990     1.4270 N.2   1 <1>  -0.7070 
 13 C       -0.6010     5.4750    -0.3020 C.2   1 <1>  -0.3020 
 14 O       -5.9180    -1.8560    -1.4680 O.3   1 <1>  -0.5600 
 15 C       -4.9310    -3.0880     0.4160 C.ar  1 <1>  -0.1430 
 16 C       -0.7930     5.3240     1.8520 C.2   1 <1>   0.1390 
 17 C       -0.6350     6.2340     0.8120 C.2   1 <1>  -0.1810 
 18 C       -7.1750    -2.1640    -0.9620 C.3   1 <1>   0.1200 
 19 C       -3.9320    -3.3690     1.3580 C.ar  1 <1>   0.0820 
 20 C       -6.0580    -3.9100     0.3920 C.ar  1 <1>  -0.1430 
 21 C       -0.5270     7.7400     0.9340 C.3   1 <1>  -0.0590 
 22 C       -7.1820    -3.6370    -0.5850 C.3   1 <1>  -0.0170 
 23 O       -2.8360    -2.5670     1.4150 O.3   1 <1>  -0.3630 
 24 C       -4.0680    -4.4530     2.2240 C.ar  1 <1>  -0.1500 
 25 C       -6.1820    -4.9850     1.2560 C.ar  1 <1>  -0.1500 
 26 C       -1.7610    -2.7950     2.2980 C.3   1 <1>   0.0400 
 27 C       -5.1870    -5.2580     2.1720 C.ar  1 <1>  -0.1500 
 28 H       -2.4030     2.0690     0.2100 H     1 <1>   0.0800 
 29 H       -2.8820     3.1150    -1.1120 H     1 <1>   0.0800 
 30 H       -2.5590    -1.0110    -3.0690 H     1 <1>   0.0800 
 31 H       -4.2890    -0.8320    -3.1500 H     1 <1>   0.0800 
 32 H       -5.4570     0.6640    -1.5230 H     1 <1>   0.0800 
 33 H       -4.5470     1.5530    -0.3390 H     1 <1>   0.0800 
 34 H       -0.4820     3.3000    -1.7780 H     1 <1>   0.0800 
 35 H       -0.0460     2.2950    -0.4180 H     1 <1>   0.0800 
 36 H       -2.6960    -2.1460    -0.9590 H     1 <1>   0.0800 
 37 H       -3.7160    -2.9730    -2.0790 H     1 <1>   0.0800 
 38 H       -5.6530    -0.3890     0.7120 H     1 <1>   0.0800 
 39 H       -3.9380    -0.4930     0.8040 H     1 <1>   0.0800 
 40 H       -0.4920     5.7680    -1.3290 H     1 <1>   0.1500 
 41 H       -0.8580     5.5920     2.8920 H     1 <1>   0.1500 
 42 H       -7.8990    -1.9670    -1.7320 H     1 <1>   0.0800 
 43 H       -7.3810    -1.5420    -0.1090 H     1 <1>   0.0800 
 44 H       -0.4110     8.1830    -0.0390 H     1 <1>   0.0800 
 45 H        0.3240     7.9990     1.5370 H     1 <1>   0.0800 
 46 H       -1.4160     8.1350     1.3920 H     1 <1>   0.0800 
 47 H       -7.0520    -4.2350    -1.4690 H     1 <1>   0.0800 
 48 H       -8.1310    -3.8830    -0.1440 H     1 <1>   0.0800 
 49 H       -3.3160    -4.6890     2.9500 H     1 <1>   0.1500 
 50 H       -7.0540    -5.6140     1.2210 H     1 <1>   0.1500 
 51 H       -1.0220    -2.0330     2.1270 H     1 <1>   0.0800 
 52 H       -1.3400    -3.7640     2.0940 H     1 <1>   0.0800 
 53 H       -2.1210    -2.7330     3.3100 H     1 <1>   0.0800 
 54 H       -5.2860    -6.0940     2.8420 H     1 <1>   0.1500 
@<TRIPOS>BOND
  1   1   2  2   
  2   2   3  am  
  3   2   4  1   
  4   3   5  1   
  5   3   6  1   
  6   4   7  1   
  7   4  28  1   
  8   4  29  1   
  9   5   8  1   
 10   5  30  1   
 11   5  31  1   
 12   6   9  1   
 13   6  32  1   
 14   6  33  1   
 15   7  10  1   
 16   7  34  1   
 17   7  35  1   
 18   8  11  1   
 19   8  36  1   
 20   8  37  1   
 21   9  11  1   
 22   9  38  1   
 23   9  39  1   
 24  10  12  1   
 25  10  13  1   
 26  11  14  1   
 27  11  15  1   
 28  12  16  2   
 29  13  17  2   
 30  13  40  1   
 31  14  18  1   
 32  15  19  ar  
 33  15  20  ar  
 34  16  17  1   
 35  16  41  1   
 36  17  21  1   
 37  18  22  1   
 38  18  42  1   
 39  18  43  1   
 40  19  23  1   
 41  19  24  ar  
 42  20  22  1   
 43  20  25  ar  
 44  21  44  1   
 45  21  45  1   
 46  21  46  1   
 47  22  47  1   
 48  22  48  1   
 49  23  26  1   
 50  24  27  ar  
 51  24  49  1   
 52  25  27  ar  
 53  25  50  1   
 54  26  51  1   
 55  26  52  1   
 56  26  53  1   
 57  27  54  1   
@<TRIPOS>SUBSTRUCTURE
  1 ****   9 GROUP 4 **** **** 0

# MOE 2024.06 (io_trps.svl 2023.06)
