@<TRIPOS>MOLECULE
NONAME
54 56 1 0 0 
SMALL
USER_CHARGES


@<TRIPOS>ATOM
  1 O        1.3030     1.7790    -0.2450 O.2   1 <1>  -0.5700 
  2 C        0.7970     2.8540    -0.4430 C.2   1 <1>   0.5690 
  3 N        0.1730     3.5190     0.5520 N.am  1 <1>  -0.7300 
  4 C        0.8200     3.4730    -1.8400 C.3   1 <1>   0.1810 
  5 C       -0.5700     4.7910     0.3600 C.3   1 <1>   0.3640 
  6 O        0.6380     4.8700    -1.8040 O.3   1 <1>  -0.5600 
  7 C       -2.0060     4.5680     0.8340 C.ar  1 <1>  -0.1440 
  8 C       -0.5290     5.3050    -1.1080 C.3   1 <1>   0.2610 
  9 C       -2.7190     3.4300     0.4720 C.ar  1 <1>  -0.1500 
 10 C       -2.6230     5.5150     1.6390 C.ar  1 <1>  -0.1500 
 11 C       -0.6080     6.8380    -1.1200 C.2   1 <1>   0.5690 
 12 C       -4.0180     3.2420     0.9110 C.ar  1 <1>  -0.1500 
 13 C       -3.9220     5.3290     2.0780 C.ar  1 <1>  -0.1500 
 14 O       -1.5570     7.3940    -0.6220 O.2   1 <1>  -0.5700 
 15 N        0.4070     7.5450    -1.6880 N.am  1 <1>  -0.7300 
 16 C       -4.6210     4.1920     1.7160 C.ar  1 <1>  -0.1500 
 17 C        0.4950     9.0150    -1.7950 C.3   1 <1>   0.1400 
 18 C        1.7880     9.4890    -1.1320 C.3   1 <1>  -0.1600 
 19 C        1.9160    11.0150    -1.1950 C.3   1 <1>  -0.0170 
 20 C        3.2060    11.4710    -0.5320 C.ar  1 <1>  -0.1430 
 21 C        3.2400    11.7170     0.8310 C.ar  1 <1>  -0.1500 
 22 C        4.3590    11.6460    -1.2820 C.ar  1 <1>  -0.1500 
 23 C        4.4120    12.1340     1.4360 C.ar  1 <1>  -0.1500 
 24 C        5.5340    12.0630    -0.6800 C.ar  1 <1>  -0.1500 
 25 C        5.5650    12.3110     0.6900 C.ar  1 <1>   0.0820 
 26 O        6.6700    12.7230     1.3600 O.3   1 <1>  -0.3620 
 27 C        7.8910    12.9430     0.6940 C.3   1 <1>   0.1200 
 28 C        8.9170    13.4000     1.7270 C.3   1 <1>  -0.2400 
 29 H        0.0990     3.0740     1.4680 H     1 <1>   0.3700 
 30 H        0.0410     3.0400    -2.4410 H     1 <1>   0.0800 
 31 H        1.7700     3.2750    -2.3020 H     1 <1>   0.0800 
 32 H       -0.1100     5.5330     0.9900 H     1 <1>   0.0800 
 33 H       -1.3830     4.9280    -1.6410 H     1 <1>   0.0800 
 34 H       -2.2680     2.6770    -0.1510 H     1 <1>   0.1500 
 35 H       -2.1000     6.4120     1.9240 H     1 <1>   0.1500 
 36 H       -4.5600     2.3570     0.6270 H     1 <1>   0.1500 
 37 H       -4.3900     6.0730     2.6990 H     1 <1>   0.1500 
 38 H        1.1740     7.0020    -2.0990 H     1 <1>   0.3700 
 39 H       -5.6310     4.0480     2.0570 H     1 <1>   0.1500 
 40 H        0.4830     9.2950    -2.8340 H     1 <1>   0.0800 
 41 H       -0.3540     9.4680    -1.3100 H     1 <1>   0.0800 
 42 H        1.7930     9.1790    -0.1020 H     1 <1>   0.0800 
 43 H        2.6330     9.0440    -1.6280 H     1 <1>   0.0800 
 44 H        1.0790    11.4730    -0.6970 H     1 <1>   0.0800 
 45 H        1.9040    11.3420    -2.2210 H     1 <1>   0.0800 
 46 H        2.3550    11.5840     1.4280 H     1 <1>   0.1500 
 47 H        4.3470    11.4570    -2.3410 H     1 <1>   0.1500 
 48 H        4.4410    12.3250     2.4930 H     1 <1>   0.1500 
 49 H        6.4080    12.1890    -1.2900 H     1 <1>   0.1500 
 50 H        8.2000    12.0200     0.2340 H     1 <1>   0.0800 
 51 H        7.7390    13.7030    -0.0540 H     1 <1>   0.0800 
 52 H        9.0470    12.6410     2.4770 H     1 <1>   0.0800 
 53 H        8.5890    14.3130     2.1920 H     1 <1>   0.0800 
 54 H        9.8620    13.5780     1.2480 H     1 <1>   0.0800 
@<TRIPOS>BOND
  1   1   2  2   
  2   2   3  am  
  3   2   4  1   
  4   3   5  1   
  5   3  29  1   
  6   4   6  1   
  7   4  30  1   
  8   4  31  1   
  9   5   7  1   
 10   5   8  1   
 11   5  32  1   
 12   6   8  1   
 13   7   9  ar  
 14   7  10  ar  
 15   8  11  1   
 16   8  33  1   
 17   9  12  ar  
 18   9  34  1   
 19  10  13  ar  
 20  10  35  1   
 21  11  14  2   
 22  11  15  am  
 23  12  16  ar  
 24  12  36  1   
 25  13  16  ar  
 26  13  37  1   
 27  15  17  1   
 28  15  38  1   
 29  16  39  1   
 30  17  18  1   
 31  17  40  1   
 32  17  41  1   
 33  18  19  1   
 34  18  42  1   
 35  18  43  1   
 36  19  20  1   
 37  19  44  1   
 38  19  45  1   
 39  20  21  ar  
 40  20  22  ar  
 41  21  23  ar  
 42  21  46  1   
 43  22  24  ar  
 44  22  47  1   
 45  23  25  ar  
 46  23  48  1   
 47  24  25  ar  
 48  24  49  1   
 49  25  26  1   
 50  26  27  1   
 51  27  28  1   
 52  27  50  1   
 53  27  51  1   
 54  28  52  1   
 55  28  53  1   
 56  28  54  1   
@<TRIPOS>SUBSTRUCTURE
  1 ****  15 GROUP 4 **** **** 0

# MOE 2024.06 (io_trps.svl 2023.06)
