@<TRIPOS>MOLECULE
NONAME
42 43 1 0 0 
SMALL
USER_CHARGES


@<TRIPOS>ATOM
  1 O       -0.7360    -0.5480    -0.6620 O.co2 1 <1>  -0.9000 
  2 C       -0.6300    -1.7820    -0.5810 C.2   1 <1>   1.0330 
  3 O       -1.6340    -2.4360    -0.2340 O.co2 1 <1>  -0.9000 
  4 C        0.6090    -2.4470    -0.8570 C.2   1 <1>  -0.2330 
  5 C        0.7090    -3.8050    -1.1540 C.2   1 <1>   0.3720 
  6 C        1.9020    -2.0220    -0.9060 C.2   1 <1>   0.0870 
  7 N        1.9270    -4.1640    -1.3510 N.2   1 <1>  -0.4100 
  8 N       -0.3700    -4.6720    -1.2150 N.pl3 1 <1>  -0.8520 
  9 O        2.6320    -3.0740    -1.2050 O.3   1 <1>  -0.0190 
 10 C        2.5660    -0.7580    -0.6900 C.ar  1 <1>   0.0530 
 11 C       -0.2600    -5.8550    -0.3360 C.3   1 <1>   0.2090 
 12 C        2.0810     0.2010     0.2000 C.ar  1 <1>  -0.1500 
 13 C        3.7530    -0.4540    -1.3610 C.ar  1 <1>  -0.1500 
 14 C       -1.6080    -6.5940    -0.1580 C.3   1 <1>   0.0000 
 15 C        2.7350     1.4000     0.4100 C.ar  1 <1>  -0.1500 
 16 C        4.4170     0.7400    -1.1550 C.ar  1 <1>  -0.1500 
 17 C       -1.3460    -7.7650     0.8170 C.3   1 <1>   0.1200 
 18 C       -2.1020    -7.1300    -1.5180 C.3   1 <1>  -0.2400 
 19 C       -2.6730    -5.6400     0.4270 C.3   1 <1>  -0.2400 
 20 C        3.9160     1.6800    -0.2700 C.ar  1 <1>   0.0830 
 21 O       -2.4980    -8.5050     1.0480 O.3   1 <1>  -0.6800 
 22 O        4.6200     2.8280    -0.1240 O.3   1 <1>  -0.3630 
 23 C        4.1470     3.8740     0.6940 C.3   1 <1>   0.0400 
 24 H       -1.1940    -4.1050    -0.9160 H     1 <1>   0.4000 
 25 H        0.1040    -5.5350     0.6260 H     1 <1>   0.0800 
 26 H        0.4690    -6.5250    -0.7610 H     1 <1>   0.0800 
 27 H        1.1690     0.0020     0.7350 H     1 <1>   0.1500 
 28 H        4.1550    -1.1690    -2.0560 H     1 <1>   0.1500 
 29 H        2.3050     2.0990     1.1010 H     1 <1>   0.1500 
 30 H        5.3290     0.9540    -1.6820 H     1 <1>   0.1500 
 31 H       -1.0010    -7.3930     1.7670 H     1 <1>   0.0800 
 32 H       -0.6040    -8.4360     0.4180 H     1 <1>   0.0800 
 33 H       -1.3750    -7.7970    -1.9440 H     1 <1>   0.0800 
 34 H       -2.2580    -6.3180    -2.2070 H     1 <1>   0.0800 
 35 H       -3.0300    -7.6610    -1.4090 H     1 <1>   0.0800 
 36 H       -2.3370    -5.2190     1.3580 H     1 <1>   0.0800 
 37 H       -3.6080    -6.1440     0.5890 H     1 <1>   0.0800 
 38 H       -2.8650    -4.8240    -0.2490 H     1 <1>   0.0800 
 39 H       -3.2390    -7.8980     1.2370 H     1 <1>   0.4000 
 40 H        4.8460     4.6880     0.6350 H     1 <1>   0.0800 
 41 H        4.0800     3.5210     1.7080 H     1 <1>   0.0800 
 42 H        3.1840     4.1900     0.3330 H     1 <1>   0.0800 
@<TRIPOS>BOND
  1   1   2  ar  
  2   2   3  ar  
  3   2   4  1   
  4   4   5  1   
  5   4   6  2   
  6   5   7  2   
  7   5   8  1   
  8   6   9  1   
  9   6  10  1   
 10   7   9  1   
 11   8  11  1   
 12   8  24  1   
 13  10  12  ar  
 14  10  13  ar  
 15  11  14  1   
 16  11  25  1   
 17  11  26  1   
 18  12  15  ar  
 19  12  27  1   
 20  13  16  ar  
 21  13  28  1   
 22  14  17  1   
 23  14  18  1   
 24  14  19  1   
 25  15  20  ar  
 26  15  29  1   
 27  16  20  ar  
 28  16  30  1   
 29  17  21  1   
 30  17  31  1   
 31  17  32  1   
 32  18  33  1   
 33  18  34  1   
 34  18  35  1   
 35  19  36  1   
 36  19  37  1   
 37  19  38  1   
 38  20  22  1   
 39  21  39  1   
 40  22  23  1   
 41  23  40  1   
 42  23  41  1   
 43  23  42  1   
@<TRIPOS>SUBSTRUCTURE
  1 ****   4 GROUP 4 **** **** 0

# MOE 2024.06 (io_trps.svl 2023.06)
