@<TRIPOS>MOLECULE
NONAME
48 50 1 0 0 
SMALL
USER_CHARGES


@<TRIPOS>ATOM
  1 O        0.3960     0.6330     0.3240 O.2   1 <1>  -0.5700 
  2 C        1.2570    -0.2180     0.4350 C.2   1 <1>   0.7160 
  3 N        2.2930     0.0130     1.2820 N.am  1 <1>  -0.7300 
  4 C        1.2110    -1.4370    -0.3350 C.2   1 <1>  -0.0860 
  5 C        2.4820     1.2230     2.1090 C.3   1 <1>   0.3200 
  6 C        0.1470    -2.0520    -0.9260 C.2   1 <1>  -0.0400 
  7 C        2.3080    -2.2710    -0.6490 C.2   1 <1>  -0.1500 
  8 C        3.7340     1.9470     1.6540 C.2   1 <1>   0.0060 
  9 O        0.5220    -3.1450    -1.5510 O.3   1 <1>  -0.2800 
 10 C       -1.3240    -1.6650    -0.9530 C.3   1 <1>   0.3000 
 11 C        1.8180    -3.2860    -1.3870 C.2   1 <1>  -0.0100 
 12 N        4.8750     1.8480     2.2460 N.2   1 <1>  -0.3380 
 13 N        3.8000     2.7560     0.5900 N.pl3 1 <1>   0.0480 
 14 O       -2.0610    -2.5910    -0.1830 O.3   1 <1>  -0.3630 
 15 N        5.7340     2.6110     1.5690 N.2   1 <1>  -0.3380 
 16 C        5.0780     3.1380     0.5960 C.2   1 <1>   0.0370 
 17 C        2.7520     3.1450    -0.3780 C.3   1 <1>   0.0960 
 18 C       -3.4070    -2.4860    -0.0620 C.ar  1 <1>   0.0820 
 19 C        1.9360     4.3320     0.1490 C.3   1 <1>  -0.1600 
 20 C       -4.0500    -3.4960     0.6340 C.ar  1 <1>  -0.1500 
 21 C       -4.1580    -1.4380    -0.5900 C.ar  1 <1>  -0.1500 
 22 C        0.8090     4.6970    -0.8230 C.3   1 <1>  -0.2400 
 23 C       -5.4230    -3.4700     0.8040 C.ar  1 <1>  -0.1500 
 24 C       -5.5310    -1.4150    -0.4180 C.ar  1 <1>  -0.1500 
 25 C       -6.1710    -2.4290     0.2770 C.ar  1 <1>  -0.1430 
 26 C       -7.6770    -2.3970     0.4650 C.3   1 <1>  -0.0970 
 27 H        3.0480    -0.6690     1.3510 H     1 <1>   0.3700 
 28 H        2.5960     0.9300     3.1390 H     1 <1>   0.0800 
 29 H        1.6280     1.8740     2.0400 H     1 <1>   0.0800 
 30 H        3.3280    -2.1060    -0.3520 H     1 <1>   0.1500 
 31 H       -1.6930    -1.6930    -1.9630 H     1 <1>   0.0800 
 32 H       -1.4750    -0.6880    -0.5340 H     1 <1>   0.0800 
 33 H        2.3070    -4.1360    -1.8310 H     1 <1>   0.1500 
 34 H        5.4960     3.8080    -0.1330 H     1 <1>   0.1500 
 35 H        2.1090     2.3020    -0.5550 H     1 <1>   0.0800 
 36 H        3.2210     3.4070    -1.3090 H     1 <1>   0.0800 
 37 H        2.5810     5.1840     0.2800 H     1 <1>   0.0800 
 38 H        1.5020     4.0820     1.1010 H     1 <1>   0.0800 
 39 H       -3.4670    -4.3020     1.0410 H     1 <1>   0.1500 
 40 H       -3.6990    -0.6350    -1.1320 H     1 <1>   0.1500 
 41 H        1.2080     4.9710    -1.7840 H     1 <1>   0.0800 
 42 H        0.2480     5.5310    -0.4380 H     1 <1>   0.0800 
 43 H        0.1370     3.8660    -0.9500 H     1 <1>   0.0800 
 44 H       -5.9050    -4.2630     1.3490 H     1 <1>   0.1500 
 45 H       -6.1020    -0.6000    -0.8270 H     1 <1>   0.1500 
 46 H       -8.0690    -3.3960     0.5340 H     1 <1>   0.0800 
 47 H       -8.1490    -1.9060    -0.3670 H     1 <1>   0.0800 
 48 H       -7.9190    -1.8650     1.3670 H     1 <1>   0.0800 
@<TRIPOS>BOND
  1   1   2  2   
  2   2   3  am  
  3   2   4  1   
  4   3   5  1   
  5   3  27  1   
  6   4   6  2   
  7   4   7  1   
  8   5   8  1   
  9   5  28  1   
 10   5  29  1   
 11   6   9  1   
 12   6  10  1   
 13   7  11  2   
 14   7  30  1   
 15   8  12  2   
 16   8  13  1   
 17   9  11  1   
 18  10  14  1   
 19  10  31  1   
 20  10  32  1   
 21  11  33  1   
 22  12  15  1   
 23  13  16  1   
 24  13  17  1   
 25  14  18  1   
 26  15  16  2   
 27  16  34  1   
 28  17  19  1   
 29  17  35  1   
 30  17  36  1   
 31  18  20  ar  
 32  18  21  ar  
 33  19  22  1   
 34  19  37  1   
 35  19  38  1   
 36  20  23  ar  
 37  20  39  1   
 38  21  24  ar  
 39  21  40  1   
 40  22  41  1   
 41  22  42  1   
 42  22  43  1   
 43  23  25  ar  
 44  23  44  1   
 45  24  25  ar  
 46  24  45  1   
 47  25  26  1   
 48  26  46  1   
 49  26  47  1   
 50  26  48  1   
@<TRIPOS>SUBSTRUCTURE
  1 ****   1 GROUP 4 **** **** 0

# MOE 2024.06 (io_trps.svl 2023.06)
