@<TRIPOS>MOLECULE
NONAME
56 60 1 0 0 
SMALL
USER_CHARGES


@<TRIPOS>ATOM
  1 F       -2.5150    -1.7900     0.5200 F     1 <1>  -0.1900 
  2 C       -3.4910    -0.9360     0.3820 C.ar  1 <1>   0.1900 
  3 C       -4.1190    -0.4500     1.5120 C.ar  1 <1>  -0.1500 
  4 C       -3.8640    -0.5480    -0.8900 C.ar  1 <1>  -0.1500 
  5 C       -5.1630     0.4450     1.3550 C.ar  1 <1>  -0.1500 
  6 C       -4.9100     0.3480    -1.0300 C.ar  1 <1>  -0.1500 
  7 C       -5.5870     0.8440     0.0870 C.ar  1 <1>   0.0540 
  8 C       -6.7210     1.7290    -0.0550 C.2   1 <1>   0.2350 
  9 N       -6.7800     2.9300     0.4490 N.2   1 <1>  -0.7070 
 10 C       -7.9140     1.4060    -0.7090 C.2   1 <1>  -0.1810 
 11 N       -7.9880     3.4070     0.1080 N.pl3 1 <1>   0.3000 
 12 C       -8.6980     2.4980    -0.5890 C.2   1 <1>  -0.3020 
 13 C       -8.2160     0.0770    -1.3670 C.3   1 <1>   0.5240 
 14 N       -8.1680    -0.9840    -0.3290 N.4   1 <1>  -0.9590 
 15 C       -9.2330    -0.7620     0.6960 C.3   1 <1>   0.3430 
 16 C       -8.3550    -2.3360    -0.9280 C.3   1 <1>   0.3430 
 17 C      -10.1800    -1.9520     0.6190 C.3   1 <1>  -0.0800 
 18 C       -9.3620    -3.0700    -0.0450 C.3   1 <1>  -0.0800 
 19 C      -11.4850    -1.6060    -0.1310 C.3   1 <1>   0.4240 
 20 C      -10.2170    -4.0810    -0.8410 C.3   1 <1>  -0.1600 
 21 O      -11.1480    -1.2350    -1.4260 O.3   1 <1>  -0.6800 
 22 C      -12.2050    -0.4220     0.5450 C.ar  1 <1>  -0.1430 
 23 C      -12.3880    -2.8570    -0.2530 C.3   1 <1>  -0.1600 
 24 C      -11.6290    -4.2050    -0.2560 C.3   1 <1>  -0.1600 
 25 C      -12.3930     0.8100    -0.0820 C.ar  1 <1>  -0.1500 
 26 C      -12.6750    -0.5670     1.8470 C.ar  1 <1>  -0.1500 
 27 C      -13.0260     1.8530     0.5710 C.ar  1 <1>  -0.1500 
 28 C      -13.3070     0.4750     2.5010 C.ar  1 <1>  -0.1500 
 29 C      -13.4840     1.6880     1.8640 C.ar  1 <1>  -0.1500 
 30 H       -3.7890    -0.7610     2.4880 H     1 <1>   0.1500 
 31 H       -3.3350    -0.9340    -1.7440 H     1 <1>   0.1500 
 32 H       -5.6560     0.8540     2.2220 H     1 <1>   0.1500 
 33 H       -5.1960     0.6790    -2.0130 H     1 <1>   0.1500 
 34 H       -8.2970     4.3530     0.3710 H     1 <1>   0.2700 
 35 H       -9.6970     2.6890    -0.9400 H     1 <1>   0.1500 
 36 H       -7.4870    -0.1200    -2.1350 H     1 <1>   0.0800 
 37 H       -9.1940     0.1070    -1.8190 H     1 <1>   0.0800 
 38 H       -7.2510    -0.9230     0.1330 H     1 <1>   0.4500 
 39 H       -8.7850    -0.7220     1.6760 H     1 <1>   0.0800 
 40 H       -9.7630     0.1620     0.5250 H     1 <1>   0.0800 
 41 H       -8.7740    -2.2360    -1.9160 H     1 <1>   0.0800 
 42 H       -7.4240    -2.8760    -0.9920 H     1 <1>   0.0800 
 43 H      -10.4420    -2.2480     1.6180 H     1 <1>   0.0800 
 44 H       -8.8200    -3.5970     0.7220 H     1 <1>   0.0800 
 45 H      -10.3080    -3.7730    -1.8690 H     1 <1>   0.0800 
 46 H       -9.7360    -5.0460    -0.8390 H     1 <1>   0.0800 
 47 H      -11.9840    -1.0990    -1.9150 H     1 <1>   0.4000 
 48 H      -13.0790    -2.8890     0.5700 H     1 <1>   0.0800 
 49 H      -12.9900    -2.7790    -1.1410 H     1 <1>   0.0800 
 50 H      -11.5520    -4.5690     0.7540 H     1 <1>   0.0800 
 51 H      -12.1950    -4.9330    -0.8140 H     1 <1>   0.0800 
 52 H      -12.0540     0.9910    -1.0860 H     1 <1>   0.1500 
 53 H      -12.5590    -1.4970     2.3760 H     1 <1>   0.1500 
 54 H      -13.1690     2.7970     0.0730 H     1 <1>   0.1500 
 55 H      -13.6670     0.3430     3.5080 H     1 <1>   0.1500 
 56 H      -13.9790     2.4980     2.3720 H     1 <1>   0.1500 
@<TRIPOS>BOND
  1   1   2  1   
  2   2   3  ar  
  3   2   4  ar  
  4   3   5  ar  
  5   3  30  1   
  6   4   6  ar  
  7   4  31  1   
  8   5   7  ar  
  9   5  32  1   
 10   6   7  ar  
 11   6  33  1   
 12   7   8  1   
 13   8   9  2   
 14   8  10  1   
 15   9  11  1   
 16  10  12  2   
 17  10  13  1   
 18  11  12  1   
 19  11  34  1   
 20  12  35  1   
 21  13  14  1   
 22  13  36  1   
 23  13  37  1   
 24  14  15  1   
 25  14  16  1   
 26  14  38  1   
 27  15  17  1   
 28  15  39  1   
 29  15  40  1   
 30  16  18  1   
 31  16  41  1   
 32  16  42  1   
 33  17  18  1   
 34  17  19  1   
 35  17  43  1   
 36  18  20  1   
 37  18  44  1   
 38  19  21  1   
 39  19  22  1   
 40  19  23  1   
 41  20  24  1   
 42  20  45  1   
 43  20  46  1   
 44  21  47  1   
 45  22  25  ar  
 46  22  26  ar  
 47  23  24  1   
 48  23  48  1   
 49  23  49  1   
 50  24  50  1   
 51  24  51  1   
 52  25  27  ar  
 53  25  52  1   
 54  26  28  ar  
 55  26  53  1   
 56  27  29  ar  
 57  27  54  1   
 58  28  29  ar  
 59  28  55  1   
 60  29  56  1   
@<TRIPOS>SUBSTRUCTURE
  1 ****  15 GROUP 4 **** **** 0

# MOE 2024.06 (io_trps.svl 2023.06)
