@<TRIPOS>MOLECULE
NONAME
49 52 1 0 0 
SMALL
USER_CHARGES


@<TRIPOS>ATOM
  1 O       -2.0110     0.2120    -0.9910 O.2   1 <1>  -0.5700 
  2 C       -2.1260     0.7370     0.0930 C.2   1 <1>   0.9370 
  3 N       -1.7500     2.1020     0.2460 N.pl3 1 <1>  -0.5760 
  4 C       -2.6990     0.0270     1.1830 C.2   1 <1>   0.0290 
  5 C       -2.2360     2.7700     1.3320 C.cat 1 <1>   0.7390 
  6 C       -0.9500     2.8070    -0.6480 C.2   1 <1>   0.2030 
  7 C       -2.8320    -1.3910     1.1500 C.2   1 <1>   0.6160 
  8 C       -3.0690     0.7320     2.2760 C.2   1 <1>   0.1910 
  9 N       -2.8880     2.0850     2.3030 N.pl3 1 <1>  -0.6450 
 10 C       -2.0510     4.1490     1.4740 C.2   1 <1>  -0.1800 
 11 C       -0.7570     4.1570    -0.5010 C.2   1 <1>  -0.1500 
 12 C       -0.2260     2.1370    -1.8150 C.3   1 <1>  -0.1020 
 13 O       -2.3390    -2.0090     2.0700 O.2   1 <1>  -0.5700 
 14 N       -3.5460    -2.0800     0.2010 N.am  1 <1>  -0.6600 
 15 C       -1.3220     4.8570     0.5620 C.2   1 <1>  -0.1500 
 16 C       -4.4950    -1.5220    -0.8020 C.3   1 <1>   0.1400 
 17 C       -3.6300    -3.5690     0.1850 C.3   1 <1>   0.1400 
 18 C       -5.5350    -2.6230    -0.9860 C.3   1 <1>   0.2000 
 19 C       -4.7130    -3.9060    -0.8490 C.3   1 <1>  -0.0800 
 20 O       -6.4410    -2.5310     0.0620 O.3   1 <1>  -0.6800 
 21 C       -5.5090    -5.1850    -0.5250 C.3   1 <1>   0.0210 
 22 C       -4.5840    -6.3730    -0.3410 C.2   1 <1>   0.1080 
 23 N       -3.6660    -6.6940    -1.1990 N.2   1 <1>  -0.7070 
 24 C       -4.6030    -7.2320     0.7530 C.2   1 <1>  -0.1500 
 25 N       -3.0700    -7.7800    -0.6710 N.pl3 1 <1>   0.3000 
 26 C       -3.6190    -8.1240     0.5130 C.2   1 <1>  -0.3320 
 27 C       -3.1630    -9.3010     1.3550 C.3   1 <1>  -0.0600 
 28 H       -3.5040     0.2480     3.1410 H     1 <1>   0.1500 
 29 H       -3.1960     2.6180     3.1260 H     1 <1>   0.4500 
 30 H       -2.4840     4.6560     2.3170 H     1 <1>   0.1500 
 31 H       -0.1540     4.7110    -1.2020 H     1 <1>   0.1500 
 32 H        0.3170     1.2730    -1.4780 H     1 <1>   0.0800 
 33 H        0.4820     2.8060    -2.2710 H     1 <1>   0.0800 
 34 H       -0.9290     1.8420    -2.5740 H     1 <1>   0.0800 
 35 H       -1.1670     5.9220     0.6510 H     1 <1>   0.1500 
 36 H       -4.9490    -0.6020    -0.4780 H     1 <1>   0.0800 
 37 H       -3.9720    -1.3650    -1.7310 H     1 <1>   0.0800 
 38 H       -2.6840    -4.0040    -0.0920 H     1 <1>   0.0800 
 39 H       -3.9070    -3.9250     1.1630 H     1 <1>   0.0800 
 40 H       -6.0720    -2.5500    -1.9170 H     1 <1>   0.0800 
 41 H       -4.2080    -4.0680    -1.7860 H     1 <1>   0.0800 
 42 H       -5.9610    -2.6440     0.9050 H     1 <1>   0.4000 
 43 H       -6.1870    -5.3980    -1.3310 H     1 <1>   0.0800 
 44 H       -6.0880    -5.0560     0.3720 H     1 <1>   0.0800 
 45 H       -5.2700    -7.1750     1.5950 H     1 <1>   0.1500 
 46 H       -2.2930    -8.2590    -1.1410 H     1 <1>   0.2700 
 47 H       -3.7560    -9.3670     2.2500 H     1 <1>   0.0800 
 48 H       -2.1320    -9.1800     1.6360 H     1 <1>   0.0800 
 49 H       -3.2730   -10.2180     0.8040 H     1 <1>   0.0800 
@<TRIPOS>BOND
  1   1   2  2   
  2   2   3  1   
  3   2   4  1   
  4   3   5  ar  
  5   3   6  1   
  6   4   7  1   
  7   4   8  2   
  8   5   9  ar  
  9   5  10  1   
 10   6  11  2   
 11   6  12  1   
 12   7  13  2   
 13   7  14  am  
 14   8   9  1   
 15   8  28  1   
 16   9  29  1   
 17  10  15  2   
 18  10  30  1   
 19  11  15  1   
 20  11  31  1   
 21  12  32  1   
 22  12  33  1   
 23  12  34  1   
 24  14  16  1   
 25  14  17  1   
 26  15  35  1   
 27  16  18  1   
 28  16  36  1   
 29  16  37  1   
 30  17  19  1   
 31  17  38  1   
 32  17  39  1   
 33  18  19  1   
 34  18  20  1   
 35  18  40  1   
 36  19  21  1   
 37  19  41  1   
 38  20  42  1   
 39  21  22  1   
 40  21  43  1   
 41  21  44  1   
 42  22  23  2   
 43  22  24  1   
 44  23  25  1   
 45  24  26  2   
 46  24  45  1   
 47  25  26  1   
 48  25  46  1   
 49  26  27  1   
 50  27  47  1   
 51  27  48  1   
 52  27  49  1   
@<TRIPOS>SUBSTRUCTURE
  1 ****  14 GROUP 4 **** **** 0

# MOE 2024.06 (io_trps.svl 2023.06)
