@<TRIPOS>MOLECULE
NONAME
68 71 1 0 0 
SMALL
USER_CHARGES


@<TRIPOS>ATOM
  1 O       -1.0010     0.2590     0.7300 O.2   1 <1>  -0.5700 
  2 C       -1.7740     1.0600     0.2520 C.2   1 <1>   0.5690 
  3 N       -2.8910     0.6330    -0.4120 N.am  1 <1>  -0.6600 
  4 C       -1.5010     2.5480     0.4330 C.3   1 <1>  -0.0990 
  5 C       -3.0500    -0.7950    -0.7440 C.3   1 <1>   0.1400 
  6 C       -4.2120     1.3100    -0.3350 C.3   1 <1>   0.1400 
  7 C       -0.0020     2.9020     0.5450 C.3   1 <1>  -0.0800 
  8 C       -3.9310    -1.3550     0.3860 C.3   1 <1>   0.4230 
  9 C       -5.1660     0.5110     0.5950 C.3   1 <1>  -0.1600 
 10 C        0.1890     4.3980     0.8430 C.3   1 <1>  -0.1600 
 11 C        0.7750     2.5300    -0.7310 C.3   1 <1>  -0.1600 
 12 N       -3.5330    -2.7300     0.8660 N.4   1 <1>  -0.9590 
 13 C       -5.4710    -1.0100     0.1020 C.3   1 <1>   0.0000 
 14 C        1.6700     4.7720     0.9210 C.3   1 <1>   0.3430 
 15 C        2.2480     2.9220    -0.6250 C.3   1 <1>   0.3430 
 16 C       -3.5640    -3.7340    -0.2130 C.3   1 <1>   0.3430 
 17 C       -2.1970    -2.6930     1.5470 C.3   1 <1>   0.2630 
 18 C       -5.8010    -2.4890    -0.4660 C.3   1 <1>  -0.1600 
 19 C       -7.0140    -0.6290    -0.0990 C.3   1 <1>   0.1200 
 20 N        2.3590     4.3800    -0.3450 N.4   1 <1>  -0.9590 
 21 C       -4.7400    -3.4120    -1.1170 C.3   1 <1>  -0.1600 
 22 O       -7.1630     0.0570    -1.3020 O.3   1 <1>  -0.6800 
 23 C        3.7780     4.8250    -0.3530 C.3   1 <1>   0.4870 
 24 C        3.8060     6.3410    -0.3240 C.ar  1 <1>  -0.1430 
 25 C        4.1730     7.0100     0.8360 C.ar  1 <1>  -0.1500 
 26 C        3.4570     7.0700    -1.4520 C.ar  1 <1>  -0.1500 
 27 C        4.1790     8.3930     0.8690 C.ar  1 <1>  -0.1500 
 28 C        3.4630     8.4530    -1.4160 C.ar  1 <1>  -0.1500 
 29 C        3.8220     9.1140    -0.2560 C.ar  1 <1>  -0.1500 
 30 H       -1.9290     3.0820    -0.3960 H     1 <1>   0.0800 
 31 H       -2.0070     2.8620     1.3280 H     1 <1>   0.0800 
 32 H       -3.5340    -0.8850    -1.7000 H     1 <1>   0.0800 
 33 H       -2.0910    -1.2780    -0.7890 H     1 <1>   0.0800 
 34 H       -4.1040     2.3140     0.0370 H     1 <1>   0.0800 
 35 H       -4.6380     1.3700    -1.3240 H     1 <1>   0.0800 
 36 H        0.4110     2.3430     1.3710 H     1 <1>   0.0800 
 37 H       -3.6220    -0.7680     1.2320 H     1 <1>   0.0800 
 38 H       -4.7990     0.5420     1.6080 H     1 <1>   0.0800 
 39 H       -5.9850     1.2080     0.6640 H     1 <1>   0.0800 
 40 H       -0.2740     4.6390     1.7840 H     1 <1>   0.0800 
 41 H       -0.2880     4.9960     0.0860 H     1 <1>   0.0800 
 42 H        0.3370     3.0070    -1.5910 H     1 <1>   0.0800 
 43 H        0.7240     1.4670    -0.8930 H     1 <1>   0.0800 
 44 H       -4.2430    -3.0020     1.5580 H     1 <1>   0.4500 
 45 H        2.1260     4.2650     1.7570 H     1 <1>   0.0800 
 46 H        1.7610     5.8360     1.0790 H     1 <1>   0.0800 
 47 H        2.7500     2.6800    -1.5480 H     1 <1>   0.0800 
 48 H        2.7100     2.3600     0.1710 H     1 <1>   0.0800 
 49 H       -2.6500    -3.7080    -0.7850 H     1 <1>   0.0800 
 50 H       -3.6780    -4.7200     0.2100 H     1 <1>   0.0800 
 51 H       -1.4250    -2.4010     0.8530 H     1 <1>   0.0800 
 52 H       -1.9510    -3.6630     1.9490 H     1 <1>   0.0800 
 53 H       -2.2070    -1.9780     2.3540 H     1 <1>   0.0800 
 54 H       -6.2720    -3.0550     0.3220 H     1 <1>   0.0800 
 55 H       -6.5040    -2.4600    -1.2900 H     1 <1>   0.0800 
 56 H       -7.4340    -0.0330     0.6960 H     1 <1>   0.0800 
 57 H       -7.7230    -1.4440    -0.1150 H     1 <1>   0.0800 
 58 H        1.8920     4.8940    -1.1020 H     1 <1>   0.4500 
 59 H       -4.3750    -2.9610    -2.0230 H     1 <1>   0.0800 
 60 H       -5.2010    -4.3390    -1.4130 H     1 <1>   0.0800 
 61 H       -8.1020     0.2820    -1.4680 H     1 <1>   0.4000 
 62 H        4.3010     4.4280     0.5010 H     1 <1>   0.0800 
 63 H        4.2710     4.4810    -1.2480 H     1 <1>   0.0800 
 64 H        4.4620     6.4710     1.7220 H     1 <1>   0.1500 
 65 H        3.1820     6.5790    -2.3700 H     1 <1>   0.1500 
 66 H        4.4640     8.9140     1.7680 H     1 <1>   0.1500 
 67 H        3.1930     9.0200    -2.2910 H     1 <1>   0.1500 
 68 H        3.8270    10.1910    -0.2290 H     1 <1>   0.1500 
@<TRIPOS>BOND
  1   1   2  2   
  2   2   3  am  
  3   2   4  1   
  4   3   5  1   
  5   3   6  1   
  6   4   7  1   
  7   4  30  1   
  8   4  31  1   
  9   5   8  1   
 10   5  32  1   
 11   5  33  1   
 12   6   9  1   
 13   6  34  1   
 14   6  35  1   
 15   7  10  1   
 16   7  11  1   
 17   7  36  1   
 18   8  12  1   
 19   8  13  1   
 20   8  37  1   
 21   9  13  1   
 22   9  38  1   
 23   9  39  1   
 24  10  14  1   
 25  10  40  1   
 26  10  41  1   
 27  11  15  1   
 28  11  42  1   
 29  11  43  1   
 30  12  16  1   
 31  12  17  1   
 32  12  44  1   
 33  13  18  1   
 34  13  19  1   
 35  14  20  1   
 36  14  45  1   
 37  14  46  1   
 38  15  20  1   
 39  15  47  1   
 40  15  48  1   
 41  16  21  1   
 42  16  49  1   
 43  16  50  1   
 44  17  51  1   
 45  17  52  1   
 46  17  53  1   
 47  18  21  1   
 48  18  54  1   
 49  18  55  1   
 50  19  22  1   
 51  19  56  1   
 52  19  57  1   
 53  20  23  1   
 54  20  58  1   
 55  21  59  1   
 56  21  60  1   
 57  22  61  1   
 58  23  24  1   
 59  23  62  1   
 60  23  63  1   
 61  24  25  ar  
 62  24  26  ar  
 63  25  27  ar  
 64  25  64  1   
 65  26  28  ar  
 66  26  65  1   
 67  27  29  ar  
 68  27  66  1   
 69  28  29  ar  
 70  28  67  1   
 71  29  68  1   
@<TRIPOS>SUBSTRUCTURE
  1 ****   4 GROUP 4 **** **** 0

# MOE 2024.06 (io_trps.svl 2023.06)
