@<TRIPOS>MOLECULE
NONAME
33 34 1 0 0 
SMALL
USER_CHARGES


@<TRIPOS>ATOM
  1 CL       0.2270    -1.2690     2.0000 Cl    1 <1>  -0.1770 
  2 C       -0.1300    -2.7200     1.1020 C.ar  1 <1>   0.1770 
  3 C       -1.2870    -2.7820     0.3490 C.ar  1 <1>  -0.1500 
  4 C        0.7480    -3.7840     1.1590 C.ar  1 <1>  -0.1500 
  5 C       -1.5940    -3.9280    -0.3760 C.ar  1 <1>  -0.0090 
  6 C        0.4550    -4.9330     0.4480 C.ar  1 <1>  -0.1500 
  7 S       -3.1250    -4.0330    -1.3470 S.o2  1 <1>   1.4470 
  8 C       -0.7040    -4.9980    -0.3090 C.ar  1 <1>  -0.1500 
  9 O       -3.0440    -5.1150    -2.3050 O.2   1 <1>  -0.6500 
 10 O       -3.4530    -2.7100    -1.8360 O.2   1 <1>  -0.6500 
 11 N       -4.3250    -4.4320    -0.2180 N.am  1 <1>  -0.8490 
 12 C       -4.0570    -5.6830     0.5330 C.3   1 <1>   0.1960 
 13 C       -5.6590    -4.3660    -0.8350 C.3   1 <1>   0.1960 
 14 C       -4.8610    -6.8640     0.0010 C.3   1 <1>  -0.1860 
 15 C       -6.7130    -5.0920     0.0030 C.3   1 <1>  -0.1600 
 16 C       -4.3510    -8.1420     0.6350 C.2   1 <1>   0.9060 
 17 C       -6.3650    -6.5800     0.1730 C.3   1 <1>   0.2000 
 18 O       -3.1390    -8.3700     0.5780 O.co2 1 <1>  -0.9000 
 19 O       -5.1370    -8.9130     1.2020 O.co2 1 <1>  -0.9000 
 20 O       -6.7710    -6.9420     1.4380 O.3   1 <1>  -0.6800 
 21 H       -1.9540    -1.9380     0.3280 H     1 <1>   0.1500 
 22 H        1.6410    -3.7130     1.7540 H     1 <1>   0.1500 
 23 H        1.1200    -5.7800     0.4830 H     1 <1>   0.1500 
 24 H       -0.9290    -5.9040    -0.8510 H     1 <1>   0.1500 
 25 H       -3.0100    -5.9240     0.5210 H     1 <1>   0.0800 
 26 H       -4.3290    -5.5310     1.5650 H     1 <1>   0.0800 
 27 H       -5.9370    -3.3330    -0.9590 H     1 <1>   0.0800 
 28 H       -5.6290    -4.8190    -1.8140 H     1 <1>   0.0800 
 29 H       -4.6450    -6.9630    -1.0450 H     1 <1>   0.0800 
 30 H       -7.6710    -5.0080    -0.4730 H     1 <1>   0.0800 
 31 H       -6.7690    -4.6050     0.9610 H     1 <1>   0.0800 
 32 H       -6.9180    -7.1880    -0.5240 H     1 <1>   0.0800 
 33 H       -6.3270    -7.8270     1.6150 H     1 <1>   0.4000 
@<TRIPOS>BOND
  1   1   2  1   
  2   2   3  ar  
  3   2   4  ar  
  4   3   5  ar  
  5   3  21  1   
  6   4   6  ar  
  7   4  22  1   
  8   5   7  1   
  9   5   8  ar  
 10   6   8  ar  
 11   6  23  1   
 12   7   9  2   
 13   7  10  2   
 14   7  11  am  
 15   8  24  1   
 16  11  12  1   
 17  11  13  1   
 18  12  14  1   
 19  12  25  1   
 20  12  26  1   
 21  13  15  1   
 22  13  27  1   
 23  13  28  1   
 24  14  16  1   
 25  14  17  1   
 26  14  29  1   
 27  15  17  1   
 28  15  30  1   
 29  15  31  1   
 30  16  18  ar  
 31  16  19  ar  
 32  17  20  1   
 33  17  32  1   
 34  20  33  1   
@<TRIPOS>SUBSTRUCTURE
  1 ****  12 GROUP 4 **** **** 0

# MOE 2024.06 (io_trps.svl 2023.06)
