@<TRIPOS>MOLECULE
NONAME
50 52 1 0 0 
SMALL
USER_CHARGES


@<TRIPOS>ATOM
  1 O        1.3010    -0.5240    -1.1230 O.2   1 <1>  -0.5700 
  2 C        1.5990    -1.1520    -0.1270 C.2   1 <1>   0.5440 
  3 N        2.4010    -0.5570     0.8100 N.am  1 <1>  -0.7300 
  4 C        1.0970    -2.4990     0.0710 C.ar  1 <1>   0.0860 
  5 C        2.9810     0.8070     0.7030 C.3   1 <1>   0.0600 
  6 C       -0.0560    -2.9490    -0.5460 C.ar  1 <1>  -0.1500 
  7 C        1.7230    -3.4390     0.8830 C.ar  1 <1>  -0.1500 
  8 C       -0.5360    -4.2330    -0.3310 C.ar  1 <1>   0.4100 
  9 C        1.1800    -4.6980     1.0360 C.ar  1 <1>   0.1600 
 10 N        0.0670    -5.1180     0.4570 N.ar  1 <1>  -0.6200 
 11 N       -1.7090    -4.6410    -0.9420 N.pl3 1 <1>  -0.8380 
 12 C       -1.8750    -6.0820    -1.2670 C.3   1 <1>   0.2090 
 13 C       -2.9670    -3.9560    -0.5380 C.3   1 <1>   0.2090 
 14 C       -2.4720    -6.8340    -0.0510 C.3   1 <1>   0.4230 
 15 C       -3.5580    -4.6830     0.6770 C.3   1 <1>  -0.1600 
 16 N       -2.5280    -8.3490    -0.2170 N.4   1 <1>  -0.9590 
 17 C       -3.8090    -6.1990     0.4360 C.3   1 <1>   0.0000 
 18 C       -3.4510    -9.0370     0.7420 C.3   1 <1>   0.3430 
 19 C       -2.7800    -8.8360    -1.6130 C.3   1 <1>   0.2630 
 20 C       -4.2280    -6.8520     1.7870 C.3   1 <1>  -0.1600 
 21 C       -4.9190    -6.4000    -0.6350 C.3   1 <1>   0.1200 
 22 C       -3.5960    -8.2350     2.0330 C.3   1 <1>  -0.1600 
 23 O       -6.0600    -5.6760    -0.3330 O.3   1 <1>  -0.6800 
 24 H        2.5570    -1.0290     1.7010 H     1 <1>   0.3700 
 25 H        2.7970     1.2200    -0.2750 H     1 <1>   0.0800 
 26 H        4.0440     0.7640     0.8640 H     1 <1>   0.0800 
 27 H        2.5340     1.4520     1.4390 H     1 <1>   0.0800 
 28 H       -0.5920    -2.2970    -1.2090 H     1 <1>   0.1500 
 29 H        2.6380    -3.1920     1.3880 H     1 <1>   0.1500 
 30 H        1.6920    -5.4020     1.6710 H     1 <1>   0.1500 
 31 H       -2.5070    -6.1650    -2.1310 H     1 <1>   0.0800 
 32 H       -0.9110    -6.4950    -1.5110 H     1 <1>   0.0800 
 33 H       -2.7650    -2.9300    -0.2800 H     1 <1>   0.0800 
 34 H       -3.6630    -3.9560    -1.3600 H     1 <1>   0.0800 
 35 H       -1.7750    -6.6490     0.7500 H     1 <1>   0.0800 
 36 H       -2.8650    -4.5520     1.4900 H     1 <1>   0.0800 
 37 H       -4.4670    -4.1860     0.9650 H     1 <1>   0.0800 
 38 H       -1.5770    -8.6560     0.0380 H     1 <1>   0.4500 
 39 H       -4.4270    -9.1430     0.2960 H     1 <1>   0.0800 
 40 H       -3.0790   -10.0250     0.9650 H     1 <1>   0.0800 
 41 H       -3.7450    -8.5060    -1.9600 H     1 <1>   0.0800 
 42 H       -2.7550    -9.9140    -1.6420 H     1 <1>   0.0800 
 43 H       -2.0240    -8.4650    -2.2860 H     1 <1>   0.0800 
 44 H       -3.9470    -6.2210     2.6150 H     1 <1>   0.0800 
 45 H       -5.2990    -6.9450     1.8360 H     1 <1>   0.0800 
 46 H       -5.2060    -7.4320    -0.7160 H     1 <1>   0.0800 
 47 H       -4.5950    -6.0610    -1.6030 H     1 <1>   0.0800 
 48 H       -4.2100    -8.7840     2.7260 H     1 <1>   0.0800 
 49 H       -2.6270    -8.1250     2.4900 H     1 <1>   0.0800 
 50 H       -6.4540    -5.9450     0.5210 H     1 <1>   0.4000 
@<TRIPOS>BOND
  1   1   2  2   
  2   2   3  am  
  3   2   4  1   
  4   3   5  1   
  5   3  24  1   
  6   4   6  ar  
  7   4   7  ar  
  8   5  25  1   
  9   5  26  1   
 10   5  27  1   
 11   6   8  ar  
 12   6  28  1   
 13   7   9  ar  
 14   7  29  1   
 15   8  10  ar  
 16   8  11  1   
 17   9  10  ar  
 18   9  30  1   
 19  11  12  1   
 20  11  13  1   
 21  12  14  1   
 22  12  31  1   
 23  12  32  1   
 24  13  15  1   
 25  13  33  1   
 26  13  34  1   
 27  14  16  1   
 28  14  17  1   
 29  14  35  1   
 30  15  17  1   
 31  15  36  1   
 32  15  37  1   
 33  16  18  1   
 34  16  19  1   
 35  16  38  1   
 36  17  20  1   
 37  17  21  1   
 38  18  22  1   
 39  18  39  1   
 40  18  40  1   
 41  19  41  1   
 42  19  42  1   
 43  19  43  1   
 44  20  22  1   
 45  20  44  1   
 46  20  45  1   
 47  21  23  1   
 48  21  46  1   
 49  21  47  1   
 50  22  48  1   
 51  22  49  1   
 52  23  50  1   
@<TRIPOS>SUBSTRUCTURE
  1 ****  11 GROUP 4 **** **** 0

# MOE 2024.06 (io_trps.svl 2023.06)
