@<TRIPOS>MOLECULE
NONAME
45 47 1 0 0 
SMALL
USER_CHARGES


@<TRIPOS>ATOM
  1 S       -0.4760     0.2730    -0.4860 S.o2  1 <1>   1.3330 
  2 O       -1.2790    -0.9280    -0.4280 O.2   1 <1>  -0.6500 
  3 O       -0.3530     0.9920    -1.7340 O.2   1 <1>  -0.6500 
  4 N        1.0870    -0.1480     0.0330 N.am  1 <1>  -0.8490 
  5 C       -1.0380     1.4060     0.7940 C.3   1 <1>  -0.0550 
  6 C        1.1070    -1.2420     1.0110 C.3   1 <1>   0.1160 
  7 C        1.9810    -0.4660    -1.0850 C.3   1 <1>   0.1160 
  8 C       -0.4780     2.8460     0.7720 C.3   1 <1>  -0.0800 
  9 C       -1.0710     3.7340    -0.3260 C.3   1 <1>   0.2000 
 10 C        1.0340     3.0090     0.6100 C.3   1 <1>   0.1400 
 11 O       -2.2750     4.2590     0.1200 O.3   1 <1>  -0.6800 
 12 C       -0.0380     4.8390    -0.5730 C.3   1 <1>   0.1400 
 13 N        1.1910     4.4000     0.1360 N.am  1 <1>  -0.6600 
 14 C        2.3340     5.1550     0.3370 C.2   1 <1>   0.7160 
 15 O        3.2340     4.6310     0.9760 O.2   1 <1>  -0.5700 
 16 C        2.5110     6.5210    -0.1620 C.2   1 <1>   0.2030 
 17 N        1.6690     7.2450    -0.8880 N.2   1 <1>  -0.7070 
 18 C        3.6710     7.2700     0.0890 C.2   1 <1>  -0.1500 
 19 N        2.2850     8.4190    -1.0890 N.pl3 1 <1>   0.3000 
 20 C        3.4960     8.4630    -0.5090 C.2   1 <1>  -0.2370 
 21 C        4.4090     9.6700    -0.5730 C.3   1 <1>  -0.0150 
 22 C        5.3260     9.9790     0.5660 C.3   1 <1>  -0.2000 
 23 C        4.1310    10.8470     0.3030 C.3   1 <1>  -0.2000 
 24 H       -2.1070     1.4770     0.7330 H     1 <1>   0.0800 
 25 H       -0.8130     0.9720     1.7490 H     1 <1>   0.0800 
 26 H        2.1090    -1.3950     1.3740 H     1 <1>   0.0800 
 27 H        0.7540    -2.1560     0.5610 H     1 <1>   0.0800 
 28 H        0.4740    -1.0050     1.8490 H     1 <1>   0.0800 
 29 H        2.9630    -0.7130    -0.7200 H     1 <1>   0.0800 
 30 H        2.0730     0.3860    -1.7390 H     1 <1>   0.0800 
 31 H        1.5920    -1.2960    -1.6510 H     1 <1>   0.0800 
 32 H       -0.7170     3.2940     1.7200 H     1 <1>   0.0800 
 33 H       -1.2580     3.1960    -1.2400 H     1 <1>   0.0800 
 34 H        1.4330     2.3580    -0.1470 H     1 <1>   0.0800 
 35 H        1.5560     2.8450     1.5380 H     1 <1>   0.0800 
 36 H       -2.1190     4.8680     0.8680 H     1 <1>   0.4000 
 37 H       -0.3740     5.7810    -0.1770 H     1 <1>   0.0800 
 38 H        0.1660     4.9360    -1.6260 H     1 <1>   0.0800 
 39 H        4.5170     6.9210     0.6550 H     1 <1>   0.1500 
 40 H        1.8590     9.1850    -1.6260 H     1 <1>   0.2700 
 41 H        4.7840     9.8590    -1.5650 H     1 <1>   0.1000 
 42 H        5.3160     9.3390     1.4310 H     1 <1>   0.1000 
 43 H        6.3070    10.3610     0.3460 H     1 <1>   0.1000 
 44 H        4.2870    11.8360    -0.0900 H     1 <1>   0.1000 
 45 H        3.3060    10.8000     0.9940 H     1 <1>   0.1000 
@<TRIPOS>BOND
  1   1   2  2   
  2   1   3  2   
  3   1   4  am  
  4   1   5  1   
  5   4   6  1   
  6   4   7  1   
  7   5   8  1   
  8   5  24  1   
  9   5  25  1   
 10   6  26  1   
 11   6  27  1   
 12   6  28  1   
 13   7  29  1   
 14   7  30  1   
 15   7  31  1   
 16   8   9  1   
 17   8  10  1   
 18   8  32  1   
 19   9  11  1   
 20   9  12  1   
 21   9  33  1   
 22  10  13  1   
 23  10  34  1   
 24  10  35  1   
 25  11  36  1   
 26  12  13  1   
 27  12  37  1   
 28  12  38  1   
 29  13  14  am  
 30  14  15  2   
 31  14  16  1   
 32  16  17  2   
 33  16  18  1   
 34  17  19  1   
 35  18  20  2   
 36  18  39  1   
 37  19  20  1   
 38  19  40  1   
 39  20  21  1   
 40  21  22  1   
 41  21  23  1   
 42  21  41  1   
 43  22  23  1   
 44  22  42  1   
 45  22  43  1   
 46  23  44  1   
 47  23  45  1   
@<TRIPOS>SUBSTRUCTURE
  1 ****  13 GROUP 4 **** **** 0

# MOE 2024.06 (io_trps.svl 2023.06)
