@<TRIPOS>MOLECULE
NONAME
45 46 1 0 0 
SMALL
USER_CHARGES


@<TRIPOS>ATOM
  1 O        0.6950     0.3690    -1.8160 O.2   1 <1>  -0.5700 
  2 C        1.7480     0.1950    -1.2390 C.2   1 <1>   0.7150 
  3 N        2.3610     1.2860    -0.7310 N.am  1 <1>  -0.8000 
  4 C        2.3130    -1.1270    -1.0980 C.2   1 <1>   0.0550 
  5 O        3.4190    -1.3440    -0.3980 O.3   1 <1>  -0.2800 
  6 C        1.8870    -2.3190    -1.5900 C.2   1 <1>  -0.1500 
  7 C        3.7250    -2.6250    -0.4210 C.2   1 <1>  -0.0400 
  8 C        2.7880    -3.2910    -1.1450 C.2   1 <1>  -0.1810 
  9 C        4.9980    -3.0380     0.3400 C.3   1 <1>   0.1800 
 10 C        2.6300    -4.7590    -1.4660 C.3   1 <1>   0.5240 
 11 C        4.8000    -2.7520     1.8350 C.3   1 <1>  -0.2400 
 12 C        5.3480    -4.5230     0.1710 C.3   1 <1>  -0.2400 
 13 C        6.1840    -2.2120    -0.1770 C.3   1 <1>  -0.2400 
 14 N        1.9090    -5.3930    -0.3280 N.4   1 <1>  -0.9590 
 15 C        2.0500    -6.8890    -0.3580 C.3   1 <1>   0.3430 
 16 C        0.4810    -4.9500    -0.2690 C.3   1 <1>   0.3430 
 17 C        1.3620    -7.5590     0.8390 C.3   1 <1>   0.1200 
 18 C       -0.2030    -5.5680     0.9530 C.3   1 <1>  -0.1600 
 19 C        1.4620    -9.0290     0.6450 C.1   1 <1>   0.3570 
 20 C       -0.1030    -7.1020     0.9610 C.3   1 <1>  -0.1600 
 21 N        1.5740   -10.1380     0.4300 N.1   1 <1>  -0.5570 
 22 H        1.9430     2.2060    -0.8580 H     1 <1>   0.3700 
 23 H        3.2560     1.2260    -0.2460 H     1 <1>   0.3700 
 24 H        1.0190    -2.4650    -2.2100 H     1 <1>   0.1500 
 25 H        3.6020    -5.2060    -1.5880 H     1 <1>   0.0800 
 26 H        2.0800    -4.8840    -2.3850 H     1 <1>   0.0800 
 27 H        3.9660    -3.3060     2.2220 H     1 <1>   0.0800 
 28 H        4.6090    -1.7040     1.9930 H     1 <1>   0.0800 
 29 H        5.6800    -3.0180     2.3940 H     1 <1>   0.0800 
 30 H        4.5790    -5.1520     0.5750 H     1 <1>   0.0800 
 31 H        6.2590    -4.7470     0.6990 H     1 <1>   0.0800 
 32 H        5.5090    -4.7560    -0.8660 H     1 <1>   0.0800 
 33 H        6.0120    -1.1620    -0.0200 H     1 <1>   0.0800 
 34 H        6.3220    -2.3740    -1.2310 H     1 <1>   0.0800 
 35 H        7.0920    -2.4800     0.3330 H     1 <1>   0.0800 
 36 H        2.3660    -5.0180     0.5150 H     1 <1>   0.4500 
 37 H        3.0930    -7.1610    -0.3610 H     1 <1>   0.0800 
 38 H        1.6060    -7.2700    -1.2650 H     1 <1>   0.0800 
 39 H       -0.0360    -5.2570    -1.1650 H     1 <1>   0.0800 
 40 H        0.4270    -3.8750    -0.1990 H     1 <1>   0.0800 
 41 H        1.8960    -7.3090     1.7390 H     1 <1>   0.0800 
 42 H       -1.2420    -5.2820     0.9500 H     1 <1>   0.0800 
 43 H        0.2330    -5.1620     1.8500 H     1 <1>   0.0800 
 44 H       -0.5320    -7.4910     1.8710 H     1 <1>   0.0800 
 45 H       -0.6770    -7.4980     0.1380 H     1 <1>   0.0800 
@<TRIPOS>BOND
  1   1   2  2   
  2   2   3  am  
  3   2   4  1   
  4   3  22  1   
  5   3  23  1   
  6   4   5  1   
  7   4   6  2   
  8   5   7  1   
  9   6   8  1   
 10   6  24  1   
 11   7   8  2   
 12   7   9  1   
 13   8  10  1   
 14   9  11  1   
 15   9  12  1   
 16   9  13  1   
 17  10  14  1   
 18  10  25  1   
 19  10  26  1   
 20  11  27  1   
 21  11  28  1   
 22  11  29  1   
 23  12  30  1   
 24  12  31  1   
 25  12  32  1   
 26  13  33  1   
 27  13  34  1   
 28  13  35  1   
 29  14  15  1   
 30  14  16  1   
 31  14  36  1   
 32  15  17  1   
 33  15  37  1   
 34  15  38  1   
 35  16  18  1   
 36  16  39  1   
 37  16  40  1   
 38  17  19  1   
 39  17  20  1   
 40  17  41  1   
 41  18  20  1   
 42  18  42  1   
 43  18  43  1   
 44  19  21  3   
 45  20  44  1   
 46  20  45  1   
@<TRIPOS>SUBSTRUCTURE
  1 ****   8 GROUP 4 **** **** 0

# MOE 2024.06 (io_trps.svl 2023.06)
