@<TRIPOS>MOLECULE
NONAME
56 58 1 0 0 
SMALL
USER_CHARGES


@<TRIPOS>ATOM
  1 O        0.4190    -0.5830     0.6830 O.3   1 <1>  -0.3630 
  2 C        0.1700    -1.8630     0.3190 C.ar  1 <1>   0.0830 
  3 C        1.5670    -0.2370     1.4250 C.3   1 <1>   0.0400 
  4 C       -0.9780    -2.0940    -0.4190 C.ar  1 <1>  -0.1500 
  5 C        0.9920    -2.9380     0.6400 C.ar  1 <1>  -0.1500 
  6 C       -1.3060    -3.3730    -0.8290 C.ar  1 <1>  -0.1500 
  7 C        0.6570    -4.2150     0.2270 C.ar  1 <1>  -0.1500 
  8 C       -0.4990    -4.4640    -0.5120 C.ar  1 <1>   0.0280 
  9 C       -0.8180    -5.8150    -0.9190 C.2   1 <1>  -0.1780 
 10 C       -1.9870    -6.2750    -1.4000 C.2   1 <1>  -0.2880 
 11 C       -2.2480    -7.7040    -1.8020 C.3   1 <1>   0.4810 
 12 N       -3.0610    -8.3050    -0.7130 N.4   1 <1>  -0.9590 
 13 C       -2.9200    -9.8090    -0.6660 C.3   1 <1>   0.3430 
 14 C       -4.4830    -7.8470    -0.8020 C.3   1 <1>   0.3430 
 15 C       -3.8310   -10.5110     0.3990 C.3   1 <1>   0.4230 
 16 C       -5.2770    -8.4660     0.3460 C.3   1 <1>  -0.1600 
 17 N       -3.7060   -12.0360     0.4630 N.4   1 <1>  -0.9590 
 18 C       -5.3010   -10.0190     0.2820 C.3   1 <1>   0.0000 
 19 C       -4.8720   -12.7240     1.1230 C.3   1 <1>   0.3430 
 20 C       -3.4050   -12.7480    -0.8280 C.3   1 <1>   0.2630 
 21 C       -6.1300   -10.5380     1.4900 C.3   1 <1>  -0.1600 
 22 C       -5.9250   -10.5280    -1.0540 C.3   1 <1>   0.1200 
 23 C       -5.5470   -11.8060     2.1400 C.3   1 <1>  -0.1600 
 24 O       -6.9330    -9.6910    -1.4910 O.3   1 <1>  -0.6800 
 25 H        1.5510     0.8250     1.5890 H     1 <1>   0.0800 
 26 H        2.4420    -0.5070     0.8610 H     1 <1>   0.0800 
 27 H        1.5410    -0.7530     2.3690 H     1 <1>   0.0800 
 28 H       -1.6090    -1.2600    -0.6690 H     1 <1>   0.1500 
 29 H        1.8920    -2.7970     1.2080 H     1 <1>   0.1500 
 30 H       -2.1990    -3.5080    -1.4090 H     1 <1>   0.1500 
 31 H        1.3090    -5.0290     0.4870 H     1 <1>   0.1500 
 32 H        0.0150    -6.4880    -0.8020 H     1 <1>   0.1500 
 33 H       -2.8410    -5.6370    -1.5390 H     1 <1>   0.1500 
 34 H       -1.3050    -8.2190    -1.8890 H     1 <1>   0.0800 
 35 H       -2.7590    -7.7510    -2.7510 H     1 <1>   0.0800 
 36 H       -2.6670    -7.8820     0.1430 H     1 <1>   0.4500 
 37 H       -3.1690   -10.2000    -1.6380 H     1 <1>   0.0800 
 38 H       -1.8920   -10.0570    -0.4590 H     1 <1>   0.0800 
 39 H       -4.5340    -6.7710    -0.7320 H     1 <1>   0.0800 
 40 H       -4.9200    -8.1420    -1.7450 H     1 <1>   0.0800 
 41 H       -3.4890   -10.1460     1.3540 H     1 <1>   0.0800 
 42 H       -4.8590    -8.1280     1.2790 H     1 <1>   0.0800 
 43 H       -6.2810    -8.0770     0.3110 H     1 <1>   0.0800 
 44 H       -2.9110   -12.2320     1.0940 H     1 <1>   0.4500 
 45 H       -5.6020   -13.0050     0.3810 H     1 <1>   0.0800 
 46 H       -4.5390   -13.6260     1.6120 H     1 <1>   0.0800 
 47 H       -4.2030   -12.6050    -1.5380 H     1 <1>   0.0800 
 48 H       -3.3000   -13.8080    -0.6510 H     1 <1>   0.0800 
 49 H       -2.4830   -12.3920    -1.2590 H     1 <1>   0.0800 
 50 H       -6.2010    -9.7870     2.2600 H     1 <1>   0.0800 
 51 H       -7.1420   -10.7330     1.1760 H     1 <1>   0.0800 
 52 H       -6.3350   -11.5190    -0.9590 H     1 <1>   0.0800 
 53 H       -5.1980   -10.5450    -1.8460 H     1 <1>   0.0800 
 54 H       -6.3420   -12.3460     2.6290 H     1 <1>   0.0800 
 55 H       -4.8360   -11.5420     2.9050 H     1 <1>   0.0800 
 56 H       -7.8030    -9.9160    -1.0940 H     1 <1>   0.4000 
@<TRIPOS>BOND
  1   1   2  1   
  2   1   3  1   
  3   2   4  ar  
  4   2   5  ar  
  5   3  25  1   
  6   3  26  1   
  7   3  27  1   
  8   4   6  ar  
  9   4  28  1   
 10   5   7  ar  
 11   5  29  1   
 12   6   8  ar  
 13   6  30  1   
 14   7   8  ar  
 15   7  31  1   
 16   8   9  1   
 17   9  10  2   
 18   9  32  1   
 19  10  11  1   
 20  10  33  1   
 21  11  12  1   
 22  11  34  1   
 23  11  35  1   
 24  12  13  1   
 25  12  14  1   
 26  12  36  1   
 27  13  15  1   
 28  13  37  1   
 29  13  38  1   
 30  14  16  1   
 31  14  39  1   
 32  14  40  1   
 33  15  17  1   
 34  15  18  1   
 35  15  41  1   
 36  16  18  1   
 37  16  42  1   
 38  16  43  1   
 39  17  19  1   
 40  17  20  1   
 41  17  44  1   
 42  18  21  1   
 43  18  22  1   
 44  19  23  1   
 45  19  45  1   
 46  19  46  1   
 47  20  47  1   
 48  20  48  1   
 49  20  49  1   
 50  21  23  1   
 51  21  50  1   
 52  21  51  1   
 53  22  24  1   
 54  22  52  1   
 55  22  53  1   
 56  23  54  1   
 57  23  55  1   
 58  24  56  1   
@<TRIPOS>SUBSTRUCTURE
  1 ****  12 GROUP 4 **** **** 0

# MOE 2024.06 (io_trps.svl 2023.06)
