@<TRIPOS>MOLECULE
NONAME
39 41 1 0 0 
SMALL
USER_CHARGES


@<TRIPOS>ATOM
  1 N       -1.2380    -1.3460    -1.1360 N.2   1 <1>  -0.2680 
  2 N       -1.7240    -1.0820     0.1170 N.pl3 1 <1>  -0.4630 
  3 C       -2.0270    -2.2430    -1.5970 C.2   1 <1>   0.4790 
  4 C       -2.7940    -1.8360     0.3640 C.cat 1 <1>   1.0690 
  5 C       -1.0810    -0.0820     0.9990 C.3   1 <1>   0.2660 
  6 N       -2.9950    -2.5690    -0.7040 N.pl3 1 <1>  -0.7040 
  7 C       -1.9560    -2.9060    -2.9530 C.3   1 <1>  -0.0820 
  8 N       -3.5450    -1.8580     1.4900 N.pl3 1 <1>  -0.5970 
  9 C       -4.8980    -1.2680     1.5010 C.3   1 <1>   0.1590 
 10 C       -3.4650    -3.0000     2.4220 C.3   1 <1>   0.1590 
 11 C       -5.8760    -2.2570     0.8680 C.3   1 <1>  -0.1690 
 12 C       -4.3120    -4.1480     1.8730 C.3   1 <1>  -0.1690 
 13 C       -5.6830    -3.7500     1.2570 C.3   1 <1>   0.0910 
 14 C       -5.8980    -4.5940     0.0050 C.2   1 <1>  -0.0040 
 15 N       -6.8720    -5.4890    -0.1640 N.pl3 1 <1>   0.0230 
 16 N       -5.1440    -4.5250    -1.0400 N.2   1 <1>  -0.3450 
 17 C       -6.6460    -5.9550    -1.3920 C.2   1 <1>  -0.0040 
 18 N       -5.6190    -5.3910    -1.9290 N.2   1 <1>  -0.3450 
 19 C       -7.5000    -7.0150    -2.0570 C.3   1 <1>  -0.0700 
 20 H       -1.0930     0.8810     0.5180 H     1 <1>   0.0700 
 21 H       -0.0600    -0.3680     1.1820 H     1 <1>   0.0700 
 22 H       -1.6020    -0.0140     1.9380 H     1 <1>   0.0700 
 23 H       -3.7440    -3.2600    -0.8380 H     1 <1>   0.4440 
 24 H       -1.1260    -2.5170    -3.5140 H     1 <1>   0.0700 
 25 H       -2.8630    -2.7200    -3.4990 H     1 <1>   0.0700 
 26 H       -1.8320    -3.9670    -2.8370 H     1 <1>   0.0700 
 27 H       -4.9060    -0.3390     0.9540 H     1 <1>   0.0700 
 28 H       -5.1900    -1.0590     2.5170 H     1 <1>   0.0700 
 29 H       -3.8330    -2.7000     3.3900 H     1 <1>   0.0700 
 30 H       -2.4410    -3.3180     2.5380 H     1 <1>   0.0700 
 31 H       -5.8000    -2.1370    -0.1980 H     1 <1>   0.0700 
 32 H       -6.8790    -1.9590     1.1190 H     1 <1>   0.0700 
 33 H       -4.4780    -4.8610     2.6610 H     1 <1>   0.0700 
 34 H       -3.7110    -4.6630     1.1440 H     1 <1>   0.0700 
 35 H       -6.4420    -3.9940     1.9810 H     1 <1>   0.0700 
 36 H       -7.6160    -5.7620     0.4810 H     1 <1>   0.2620 
 37 H       -7.4800    -7.9220    -1.4820 H     1 <1>   0.0700 
 38 H       -7.1200    -7.2250    -3.0420 H     1 <1>   0.0700 
 39 H       -8.5140    -6.6720    -2.1460 H     1 <1>   0.0700 
@<TRIPOS>BOND
  1   1   2  1   
  2   1   3  2   
  3   2   4  ar  
  4   2   5  1   
  5   3   6  1   
  6   3   7  1   
  7   4   6  ar  
  8   4   8  ar  
  9   5  20  1   
 10   5  21  1   
 11   5  22  1   
 12   6  23  1   
 13   7  24  1   
 14   7  25  1   
 15   7  26  1   
 16   8   9  1   
 17   8  10  1   
 18   9  11  1   
 19   9  27  1   
 20   9  28  1   
 21  10  12  1   
 22  10  29  1   
 23  10  30  1   
 24  11  13  1   
 25  11  31  1   
 26  11  32  1   
 27  12  13  1   
 28  12  33  1   
 29  12  34  1   
 30  13  14  1   
 31  13  35  1   
 32  14  15  1   
 33  14  16  2   
 34  15  17  1   
 35  15  36  1   
 36  16  18  1   
 37  17  18  2   
 38  17  19  1   
 39  19  37  1   
 40  19  38  1   
 41  19  39  1   
@<TRIPOS>SUBSTRUCTURE
  1 ****   6 GROUP 4 **** **** 0

# MOE 2024.06 (io_trps.svl 2023.06)
