@<TRIPOS>MOLECULE
NONAME
52 54 1 0 0 
SMALL
USER_CHARGES


@<TRIPOS>ATOM
  1 O        0.1730     1.9950    -1.6050 O.co2 1 <1>  -0.9000 
  2 C       -0.3770     1.5630    -0.5730 C.2   1 <1>   0.9790 
  3 O        0.3520     1.3580     0.4110 O.co2 1 <1>  -0.9000 
  4 C       -1.8110     1.5280    -0.5100 C.ar  1 <1>  -0.1790 
  5 C       -2.6010     2.3130     0.3370 C.ar  1 <1>   0.1000 
  6 C       -2.4420     0.6740    -1.4280 C.ar  1 <1>   0.1600 
  7 N       -2.1120     3.2120     1.2850 N.pl3 1 <1>  -0.8380 
  8 C       -3.9900     2.1480     0.1940 C.ar  1 <1>   0.0000 
  9 N       -3.7330     0.5140    -1.5800 N.ar  1 <1>  -0.5670 
 10 C       -1.6050     4.5510     0.8600 C.3   1 <1>   0.2090 
 11 C       -1.4370     2.6120     2.4730 C.3   1 <1>   0.1290 
 12 C       -4.4740     1.2720    -0.7480 C.ar  1 <1>   0.1050 
 13 C       -5.1540     2.6700     0.7940 C.2   1 <1>   0.1080 
 14 C       -0.3840     4.3640    -0.0480 C.3   1 <1>   0.3430 
 15 N       -5.8300     1.3300    -0.6640 N.pl3 1 <1>   0.3140 
 16 N       -6.2440     2.1980     0.2890 N.2   1 <1>  -0.7070 
 17 C       -5.1610     3.6740     1.9240 C.3   1 <1>  -0.0590 
 18 N        0.3980     5.5560    -0.4910 N.4   1 <1>  -0.9590 
 19 C       -6.7720     0.5610    -1.4830 C.3   1 <1>   0.0160 
 20 C        1.3630     5.0050    -1.5030 C.3   1 <1>   0.4230 
 21 C        1.0150     6.2750     0.6620 C.3   1 <1>   0.2630 
 22 C        2.5680     4.2880    -0.8880 C.3   1 <1>  -0.1600 
 23 C        1.9840     6.1320    -2.3240 C.3   1 <1>  -0.1600 
 24 C        3.7050     5.3120    -0.7730 C.3   1 <1>  -0.1600 
 25 C        3.3150     6.5020    -1.6560 C.3   1 <1>  -0.1600 
 26 H       -1.7970     0.1000    -2.0740 H     1 <1>   0.1500 
 27 H       -1.3460     5.1200     1.7340 H     1 <1>   0.0800 
 28 H       -2.3840     5.0590     0.3190 H     1 <1>   0.0800 
 29 H       -1.6390     1.5550     2.5140 H     1 <1>   0.0800 
 30 H       -1.8030     3.0710     3.3740 H     1 <1>   0.0800 
 31 H       -0.3710     2.7440     2.4090 H     1 <1>   0.0800 
 32 H       -0.7500     3.8760    -0.9340 H     1 <1>   0.0800 
 33 H        0.2850     3.6790     0.4470 H     1 <1>   0.0800 
 34 H       -4.5890     3.2910     2.7480 H     1 <1>   0.0800 
 35 H       -6.1690     3.8550     2.2500 H     1 <1>   0.0800 
 36 H       -4.7270     4.5960     1.5890 H     1 <1>   0.0800 
 37 H       -0.2400     6.1730    -1.0040 H     1 <1>   0.4500 
 38 H       -6.5980     0.7840    -2.5180 H     1 <1>   0.0800 
 39 H       -7.7770     0.8280    -1.2130 H     1 <1>   0.0800 
 40 H       -6.6120    -0.4860    -1.3060 H     1 <1>   0.0800 
 41 H        0.8380     4.3200    -2.1550 H     1 <1>   0.0800 
 42 H        1.6620     5.6090     1.2090 H     1 <1>   0.0800 
 43 H        0.2520     6.6410     1.3290 H     1 <1>   0.0800 
 44 H        1.5960     7.1110     0.3120 H     1 <1>   0.0800 
 45 H        2.8680     3.5250    -1.5860 H     1 <1>   0.0800 
 46 H        2.3470     3.7900     0.0390 H     1 <1>   0.0800 
 47 H        1.3300     6.9770    -2.4440 H     1 <1>   0.0800 
 48 H        2.2020     5.7350    -3.3000 H     1 <1>   0.0800 
 49 H        4.6330     4.8740    -1.1040 H     1 <1>   0.0800 
 50 H        3.8280     5.6280     0.2480 H     1 <1>   0.0800 
 51 H        3.2020     7.3870    -1.0540 H     1 <1>   0.0800 
 52 H        4.0710     6.6950    -2.3990 H     1 <1>   0.0800 
@<TRIPOS>BOND
  1   1   2  ar  
  2   2   3  ar  
  3   2   4  1   
  4   4   5  ar  
  5   4   6  ar  
  6   5   7  1   
  7   5   8  ar  
  8   6   9  ar  
  9   6  26  1   
 10   7  10  1   
 11   7  11  1   
 12   8  12  ar  
 13   8  13  1   
 14   9  12  ar  
 15  10  14  1   
 16  10  27  1   
 17  10  28  1   
 18  11  29  1   
 19  11  30  1   
 20  11  31  1   
 21  12  15  1   
 22  13  16  2   
 23  13  17  1   
 24  14  18  1   
 25  14  32  1   
 26  14  33  1   
 27  15  16  1   
 28  15  19  1   
 29  17  34  1   
 30  17  35  1   
 31  17  36  1   
 32  18  20  1   
 33  18  21  1   
 34  18  37  1   
 35  19  38  1   
 36  19  39  1   
 37  19  40  1   
 38  20  22  1   
 39  20  23  1   
 40  20  41  1   
 41  21  42  1   
 42  21  43  1   
 43  21  44  1   
 44  22  24  1   
 45  22  45  1   
 46  22  46  1   
 47  23  25  1   
 48  23  47  1   
 49  23  48  1   
 50  24  25  1   
 51  24  49  1   
 52  24  50  1   
 53  25  51  1   
 54  25  52  1   
@<TRIPOS>SUBSTRUCTURE
  1 ****   5 GROUP 4 **** **** 0

# MOE 2024.06 (io_trps.svl 2023.06)
