@<TRIPOS>MOLECULE
Untitled Document
48 51 1 0 0 
SMALL
USER_CHARGES


@<TRIPOS>ATOM
  1 F        5.4050     2.2780     2.0560 F     1 <1>  -0.1900 
  2 C        5.9050     1.3620     1.2670 C.ar  1 <1>   0.1900 
  3 C        5.0630     0.4150     0.6970 C.ar  1 <1>  -0.1440 
  4 C        7.2650     1.3920     1.0270 C.ar  1 <1>  -0.1500 
  5 C        5.6340    -0.5320    -0.1420 C.ar  1 <1>  -0.1500 
  6 C        3.5620     0.3890     0.9620 C.3   1 <1>  -0.0160 
  7 C        7.8140     0.4400     0.1850 C.ar  1 <1>  -0.1500 
  8 C        6.9980    -0.5170    -0.3960 C.ar  1 <1>  -0.1500 
  9 C        2.7670     1.0610    -0.1740 C.3   1 <1>  -0.0800 
 10 C        3.1520     2.5430    -0.3480 C.3   1 <1>  -0.1600 
 11 C        1.2550     0.9470     0.0850 C.3   1 <1>  -0.1600 
 12 C        2.3080     3.2390    -1.4130 C.3   1 <1>   0.3430 
 13 C        0.4340     1.6570    -0.9910 C.3   1 <1>   0.3430 
 14 N        0.8680     3.0760    -1.0900 N.4   1 <1>  -0.9590 
 15 C       -0.0360     3.8770    -1.9550 C.3   1 <1>   0.5230 
 16 C       -1.2470     4.2660    -1.1150 C.2   1 <1>   0.0060 
 17 N       -2.3850     4.7950    -1.6440 N.pl3 1 <1>   0.0330 
 18 N       -1.2870     4.1310     0.1700 N.2   1 <1>  -0.5650 
 19 C       -3.2170     5.0070    -0.5940 C.ar  1 <1>  -0.1520 
 20 C       -2.5200     4.5900     0.5260 C.ar  1 <1>   0.2270 
 21 C       -4.5130     5.5210    -0.4950 C.ar  1 <1>  -0.1500 
 22 C       -3.1050     4.6770     1.7860 C.ar  1 <1>  -0.1500 
 23 C       -5.0890     5.6050     0.7530 C.ar  1 <1>  -0.1500 
 24 C       -4.3810     5.1820     1.8870 C.ar  1 <1>   0.0830 
 25 O       -4.9580     5.2710     3.0980 O.3   1 <1>  -0.5330 
 26 H        7.8790     2.1420     1.4910 H     1 <1>   0.1500 
 27 H        5.0230    -1.2890    -0.6020 H     1 <1>   0.1500 
 28 H        3.3440     0.8700     1.9000 H     1 <1>   0.0800 
 29 H        3.2500    -0.6370     1.0590 H     1 <1>   0.0800 
 30 H        8.8710     0.4430    -0.0170 H     1 <1>   0.1500 
 31 H        7.4280    -1.2580    -1.0490 H     1 <1>   0.1500 
 32 H        2.9950     0.5410    -1.0910 H     1 <1>   0.0800 
 33 H        4.1850     2.6180    -0.6400 H     1 <1>   0.0800 
 34 H        3.0440     3.0660     0.5870 H     1 <1>   0.0800 
 35 H        1.0080     1.3680     1.0450 H     1 <1>   0.0800 
 36 H        0.9690    -0.0910     0.1060 H     1 <1>   0.0800 
 37 H        2.5190     2.8060    -2.3770 H     1 <1>   0.0800 
 38 H        2.5670     4.2860    -1.4430 H     1 <1>   0.0800 
 39 H       -0.6120     1.6110    -0.7270 H     1 <1>   0.0800 
 40 H        0.5720     1.1620    -1.9390 H     1 <1>   0.0800 
 41 H        0.6820     3.4780    -0.1510 H     1 <1>   0.4500 
 42 H       -0.3350     3.3070    -2.8190 H     1 <1>   0.0800 
 43 H        0.4630     4.7760    -2.2790 H     1 <1>   0.0800 
 44 H       -2.6100     5.0130    -2.6200 H     1 <1>   0.2700 
 45 H       -5.0450     5.8420    -1.3740 H     1 <1>   0.1500 
 46 H       -2.5620     4.3550     2.6530 H     1 <1>   0.1500 
 47 H       -6.0850     5.9960     0.8630 H     1 <1>   0.1500 
 48 H       -5.8550     5.6460     3.0620 H     1 <1>   0.4500 
@<TRIPOS>BOND
  1   1   2  1   
  2   2   3  ar  
  3   2   4  ar  
  4   3   5  ar  
  5   3   6  1   
  6   4   7  ar  
  7   4  26  1   
  8   5   8  ar  
  9   5  27  1   
 10   6   9  1   
 11   6  28  1   
 12   6  29  1   
 13   7   8  ar  
 14   7  30  1   
 15   8  31  1   
 16   9  10  1   
 17   9  11  1   
 18   9  32  1   
 19  10  12  1   
 20  10  33  1   
 21  10  34  1   
 22  11  13  1   
 23  11  35  1   
 24  11  36  1   
 25  12  14  1   
 26  12  37  1   
 27  12  38  1   
 28  13  14  1   
 29  13  39  1   
 30  13  40  1   
 31  14  15  1   
 32  14  41  1   
 33  15  16  1   
 34  15  42  1   
 35  15  43  1   
 36  16  17  1   
 37  16  18  2   
 38  17  19  1   
 39  17  44  1   
 40  18  20  1   
 41  19  20  ar  
 42  19  21  ar  
 43  20  22  ar  
 44  21  23  ar  
 45  21  45  1   
 46  22  24  ar  
 47  22  46  1   
 48  23  24  ar  
 49  23  47  1   
 50  24  25  1   
 51  25  48  1   
@<TRIPOS>SUBSTRUCTURE
  1 ****  14 GROUP 4 **** **** 0

# MOE 2024.06 (io_trps.svl 2023.06)
