@<TRIPOS>MOLECULE
NONAME
50 53 1 0 0 
SMALL
USER_CHARGES


@<TRIPOS>ATOM
  1 O       -1.8730     1.0100    -2.9700 O.2   1 <1>  -0.5700 
  2 C       -2.5810     1.3020    -2.0190 C.2   1 <1>   0.5440 
  3 N       -3.7220     0.5430    -1.8170 N.am  1 <1>  -0.6600 
  4 C       -2.1900     2.4330    -1.1720 C.ar  1 <1>   0.3960 
  5 C       -4.8320     0.8940    -0.8830 C.3   1 <1>   0.1400 
  6 C       -3.8430    -0.8550    -2.3300 C.3   1 <1>   0.1400 
  7 N       -2.3770     2.4140     0.1510 N.ar  1 <1>  -0.6200 
  8 C       -1.5970     3.5410    -1.7490 C.ar  1 <1>  -0.1500 
  9 C       -4.8670    -0.1070     0.2840 C.3   1 <1>   0.1900 
 10 C       -3.9570    -1.8480    -1.1580 C.3   1 <1>   0.1100 
 11 C       -1.9820     3.4750     0.8230 C.ar  1 <1>   0.4770 
 12 C       -1.2280     4.5930    -0.9510 C.ar  1 <1>   0.1660 
 13 N       -5.0570    -1.4890    -0.2300 N.3   1 <1>  -0.8100 
 14 C       -5.9830     0.2610     1.2810 C.3   1 <1>   0.1200 
 15 N       -1.4220     4.5700     0.3450 N.ar  1 <1>  -0.6200 
 16 C       -2.1950     3.4460     2.3170 C.3   1 <1>  -0.0970 
 17 C       -0.5750     5.8320    -1.5260 C.3   1 <1>  -0.0970 
 18 C       -5.1540    -2.4360     0.9060 C.3   1 <1>   0.3330 
 19 O       -6.0260    -0.6600     2.3330 O.3   1 <1>  -0.5600 
 20 C       -5.4770    -3.8490     0.4210 C.ar  1 <1>  -0.1430 
 21 C       -6.2400    -1.9790     1.9050 C.3   1 <1>   0.1200 
 22 C       -4.7590    -4.9320     0.9060 C.ar  1 <1>  -0.1500 
 23 C       -6.4910    -4.0710    -0.5010 C.ar  1 <1>  -0.1500 
 24 C       -5.0500    -6.2160     0.4770 C.ar  1 <1>  -0.1500 
 25 C       -6.7840    -5.3540    -0.9310 C.ar  1 <1>  -0.1500 
 26 C       -6.0630    -6.4280    -0.4410 C.ar  1 <1>  -0.1500 
 27 H       -4.7240     1.8960    -0.5130 H     1 <1>   0.0800 
 28 H       -5.7650     0.8450    -1.4160 H     1 <1>   0.0800 
 29 H       -4.7200    -0.9310    -2.9480 H     1 <1>   0.0800 
 30 H       -2.9900    -1.1150    -2.9320 H     1 <1>   0.0800 
 31 H       -1.4300     3.5630    -2.8100 H     1 <1>   0.1500 
 32 H       -3.9270    -0.0390     0.8050 H     1 <1>   0.0800 
 33 H       -3.0200    -1.8670    -0.6270 H     1 <1>   0.0800 
 34 H       -4.1280    -2.8300    -1.5630 H     1 <1>   0.0800 
 35 H       -6.9420     0.2690     0.7920 H     1 <1>   0.0800 
 36 H       -5.7990     1.2320     1.7050 H     1 <1>   0.0800 
 37 H       -2.8580     4.2420     2.5990 H     1 <1>   0.0800 
 38 H       -1.2520     3.5820     2.8140 H     1 <1>   0.0800 
 39 H       -2.6200     2.5080     2.6240 H     1 <1>   0.0800 
 40 H       -0.4600     5.7500    -2.5910 H     1 <1>   0.0800 
 41 H        0.3930     5.9680    -1.0800 H     1 <1>   0.0800 
 42 H       -1.1800     6.6930    -1.3060 H     1 <1>   0.0800 
 43 H       -4.2130    -2.4520     1.4280 H     1 <1>   0.0800 
 44 H       -6.2290    -2.6130     2.7730 H     1 <1>   0.0800 
 45 H       -7.2130    -2.0380     1.4490 H     1 <1>   0.0800 
 46 H       -3.9690    -4.7840     1.6210 H     1 <1>   0.1500 
 47 H       -7.0510    -3.2370    -0.8890 H     1 <1>   0.1500 
 48 H       -4.4890    -7.0510     0.8590 H     1 <1>   0.1500 
 49 H       -7.5720    -5.5140    -1.6460 H     1 <1>   0.1500 
 50 H       -6.2900    -7.4250    -0.7740 H     1 <1>   0.1500 
@<TRIPOS>BOND
  1   1   2  2   
  2   2   3  am  
  3   2   4  1   
  4   3   5  1   
  5   3   6  1   
  6   4   7  ar  
  7   4   8  ar  
  8   5   9  1   
  9   5  27  1   
 10   5  28  1   
 11   6  10  1   
 12   6  29  1   
 13   6  30  1   
 14   7  11  ar  
 15   8  12  ar  
 16   8  31  1   
 17   9  13  1   
 18   9  14  1   
 19   9  32  1   
 20  10  13  1   
 21  10  33  1   
 22  10  34  1   
 23  11  15  ar  
 24  11  16  1   
 25  12  15  ar  
 26  12  17  1   
 27  13  18  1   
 28  14  19  1   
 29  14  35  1   
 30  14  36  1   
 31  16  37  1   
 32  16  38  1   
 33  16  39  1   
 34  17  40  1   
 35  17  41  1   
 36  17  42  1   
 37  18  20  1   
 38  18  21  1   
 39  18  43  1   
 40  19  21  1   
 41  20  22  ar  
 42  20  23  ar  
 43  21  44  1   
 44  21  45  1   
 45  22  24  ar  
 46  22  46  1   
 47  23  25  ar  
 48  23  47  1   
 49  24  26  ar  
 50  24  48  1   
 51  25  26  ar  
 52  25  49  1   
 53  26  50  1   
@<TRIPOS>SUBSTRUCTURE
  1 ****   9 GROUP 4 **** **** 0

# MOE 2024.06 (io_trps.svl 2023.06)
