@<TRIPOS>MOLECULE
NONAME
55 58 1 0 0 
SMALL
USER_CHARGES


@<TRIPOS>ATOM
  1 O       -0.3950     0.6870     0.4390 O.2   1 <1>  -0.5700 
  2 C       -1.5050     1.1570     0.3610 C.2   1 <1>   0.5690 
  3 N       -2.5720     0.3990    -0.0320 N.am  1 <1>  -0.6600 
  4 C       -1.7190     2.6240     0.7200 C.3   1 <1>  -0.0990 
  5 C       -3.9920     0.8280    -0.0900 C.3   1 <1>   0.1400 
  6 C       -2.4440    -1.0340    -0.3880 C.3   1 <1>   0.1400 
  7 C       -0.4150     3.4230     0.9110 C.3   1 <1>  -0.1600 
  8 C       -4.7710    -0.4240    -0.5020 C.3   1 <1>   0.2000 
  9 C       -3.8510    -1.6090    -0.2120 C.3   1 <1>  -0.0800 
 10 C       -0.6880     4.8950     1.2520 C.3   1 <1>   0.0200 
 11 O       -5.9460    -0.5510     0.2210 O.3   1 <1>  -0.6800 
 12 C       -4.1540    -2.8240    -1.1050 C.3   1 <1>  -0.0170 
 13 C        0.6000     5.6840     1.3940 C.2   1 <1>   0.2980 
 14 C       -3.2510    -4.0030    -0.7830 C.ar  1 <1>   0.1660 
 15 O        1.3900     5.4290     2.4030 O.3   1 <1>  -0.0190 
 16 N        0.9950     6.5980     0.6080 N.2   1 <1>  -0.5650 
 17 N       -2.0550    -4.0030    -1.3500 N.ar  1 <1>  -0.6200 
 18 C       -3.6960    -5.0100     0.0720 C.ar  1 <1>   0.1600 
 19 N        2.3780     6.2530     2.2450 N.2   1 <1>  -0.4100 
 20 C        2.1510     6.9440     1.1840 C.2   1 <1>   0.4620 
 21 C       -1.3400    -5.0610    -1.0050 C.ar  1 <1>   0.1600 
 22 N       -2.9840    -6.0700     0.4180 N.ar  1 <1>  -0.6200 
 23 C        3.0170     7.9820     0.6470 C.ar  1 <1>   0.0540 
 24 C       -1.7900    -6.0600    -0.1500 C.ar  1 <1>   0.1600 
 25 C        4.2160     8.3230     1.2760 C.ar  1 <1>  -0.1500 
 26 C        2.6940     8.6810    -0.5180 C.ar  1 <1>  -0.1500 
 27 C        5.0450     9.3090     0.7730 C.ar  1 <1>  -0.1500 
 28 C        3.5190     9.6670    -1.0260 C.ar  1 <1>  -0.1500 
 29 C        4.7020     9.9890    -0.3820 C.ar  1 <1>  -0.1440 
 30 C        5.6100    11.0700    -0.9380 C.3   1 <1>  -0.0970 
 31 H       -2.2920     3.0810    -0.0660 H     1 <1>   0.0800 
 32 H       -2.2950     2.6610     1.6260 H     1 <1>   0.0800 
 33 H       -4.3020     1.1740     0.8800 H     1 <1>   0.0800 
 34 H       -4.1160     1.6050    -0.8230 H     1 <1>   0.0800 
 35 H       -2.1190    -1.1140    -1.4110 H     1 <1>   0.0800 
 36 H       -1.7300    -1.5320     0.2480 H     1 <1>   0.0800 
 37 H        0.1660     2.9740     1.7000 H     1 <1>   0.0800 
 38 H        0.1690     3.3700     0.0070 H     1 <1>   0.0800 
 39 H       -5.0200    -0.3670    -1.5480 H     1 <1>   0.0800 
 40 H       -3.9460    -1.8930     0.8220 H     1 <1>   0.0800 
 41 H       -1.2380     4.9660     2.1720 H     1 <1>   0.0800 
 42 H       -1.2780     5.3430     0.4720 H     1 <1>   0.0800 
 43 H       -5.7530    -0.6490     1.1740 H     1 <1>   0.4000 
 44 H       -4.0280    -2.5600    -2.1410 H     1 <1>   0.0800 
 45 H       -5.1820    -3.1130    -0.9700 H     1 <1>   0.0800 
 46 H       -4.6840    -4.9360     0.4900 H     1 <1>   0.1500 
 47 H       -0.3510    -5.1410    -1.4180 H     1 <1>   0.1500 
 48 H       -1.1330    -6.8830     0.0720 H     1 <1>   0.1500 
 49 H        4.5030     7.8080     2.1760 H     1 <1>   0.1500 
 50 H        1.7800     8.4480    -1.0350 H     1 <1>   0.1500 
 51 H        5.9620     9.5440     1.2850 H     1 <1>   0.1500 
 52 H        3.2370    10.1830    -1.9260 H     1 <1>   0.1500 
 53 H        6.1530    11.5510    -0.1440 H     1 <1>   0.0800 
 54 H        5.0340    11.8170    -1.4550 H     1 <1>   0.0800 
 55 H        6.3130    10.6360    -1.6260 H     1 <1>   0.0800 
@<TRIPOS>BOND
  1   1   2  2   
  2   2   3  am  
  3   2   4  1   
  4   3   5  1   
  5   3   6  1   
  6   4   7  1   
  7   4  31  1   
  8   4  32  1   
  9   5   8  1   
 10   5  33  1   
 11   5  34  1   
 12   6   9  1   
 13   6  35  1   
 14   6  36  1   
 15   7  10  1   
 16   7  37  1   
 17   7  38  1   
 18   8   9  1   
 19   8  11  1   
 20   8  39  1   
 21   9  12  1   
 22   9  40  1   
 23  10  13  1   
 24  10  41  1   
 25  10  42  1   
 26  11  43  1   
 27  12  14  1   
 28  12  44  1   
 29  12  45  1   
 30  13  15  1   
 31  13  16  2   
 32  14  17  ar  
 33  14  18  ar  
 34  15  19  1   
 35  16  20  1   
 36  17  21  ar  
 37  18  22  ar  
 38  18  46  1   
 39  19  20  2   
 40  20  23  1   
 41  21  24  ar  
 42  21  47  1   
 43  22  24  ar  
 44  23  25  ar  
 45  23  26  ar  
 46  24  48  1   
 47  25  27  ar  
 48  25  49  1   
 49  26  28  ar  
 50  26  50  1   
 51  27  29  ar  
 52  27  51  1   
 53  28  29  ar  
 54  28  52  1   
 55  29  30  1   
 56  30  53  1   
 57  30  54  1   
 58  30  55  1   
@<TRIPOS>SUBSTRUCTURE
  1 ****   7 GROUP 4 **** **** 0

# MOE 2024.06 (io_trps.svl 2023.06)
