@<TRIPOS>MOLECULE
NONAME
47 48 1 0 0 
SMALL
USER_CHARGES


@<TRIPOS>ATOM
  1 O        1.2630    -1.0630     1.2220 O.2   1 <1>  -0.5700 
  2 C        1.6360    -0.9990     0.0730 C.2   1 <1>   0.5690 
  3 N        1.9750     0.1820    -0.5040 N.am  1 <1>  -0.7300 
  4 C        1.7080    -2.2730    -0.7700 C.3   1 <1>  -0.0190 
  5 C        1.9480     1.4940     0.1710 C.3   1 <1>   0.1400 
  6 C        0.3200    -2.9330    -0.9940 C.3   1 <1>  -0.0190 
  7 C        2.7470    -3.2560    -0.1720 C.3   1 <1>  -0.1600 
  8 C        3.2670     2.2160    -0.0990 C.3   1 <1>  -0.1600 
  9 C       -0.8130    -1.9190    -1.1570 C.2   1 <1>   0.5690 
 10 C        0.0320    -4.0030     0.0780 C.3   1 <1>  -0.1600 
 11 C        2.4360    -4.7150    -0.5260 C.3   1 <1>  -0.1600 
 12 C        3.3190     3.5710     0.6170 C.3   1 <1>  -0.0160 
 13 O       -1.2000    -1.6640    -2.2720 O.2   1 <1>  -0.5700 
 14 N       -1.3480    -1.3260    -0.0570 N.am  1 <1>  -0.7300 
 15 C        1.0670    -5.1450     0.0330 C.3   1 <1>  -0.1600 
 16 C        4.6280     4.2800     0.3130 C.ar  1 <1>  -0.1440 
 17 C       -2.4550    -0.3420    -0.0570 C.3   1 <1>   0.0600 
 18 C        5.7560     4.0530     1.0910 C.ar  1 <1>   0.1600 
 19 C        4.7210     5.1610    -0.7460 C.ar  1 <1>  -0.1500 
 20 N        6.9370     4.6200     0.9020 N.ar  1 <1>  -0.6200 
 21 C        5.9430     5.7620    -0.9570 C.ar  1 <1>  -0.1500 
 22 C        7.0020     5.4610    -0.1170 C.ar  1 <1>   0.1600 
 23 H        2.2050     0.2050    -1.4990 H     1 <1>   0.3700 
 24 H        2.0610    -1.9890    -1.7450 H     1 <1>   0.0800 
 25 H        1.1200     2.0700    -0.2080 H     1 <1>   0.0800 
 26 H        1.8120     1.3570     1.2310 H     1 <1>   0.0800 
 27 H        0.3690    -3.4580    -1.9320 H     1 <1>   0.0800 
 28 H        3.7320    -2.9930    -0.5180 H     1 <1>   0.0800 
 29 H        2.7530    -3.1710     0.9020 H     1 <1>   0.0800 
 30 H        4.0820     1.6050     0.2480 H     1 <1>   0.0800 
 31 H        3.3820     2.3730    -1.1570 H     1 <1>   0.0800 
 32 H        0.0600    -3.5410     1.0500 H     1 <1>   0.0800 
 33 H       -0.9560    -4.4080    -0.0620 H     1 <1>   0.0800 
 34 H        2.4380    -4.8240    -1.5970 H     1 <1>   0.0800 
 35 H        3.2030    -5.3610    -0.1330 H     1 <1>   0.0800 
 36 H        3.2260     3.4260     1.6800 H     1 <1>   0.0800 
 37 H        2.4950     4.1860     0.2980 H     1 <1>   0.0800 
 38 H       -0.8240    -1.4160     0.8250 H     1 <1>   0.3700 
 39 H        1.1920    -5.5290     1.0310 H     1 <1>   0.0800 
 40 H        0.6880    -5.9490    -0.5740 H     1 <1>   0.0800 
 41 H       -2.9010    -0.2820    -1.0360 H     1 <1>   0.0800 
 42 H       -2.0780     0.6280     0.2150 H     1 <1>   0.0800 
 43 H       -3.2080    -0.6430     0.6510 H     1 <1>   0.0800 
 44 H        5.6840     3.3650     1.9160 H     1 <1>   0.1500 
 45 H        3.8800     5.3740    -1.3820 H     1 <1>   0.1500 
 46 H        6.0790     6.4580    -1.7650 H     1 <1>   0.1500 
 47 H        7.9510     5.9370    -0.2930 H     1 <1>   0.1500 
@<TRIPOS>BOND
  1   1   2  2   
  2   2   3  am  
  3   2   4  1   
  4   3   5  1   
  5   3  23  1   
  6   4   6  1   
  7   4   7  1   
  8   4  24  1   
  9   5   8  1   
 10   5  25  1   
 11   5  26  1   
 12   6   9  1   
 13   6  10  1   
 14   6  27  1   
 15   7  11  1   
 16   7  28  1   
 17   7  29  1   
 18   8  12  1   
 19   8  30  1   
 20   8  31  1   
 21   9  13  2   
 22   9  14  am  
 23  10  15  1   
 24  10  32  1   
 25  10  33  1   
 26  11  15  1   
 27  11  34  1   
 28  11  35  1   
 29  12  16  1   
 30  12  36  1   
 31  12  37  1   
 32  14  17  1   
 33  14  38  1   
 34  15  39  1   
 35  15  40  1   
 36  16  18  ar  
 37  16  19  ar  
 38  17  41  1   
 39  17  42  1   
 40  17  43  1   
 41  18  20  ar  
 42  18  44  1   
 43  19  21  ar  
 44  19  45  1   
 45  20  22  ar  
 46  21  22  ar  
 47  21  46  1   
 48  22  47  1   
@<TRIPOS>SUBSTRUCTURE
  1 ****   3 GROUP 4 **** **** 0

# MOE 2024.06 (io_trps.svl 2023.06)
