@<TRIPOS>MOLECULE
NONAME
44 46 1 0 0 
SMALL
USER_CHARGES


@<TRIPOS>ATOM
  1 O       -0.3280     0.2270    -0.0770 O.2   1 <1>  -0.5700 
  2 C       -1.3580     0.8390     0.1350 C.2   1 <1>   0.5440 
  3 N       -2.5300     0.1260     0.2600 N.am  1 <1>  -0.6600 
  4 C       -1.3300     2.2860     0.2270 C.ar  1 <1>   0.0860 
  5 C       -3.8850     0.6850     0.0190 C.3   1 <1>   0.1400 
  6 C       -2.5600    -1.3570     0.1860 C.3   1 <1>   0.1400 
  7 C       -1.9990     2.9750     1.2410 C.ar  1 <1>  -0.1500 
  8 C       -0.6200     3.0460    -0.7030 C.ar  1 <1>  -0.1500 
  9 C       -4.7060    -0.4970    -0.4930 C.3   1 <1>   0.2000 
 10 C       -4.0410    -1.7320     0.1060 C.3   1 <1>  -0.0800 
 11 C       -1.9770     4.3550     1.3080 C.ar  1 <1>  -0.1500 
 12 C       -0.5920     4.4270    -0.6430 C.ar  1 <1>  -0.1500 
 13 O       -6.0280    -0.4160    -0.0860 O.3   1 <1>  -0.6800 
 14 C       -4.3060    -3.0140    -0.6960 C.3   1 <1>   0.0210 
 15 C       -1.2780     5.0940     0.3680 C.ar  1 <1>   0.0830 
 16 C       -3.5490    -4.1870    -0.1050 C.2   1 <1>   0.1080 
 17 O       -1.3070     6.4390     0.4990 O.3   1 <1>  -0.3630 
 18 N       -3.7860    -4.6490     1.0830 N.2   1 <1>  -0.7070 
 19 C       -2.5280    -4.8800    -0.7460 C.2   1 <1>  -0.1500 
 20 C       -0.6030     7.2860    -0.3810 C.3   1 <1>   0.0400 
 21 N       -2.9140    -5.6640     1.2330 N.pl3 1 <1>   0.3000 
 22 C       -2.1390    -5.8220     0.1390 C.2   1 <1>  -0.3320 
 23 C       -1.0580    -6.8780     0.0050 C.3   1 <1>  -0.0600 
 24 H       -4.2860     1.0500     0.9480 H     1 <1>   0.0800 
 25 H       -3.8520     1.4740    -0.7120 H     1 <1>   0.0800 
 26 H       -2.0320    -1.6760    -0.6960 H     1 <1>   0.0800 
 27 H       -2.0910    -1.7910     1.0540 H     1 <1>   0.0800 
 28 H       -2.5340     2.4150     1.9870 H     1 <1>   0.1500 
 29 H       -0.0820     2.5320    -1.4810 H     1 <1>   0.1500 
 30 H       -4.6810    -0.5160    -1.5690 H     1 <1>   0.0800 
 31 H       -4.3830    -1.8740     1.1170 H     1 <1>   0.0800 
 32 H       -2.4990     4.8740     2.0930 H     1 <1>   0.1500 
 33 H       -0.0320     4.9650    -1.3840 H     1 <1>   0.1500 
 34 H       -6.0960    -0.5770     0.8750 H     1 <1>   0.4000 
 35 H       -4.0120    -2.8790    -1.7210 H     1 <1>   0.0800 
 36 H       -5.3580    -3.2380    -0.6760 H     1 <1>   0.0800 
 37 H       -2.1480    -4.6850    -1.7330 H     1 <1>   0.1500 
 38 H       -0.7690     8.3020    -0.0710 H     1 <1>   0.0800 
 39 H       -0.9800     7.1430    -1.3790 H     1 <1>   0.0800 
 40 H        0.4450     7.0530    -0.3270 H     1 <1>   0.0800 
 41 H       -2.8720    -6.2260     2.0910 H     1 <1>   0.2700 
 42 H       -0.5830    -6.8000    -0.9570 H     1 <1>   0.0800 
 43 H       -1.4840    -7.8620     0.0970 H     1 <1>   0.0800 
 44 H       -0.3110    -6.7450     0.7670 H     1 <1>   0.0800 
@<TRIPOS>BOND
  1   1   2  2   
  2   2   3  am  
  3   2   4  1   
  4   3   5  1   
  5   3   6  1   
  6   4   7  ar  
  7   4   8  ar  
  8   5   9  1   
  9   5  24  1   
 10   5  25  1   
 11   6  10  1   
 12   6  26  1   
 13   6  27  1   
 14   7  11  ar  
 15   7  28  1   
 16   8  12  ar  
 17   8  29  1   
 18   9  10  1   
 19   9  13  1   
 20   9  30  1   
 21  10  14  1   
 22  10  31  1   
 23  11  15  ar  
 24  11  32  1   
 25  12  15  ar  
 26  12  33  1   
 27  13  34  1   
 28  14  16  1   
 29  14  35  1   
 30  14  36  1   
 31  15  17  1   
 32  16  18  2   
 33  16  19  1   
 34  17  20  1   
 35  18  21  1   
 36  19  22  2   
 37  19  37  1   
 38  20  38  1   
 39  20  39  1   
 40  20  40  1   
 41  21  22  1   
 42  21  41  1   
 43  22  23  1   
 44  23  42  1   
 45  23  43  1   
 46  23  44  1   
@<TRIPOS>SUBSTRUCTURE
  1 ****   3 GROUP 4 **** **** 0

# MOE 2024.06 (io_trps.svl 2023.06)
