@<TRIPOS>MOLECULE
NONAME
53 56 1 0 0 
SMALL
USER_CHARGES


@<TRIPOS>ATOM
  1 O       -2.3520     1.2300     2.4100 O.2   1 <1>  -0.5700 
  2 C       -2.6000     1.4240     1.2330 C.2   1 <1>   0.7160 
  3 N       -3.3070     0.4660     0.5350 N.am  1 <1>  -0.6600 
  4 C       -2.0900     2.5860     0.5840 C.2   1 <1>  -0.0860 
  5 C       -3.7260     0.6320    -0.8840 C.3   1 <1>   0.1400 
  6 C       -3.7580    -0.7960     1.1960 C.3   1 <1>   0.1400 
  7 C       -2.6400     3.8670     0.6000 C.2   1 <1>   0.3720 
  8 C       -1.0270     2.7040    -0.2500 C.2   1 <1>   0.0870 
  9 C       -3.1470    -0.4990    -1.7500 C.3   1 <1>  -0.1600 
 10 C       -3.9740    -1.9260     0.1750 C.3   1 <1>  -0.1600 
 11 N       -1.9720     4.6640    -0.1600 N.2   1 <1>  -0.4100 
 12 N       -3.7840     4.2360     1.3160 N.pl3 1 <1>  -0.8210 
 13 O       -1.0000     3.9460    -0.6600 O.3   1 <1>  -0.0190 
 14 C       -0.0690     1.7350    -0.7130 C.ar  1 <1>   0.0530 
 15 C       -2.9960    -1.8430    -1.0090 C.3   1 <1>   0.2800 
 16 C       -3.5680     4.3460     2.7910 C.3   1 <1>   0.2090 
 17 C       -4.4970     5.4500     0.8120 C.3   1 <1>   0.2090 
 18 C        0.4330     1.7900    -2.0130 C.ar  1 <1>  -0.1500 
 19 C        0.3750     0.7010     0.1100 C.ar  1 <1>  -0.1500 
 20 O       -1.7180    -1.8770    -0.4760 O.3   1 <1>  -0.6800 
 21 C       -3.1360    -3.0420    -1.9740 C.3   1 <1>   0.1200 
 22 C       -4.8900     4.6520     3.5180 C.3   1 <1>   0.1200 
 23 C       -5.7810     5.7070     1.6220 C.3   1 <1>   0.1200 
 24 C        1.3230     0.8400    -2.4800 C.ar  1 <1>  -0.1500 
 25 C        1.2620    -0.2540    -0.3530 C.ar  1 <1>  -0.1500 
 26 O       -2.7290    -4.2130    -1.3510 O.3   1 <1>  -0.6800 
 27 O       -5.4990     5.8000     2.9920 O.3   1 <1>  -0.5600 
 28 C        1.7350    -0.1870    -1.6510 C.ar  1 <1>  -0.1500 
 29 H       -3.4290     1.5860    -1.2820 H     1 <1>   0.0800 
 30 H       -4.8020     0.5920    -0.9190 H     1 <1>   0.0800 
 31 H       -4.6670    -0.6110     1.7420 H     1 <1>   0.0800 
 32 H       -3.0070    -1.1080     1.9030 H     1 <1>   0.0800 
 33 H       -2.1980    -0.1970    -2.1590 H     1 <1>   0.0800 
 34 H       -3.8140    -0.6250    -2.5830 H     1 <1>   0.0800 
 35 H       -4.9800    -1.8700    -0.1980 H     1 <1>   0.0800 
 36 H       -3.8800    -2.8760     0.6700 H     1 <1>   0.0800 
 37 H       -2.8600     5.1320     2.9950 H     1 <1>   0.0800 
 38 H       -3.1640     3.4290     3.1770 H     1 <1>   0.0800 
 39 H       -4.7490     5.3110    -0.2250 H     1 <1>   0.0800 
 40 H       -3.8530     6.3100     0.8880 H     1 <1>   0.0800 
 41 H        0.1180     2.5850    -2.6660 H     1 <1>   0.1500 
 42 H        0.0310     0.6410     1.1280 H     1 <1>   0.1500 
 43 H       -1.5840    -1.0500     0.0310 H     1 <1>   0.4000 
 44 H       -2.5100    -2.8930    -2.8370 H     1 <1>   0.0800 
 45 H       -4.1540    -3.1670    -2.2970 H     1 <1>   0.0800 
 46 H       -4.7060     4.8280     4.5620 H     1 <1>   0.0800 
 47 H       -5.5700     3.8240     3.4190 H     1 <1>   0.0800 
 48 H       -6.4860     4.9090     1.4690 H     1 <1>   0.0800 
 49 H       -6.2320     6.6340     1.3170 H     1 <1>   0.0800 
 50 H        1.6950     0.8980    -3.4880 H     1 <1>   0.1500 
 51 H        1.5850    -1.0500     0.2960 H     1 <1>   0.1500 
 52 H       -1.9280    -3.9880    -0.8260 H     1 <1>   0.4000 
 53 H        2.4240    -0.9310    -2.0120 H     1 <1>   0.1500 
@<TRIPOS>BOND
  1   1   2  2   
  2   2   3  am  
  3   2   4  1   
  4   3   5  1   
  5   3   6  1   
  6   4   7  1   
  7   4   8  2   
  8   5   9  1   
  9   5  29  1   
 10   5  30  1   
 11   6  10  1   
 12   6  31  1   
 13   6  32  1   
 14   7  11  2   
 15   7  12  1   
 16   8  13  1   
 17   8  14  1   
 18   9  15  1   
 19   9  33  1   
 20   9  34  1   
 21  10  15  1   
 22  10  35  1   
 23  10  36  1   
 24  11  13  1   
 25  12  16  1   
 26  12  17  1   
 27  14  18  ar  
 28  14  19  ar  
 29  15  20  1   
 30  15  21  1   
 31  16  22  1   
 32  16  37  1   
 33  16  38  1   
 34  17  23  1   
 35  17  39  1   
 36  17  40  1   
 37  18  24  ar  
 38  18  41  1   
 39  19  25  ar  
 40  19  42  1   
 41  20  43  1   
 42  21  26  1   
 43  21  44  1   
 44  21  45  1   
 45  22  27  1   
 46  22  46  1   
 47  22  47  1   
 48  23  27  1   
 49  23  48  1   
 50  23  49  1   
 51  24  28  ar  
 52  24  50  1   
 53  25  28  ar  
 54  25  51  1   
 55  26  52  1   
 56  28  53  1   
@<TRIPOS>SUBSTRUCTURE
  1 ****   2 GROUP 4 **** **** 0

# MOE 2024.06 (io_trps.svl 2023.06)
