@<TRIPOS>MOLECULE
NONAME
43 44 1 0 0 
SMALL
USER_CHARGES


@<TRIPOS>ATOM
  1 O       -0.9290     0.6130     0.3990 O.2   1 <1>  -0.5700 
  2 C       -0.7800     1.8130     0.4130 C.2   1 <1>   0.5690 
  3 N       -1.8020     2.6730     0.7120 N.am  1 <1>  -0.6600 
  4 C        0.5980     2.3690     0.0490 C.3   1 <1>   0.1810 
  5 C       -1.5940     4.1590     0.6950 C.3   1 <1>   0.3640 
  6 C       -3.1240     2.2030     1.2180 C.3   1 <1>   0.0600 
  7 O        0.8110     3.6790     0.5150 O.3   1 <1>  -0.5600 
  8 C       -2.7090     4.8740    -0.0890 C.ar  1 <1>  -0.1430 
  9 C       -0.2060     4.5970     0.1560 C.3   1 <1>   0.2610 
 10 C       -3.1440     4.5200    -1.3710 C.ar  1 <1>  -0.1430 
 11 C       -3.3050     5.9600     0.5420 C.ar  1 <1>  -0.1500 
 12 C        0.1560     6.0240     0.6110 C.2   1 <1>   0.5690 
 13 C       -4.1560     5.2540    -1.9740 C.ar  1 <1>  -0.1500 
 14 C       -2.5800     3.3470    -2.1680 C.3   1 <1>  -0.0960 
 15 C       -4.3100     6.6840    -0.0690 C.ar  1 <1>  -0.1500 
 16 O       -0.3150     6.4450     1.6470 O.2   1 <1>  -0.5700 
 17 N        0.9900     6.8120    -0.1550 N.am  1 <1>  -0.6600 
 18 C       -4.7380     6.3300    -1.3310 C.ar  1 <1>  -0.1500 
 19 C        1.2240     8.2370     0.1970 C.3   1 <1>   0.1400 
 20 C        1.7360     6.3240    -1.3480 C.3   1 <1>   0.0600 
 21 C        2.4810     8.3530     1.0560 C.3   1 <1>  -0.2400 
 22 H        0.7170     2.3630    -1.0180 H     1 <1>   0.0800 
 23 H        1.3550     1.7440     0.4850 H     1 <1>   0.0800 
 24 H       -1.6530     4.4700     1.7230 H     1 <1>   0.0800 
 25 H       -3.3100     2.6200     2.1930 H     1 <1>   0.0800 
 26 H       -3.1430     1.1290     1.2950 H     1 <1>   0.0800 
 27 H       -3.9070     2.5130     0.5490 H     1 <1>   0.0800 
 28 H       -0.2550     4.6120    -0.9140 H     1 <1>   0.0800 
 29 H       -2.9840     6.2610     1.5260 H     1 <1>   0.1500 
 30 H       -4.5060     4.9910    -2.9570 H     1 <1>   0.1500 
 31 H       -2.8540     3.4210    -3.2050 H     1 <1>   0.0800 
 32 H       -2.9750     2.4230    -1.7860 H     1 <1>   0.0800 
 33 H       -1.5110     3.3140    -2.1190 H     1 <1>   0.0800 
 34 H       -4.7560     7.5220     0.4380 H     1 <1>   0.1500 
 35 H       -5.5210     6.8890    -1.8130 H     1 <1>   0.1500 
 36 H        1.3280     8.8210    -0.7010 H     1 <1>   0.0800 
 37 H        0.3780     8.6220     0.7440 H     1 <1>   0.0800 
 38 H        2.6570     6.8690    -1.4590 H     1 <1>   0.0800 
 39 H        1.1380     6.4660    -2.2320 H     1 <1>   0.0800 
 40 H        1.9780     5.2810    -1.2430 H     1 <1>   0.0800 
 41 H        3.3440     8.0020     0.5210 H     1 <1>   0.0800 
 42 H        2.3610     7.7780     1.9570 H     1 <1>   0.0800 
 43 H        2.6400     9.3810     1.3270 H     1 <1>   0.0800 
@<TRIPOS>BOND
  1   1   2  2   
  2   2   3  am  
  3   2   4  1   
  4   3   5  1   
  5   3   6  1   
  6   4   7  1   
  7   4  22  1   
  8   4  23  1   
  9   5   8  1   
 10   5   9  1   
 11   5  24  1   
 12   6  25  1   
 13   6  26  1   
 14   6  27  1   
 15   7   9  1   
 16   8  10  ar  
 17   8  11  ar  
 18   9  12  1   
 19   9  28  1   
 20  10  13  ar  
 21  10  14  1   
 22  11  15  ar  
 23  11  29  1   
 24  12  16  2   
 25  12  17  am  
 26  13  18  ar  
 27  13  30  1   
 28  14  31  1   
 29  14  32  1   
 30  14  33  1   
 31  15  18  ar  
 32  15  34  1   
 33  17  19  1   
 34  17  20  1   
 35  18  35  1   
 36  19  21  1   
 37  19  36  1   
 38  19  37  1   
 39  20  38  1   
 40  20  39  1   
 41  20  40  1   
 42  21  41  1   
 43  21  42  1   
 44  21  43  1   
@<TRIPOS>SUBSTRUCTURE
  1 ****   5 GROUP 4 **** **** 0

# MOE 2024.06 (io_trps.svl 2023.06)
