@<TRIPOS>MOLECULE
NONAME
59 61 1 0 0 
SMALL
USER_CHARGES


@<TRIPOS>ATOM
  1 O       -3.4270     1.9700     1.8960 O.2   1 <1>  -0.5700 
  2 C       -3.1060     1.6620     0.7750 C.2   1 <1>   0.5690 
  3 N       -3.4930     0.4860     0.2130 N.am  1 <1>  -0.6600 
  4 C       -2.2830     2.6500    -0.0300 C.3   1 <1>  -0.0990 
  5 C       -2.6230    -0.7230     0.4460 C.3   1 <1>   0.3640 
  6 C       -4.9530     0.2030     0.2690 C.3   1 <1>   0.1400 
  7 C       -0.9340     2.9460     0.6450 C.3   1 <1>  -0.1600 
  8 C       -1.2440    -0.4840    -0.1890 C.ar  1 <1>  -0.1440 
  9 C       -3.2210    -2.0660    -0.0910 C.3   1 <1>   0.2000 
 10 C       -5.3050    -1.0520    -0.5260 C.3   1 <1>   0.1200 
 11 C       -0.0130     3.7240    -0.2910 C.3   1 <1>   0.3430 
 12 C       -0.0910    -0.6340     0.5700 C.ar  1 <1>  -0.1500 
 13 C       -1.1210    -0.1490    -1.5310 C.ar  1 <1>  -0.1500 
 14 O       -4.6200    -2.1330     0.0160 O.3   1 <1>  -0.5600 
 15 C       -2.7060    -3.3060     0.6630 C.3   1 <1>   0.1200 
 16 N        1.2890     3.9980     0.3750 N.4   1 <1>  -0.9590 
 17 C        1.1580    -0.4590     0.0000 C.ar  1 <1>  -0.1500 
 18 C        0.1270     0.0370    -2.1010 C.ar  1 <1>  -0.1500 
 19 O       -1.3200    -3.4080     0.6400 O.3   1 <1>  -0.6800 
 20 C        1.9720     5.1400    -0.2950 C.3   1 <1>   0.3430 
 21 C        2.1160     2.7560     0.4360 C.3   1 <1>   0.3430 
 22 C        1.2680    -0.1200    -1.3370 C.ar  1 <1>  -0.1500 
 23 C        2.8790     5.8630     0.7010 C.3   1 <1>  -0.1600 
 24 C        3.3780     2.9280     1.2830 C.3   1 <1>  -0.1600 
 25 C        4.3020     5.2930     0.8210 C.3   1 <1>  -0.1600 
 26 C        4.4550     3.7820     0.5980 C.3   1 <1>  -0.1600 
 27 H       -2.1360     2.2580    -1.0180 H     1 <1>   0.0800 
 28 H       -2.8520     3.5570    -0.1200 H     1 <1>   0.0800 
 29 H       -2.4990    -0.8280     1.5100 H     1 <1>   0.0800 
 30 H       -5.2560     0.0710     1.2950 H     1 <1>   0.0800 
 31 H       -5.4940     1.0430    -0.1300 H     1 <1>   0.0800 
 32 H       -0.4840     2.0110     0.9170 H     1 <1>   0.0800 
 33 H       -1.1160     3.5090     1.5440 H     1 <1>   0.0800 
 34 H       -2.9860    -2.1730    -1.1340 H     1 <1>   0.0800 
 35 H       -5.0430    -0.9460    -1.5650 H     1 <1>   0.0800 
 36 H       -6.3580    -1.2590    -0.4470 H     1 <1>   0.0800 
 37 H       -0.4930     4.6550    -0.5490 H     1 <1>   0.0800 
 38 H        0.1470     3.1630    -1.1980 H     1 <1>   0.0800 
 39 H       -0.1640    -0.9130     1.6090 H     1 <1>   0.1500 
 40 H       -2.0030    -0.0380    -2.1390 H     1 <1>   0.1500 
 41 H       -3.1110    -4.2010     0.2220 H     1 <1>   0.0800 
 42 H       -3.0070    -3.2560     1.6960 H     1 <1>   0.0800 
 43 H        1.0890     4.2850     1.3420 H     1 <1>   0.4500 
 44 H        2.0420    -0.6070     0.5970 H     1 <1>   0.1500 
 45 H        0.2070     0.2890    -3.1460 H     1 <1>   0.1500 
 46 H       -0.9870    -3.5110    -0.2740 H     1 <1>   0.4000 
 47 H        2.5360     4.8060    -1.1500 H     1 <1>   0.0800 
 48 H        1.2290     5.8430    -0.6370 H     1 <1>   0.0800 
 49 H        1.5320     1.9620     0.8710 H     1 <1>   0.0800 
 50 H        2.3890     2.4490    -0.5600 H     1 <1>   0.0800 
 51 H        2.2390     0.0000    -1.7870 H     1 <1>   0.1500 
 52 H        2.9700     6.8870     0.3850 H     1 <1>   0.0800 
 53 H        2.4100     5.8840     1.6700 H     1 <1>   0.0800 
 54 H        3.1400     3.3100     2.2610 H     1 <1>   0.0800 
 55 H        3.7910     1.9450     1.4250 H     1 <1>   0.0800 
 56 H        4.9390     5.7940     0.1110 H     1 <1>   0.0800 
 57 H        4.6820     5.5410     1.7990 H     1 <1>   0.0800 
 58 H        5.4190     3.4930     0.9840 H     1 <1>   0.0800 
 59 H        4.4710     3.5680    -0.4580 H     1 <1>   0.0800 
@<TRIPOS>BOND
  1   1   2  2   
  2   2   3  am  
  3   2   4  1   
  4   3   5  1   
  5   3   6  1   
  6   4   7  1   
  7   4  27  1   
  8   4  28  1   
  9   5   8  1   
 10   5   9  1   
 11   5  29  1   
 12   6  10  1   
 13   6  30  1   
 14   6  31  1   
 15   7  11  1   
 16   7  32  1   
 17   7  33  1   
 18   8  12  ar  
 19   8  13  ar  
 20   9  14  1   
 21   9  15  1   
 22   9  34  1   
 23  10  14  1   
 24  10  35  1   
 25  10  36  1   
 26  11  16  1   
 27  11  37  1   
 28  11  38  1   
 29  12  17  ar  
 30  12  39  1   
 31  13  18  ar  
 32  13  40  1   
 33  15  19  1   
 34  15  41  1   
 35  15  42  1   
 36  16  20  1   
 37  16  21  1   
 38  16  43  1   
 39  17  22  ar  
 40  17  44  1   
 41  18  22  ar  
 42  18  45  1   
 43  19  46  1   
 44  20  23  1   
 45  20  47  1   
 46  20  48  1   
 47  21  24  1   
 48  21  49  1   
 49  21  50  1   
 50  22  51  1   
 51  23  25  1   
 52  23  52  1   
 53  23  53  1   
 54  24  26  1   
 55  24  54  1   
 56  24  55  1   
 57  25  26  1   
 58  25  56  1   
 59  25  57  1   
 60  26  58  1   
 61  26  59  1   
@<TRIPOS>SUBSTRUCTURE
  1 ****   8 GROUP 4 **** **** 0

# MOE 2024.06 (io_trps.svl 2023.06)
