@<TRIPOS>MOLECULE
NONAME
40 41 1 0 0 
SMALL
USER_CHARGES


@<TRIPOS>ATOM
  1 F        0.0560     2.5700     0.4380 F     1 <1>  -0.3400 
  2 C        0.6350     2.7120     1.6310 C.3   1 <1>   0.9600 
  3 F        0.6290     4.0230     1.8560 F     1 <1>  -0.3400 
  4 O        2.0090     2.3320     1.5400 O.3   1 <1>  -0.3630 
  5 C       -0.1970     1.9920     2.7320 C.3   1 <1>   0.6000 
  6 C        2.4160     1.4300     0.6210 C.ar  1 <1>   0.0830 
  7 F        0.4150     2.0080     3.9190 F     1 <1>  -0.3400 
  8 F       -0.3840     0.6940     2.4770 F     1 <1>  -0.3400 
  9 C        3.0180     1.8670    -0.5650 C.ar  1 <1>   0.0860 
 10 C        2.2750     0.0760     0.8910 C.ar  1 <1>  -0.1500 
 11 C        3.2310     3.2680    -0.8470 C.2   1 <1>   0.5440 
 12 C        3.4370     0.8980    -1.4760 C.ar  1 <1>  -0.1500 
 13 C        2.7010    -0.8630    -0.0280 C.ar  1 <1>  -0.1500 
 14 O        2.2780     3.9780    -1.1090 O.2   1 <1>  -0.5700 
 15 N        4.5020     3.8120    -0.8080 N.am  1 <1>  -0.6600 
 16 C        3.2800    -0.4510    -1.2160 C.ar  1 <1>  -0.1500 
 17 C        4.8420     5.1540    -1.3720 C.3   1 <1>   0.2200 
 18 C        5.4790     3.3230     0.2020 C.3   1 <1>   0.1400 
 19 C        4.3640     6.2730    -0.4280 C.3   1 <1>   0.1400 
 20 C        4.3280     5.3180    -2.8070 C.3   1 <1>  -0.2400 
 21 C        5.2300     4.0160     1.5430 C.3   1 <1>  -0.0990 
 22 N        5.2560     6.4060     0.7590 N.am  1 <1>  -0.7300 
 23 C        5.7390     5.4420     1.5770 C.2   1 <1>   0.5690 
 24 O        6.6050     5.7220     2.3660 O.2   1 <1>  -0.5700 
 25 H       -1.1640     2.4410     2.8540 H     1 <1>   0.0800 
 26 H        1.8420    -0.2510     1.8190 H     1 <1>   0.1500 
 27 H        3.8920     1.2160    -2.3980 H     1 <1>   0.1500 
 28 H        2.5850    -1.9140     0.1780 H     1 <1>   0.1500 
 29 H        3.6090    -1.1820    -1.9350 H     1 <1>   0.1500 
 30 H        5.9140     5.2270    -1.4380 H     1 <1>   0.0800 
 31 H        6.4860     3.5100    -0.1320 H     1 <1>   0.0800 
 32 H        5.3740     2.2590     0.3290 H     1 <1>   0.0800 
 33 H        3.3510     6.0890    -0.1120 H     1 <1>   0.0800 
 34 H        4.3780     7.2060    -0.9620 H     1 <1>   0.0800 
 35 H        3.2600     5.4350    -2.8330 H     1 <1>   0.0800 
 36 H        4.6070     4.4660    -3.3990 H     1 <1>   0.0800 
 37 H        4.7640     6.1950    -3.2490 H     1 <1>   0.0800 
 38 H        5.7440     3.4660     2.3090 H     1 <1>   0.0800 
 39 H        4.1840     4.0060     1.7860 H     1 <1>   0.0800 
 40 H        5.6350     7.3400     0.9290 H     1 <1>   0.3700 
@<TRIPOS>BOND
  1   1   2  1   
  2   2   3  1   
  3   2   4  1   
  4   2   5  1   
  5   4   6  1   
  6   5   7  1   
  7   5   8  1   
  8   5  25  1   
  9   6   9  ar  
 10   6  10  ar  
 11   9  11  1   
 12   9  12  ar  
 13  10  13  ar  
 14  10  26  1   
 15  11  14  2   
 16  11  15  am  
 17  12  16  ar  
 18  12  27  1   
 19  13  16  ar  
 20  13  28  1   
 21  15  17  1   
 22  15  18  1   
 23  16  29  1   
 24  17  19  1   
 25  17  20  1   
 26  17  30  1   
 27  18  21  1   
 28  18  31  1   
 29  18  32  1   
 30  19  22  1   
 31  19  33  1   
 32  19  34  1   
 33  20  35  1   
 34  20  36  1   
 35  20  37  1   
 36  21  23  1   
 37  21  38  1   
 38  21  39  1   
 39  22  23  am  
 40  22  40  1   
 41  23  24  2   
@<TRIPOS>SUBSTRUCTURE
  1 ****  11 GROUP 4 **** **** 0

# MOE 2024.06 (io_trps.svl 2023.06)
