@<TRIPOS>MOLECULE
NONAME
49 52 1 0 0 
SMALL
USER_CHARGES


@<TRIPOS>ATOM
  1 S       -0.0040    -0.1230    -1.2930 S.o2  1 <1>   1.5000 
  2 O       -0.1700     0.5820    -2.5480 O.2   1 <1>  -0.6500 
  3 O        0.3460    -1.5260    -1.3230 O.2   1 <1>  -0.6500 
  4 N       -1.4500     0.0750    -0.4200 N.am  1 <1>  -0.8490 
  5 C        1.1840     0.8040    -0.2910 C.2   1 <1>  -0.0220 
  6 C       -2.6850    -0.0390    -1.2010 C.3   1 <1>   0.1960 
  7 C       -1.5370    -0.6100     0.8780 C.3   1 <1>   0.1960 
  8 S        2.3260    -0.0970     0.7050 S.3   1 <1>  -0.0800 
  9 C        1.3830     2.1270    -0.1060 C.2   1 <1>  -0.1500 
 10 C       -3.0810    -1.5010    -1.4210 C.3   1 <1>  -0.1600 
 11 C       -1.9590    -2.0800     0.7520 C.3   1 <1>  -0.1600 
 12 C        3.0400     1.3760     1.3320 C.2   1 <1>  -0.1100 
 13 C        2.4340     2.4560     0.8090 C.2   1 <1>  -0.1810 
 14 C       -3.2370    -2.2480    -0.0840 C.3   1 <1>   0.4240 
 15 C        2.7740     3.9020     1.1110 C.3   1 <1>  -0.0590 
 16 O       -4.2140    -1.5520     0.6610 O.3   1 <1>  -0.5600 
 17 C       -3.6150    -3.7480    -0.2590 C.ar  1 <1>  -0.1430 
 18 C       -5.5490    -1.8700     0.4370 C.3   1 <1>   0.1200 
 19 C       -2.7740    -4.6530    -0.9180 C.ar  1 <1>   0.0820 
 20 C       -4.8210    -4.2280     0.2490 C.ar  1 <1>  -0.1430 
 21 C       -5.7870    -3.2860     0.9380 C.3   1 <1>  -0.0170 
 22 O       -1.6120    -4.1970    -1.4470 O.3   1 <1>  -0.3630 
 23 C       -3.1320    -5.9940    -1.0340 C.ar  1 <1>  -0.1500 
 24 C       -5.1680    -5.5640     0.1310 C.ar  1 <1>  -0.1500 
 25 C       -0.5640    -5.0450    -1.8560 C.3   1 <1>   0.0400 
 26 C       -4.3230    -6.4490    -0.5070 C.ar  1 <1>  -0.1500 
 27 H       -2.5750     0.4580    -2.1500 H     1 <1>   0.0800 
 28 H       -3.4740     0.4650    -0.6690 H     1 <1>   0.0800 
 29 H       -2.2670    -0.0960     1.4800 H     1 <1>   0.0800 
 30 H       -0.5950    -0.5460     1.3950 H     1 <1>   0.0800 
 31 H        0.8110     2.8980    -0.5930 H     1 <1>   0.1500 
 32 H       -2.3280    -1.9620    -2.0290 H     1 <1>   0.0800 
 33 H       -3.9970    -1.5540    -1.9760 H     1 <1>   0.0800 
 34 H       -2.1320    -2.4880     1.7300 H     1 <1>   0.0800 
 35 H       -1.1470    -2.6360     0.3320 H     1 <1>   0.0800 
 36 H        3.8490     1.2730     2.0340 H     1 <1>   0.1500 
 37 H        3.0670     4.4070     0.2070 H     1 <1>   0.0800 
 38 H        3.5850     3.9580     1.8150 H     1 <1>   0.0800 
 39 H        1.9190     4.4020     1.5280 H     1 <1>   0.0800 
 40 H       -5.7670    -1.7840    -0.6130 H     1 <1>   0.0800 
 41 H       -6.1530    -1.1680     0.9850 H     1 <1>   0.0800 
 42 H       -6.8010    -3.5690     0.7260 H     1 <1>   0.0800 
 43 H       -5.6360    -3.3230     2.0020 H     1 <1>   0.0800 
 44 H       -2.4970    -6.6980    -1.5360 H     1 <1>   0.1500 
 45 H       -6.0990    -5.9220     0.5360 H     1 <1>   0.1500 
 46 H        0.2820    -4.4260    -2.0990 H     1 <1>   0.0800 
 47 H       -0.8770    -5.5940    -2.7250 H     1 <1>   0.0800 
 48 H       -0.3120    -5.7050    -1.0450 H     1 <1>   0.0800 
 49 H       -4.5950    -7.4860    -0.5970 H     1 <1>   0.1500 
@<TRIPOS>BOND
  1   1   2  2   
  2   1   3  2   
  3   1   4  am  
  4   1   5  1   
  5   4   6  1   
  6   4   7  1   
  7   5   8  1   
  8   5   9  2   
  9   6  10  1   
 10   6  27  1   
 11   6  28  1   
 12   7  11  1   
 13   7  29  1   
 14   7  30  1   
 15   8  12  1   
 16   9  13  1   
 17   9  31  1   
 18  10  14  1   
 19  10  32  1   
 20  10  33  1   
 21  11  14  1   
 22  11  34  1   
 23  11  35  1   
 24  12  13  2   
 25  12  36  1   
 26  13  15  1   
 27  14  16  1   
 28  14  17  1   
 29  15  37  1   
 30  15  38  1   
 31  15  39  1   
 32  16  18  1   
 33  17  19  ar  
 34  17  20  ar  
 35  18  21  1   
 36  18  40  1   
 37  18  41  1   
 38  19  22  1   
 39  19  23  ar  
 40  20  21  1   
 41  20  24  ar  
 42  21  42  1   
 43  21  43  1   
 44  22  25  1   
 45  23  26  ar  
 46  23  44  1   
 47  24  26  ar  
 48  24  45  1   
 49  25  46  1   
 50  25  47  1   
 51  25  48  1   
 52  26  49  1   
@<TRIPOS>SUBSTRUCTURE
  1 ****  11 GROUP 4 **** **** 0

# MOE 2024.06 (io_trps.svl 2023.06)
