@<TRIPOS>MOLECULE
NONAME
52 53 1 0 0 
SMALL
USER_CHARGES


@<TRIPOS>ATOM
  1 O       -0.9950    -0.4590     1.0200 O.2   1 <1>  -0.5700 
  2 C       -1.4770     0.3070     0.2170 C.2   1 <1>   0.5690 
  3 N       -2.1420    -0.1690    -0.8960 N.am  1 <1>  -0.6600 
  4 C       -1.2980     1.7980     0.5410 C.3   1 <1>  -0.0190 
  5 C       -2.2880    -1.6430    -1.0750 C.3   1 <1>   0.1400 
  6 C       -2.6060     0.6460    -2.0560 C.3   1 <1>   0.1400 
  7 C       -2.6240     2.5760     0.6830 C.3   1 <1>  -0.1600 
  8 C       -0.2650     2.5070    -0.3710 C.3   1 <1>  -0.1600 
  9 C       -3.4440    -2.1720    -0.2190 C.3   1 <1>  -0.1600 
 10 C       -4.1310     0.6430    -2.1470 C.3   1 <1>  -0.2400 
 11 C       -2.4050     4.0050     1.2210 C.3   1 <1>   0.2000 
 12 C       -0.5100     4.0220    -0.5040 C.3   1 <1>  -0.1600 
 13 C       -3.5890    -3.6910    -0.3550 C.3   1 <1>  -0.0170 
 14 O       -3.4400     4.8170     0.7200 O.3   1 <1>  -0.5600 
 15 C       -1.0330     4.6080     0.8100 C.3   1 <1>   0.2000 
 16 C       -4.7690    -4.1840     0.4660 C.ar  1 <1>  -0.1440 
 17 C       -4.6470     4.7330     1.4140 C.3   1 <1>   0.0400 
 18 O       -1.1660     5.9710     0.6440 O.3   1 <1>  -0.6800 
 19 C       -4.6240    -4.4050     1.8270 C.ar  1 <1>  -0.1500 
 20 C       -5.9980    -4.4130    -0.1330 C.ar  1 <1>  -0.1500 
 21 C       -5.6960    -4.8510     2.5810 C.ar  1 <1>  -0.1500 
 22 C       -7.0710    -4.8590     0.6200 C.ar  1 <1>  -0.1500 
 23 C       -6.9200    -5.0790     1.9780 C.ar  1 <1>  -0.1500 
 24 H       -0.8660     1.8160     1.5280 H     1 <1>   0.0800 
 25 H       -2.4620    -1.8750    -2.1120 H     1 <1>   0.0800 
 26 H       -1.3720    -2.1280    -0.7810 H     1 <1>   0.0800 
 27 H       -2.2650     1.6590    -1.9750 H     1 <1>   0.0800 
 28 H       -2.1870     0.2440    -2.9630 H     1 <1>   0.0800 
 29 H       -3.2750     2.0400     1.3510 H     1 <1>   0.0800 
 30 H       -3.1070     2.6460    -0.2710 H     1 <1>   0.0800 
 31 H        0.7130     2.3460     0.0510 H     1 <1>   0.0800 
 32 H       -0.2460     2.0700    -1.3520 H     1 <1>   0.0800 
 33 H       -3.2590    -1.9330     0.8130 H     1 <1>   0.0800 
 34 H       -4.3650    -1.7040    -0.5140 H     1 <1>   0.0800 
 35 H       -4.5650     0.9350    -1.2080 H     1 <1>   0.0800 
 36 H       -4.4920    -0.3310    -2.4220 H     1 <1>   0.0800 
 37 H       -4.4470     1.3400    -2.9020 H     1 <1>   0.0800 
 38 H       -2.4520     4.0060     2.2970 H     1 <1>   0.0800 
 39 H       -1.2380     4.1990    -1.2760 H     1 <1>   0.0800 
 40 H        0.4070     4.5110    -0.7830 H     1 <1>   0.0800 
 41 H       -2.6900    -4.1740    -0.0140 H     1 <1>   0.0800 
 42 H       -3.7330    -3.9550    -1.3880 H     1 <1>   0.0800 
 43 H       -0.3070     4.4400     1.5860 H     1 <1>   0.0800 
 44 H       -5.3470     5.4040     0.9470 H     1 <1>   0.0800 
 45 H       -4.4910     5.0310     2.4370 H     1 <1>   0.0800 
 46 H       -5.0240     3.7270     1.3640 H     1 <1>   0.0800 
 47 H       -2.1130     6.1170     0.4140 H     1 <1>   0.4000 
 48 H       -3.6760    -4.2280     2.3040 H     1 <1>   0.1500 
 49 H       -6.1260    -4.2440    -1.1870 H     1 <1>   0.1500 
 50 H       -5.5760    -5.0190     3.6370 H     1 <1>   0.1500 
 51 H       -8.0220    -5.0350     0.1490 H     1 <1>   0.1500 
 52 H       -7.7530    -5.4250     2.5640 H     1 <1>   0.1500 
@<TRIPOS>BOND
  1   1   2  2   
  2   2   3  am  
  3   2   4  1   
  4   3   5  1   
  5   3   6  1   
  6   4   7  1   
  7   4   8  1   
  8   4  24  1   
  9   5   9  1   
 10   5  25  1   
 11   5  26  1   
 12   6  10  1   
 13   6  27  1   
 14   6  28  1   
 15   7  11  1   
 16   7  29  1   
 17   7  30  1   
 18   8  12  1   
 19   8  31  1   
 20   8  32  1   
 21   9  13  1   
 22   9  33  1   
 23   9  34  1   
 24  10  35  1   
 25  10  36  1   
 26  10  37  1   
 27  11  14  1   
 28  11  15  1   
 29  11  38  1   
 30  12  15  1   
 31  12  39  1   
 32  12  40  1   
 33  13  16  1   
 34  13  41  1   
 35  13  42  1   
 36  14  17  1   
 37  15  18  1   
 38  15  43  1   
 39  16  19  ar  
 40  16  20  ar  
 41  17  44  1   
 42  17  45  1   
 43  17  46  1   
 44  18  47  1   
 45  19  21  ar  
 46  19  48  1   
 47  20  22  ar  
 48  20  49  1   
 49  21  23  ar  
 50  21  50  1   
 51  22  23  ar  
 52  22  51  1   
 53  23  52  1   
@<TRIPOS>SUBSTRUCTURE
  1 ****   3 GROUP 4 **** **** 0

# MOE 2024.06 (io_trps.svl 2023.06)
