@<TRIPOS>MOLECULE
NONAME
35 36 1 0 0 
SMALL
USER_CHARGES


@<TRIPOS>ATOM
  1 S        0.2520    -0.2540     0.7380 S.3   1 <1>  -0.0800 
  2 C       -0.2680    -1.7290    -0.0830 C.2   1 <1>   0.4620 
  3 C        1.8980    -0.5850     0.2790 C.2   1 <1>  -0.1100 
  4 N        0.7080    -2.3660    -0.6280 N.2   1 <1>  -0.5650 
  5 N       -1.6040    -2.0800    -0.0980 N.pl3 1 <1>  -0.8220 
  6 C        1.9140    -1.7260    -0.4230 C.2   1 <1>   0.0770 
  7 C       -2.0490    -3.3040    -0.8480 C.3   1 <1>   0.2090 
  8 C       -2.7010    -1.2340     0.4560 C.3   1 <1>   0.2090 
  9 C       -3.1120    -4.1060    -0.0760 C.3   1 <1>   0.2000 
 10 C       -3.6990    -2.0920     1.2380 C.3   1 <1>  -0.1600 
 11 O       -3.5640    -5.1460    -0.8750 O.3   1 <1>  -0.6800 
 12 C       -4.3120    -3.2530     0.4070 C.3   1 <1>  -0.1060 
 13 C       -5.1920    -4.1570     1.2950 C.2   1 <1>   0.9060 
 14 C       -5.1550    -2.7160    -0.7960 C.3   1 <1>  -0.1600 
 15 O       -5.5790    -3.7540     2.3980 O.co2 1 <1>  -0.9000 
 16 O       -5.5010    -5.2850     0.8760 O.co2 1 <1>  -0.9000 
 17 C       -6.3370    -1.8130    -0.4030 C.3   1 <1>  -0.1600 
 18 C       -7.1710    -1.4370    -1.6310 C.3   1 <1>  -0.2400 
 19 H        2.6610     0.1070     0.5840 H     1 <1>   0.1500 
 20 H        2.7950    -2.1840    -0.8400 H     1 <1>   0.1500 
 21 H       -2.4490    -3.0000    -1.7970 H     1 <1>   0.0800 
 22 H       -1.2090    -3.9510    -1.0290 H     1 <1>   0.0800 
 23 H       -2.3140    -0.4830     1.1190 H     1 <1>   0.0800 
 24 H       -3.2010    -0.7310    -0.3540 H     1 <1>   0.0800 
 25 H       -2.6390    -4.5570     0.7800 H     1 <1>   0.0800 
 26 H       -3.1890    -2.5050     2.0910 H     1 <1>   0.0800 
 27 H       -4.4790    -1.4670     1.6320 H     1 <1>   0.0800 
 28 H       -4.3680    -5.5040    -0.3920 H     1 <1>   0.4000 
 29 H       -4.5280    -2.1840    -1.4860 H     1 <1>   0.0800 
 30 H       -5.5540    -3.5640    -1.3270 H     1 <1>   0.0800 
 31 H       -6.9650    -2.3290     0.3050 H     1 <1>   0.0800 
 32 H       -5.9820    -0.9130     0.0620 H     1 <1>   0.0800 
 33 H       -7.5670    -2.3240    -2.0950 H     1 <1>   0.0800 
 34 H       -6.5680    -0.9080    -2.3470 H     1 <1>   0.0800 
 35 H       -7.9930    -0.8090    -1.3380 H     1 <1>   0.0800 
@<TRIPOS>BOND
  1   1   2  1   
  2   1   3  1   
  3   2   4  2   
  4   2   5  1   
  5   3   6  2   
  6   3  19  1   
  7   4   6  1   
  8   5   7  1   
  9   5   8  1   
 10   6  20  1   
 11   7   9  1   
 12   7  21  1   
 13   7  22  1   
 14   8  10  1   
 15   8  23  1   
 16   8  24  1   
 17   9  11  1   
 18   9  12  1   
 19   9  25  1   
 20  10  12  1   
 21  10  26  1   
 22  10  27  1   
 23  11  28  1   
 24  12  13  1   
 25  12  14  1   
 26  13  15  ar  
 27  13  16  ar  
 28  14  17  1   
 29  14  29  1   
 30  14  30  1   
 31  17  18  1   
 32  17  31  1   
 33  17  32  1   
 34  18  33  1   
 35  18  34  1   
 36  18  35  1   
@<TRIPOS>SUBSTRUCTURE
  1 ****   5 GROUP 4 **** **** 0

# MOE 2024.06 (io_trps.svl 2023.06)
