@<TRIPOS>MOLECULE
NONAME
45 47 1 0 0 
SMALL
USER_CHARGES


@<TRIPOS>ATOM
  1 CL      -1.7790     1.1020    -0.9540 Cl    1 <1>  -0.1770 
  2 C       -0.9000     2.4940    -0.3820 C.ar  1 <1>   0.1770 
  3 C       -1.3330     3.7600    -0.7220 C.ar  1 <1>  -0.1500 
  4 C        0.2200     2.3150     0.4030 C.ar  1 <1>  -0.1500 
  5 C       -0.6390     4.8750    -0.2760 C.ar  1 <1>  -0.1440 
  6 C        0.9110     3.4260     0.8490 C.ar  1 <1>  -0.1500 
  7 C        0.5050     4.7240     0.5250 C.ar  1 <1>   0.0860 
  8 C       -1.1550     6.2520    -0.6800 C.3   1 <1>  -0.0960 
  9 C        1.2910     5.8440     1.0210 C.2   1 <1>   0.5440 
 10 O        0.7720     6.8200     1.5290 O.2   1 <1>  -0.5700 
 11 N        2.6590     5.8710     0.8880 N.am  1 <1>  -0.6600 
 12 C        3.5090     6.6230     1.8860 C.3   1 <1>   0.1400 
 13 C        3.3030     5.5300    -0.4170 C.3   1 <1>   0.1400 
 14 C        3.8750     8.0550     1.4170 C.3   1 <1>   0.4230 
 15 C        3.8250     6.7570    -1.2100 C.3   1 <1>  -0.0800 
 16 N        2.8370     8.4940     0.4160 N.4   1 <1>  -0.9590 
 17 C        5.3520     8.1280     0.9480 C.3   1 <1>   0.1200 
 18 C        5.3450     6.9420    -1.0860 C.3   1 <1>   0.1200 
 19 C        3.1020     8.1040    -1.0040 C.3   1 <1>   0.3430 
 20 C        2.5830     9.9920     0.5130 C.3   1 <1>   0.2370 
 21 O        5.7390     6.9820     0.2420 O.3   1 <1>  -0.5600 
 22 C        3.8050    10.8650     0.2260 C.2   1 <1>   0.9060 
 23 O        4.5200    11.1800     1.1820 O.co2 1 <1>  -0.9000 
 24 O        4.1110    11.0660    -0.9520 O.co2 1 <1>  -0.9000 
 25 H       -2.2130     3.8570    -1.3330 H     1 <1>   0.1500 
 26 H        0.5390     1.3200     0.6590 H     1 <1>   0.1500 
 27 H        1.7830     3.2890     1.4660 H     1 <1>   0.1500 
 28 H       -1.9310     6.1750    -1.4210 H     1 <1>   0.0800 
 29 H       -0.3590     6.8480    -1.0880 H     1 <1>   0.0800 
 30 H       -1.5600     6.7560     0.1800 H     1 <1>   0.0800 
 31 H        2.9630     6.7080     2.8100 H     1 <1>   0.0800 
 32 H        4.3970     6.0570     2.1070 H     1 <1>   0.0800 
 33 H        4.1120     4.8420    -0.2350 H     1 <1>   0.0800 
 34 H        2.5870     5.0140    -1.0330 H     1 <1>   0.0800 
 35 H        3.8030     8.7080     2.2720 H     1 <1>   0.0800 
 36 H        3.6790     6.5200    -2.2480 H     1 <1>   0.0800 
 37 H        1.9850     7.9840     0.7220 H     1 <1>   0.4500 
 38 H        5.9800     8.1730     1.8190 H     1 <1>   0.0800 
 39 H        5.5610     9.0040     0.3590 H     1 <1>   0.0800 
 40 H        5.6810     7.8420    -1.5770 H     1 <1>   0.0800 
 41 H        5.8530     6.1060    -1.5350 H     1 <1>   0.0800 
 42 H        2.1600     8.0740    -1.5250 H     1 <1>   0.0800 
 43 H        3.6960     8.8730    -1.4730 H     1 <1>   0.0800 
 44 H        1.8160    10.2780    -0.1830 H     1 <1>   0.0800 
 45 H        2.2480    10.2370     1.5040 H     1 <1>   0.0800 
@<TRIPOS>BOND
  1   1   2  1   
  2   2   3  ar  
  3   2   4  ar  
  4   3   5  ar  
  5   3  25  1   
  6   4   6  ar  
  7   4  26  1   
  8   5   7  ar  
  9   5   8  1   
 10   6   7  ar  
 11   6  27  1   
 12   7   9  1   
 13   8  28  1   
 14   8  29  1   
 15   8  30  1   
 16   9  10  2   
 17   9  11  am  
 18  11  12  1   
 19  11  13  1   
 20  12  14  1   
 21  12  31  1   
 22  12  32  1   
 23  13  15  1   
 24  13  33  1   
 25  13  34  1   
 26  14  16  1   
 27  14  17  1   
 28  14  35  1   
 29  15  18  1   
 30  15  19  1   
 31  15  36  1   
 32  16  19  1   
 33  16  20  1   
 34  16  37  1   
 35  17  21  1   
 36  17  38  1   
 37  17  39  1   
 38  18  21  1   
 39  18  40  1   
 40  18  41  1   
 41  19  42  1   
 42  19  43  1   
 43  20  22  1   
 44  20  44  1   
 45  20  45  1   
 46  22  23  ar  
 47  22  24  ar  
@<TRIPOS>SUBSTRUCTURE
  1 ****  11 GROUP 4 **** **** 0

# MOE 2024.06 (io_trps.svl 2023.06)
