@<TRIPOS>MOLECULE
NONAME
50 53 1 0 0 
SMALL
USER_CHARGES


@<TRIPOS>ATOM
  1 O        0.4910    -0.4960    -0.5390 O.3   1 <1>  -0.0190 
  2 N        0.8750     0.6850    -0.1670 N.2   1 <1>  -0.4100 
  3 C        1.4830    -1.2780    -0.1910 C.2   1 <1>   0.2980 
  4 C        2.0290     0.5570     0.3560 C.2   1 <1>   0.3350 
  5 N        2.4650    -0.6950     0.3710 N.2   1 <1>  -0.5650 
  6 C        1.3440    -2.7640    -0.4810 C.3   1 <1>   0.1000 
  7 C        2.8540     1.6960     0.9280 C.3   1 <1>   0.0210 
  8 C        0.3350    -3.3720     0.5010 C.3   1 <1>   0.2090 
  9 C        2.6830    -3.5240    -0.4070 C.3   1 <1>  -0.1600 
 10 C        3.6330     2.4740    -0.1520 C.3   1 <1>  -0.0800 
 11 N        0.1430    -4.8380     0.2340 N.pl3 1 <1>  -0.8380 
 12 C        2.4640    -5.0310    -0.6220 C.3   1 <1>  -0.1600 
 13 C        4.6730     1.5930    -0.8590 C.3   1 <1>  -0.2400 
 14 C        4.3300     3.6930     0.4680 C.3   1 <1>  -0.2400 
 15 C       -1.0360    -5.3860    -0.1640 C.ar  1 <1>   0.1000 
 16 C        1.4230    -5.6080     0.3450 C.3   1 <1>   0.2090 
 17 C       -1.4860    -6.6860     0.2460 C.ar  1 <1>   0.0000 
 18 C       -1.8520    -4.6850    -1.0560 C.ar  1 <1>  -0.1500 
 19 C       -2.6010    -7.2610    -0.4000 C.ar  1 <1>   0.3610 
 20 C       -0.9210    -7.4220     1.3070 C.ar  1 <1>  -0.1500 
 21 C       -2.9630    -5.2530    -1.6190 C.ar  1 <1>   0.2110 
 22 N       -3.3050    -6.5170    -1.3180 N.ar  1 <1>  -0.1790 
 23 C       -3.0180    -8.5610    -0.0760 C.ar  1 <1>  -0.1500 
 24 C       -1.3510    -8.6840     1.6290 C.ar  1 <1>  -0.1500 
 25 C       -2.3980    -9.2690     0.9210 C.ar  1 <1>  -0.1500 
 26 H        0.9500    -2.8640    -1.4760 H     1 <1>   0.0800 
 27 H        3.5350     1.3010     1.6600 H     1 <1>   0.0800 
 28 H        2.1830     2.3660     1.4320 H     1 <1>   0.0800 
 29 H       -0.6030    -2.8500     0.4420 H     1 <1>   0.0800 
 30 H        0.7050    -3.2490     1.5050 H     1 <1>   0.0800 
 31 H        3.1330    -3.3660     0.5580 H     1 <1>   0.0800 
 32 H        3.3590    -3.1420    -1.1520 H     1 <1>   0.0800 
 33 H        2.9290     2.8260    -0.8880 H     1 <1>   0.0800 
 34 H        3.3960    -5.5500    -0.4860 H     1 <1>   0.0800 
 35 H        2.1350    -5.2110    -1.6300 H     1 <1>   0.0800 
 36 H        5.3760     1.1900    -0.1510 H     1 <1>   0.0800 
 37 H        5.2130     2.1660    -1.5920 H     1 <1>   0.0800 
 38 H        4.1930     0.7750    -1.3670 H     1 <1>   0.0800 
 39 H        5.0470     3.3860     1.2090 H     1 <1>   0.0800 
 40 H        3.6090     4.3420     0.9330 H     1 <1>   0.0800 
 41 H        4.8440     4.2550    -0.2930 H     1 <1>   0.0800 
 42 H        1.2650    -6.6430     0.0950 H     1 <1>   0.0800 
 43 H        1.7890    -5.5510     1.3570 H     1 <1>   0.0800 
 44 H       -1.5830    -3.6840    -1.3400 H     1 <1>   0.1500 
 45 H       -0.1350    -6.9790     1.8920 H     1 <1>   0.1500 
 46 H       -3.5680    -4.6980    -2.3200 H     1 <1>   0.1500 
 47 H       -4.1250    -6.9530    -1.7480 H     1 <1>   0.4570 
 48 H       -3.8380    -9.0150    -0.6030 H     1 <1>   0.1500 
 49 H       -0.8900    -9.2320     2.4350 H     1 <1>   0.1500 
 50 H       -2.7130   -10.2680     1.1790 H     1 <1>   0.1500 
@<TRIPOS>BOND
  1   1   2  1   
  2   1   3  1   
  3   2   4  2   
  4   3   5  2   
  5   3   6  1   
  6   4   5  1   
  7   4   7  1   
  8   6   8  1   
  9   6   9  1   
 10   6  26  1   
 11   7  10  1   
 12   7  27  1   
 13   7  28  1   
 14   8  11  1   
 15   8  29  1   
 16   8  30  1   
 17   9  12  1   
 18   9  31  1   
 19   9  32  1   
 20  10  13  1   
 21  10  14  1   
 22  10  33  1   
 23  11  15  1   
 24  11  16  1   
 25  12  16  1   
 26  12  34  1   
 27  12  35  1   
 28  13  36  1   
 29  13  37  1   
 30  13  38  1   
 31  14  39  1   
 32  14  40  1   
 33  14  41  1   
 34  15  17  ar  
 35  15  18  ar  
 36  16  42  1   
 37  16  43  1   
 38  17  19  ar  
 39  17  20  ar  
 40  18  21  ar  
 41  18  44  1   
 42  19  22  ar  
 43  19  23  ar  
 44  20  24  ar  
 45  20  45  1   
 46  21  22  ar  
 47  21  46  1   
 48  22  47  1   
 49  23  25  ar  
 50  23  48  1   
 51  24  25  ar  
 52  24  49  1   
 53  25  50  1   
@<TRIPOS>SUBSTRUCTURE
  1 ****   8 GROUP 4 **** **** 0

# MOE 2024.06 (io_trps.svl 2023.06)
