@<TRIPOS>MOLECULE
NONAME
46 48 1 0 0 
SMALL
USER_CHARGES


@<TRIPOS>ATOM
  1 CL      -1.9210     0.5220    -2.0140 Cl    1 <1>  -0.1770 
  2 C       -2.5990    -0.5470    -0.8000 C.ar  1 <1>   0.1770 
  3 C       -2.8640    -0.1650     0.5220 C.ar  1 <1>   0.0820 
  4 C       -2.8640    -1.8320    -1.2320 C.ar  1 <1>  -0.1500 
  5 O       -2.6620     1.0470     1.1010 O.3   1 <1>  -0.3630 
  6 C       -3.4010    -1.1210     1.3710 C.ar  1 <1>  -0.1500 
  7 C       -3.3980    -2.8000    -0.3800 C.ar  1 <1>   0.0860 
  8 C       -2.1720     2.1860     0.4390 C.3   1 <1>   0.1200 
  9 C       -3.6650    -2.4060     0.9330 C.ar  1 <1>  -0.1500 
 10 C       -3.6590    -4.1470    -0.8560 C.2   1 <1>   0.5440 
 11 C       -2.1400     3.3350     1.4420 C.3   1 <1>  -0.2400 
 12 O       -3.8110    -4.3710    -2.0410 O.2   1 <1>  -0.5700 
 13 N       -3.7340    -5.2000     0.0100 N.am  1 <1>  -0.7300 
 14 C       -3.9760    -6.6090    -0.3750 C.3   1 <1>   0.2200 
 15 C       -5.4060    -6.9820    -0.0220 C.3   1 <1>  -0.0800 
 16 C       -3.1820    -7.5290     0.5440 C.3   1 <1>   0.1200 
 17 C       -5.2890    -7.3680     1.4580 C.3   1 <1>   0.1200 
 18 C       -5.9170    -8.1450    -0.8940 C.3   1 <1>  -0.0170 
 19 O       -3.9400    -7.6440     1.7100 O.3   1 <1>  -0.5600 
 20 C       -7.3590    -8.4980    -0.5600 C.ar  1 <1>  -0.1430 
 21 C       -7.6920    -9.6260     0.1620 C.ar  1 <1>  -0.1500 
 22 C       -8.4110    -7.7020    -0.9650 C.ar  1 <1>  -0.1500 
 23 C       -9.0220    -9.8930     0.4400 C.ar  1 <1>   0.1600 
 24 C       -9.7070    -8.0590    -0.6340 C.ar  1 <1>   0.1600 
 25 N      -10.0380    -9.1350     0.0610 N.ar  1 <1>  -0.6200 
 26 H       -2.6520    -2.0940    -2.2540 H     1 <1>   0.1500 
 27 H       -3.6150    -0.8440     2.3890 H     1 <1>   0.1500 
 28 H       -1.1800     1.9730     0.0800 H     1 <1>   0.0800 
 29 H       -2.8320     2.4190    -0.3790 H     1 <1>   0.0800 
 30 H       -4.0920    -3.1090     1.6250 H     1 <1>   0.1500 
 31 H       -1.4920     3.0900     2.2650 H     1 <1>   0.0800 
 32 H       -3.1300     3.5320     1.8110 H     1 <1>   0.0800 
 33 H       -1.7670     4.2240     0.9660 H     1 <1>   0.0800 
 34 H       -3.5690    -5.0670     1.0090 H     1 <1>   0.3700 
 35 H       -3.7370    -6.7640    -1.4150 H     1 <1>   0.0800 
 36 H       -6.0660    -6.1420    -0.1500 H     1 <1>   0.0800 
 37 H       -2.2070    -7.1410     0.7800 H     1 <1>   0.0800 
 38 H       -3.0900    -8.5100     0.1150 H     1 <1>   0.0800 
 39 H       -5.8740    -8.2340     1.7150 H     1 <1>   0.0800 
 40 H       -5.5760    -6.5460     2.0900 H     1 <1>   0.0800 
 41 H       -5.2940    -9.0120    -0.7640 H     1 <1>   0.0800 
 42 H       -5.8660    -7.8610    -1.9310 H     1 <1>   0.0800 
 43 H       -6.9320   -10.3010     0.5120 H     1 <1>   0.1500 
 44 H       -8.2350    -6.8080    -1.5360 H     1 <1>   0.1500 
 45 H       -9.2630   -10.7770     1.0050 H     1 <1>   0.1500 
 46 H      -10.5150    -7.4250    -0.9590 H     1 <1>   0.1500 
@<TRIPOS>BOND
  1   1   2  1   
  2   2   3  ar  
  3   2   4  ar  
  4   3   5  1   
  5   3   6  ar  
  6   4   7  ar  
  7   4  26  1   
  8   5   8  1   
  9   6   9  ar  
 10   6  27  1   
 11   7   9  ar  
 12   7  10  1   
 13   8  11  1   
 14   8  28  1   
 15   8  29  1   
 16   9  30  1   
 17  10  12  2   
 18  10  13  am  
 19  11  31  1   
 20  11  32  1   
 21  11  33  1   
 22  13  14  1   
 23  13  34  1   
 24  14  15  1   
 25  14  16  1   
 26  14  35  1   
 27  15  17  1   
 28  15  18  1   
 29  15  36  1   
 30  16  19  1   
 31  16  37  1   
 32  16  38  1   
 33  17  19  1   
 34  17  39  1   
 35  17  40  1   
 36  18  20  1   
 37  18  41  1   
 38  18  42  1   
 39  20  21  ar  
 40  20  22  ar  
 41  21  23  ar  
 42  21  43  1   
 43  22  24  ar  
 44  22  44  1   
 45  23  25  ar  
 46  23  45  1   
 47  24  25  ar  
 48  24  46  1   
@<TRIPOS>SUBSTRUCTURE
  1 ****  13 GROUP 4 **** **** 0

# MOE 2024.06 (io_trps.svl 2023.06)
