@<TRIPOS>MOLECULE
NONAME
47 50 1 0 0 
SMALL
USER_CHARGES


@<TRIPOS>ATOM
  1 O       -0.7570     0.1580     0.0630 O.2   1 <1>  -0.5700 
  2 C       -1.6860     0.8590    -0.2910 C.2   1 <1>   0.5440 
  3 N       -2.8520     0.2510    -0.7080 N.am  1 <1>  -0.6600 
  4 C       -1.5380     2.2960    -0.2510 C.ar  1 <1>   0.0860 
  5 C       -4.2110     0.8460    -0.5130 C.3   1 <1>   0.1400 
  6 C       -2.8940    -1.1970    -1.0820 C.3   1 <1>   0.1400 
  7 C       -0.8680     2.9080     0.8060 C.ar  1 <1>   0.1600 
  8 C       -2.0290     3.1340    -1.2500 C.ar  1 <1>  -0.1500 
  9 C       -5.0600    -0.0120     0.4480 C.3   1 <1>   0.1900 
 10 C       -3.7770    -1.9950    -0.1110 C.3   1 <1>   0.1100 
 11 N       -0.6770     4.2080     0.9610 N.ar  1 <1>  -0.6200 
 12 C       -1.8360     4.4870    -1.1110 C.ar  1 <1>  -0.1500 
 13 N       -5.1380    -1.4180    -0.0230 N.3   1 <1>  -0.8100 
 14 C       -6.4730     0.5870     0.5970 C.3   1 <1>   0.1200 
 15 C       -1.1620     4.9760     0.0030 C.ar  1 <1>   0.4100 
 16 C       -6.0110    -2.2060     0.8800 C.3   1 <1>   0.3330 
 17 O       -7.2460    -0.1890     1.4680 O.3   1 <1>  -0.5600 
 18 N       -0.9410     6.2980     0.1780 N.pl3 1 <1>  -0.9000 
 19 C       -6.2160    -3.6230     0.3480 C.ar  1 <1>  -0.1440 
 20 C       -7.3840    -1.5200     1.0470 C.3   1 <1>   0.1200 
 21 C       -6.5500    -3.8440    -0.9820 C.ar  1 <1>  -0.1500 
 22 C       -6.0740    -4.7130     1.1960 C.ar  1 <1>  -0.1500 
 23 C       -6.7410    -5.1300    -1.4560 C.ar  1 <1>  -0.1500 
 24 C       -6.2640    -6.0000     0.7230 C.ar  1 <1>  -0.1500 
 25 C       -6.5980    -6.2090    -0.6030 C.ar  1 <1>  -0.1500 
 26 H       -4.1320     1.8390    -0.1090 H     1 <1>   0.0800 
 27 H       -4.7070     0.9070    -1.4660 H     1 <1>   0.0800 
 28 H       -3.2940    -1.2910    -2.0760 H     1 <1>   0.0800 
 29 H       -1.9030    -1.6160    -1.0880 H     1 <1>   0.0800 
 30 H       -0.4660     2.2670     1.5730 H     1 <1>   0.1500 
 31 H       -2.5380     2.7230    -2.1040 H     1 <1>   0.1500 
 32 H       -4.5900     0.0150     1.4160 H     1 <1>   0.0800 
 33 H       -3.3120    -2.0030     0.8610 H     1 <1>   0.0800 
 34 H       -3.8320    -3.0110    -0.4620 H     1 <1>   0.0800 
 35 H       -2.1970     5.1780    -1.8490 H     1 <1>   0.1500 
 36 H       -6.9710     0.6310    -0.3560 H     1 <1>   0.0800 
 37 H       -6.4180     1.5780     1.0090 H     1 <1>   0.0800 
 38 H       -5.5500    -2.2610     1.8520 H     1 <1>   0.0800 
 39 H       -0.3310     6.5140     0.9690 H     1 <1>   0.4000 
 40 H       -0.7970     6.8960    -0.6340 H     1 <1>   0.4000 
 41 H       -7.9660    -2.0410     1.7870 H     1 <1>   0.0800 
 42 H       -7.9230    -1.5320     0.1170 H     1 <1>   0.0800 
 43 H       -6.6570    -3.0070    -1.6500 H     1 <1>   0.1500 
 44 H       -5.8150    -4.5660     2.2300 H     1 <1>   0.1500 
 45 H       -6.9990    -5.2890    -2.4880 H     1 <1>   0.1500 
 46 H       -6.1520    -6.8390     1.3870 H     1 <1>   0.1500 
 47 H       -6.7460    -7.2100    -0.9700 H     1 <1>   0.1500 
@<TRIPOS>BOND
  1   1   2  2   
  2   2   3  am  
  3   2   4  1   
  4   3   5  1   
  5   3   6  1   
  6   4   7  ar  
  7   4   8  ar  
  8   5   9  1   
  9   5  26  1   
 10   5  27  1   
 11   6  10  1   
 12   6  28  1   
 13   6  29  1   
 14   7  11  ar  
 15   7  30  1   
 16   8  12  ar  
 17   8  31  1   
 18   9  13  1   
 19   9  14  1   
 20   9  32  1   
 21  10  13  1   
 22  10  33  1   
 23  10  34  1   
 24  11  15  ar  
 25  12  15  ar  
 26  12  35  1   
 27  13  16  1   
 28  14  17  1   
 29  14  36  1   
 30  14  37  1   
 31  15  18  1   
 32  16  19  1   
 33  16  20  1   
 34  16  38  1   
 35  17  20  1   
 36  18  39  1   
 37  18  40  1   
 38  19  21  ar  
 39  19  22  ar  
 40  20  41  1   
 41  20  42  1   
 42  21  23  ar  
 43  21  43  1   
 44  22  24  ar  
 45  22  44  1   
 46  23  25  ar  
 47  23  45  1   
 48  24  25  ar  
 49  24  46  1   
 50  25  47  1   
@<TRIPOS>SUBSTRUCTURE
  1 ****   9 GROUP 4 **** **** 0

# MOE 2024.06 (io_trps.svl 2023.06)
