@<TRIPOS>MOLECULE
NONAME
47 49 1 0 0 
SMALL
USER_CHARGES


@<TRIPOS>ATOM
  1 O       -0.4410    -0.5750     0.7350 O.2   1 <1>  -0.5700 
  2 C       -1.2110    -1.0610    -0.0620 C.2   1 <1>   0.5440 
  3 N       -1.5520    -0.2810    -1.1140 N.am  1 <1>  -0.8000 
  4 C       -1.7230    -2.4090     0.1050 C.ar  1 <1>   0.0860 
  5 C       -2.8260    -2.8990    -0.5710 C.ar  1 <1>  -0.1500 
  6 C       -1.1290    -3.3150     0.9750 C.ar  1 <1>  -0.1500 
  7 C       -3.2720    -4.1980    -0.3730 C.ar  1 <1>   0.4100 
  8 C       -1.6350    -4.5910     1.1080 C.ar  1 <1>   0.1600 
  9 N       -2.6870    -5.0570     0.4550 N.ar  1 <1>  -0.6200 
 10 N       -4.3920    -4.6460    -1.0500 N.pl3 1 <1>  -0.8380 
 11 C       -4.4680    -6.0920    -1.4000 C.3   1 <1>   0.2090 
 12 C       -5.7000    -4.0420    -0.6720 C.3   1 <1>   0.2090 
 13 C       -5.0750    -6.9010    -0.2250 C.3   1 <1>   0.4230 
 14 C       -6.2900    -4.8250     0.5060 C.3   1 <1>  -0.1600 
 15 N       -5.0490    -8.4130    -0.4260 N.4   1 <1>  -0.9590 
 16 C       -6.4600    -6.3440     0.2210 C.3   1 <1>   0.0000 
 17 C       -5.9720    -9.1670     0.4830 C.3   1 <1>   0.3430 
 18 C       -5.2270    -8.8810    -1.8390 C.3   1 <1>   0.2630 
 19 C       -6.9010    -7.0470     1.5390 C.3   1 <1>  -0.1600 
 20 C       -7.5150    -6.5720    -0.8980 C.3   1 <1>   0.1200 
 21 C       -6.2080    -8.4010     1.7830 C.3   1 <1>  -0.1600 
 22 O       -8.6930    -5.8930    -0.6360 O.3   1 <1>  -0.6800 
 23 H       -1.1300     0.6470    -1.1860 H     1 <1>   0.3700 
 24 H       -2.0950    -0.5990    -1.9140 H     1 <1>   0.3700 
 25 H       -3.3610    -2.2810    -1.2630 H     1 <1>   0.1500 
 26 H       -0.2690    -3.0130     1.5460 H     1 <1>   0.1500 
 27 H       -1.1450    -5.2650     1.7900 H     1 <1>   0.1500 
 28 H       -5.0570    -6.1940    -2.2920 H     1 <1>   0.0800 
 29 H       -3.4740    -6.4500    -1.6080 H     1 <1>   0.0800 
 30 H       -5.5620    -3.0130    -0.3850 H     1 <1>   0.0800 
 31 H       -6.3680    -4.0610    -1.5170 H     1 <1>   0.0800 
 32 H       -4.4210    -6.7030     0.6080 H     1 <1>   0.0800 
 33 H       -5.6310    -4.6810     1.3450 H     1 <1>   0.0800 
 34 H       -7.2320    -4.3800     0.7770 H     1 <1>   0.0800 
 35 H       -4.0940    -8.6790    -0.1410 H     1 <1>   0.4500 
 36 H       -6.9230    -9.3130    -0.0030 H     1 <1>   0.0800 
 37 H       -5.5590   -10.1390     0.7010 H     1 <1>   0.0800 
 38 H       -6.1950    -8.5920    -2.2150 H     1 <1>   0.0800 
 39 H       -5.1460    -9.9550    -1.8890 H     1 <1>   0.0800 
 40 H       -4.4680    -8.4570    -2.4770 H     1 <1>   0.0800 
 41 H       -6.6890    -6.4230     2.3910 H     1 <1>   0.0800 
 42 H       -7.9670    -7.1970     1.5390 H     1 <1>   0.0800 
 43 H       -7.7610    -7.6130    -1.0030 H     1 <1>   0.0800 
 44 H       -7.1650    -6.2100    -1.8480 H     1 <1>   0.0800 
 45 H       -6.8190    -8.9960     2.4400 H     1 <1>   0.0800 
 46 H       -5.2640    -8.2520     2.2810 H     1 <1>   0.0800 
 47 H       -9.1170    -6.1940     0.1920 H     1 <1>   0.4000 
@<TRIPOS>BOND
  1   1   2  2   
  2   2   3  am  
  3   2   4  1   
  4   3  23  1   
  5   3  24  1   
  6   4   5  ar  
  7   4   6  ar  
  8   5   7  ar  
  9   5  25  1   
 10   6   8  ar  
 11   6  26  1   
 12   7   9  ar  
 13   7  10  1   
 14   8   9  ar  
 15   8  27  1   
 16  10  11  1   
 17  10  12  1   
 18  11  13  1   
 19  11  28  1   
 20  11  29  1   
 21  12  14  1   
 22  12  30  1   
 23  12  31  1   
 24  13  15  1   
 25  13  16  1   
 26  13  32  1   
 27  14  16  1   
 28  14  33  1   
 29  14  34  1   
 30  15  17  1   
 31  15  18  1   
 32  15  35  1   
 33  16  19  1   
 34  16  20  1   
 35  17  21  1   
 36  17  36  1   
 37  17  37  1   
 38  18  38  1   
 39  18  39  1   
 40  18  40  1   
 41  19  21  1   
 42  19  41  1   
 43  19  42  1   
 44  20  22  1   
 45  20  43  1   
 46  20  44  1   
 47  21  45  1   
 48  21  46  1   
 49  22  47  1   
@<TRIPOS>SUBSTRUCTURE
  1 ****  10 GROUP 4 **** **** 0

# MOE 2024.06 (io_trps.svl 2023.06)
