@<TRIPOS>MOLECULE
NONAME
45 47 1 0 0 
SMALL
USER_CHARGES


@<TRIPOS>ATOM
  1 CL       1.3570    -1.3570     0.1150 Cl    1 <1>  -0.1240 
  2 C       -0.2240    -1.7610     0.7200 C.2   1 <1>   0.1640 
  3 S       -1.1550    -2.9080    -0.2100 S.3   1 <1>  -0.0800 
  4 C       -0.8900    -1.3410     1.8090 C.2   1 <1>  -0.1500 
  5 C       -2.5040    -2.8180     0.9380 C.2   1 <1>  -0.0450 
  6 C       -2.1800    -1.9370     1.9250 C.2   1 <1>  -0.1500 
  7 C       -3.7040    -3.5830     0.7030 C.2   1 <1>   0.7150 
  8 O       -4.7690    -3.1160     1.0740 O.2   1 <1>  -0.5700 
  9 N       -3.6870    -4.8260     0.0950 N.am  1 <1>  -0.6600 
 10 C       -4.7940    -5.3880    -0.7350 C.3   1 <1>   0.2200 
 11 C       -2.5640    -5.7820     0.3190 C.3   1 <1>   0.0600 
 12 C       -5.3810    -4.3820    -1.7300 C.3   1 <1>  -0.1600 
 13 C       -5.9440    -5.9080     0.1290 C.3   1 <1>  -0.1600 
 14 C       -6.8920    -4.2990    -1.4730 C.3   1 <1>  -0.0800 
 15 C       -7.2530    -5.4660    -0.5460 C.3   1 <1>  -0.0800 
 16 C       -7.3450    -3.0170    -0.7490 C.3   1 <1>  -0.1600 
 17 C       -8.2590    -4.8960     0.4570 C.3   1 <1>  -0.1600 
 18 C       -7.7620    -3.4720     0.6510 C.3   1 <1>   0.4230 
 19 N       -8.7390    -2.5810     1.3410 N.4   1 <1>  -0.9590 
 20 C      -10.0230    -2.3450     0.6090 C.3   1 <1>   0.2630 
 21 C       -8.0660    -1.2890     1.6760 C.3   1 <1>   0.2630 
 22 H       -0.5190    -0.6340     2.5300 H     1 <1>   0.1500 
 23 H       -2.8310    -1.6860     2.7450 H     1 <1>   0.1500 
 24 H       -4.4080    -6.2130    -1.3110 H     1 <1>   0.0800 
 25 H       -2.9530    -6.7440     0.6040 H     1 <1>   0.0800 
 26 H       -1.9160    -5.4340     1.1050 H     1 <1>   0.0800 
 27 H       -1.9910    -5.8880    -0.5860 H     1 <1>   0.0800 
 28 H       -4.9000    -3.4210    -1.6850 H     1 <1>   0.0800 
 29 H       -5.2280    -4.7700    -2.7210 H     1 <1>   0.0800 
 30 H       -5.9020    -6.9810     0.1960 H     1 <1>   0.0800 
 31 H       -5.8630    -5.5080     1.1240 H     1 <1>   0.0800 
 32 H       -7.4260    -4.3840    -2.4060 H     1 <1>   0.0800 
 33 H       -7.6690    -6.2870    -1.1090 H     1 <1>   0.0800 
 34 H       -8.1730    -2.6030    -1.2920 H     1 <1>   0.0800 
 35 H       -6.5610    -2.2840    -0.6930 H     1 <1>   0.0800 
 36 H       -8.2670    -5.4550     1.3760 H     1 <1>   0.0800 
 37 H       -9.2360    -4.9120     0.0080 H     1 <1>   0.0800 
 38 H       -6.8750    -3.5350     1.2570 H     1 <1>   0.0800 
 39 H       -8.9610    -3.0530     2.2290 H     1 <1>   0.4500 
 40 H       -9.8400    -1.8260    -0.3170 H     1 <1>   0.0800 
 41 H      -10.6890    -1.7460     1.2090 H     1 <1>   0.0800 
 42 H      -10.5110    -3.2810     0.3900 H     1 <1>   0.0800 
 43 H       -7.8180    -0.7520     0.7750 H     1 <1>   0.0800 
 44 H       -7.1540    -1.4740     2.2220 H     1 <1>   0.0800 
 45 H       -8.7120    -0.6730     2.2810 H     1 <1>   0.0800 
@<TRIPOS>BOND
  1   1   2  1   
  2   2   3  1   
  3   2   4  2   
  4   3   5  1   
  5   4   6  1   
  6   4  22  1   
  7   5   6  2   
  8   5   7  1   
  9   6  23  1   
 10   7   8  2   
 11   7   9  am  
 12   9  10  1   
 13   9  11  1   
 14  10  12  1   
 15  10  13  1   
 16  10  24  1   
 17  11  25  1   
 18  11  26  1   
 19  11  27  1   
 20  12  14  1   
 21  12  28  1   
 22  12  29  1   
 23  13  15  1   
 24  13  30  1   
 25  13  31  1   
 26  14  15  1   
 27  14  16  1   
 28  14  32  1   
 29  15  17  1   
 30  15  33  1   
 31  16  18  1   
 32  16  34  1   
 33  16  35  1   
 34  17  18  1   
 35  17  36  1   
 36  17  37  1   
 37  18  19  1   
 38  18  38  1   
 39  19  20  1   
 40  19  21  1   
 41  19  39  1   
 42  20  40  1   
 43  20  41  1   
 44  20  42  1   
 45  21  43  1   
 46  21  44  1   
 47  21  45  1   
@<TRIPOS>SUBSTRUCTURE
  1 ****   8 GROUP 4 **** **** 0

# MOE 2024.06 (io_trps.svl 2023.06)
