@<TRIPOS>MOLECULE
NONAME
42 44 1 0 0 
SMALL
USER_CHARGES


@<TRIPOS>ATOM
  1 O       -1.4610     0.3050     2.5330 O.2   1 <1>  -0.5700 
  2 C       -1.9630     0.7410     1.5170 C.2   1 <1>   0.5440 
  3 N       -2.8670    -0.0370     0.8360 N.am  1 <1>  -0.6600 
  4 C       -1.6200     2.0630     1.0450 C.ar  1 <1>   0.0860 
  5 C       -3.7650     0.4400    -0.2470 C.3   1 <1>   0.1400 
  6 C       -3.2650    -1.3970     1.2820 C.3   1 <1>   0.1400 
  7 C       -0.8230     2.2770    -0.0870 C.ar  1 <1>   0.1660 
  8 C       -2.1040     3.1820     1.7090 C.ar  1 <1>  -0.1500 
  9 C       -4.9520    -0.5240    -0.2110 C.3   1 <1>   0.2000 
 10 C       -4.3580    -1.8400     0.2990 C.3   1 <1>  -0.0800 
 11 N       -0.5340     3.4670    -0.5900 N.ar  1 <1>  -0.6200 
 12 C       -0.2070     1.1140    -0.8490 C.3   1 <1>  -0.0970 
 13 C       -1.7950     4.4240     1.2030 C.ar  1 <1>  -0.1500 
 14 O       -5.8570    -0.0620     0.7300 O.3   1 <1>  -0.6800 
 15 C       -3.7720    -2.6660    -0.8620 C.3   1 <1>   0.0210 
 16 C       -1.0200     4.5110     0.0610 C.ar  1 <1>   0.1600 
 17 C       -3.1750    -3.9700    -0.3710 C.2   1 <1>   0.1080 
 18 N       -3.8930    -4.9230     0.1340 N.2   1 <1>  -0.7070 
 19 C       -1.8210    -4.2890    -0.3980 C.2   1 <1>  -0.1500 
 20 N       -3.0080    -5.8880     0.4460 N.pl3 1 <1>   0.3000 
 21 C       -1.7460    -5.5270     0.1340 C.2   1 <1>  -0.3320 
 22 C       -0.5270    -6.4000     0.3690 C.3   1 <1>  -0.0600 
 23 H       -4.0770     1.4590    -0.0960 H     1 <1>   0.0800 
 24 H       -3.2530     0.3570    -1.1890 H     1 <1>   0.0800 
 25 H       -2.4160    -2.0580     1.2910 H     1 <1>   0.0800 
 26 H       -3.6640    -1.3360     2.2810 H     1 <1>   0.0800 
 27 H       -2.7030     3.0690     2.5960 H     1 <1>   0.1500 
 28 H       -5.4610    -0.6090    -1.1560 H     1 <1>   0.0800 
 29 H       -5.1030    -2.4390     0.7950 H     1 <1>   0.0800 
 30 H       -0.1080     0.2380    -0.2340 H     1 <1>   0.0800 
 31 H        0.7750     1.3880    -1.1920 H     1 <1>   0.0800 
 32 H       -0.8140     0.8800    -1.7030 H     1 <1>   0.0800 
 33 H       -2.1490     5.3180     1.6840 H     1 <1>   0.1500 
 34 H       -5.3940     0.0530     1.5840 H     1 <1>   0.4000 
 35 H       -3.0140    -2.1060    -1.3800 H     1 <1>   0.0800 
 36 H       -4.5520    -2.9020    -1.5630 H     1 <1>   0.0800 
 37 H       -0.7850     5.4850    -0.3350 H     1 <1>   0.1500 
 38 H       -1.0270    -3.6640    -0.7660 H     1 <1>   0.1500 
 39 H       -3.2980    -6.7780     0.8700 H     1 <1>   0.2700 
 40 H        0.3620    -5.8920     0.0390 H     1 <1>   0.0800 
 41 H       -0.6180    -7.3210    -0.1790 H     1 <1>   0.0800 
 42 H       -0.4250    -6.6220     1.4170 H     1 <1>   0.0800 
@<TRIPOS>BOND
  1   1   2  2   
  2   2   3  am  
  3   2   4  1   
  4   3   5  1   
  5   3   6  1   
  6   4   7  ar  
  7   4   8  ar  
  8   5   9  1   
  9   5  23  1   
 10   5  24  1   
 11   6  10  1   
 12   6  25  1   
 13   6  26  1   
 14   7  11  ar  
 15   7  12  1   
 16   8  13  ar  
 17   8  27  1   
 18   9  10  1   
 19   9  14  1   
 20   9  28  1   
 21  10  15  1   
 22  10  29  1   
 23  11  16  ar  
 24  12  30  1   
 25  12  31  1   
 26  12  32  1   
 27  13  16  ar  
 28  13  33  1   
 29  14  34  1   
 30  15  17  1   
 31  15  35  1   
 32  15  36  1   
 33  16  37  1   
 34  17  18  2   
 35  17  19  1   
 36  18  20  1   
 37  19  21  2   
 38  19  38  1   
 39  20  21  1   
 40  20  39  1   
 41  21  22  1   
 42  22  40  1   
 43  22  41  1   
 44  22  42  1   
@<TRIPOS>SUBSTRUCTURE
  1 ****   3 GROUP 4 **** **** 0

# MOE 2024.06 (io_trps.svl 2023.06)
