@<TRIPOS>MOLECULE
NONAME
55 58 1 0 0 
SMALL
USER_CHARGES


@<TRIPOS>ATOM
  1 O        0.4680     1.3750     0.7490 O.2   1 <1>  -0.5700 
  2 C        1.4630     0.8210     0.2850 C.2   1 <1>   0.6900 
  3 N        2.6350     1.4190     0.0120 N.am  1 <1>  -0.4200 
  4 N        1.6100    -0.4920    -0.0370 N.am  1 <1>  -0.2980 
  5 C        3.4550     0.4160    -0.4520 C.2   1 <1>   0.4490 
  6 C        3.0510     2.7820     0.3860 C.3   1 <1>   0.1400 
  7 N        2.8850    -0.7260    -0.5000 N.2   1 <1>  -0.5120 
  8 C        0.6090    -1.5670     0.0870 C.3   1 <1>   0.0600 
  9 C        4.8830     0.7290    -0.8610 C.3   1 <1>  -0.0990 
 10 C        4.3590     3.1640    -0.3240 C.3   1 <1>  -0.0190 
 11 C        5.4030     2.0280    -0.2140 C.3   1 <1>  -0.1600 
 12 C        4.8540     4.4740     0.2700 C.2   1 <1>   0.5690 
 13 O        5.3630     4.4630     1.3630 O.2   1 <1>  -0.5700 
 14 N        4.6570     5.6220    -0.4430 N.am  1 <1>  -0.4940 
 15 C        4.6980     6.9400     0.0510 C.2   1 <1>  -0.0880 
 16 N        5.7830     7.7210     0.3530 N.pl3 1 <1>   0.3140 
 17 C        3.5800     7.6770     0.3010 C.2   1 <1>  -0.0540 
 18 N        5.3600     8.9450     0.7860 N.2   1 <1>  -0.7070 
 19 C        7.2760     7.4270     0.2760 C.3   1 <1>   0.2560 
 20 C        2.2030     7.2860     0.1590 C.ar  1 <1>   0.0540 
 21 C        4.0690     8.9000     0.7490 C.2   1 <1>   0.1390 
 22 C        8.0490     8.7020    -0.1250 C.3   1 <1>  -0.2400 
 23 C        7.7710     6.9750     1.6580 C.3   1 <1>  -0.2400 
 24 C        7.6240     6.3470    -0.7680 C.3   1 <1>  -0.2400 
 25 C        1.7010     6.1990     0.8700 C.ar  1 <1>  -0.1500 
 26 C        1.3420     7.9620    -0.7000 C.ar  1 <1>  -0.1500 
 27 C        0.3910     5.7850     0.7140 C.ar  1 <1>  -0.1500 
 28 C        0.0290     7.5570    -0.8570 C.ar  1 <1>  -0.1500 
 29 C       -0.4480     6.4640    -0.1530 C.ar  1 <1>  -0.1500 
 30 H        3.1920     2.8100     1.4540 H     1 <1>   0.0800 
 31 H        2.2660     3.4730     0.1300 H     1 <1>   0.0800 
 32 H       -0.3150    -1.1640     0.4620 H     1 <1>   0.0800 
 33 H        0.9750    -2.3160     0.7650 H     1 <1>   0.0800 
 34 H        0.4420    -2.0100    -0.8780 H     1 <1>   0.0800 
 35 H        4.9020     0.8290    -1.9310 H     1 <1>   0.0800 
 36 H        5.5160    -0.0980    -0.5940 H     1 <1>   0.0800 
 37 H        4.1410     3.3240    -1.3650 H     1 <1>   0.0800 
 38 H        6.3240     2.3250    -0.6860 H     1 <1>   0.0800 
 39 H        5.6140     1.8420     0.8270 H     1 <1>   0.0800 
 40 H        4.1170     5.5190    -1.3030 H     1 <1>   0.3700 
 41 H        3.4390     9.7230     1.0420 H     1 <1>   0.1500 
 42 H        7.9210     9.4730     0.6140 H     1 <1>   0.0800 
 43 H        7.6940     9.0690    -1.0720 H     1 <1>   0.0800 
 44 H        9.1010     8.5010    -0.2090 H     1 <1>   0.0800 
 45 H        7.5730     7.7400     2.3890 H     1 <1>   0.0800 
 46 H        8.8290     6.7880     1.6390 H     1 <1>   0.0800 
 47 H        7.2730     6.0740     1.9630 H     1 <1>   0.0800 
 48 H        7.1750     6.5830    -1.7160 H     1 <1>   0.0800 
 49 H        7.2990     5.3790    -0.4410 H     1 <1>   0.0800 
 50 H        8.6890     6.2900    -0.9030 H     1 <1>   0.0800 
 51 H        2.3500     5.6830     1.5560 H     1 <1>   0.1500 
 52 H        1.7090     8.8100    -1.2510 H     1 <1>   0.1500 
 53 H        0.0200     4.9380     1.2670 H     1 <1>   0.1500 
 54 H       -0.6250     8.0890    -1.5270 H     1 <1>   0.1500 
 55 H       -1.4690     6.1440    -0.2750 H     1 <1>   0.1500 
@<TRIPOS>BOND
  1   1   2  2   
  2   2   3  am  
  3   2   4  am  
  4   3   5  1   
  5   3   6  1   
  6   4   7  1   
  7   4   8  1   
  8   5   7  2   
  9   5   9  1   
 10   6  10  1   
 11   6  30  1   
 12   6  31  1   
 13   8  32  1   
 14   8  33  1   
 15   8  34  1   
 16   9  11  1   
 17   9  35  1   
 18   9  36  1   
 19  10  11  1   
 20  10  12  1   
 21  10  37  1   
 22  11  38  1   
 23  11  39  1   
 24  12  13  2   
 25  12  14  am  
 26  14  15  1   
 27  14  40  1   
 28  15  16  1   
 29  15  17  2   
 30  16  18  1   
 31  16  19  1   
 32  17  20  1   
 33  17  21  1   
 34  18  21  2   
 35  19  22  1   
 36  19  23  1   
 37  19  24  1   
 38  20  25  ar  
 39  20  26  ar  
 40  21  41  1   
 41  22  42  1   
 42  22  43  1   
 43  22  44  1   
 44  23  45  1   
 45  23  46  1   
 46  23  47  1   
 47  24  48  1   
 48  24  49  1   
 49  24  50  1   
 50  25  27  ar  
 51  25  51  1   
 52  26  28  ar  
 53  26  52  1   
 54  27  29  ar  
 55  27  53  1   
 56  28  29  ar  
 57  28  54  1   
 58  29  55  1   
@<TRIPOS>SUBSTRUCTURE
  1 ****  12 GROUP 4 **** **** 0

# MOE 2024.06 (io_trps.svl 2023.06)
