@<TRIPOS>MOLECULE
NONAME
46 48 1 0 0 
SMALL
USER_CHARGES


@<TRIPOS>ATOM
  1 O        2.9860    -1.2320    -0.7370 O.3   1 <1>  -0.0190 
  2 N        2.3870    -1.0960     0.4080 N.2   1 <1>  -0.4100 
  3 C        2.6840    -0.1360    -1.3880 C.2   1 <1>   0.2980 
  4 C        1.7530     0.0090     0.3750 C.2   1 <1>   0.3350 
  5 N        1.8880     0.6550    -0.7760 N.2   1 <1>  -0.5650 
  6 C        3.4030     0.1420    -2.7190 C.3   1 <1>   0.3890 
  7 C        0.9580     0.5980     1.5390 C.3   1 <1>   0.3010 
  8 N        4.5560     1.1040    -2.5590 N.pl3 1 <1>  -0.8690 
  9 O        1.7340     1.5350     2.2700 O.3   1 <1>  -0.5600 
 10 C        4.7600     1.6780    -1.3660 C.ar  1 <1>   0.4100 
 11 C        1.0680     2.0080     3.4020 C.3   1 <1>   0.0400 
 12 N        4.2710     2.8840    -1.2280 N.ar  1 <1>  -0.6200 
 13 C        5.2390     0.9200    -0.2850 C.ar  1 <1>  -0.1500 
 14 C        3.9060     3.2370     0.0030 C.ar  1 <1>   0.7710 
 15 C        4.8850     1.3060     0.9620 C.ar  1 <1>   0.2180 
 16 N        4.1500     2.4370     1.0610 N.ar  1 <1>  -0.1790 
 17 N        3.2570     4.4190     0.1990 N.pl3 1 <1>  -0.8380 
 18 C        5.2220     0.5280     2.2200 C.3   1 <1>  -0.0970 
 19 C        2.7170     4.9360     1.4940 C.3   1 <1>   0.2090 
 20 C        3.0100     5.3840    -0.9220 C.3   1 <1>   0.2090 
 21 C        3.4260     6.2450     1.8520 C.3   1 <1>  -0.1600 
 22 C        3.7150     6.7090    -0.6130 C.3   1 <1>  -0.1600 
 23 C        3.2720     7.2900     0.7370 C.3   1 <1>  -0.1600 
 24 H        2.6900     0.5660    -3.4040 H     1 <1>   0.0800 
 25 H        3.7630    -0.7830    -3.1340 H     1 <1>   0.0800 
 26 H        0.6640    -0.1980     2.2010 H     1 <1>   0.0800 
 27 H        0.0810     1.0930     1.1620 H     1 <1>   0.0800 
 28 H        4.6020     1.7560    -3.3480 H     1 <1>   0.4000 
 29 H        1.7100     2.6990     3.9190 H     1 <1>   0.0800 
 30 H        0.8370     1.1820     4.0540 H     1 <1>   0.0800 
 31 H        0.1630     2.5100     3.1020 H     1 <1>   0.0800 
 32 H        5.8090     0.0330    -0.4890 H     1 <1>   0.1500 
 33 H        3.6340     2.6520     1.9060 H     1 <1>   0.4570 
 34 H        5.7980    -0.3470     1.9760 H     1 <1>   0.0800 
 35 H        4.3190     0.2090     2.7110 H     1 <1>   0.0800 
 36 H        5.7970     1.1360     2.8960 H     1 <1>   0.0800 
 37 H        2.8430     4.2330     2.2960 H     1 <1>   0.0800 
 38 H        1.6600     5.1200     1.3830 H     1 <1>   0.0800 
 39 H        1.9500     5.5500    -1.0190 H     1 <1>   0.0800 
 40 H        3.3650     5.0110    -1.8680 H     1 <1>   0.0800 
 41 H        4.4710     6.0480     2.0200 H     1 <1>   0.0800 
 42 H        3.0150     6.6380     2.7650 H     1 <1>   0.0800 
 43 H        3.4990     7.4150    -1.3960 H     1 <1>   0.0800 
 44 H        4.7780     6.5420    -0.6090 H     1 <1>   0.0800 
 45 H        3.8590     8.1630     0.9690 H     1 <1>   0.0800 
 46 H        2.2410     7.5940     0.6720 H     1 <1>   0.0800 
@<TRIPOS>BOND
  1   1   2  1   
  2   1   3  1   
  3   2   4  2   
  4   3   5  2   
  5   3   6  1   
  6   4   5  1   
  7   4   7  1   
  8   6   8  1   
  9   6  24  1   
 10   6  25  1   
 11   7   9  1   
 12   7  26  1   
 13   7  27  1   
 14   8  10  1   
 15   8  28  1   
 16   9  11  1   
 17  10  12  ar  
 18  10  13  ar  
 19  11  29  1   
 20  11  30  1   
 21  11  31  1   
 22  12  14  ar  
 23  13  15  ar  
 24  13  32  1   
 25  14  16  ar  
 26  14  17  1   
 27  15  16  ar  
 28  15  18  1   
 29  16  33  1   
 30  17  19  1   
 31  17  20  1   
 32  18  34  1   
 33  18  35  1   
 34  18  36  1   
 35  19  21  1   
 36  19  37  1   
 37  19  38  1   
 38  20  22  1   
 39  20  39  1   
 40  20  40  1   
 41  21  23  1   
 42  21  41  1   
 43  21  42  1   
 44  22  23  1   
 45  22  43  1   
 46  22  44  1   
 47  23  45  1   
 48  23  46  1   
@<TRIPOS>SUBSTRUCTURE
  1 ****  14 GROUP 4 **** **** 0

# MOE 2024.06 (io_trps.svl 2023.06)
