@<TRIPOS>MOLECULE
NONAME
43 45 1 0 0 
SMALL
USER_CHARGES


@<TRIPOS>ATOM
  1 S       -1.3200     0.0690    -1.0680 S.3   1 <1>  -0.0800 
  2 C       -1.6580     0.6420     0.5580 C.2   1 <1>  -0.1400 
  3 C        0.2670     0.8150    -1.0480 C.2   1 <1>  -0.1400 
  4 C       -0.6120     1.3390     1.0410 C.2   1 <1>  -0.1500 
  5 C       -3.0090     0.2820     1.1310 C.3   1 <1>   0.5230 
  6 C        0.4820     1.4370     0.1250 C.2   1 <1>  -0.1500 
  7 C        1.1260     0.6560    -2.2860 C.3   1 <1>  -0.0600 
  8 N       -4.0610     0.9270     0.2950 N.4   1 <1>  -0.8520 
  9 C       -4.1240     2.3860     0.4840 C.3   1 <1>   0.2960 
 10 C       -5.3930     0.2940     0.4790 C.3   1 <1>   0.4860 
 11 C       -4.7630     3.1970    -0.5920 C.3   1 <1>  -0.2000 
 12 C       -3.2810     3.2640    -0.3760 C.3   1 <1>  -0.2000 
 13 C       -5.2770    -1.1840     0.1820 C.ar  1 <1>  -0.1430 
 14 C       -5.3540    -2.1020     1.2190 C.ar  1 <1>  -0.1500 
 15 C       -5.0760    -1.6320    -1.1160 C.ar  1 <1>  -0.1500 
 16 C       -5.2110    -3.4510     0.9600 C.ar  1 <1>  -0.1500 
 17 C       -4.9360    -2.9860    -1.3670 C.ar  1 <1>  -0.1500 
 18 C       -4.9980    -3.9020    -0.3310 C.ar  1 <1>  -0.1430 
 19 C       -4.8340    -5.3990    -0.6000 C.3   1 <1>  -0.1230 
 20 C       -5.9420    -6.2620    -0.0290 C.2   1 <1>   0.9060 
 21 O       -6.8360    -6.6590    -0.7840 O.co2 1 <1>  -0.9000 
 22 O       -5.8960    -6.5720     1.1680 O.co2 1 <1>  -0.9000 
 23 H       -0.5440     1.8000     2.0120 H     1 <1>   0.1500 
 24 H       -3.0830     0.6150     2.1530 H     1 <1>   0.0800 
 25 H       -3.1100    -0.7910     1.1090 H     1 <1>   0.0800 
 26 H        1.3800     1.9690     0.3920 H     1 <1>   0.1500 
 27 H        0.6290     1.0840    -3.1380 H     1 <1>   0.0800 
 28 H        1.3070    -0.3870    -2.4760 H     1 <1>   0.0800 
 29 H        2.0700     1.1510    -2.1490 H     1 <1>   0.0800 
 30 H       -3.7680     0.7410    -0.6710 H     1 <1>   0.4500 
 31 H       -4.2880     2.6850     1.5090 H     1 <1>   0.1000 
 32 H       -6.1090     0.7380    -0.1930 H     1 <1>   0.0800 
 33 H       -5.7380     0.4380     1.4890 H     1 <1>   0.0800 
 34 H       -5.3400     4.0660    -0.3260 H     1 <1>   0.1000 
 35 H       -5.1140     2.7340    -1.4980 H     1 <1>   0.1000 
 36 H       -2.6330     2.8330    -1.1200 H     1 <1>   0.1000 
 37 H       -2.8720     4.1660     0.0450 H     1 <1>   0.1000 
 38 H       -5.5300    -1.7950     2.2350 H     1 <1>   0.1500 
 39 H       -5.0290    -0.9500    -1.9460 H     1 <1>   0.1500 
 40 H       -5.2740    -4.1690     1.7640 H     1 <1>   0.1500 
 41 H       -4.7840    -3.3350    -2.3740 H     1 <1>   0.1500 
 42 H       -3.9120    -5.7360    -0.1690 H     1 <1>   0.0800 
 43 H       -4.7950    -5.5870    -1.6550 H     1 <1>   0.0800 
@<TRIPOS>BOND
  1   1   2  1   
  2   1   3  1   
  3   2   4  2   
  4   2   5  1   
  5   3   6  2   
  6   3   7  1   
  7   4   6  1   
  8   4  23  1   
  9   5   8  1   
 10   5  24  1   
 11   5  25  1   
 12   6  26  1   
 13   7  27  1   
 14   7  28  1   
 15   7  29  1   
 16   8   9  1   
 17   8  10  1   
 18   8  30  1   
 19   9  11  1   
 20   9  12  1   
 21   9  31  1   
 22  10  13  1   
 23  10  32  1   
 24  10  33  1   
 25  11  12  1   
 26  11  34  1   
 27  11  35  1   
 28  12  36  1   
 29  12  37  1   
 30  13  14  ar  
 31  13  15  ar  
 32  14  16  ar  
 33  14  38  1   
 34  15  17  ar  
 35  15  39  1   
 36  16  18  ar  
 37  16  40  1   
 38  17  18  ar  
 39  17  41  1   
 40  18  19  1   
 41  19  20  1   
 42  19  42  1   
 43  19  43  1   
 44  20  21  ar  
 45  20  22  ar  
@<TRIPOS>SUBSTRUCTURE
  1 ****  13 GROUP 4 **** **** 0

# MOE 2024.06 (io_trps.svl 2023.06)
