@<TRIPOS>MOLECULE
NONAME
52 55 1 0 0 
SMALL
USER_CHARGES


@<TRIPOS>ATOM
  1 O       -0.3480     0.1410     0.5500 O.3   1 <1>  -0.5600 
  2 C        0.0280     0.8640    -0.5840 C.3   1 <1>   0.1200 
  3 C       -1.6920     0.3800     0.8530 C.3   1 <1>   0.1200 
  4 C       -0.8710     2.0930    -0.5990 C.3   1 <1>   0.2890 
  5 C       -2.1710     1.4940    -0.0850 C.3   1 <1>  -0.0800 
  6 N       -0.3360     3.0900     0.3640 N.pl3 1 <1>  -0.8690 
  7 C       -3.1550     2.4860     0.5650 C.3   1 <1>  -0.0170 
  8 C        0.1400     4.3280     0.0110 C.ar  1 <1>   0.4100 
  9 C       -4.4500     1.7870     0.9730 C.ar  1 <1>  -0.1430 
 10 N       -0.1670     4.7980    -1.1820 N.ar  1 <1>  -0.6200 
 11 C        0.9120     5.0530     0.8850 C.ar  1 <1>  -0.1500 
 12 C       -5.4590     1.4490     0.0400 C.ar  1 <1>   0.0000 
 13 C       -4.6640     1.4570     2.2790 C.ar  1 <1>  -0.1500 
 14 C        0.3220     5.9910    -1.4580 C.ar  1 <1>   0.4700 
 15 C        1.3650     6.2860     0.4880 C.ar  1 <1>   0.4100 
 16 C       -6.6040     0.7710     0.5260 C.ar  1 <1>   0.3100 
 17 C       -5.4010     1.7440    -1.3420 C.ar  1 <1>  -0.1500 
 18 C       -5.8390     0.7950     2.6570 C.ar  1 <1>   0.1600 
 19 N        1.0700     6.7690    -0.7030 N.ar  1 <1>  -0.6200 
 20 N        2.1390     7.0470     1.3320 N.pl3 1 <1>  -0.8690 
 21 N       -6.7780     0.4520     1.8340 N.ar  1 <1>  -0.6200 
 22 C       -7.6130     0.4070    -0.3790 C.ar  1 <1>  -0.1500 
 23 C       -6.4040     1.3770    -2.1980 C.ar  1 <1>  -0.1500 
 24 C        2.5760     8.4220     1.0650 C.3   1 <1>   0.2890 
 25 C       -7.5240     0.6980    -1.7130 C.ar  1 <1>  -0.1500 
 26 C        3.9890     8.5740     1.6100 C.3   1 <1>  -0.2400 
 27 C        1.6070     9.3710     1.7590 C.3   1 <1>  -0.2400 
 28 H        1.0720     1.1150    -0.5300 H     1 <1>   0.0800 
 29 H       -0.1580     0.2460    -1.4460 H     1 <1>   0.0800 
 30 H       -2.2520    -0.5290     0.7120 H     1 <1>   0.0800 
 31 H       -1.7420     0.6820     1.8850 H     1 <1>   0.0800 
 32 H       -0.9720     2.5050    -1.5880 H     1 <1>   0.0800 
 33 H       -2.6610     1.0180    -0.9160 H     1 <1>   0.0800 
 34 H        0.0890     2.6360     1.1770 H     1 <1>   0.4000 
 35 H       -3.3660     3.2950    -0.1120 H     1 <1>   0.0800 
 36 H       -2.7030     2.9270     1.4360 H     1 <1>   0.0800 
 37 H        1.1550     4.6670     1.8510 H     1 <1>   0.1500 
 38 H       -3.9470     1.6900     3.0440 H     1 <1>   0.1500 
 39 H        0.0770     6.3830    -2.4310 H     1 <1>   0.1500 
 40 H       -4.5520     2.2710    -1.7340 H     1 <1>   0.1500 
 41 H       -5.9660     0.5540     3.6980 H     1 <1>   0.1500 
 42 H        2.1880     6.7740     2.3130 H     1 <1>   0.4000 
 43 H       -8.4670    -0.1120     0.0170 H     1 <1>   0.1500 
 44 H       -6.3470     1.6070    -3.2480 H     1 <1>   0.1500 
 45 H        2.5810     8.6160     0.0040 H     1 <1>   0.0800 
 46 H       -8.3060     0.4130    -2.3960 H     1 <1>   0.1500 
 47 H        4.0120     8.3940     2.6700 H     1 <1>   0.0800 
 48 H        4.3470     9.5690     1.4210 H     1 <1>   0.0800 
 49 H        4.6440     7.8790     1.1160 H     1 <1>   0.0800 
 50 H        1.5920     9.1950     2.8190 H     1 <1>   0.0800 
 51 H        0.6180     9.2310     1.3600 H     1 <1>   0.0800 
 52 H        1.9020    10.3880     1.5810 H     1 <1>   0.0800 
@<TRIPOS>BOND
  1   1   2  1   
  2   1   3  1   
  3   2   4  1   
  4   2  28  1   
  5   2  29  1   
  6   3   5  1   
  7   3  30  1   
  8   3  31  1   
  9   4   5  1   
 10   4   6  1   
 11   4  32  1   
 12   5   7  1   
 13   5  33  1   
 14   6   8  1   
 15   6  34  1   
 16   7   9  1   
 17   7  35  1   
 18   7  36  1   
 19   8  10  ar  
 20   8  11  ar  
 21   9  12  ar  
 22   9  13  ar  
 23  10  14  ar  
 24  11  15  ar  
 25  11  37  1   
 26  12  16  ar  
 27  12  17  ar  
 28  13  18  ar  
 29  13  38  1   
 30  14  19  ar  
 31  14  39  1   
 32  15  19  ar  
 33  15  20  1   
 34  16  21  ar  
 35  16  22  ar  
 36  17  23  ar  
 37  17  40  1   
 38  18  21  ar  
 39  18  41  1   
 40  20  24  1   
 41  20  42  1   
 42  22  25  ar  
 43  22  43  1   
 44  23  25  ar  
 45  23  44  1   
 46  24  26  1   
 47  24  27  1   
 48  24  45  1   
 49  25  46  1   
 50  26  47  1   
 51  26  48  1   
 52  26  49  1   
 53  27  50  1   
 54  27  51  1   
 55  27  52  1   
@<TRIPOS>SUBSTRUCTURE
  1 ****   7 GROUP 4 **** **** 0

# MOE 2024.06 (io_trps.svl 2023.06)
