@<TRIPOS>MOLECULE
NONAME
46 49 1 0 0 
SMALL
USER_CHARGES


@<TRIPOS>ATOM
  1 O        3.5900    -2.8540     2.0470 O.2   1 <1>  -0.5700 
  2 C        3.7500    -2.7270     0.8540 C.2   1 <1>   0.5690 
  3 N        4.3760    -1.6090     0.3490 N.am  1 <1>  -0.6600 
  4 C        3.1580    -3.8020    -0.0390 C.3   1 <1>   0.0820 
  5 C        4.8970    -0.5470     1.2710 C.3   1 <1>   0.1400 
  6 C        4.4970    -1.2750    -1.1030 C.3   1 <1>   0.1400 
  7 C        1.8640    -3.2970    -0.6480 C.2   1 <1>   0.1080 
  8 C        4.0990     0.7880     1.2440 C.3   1 <1>   0.4230 
  9 C        3.5790    -0.0980    -1.4960 C.3   1 <1>  -0.0800 
 10 N        1.7160    -3.0360    -1.9050 N.2   1 <1>  -0.7070 
 11 C        0.7030    -3.0300     0.1020 C.ar  1 <1>   0.0000 
 12 N        2.6490     0.6930     0.7970 N.4   1 <1>  -0.9590 
 13 C        4.8560     1.8810     0.4580 C.3   1 <1>   0.1200 
 14 C        4.3360     1.2130    -1.7630 C.3   1 <1>   0.1200 
 15 C        2.3800     0.0740    -0.5500 C.3   1 <1>   0.3430 
 16 N        0.4270    -2.6400    -2.0340 N.pl3 1 <1>   0.3000 
 17 C       -0.2080    -2.5790    -0.8300 C.ar  1 <1>  -0.1520 
 18 C        0.3320    -3.1040     1.4520 C.ar  1 <1>  -0.1500 
 19 C        1.8350    -0.0350     1.8230 C.3   1 <1>   0.2630 
 20 O        5.2990     1.4450    -0.7890 O.3   1 <1>  -0.5600 
 21 C       -1.4940    -2.1760    -0.4550 C.ar  1 <1>  -0.1500 
 22 C       -0.9290    -2.7070     1.8280 C.ar  1 <1>  -0.1500 
 23 C       -1.8430    -2.2400     0.8730 C.ar  1 <1>  -0.1500 
 24 H        3.8550    -4.0820    -0.8050 H     1 <1>   0.0800 
 25 H        2.9500    -4.6770     0.5470 H     1 <1>   0.0800 
 26 H        4.8990    -0.9100     2.2840 H     1 <1>   0.0800 
 27 H        5.9290    -0.3560     1.0290 H     1 <1>   0.0800 
 28 H        5.5250    -1.0420    -1.3290 H     1 <1>   0.0800 
 29 H        4.2400    -2.1280    -1.7050 H     1 <1>   0.0800 
 30 H        4.0880     1.1420     2.2610 H     1 <1>   0.0800 
 31 H        3.1520    -0.3730    -2.4440 H     1 <1>   0.0800 
 32 H        2.2950     1.6550     0.7520 H     1 <1>   0.4500 
 33 H        5.7390     2.1530     1.0100 H     1 <1>   0.0800 
 34 H        4.2600     2.7670     0.3330 H     1 <1>   0.0800 
 35 H        3.6760     2.0610    -1.8270 H     1 <1>   0.0800 
 36 H        4.8650     1.1310    -2.6980 H     1 <1>   0.0800 
 37 H        1.9520    -0.9010    -0.4020 H     1 <1>   0.0800 
 38 H        1.6320     0.6630    -1.0550 H     1 <1>   0.0800 
 39 H       -0.0120    -2.4550    -2.9450 H     1 <1>   0.2700 
 40 H        1.0350    -3.4780     2.1770 H     1 <1>   0.1500 
 41 H        2.1810    -1.0490     1.9270 H     1 <1>   0.0800 
 42 H        0.7970    -0.0620     1.5320 H     1 <1>   0.0800 
 43 H        1.9110     0.4510     2.7820 H     1 <1>   0.0800 
 44 H       -2.1950    -1.8300    -1.1960 H     1 <1>   0.1500 
 45 H       -1.2350    -2.7620     2.8590 H     1 <1>   0.1500 
 46 H       -2.8280    -1.9420     1.1940 H     1 <1>   0.1500 
@<TRIPOS>BOND
  1   1   2  2   
  2   2   3  am  
  3   2   4  1   
  4   3   5  1   
  5   3   6  1   
  6   4   7  1   
  7   4  24  1   
  8   4  25  1   
  9   5   8  1   
 10   5  26  1   
 11   5  27  1   
 12   6   9  1   
 13   6  28  1   
 14   6  29  1   
 15   7  10  2   
 16   7  11  1   
 17   8  12  1   
 18   8  13  1   
 19   8  30  1   
 20   9  14  1   
 21   9  15  1   
 22   9  31  1   
 23  10  16  1   
 24  11  17  ar  
 25  11  18  ar  
 26  12  15  1   
 27  12  19  1   
 28  12  32  1   
 29  13  20  1   
 30  13  33  1   
 31  13  34  1   
 32  14  20  1   
 33  14  35  1   
 34  14  36  1   
 35  15  37  1   
 36  15  38  1   
 37  16  17  1   
 38  16  39  1   
 39  17  21  ar  
 40  18  22  ar  
 41  18  40  1   
 42  19  41  1   
 43  19  42  1   
 44  19  43  1   
 45  21  23  ar  
 46  21  44  1   
 47  22  23  ar  
 48  22  45  1   
 49  23  46  1   
@<TRIPOS>SUBSTRUCTURE
  1 ****  15 GROUP 4 **** **** 0

# MOE 2024.06 (io_trps.svl 2023.06)
