@<TRIPOS>MOLECULE
NONAME
56 59 1 0 0 
SMALL
USER_CHARGES


@<TRIPOS>ATOM
  1 O        3.1760    -0.2300     2.0540 O.2   1 <1>  -0.5700 
  2 C        3.4310    -0.9630     1.1110 C.2   1 <1>   0.5440 
  3 N        4.6570    -0.8790     0.4900 N.am  1 <1>  -0.4200 
  4 C        2.4880    -1.9250     0.6160 C.ar  1 <1>   0.0860 
  5 C        4.9390    -1.7140    -0.5650 C.2   1 <1>   0.4500 
  6 C        5.6650     0.1050     0.9620 C.3   1 <1>   0.0600 
  7 C        2.8820    -2.7210    -0.4650 C.ar  1 <1>   0.1790 
  8 C        1.2110    -2.1100     1.1490 C.ar  1 <1>  -0.1500 
  9 N        4.1330    -2.5880    -1.0350 N.2   1 <1>  -0.6290 
 10 C        2.0030    -3.6670    -0.9770 C.ar  1 <1>  -0.1500 
 11 C        0.3550    -3.0560     0.6270 C.ar  1 <1>  -0.1500 
 12 C        0.7340    -3.8660    -0.4480 C.ar  1 <1>   0.0860 
 13 C       -0.1620    -4.8700    -0.9970 C.2   1 <1>   0.5440 
 14 O       -0.1960    -5.0410    -2.2010 O.2   1 <1>  -0.5700 
 15 N       -0.9690    -5.6470    -0.1850 N.am  1 <1>  -0.6600 
 16 C       -2.1220    -6.4010    -0.7730 C.3   1 <1>   0.2200 
 17 C       -0.4170    -6.1640     1.1070 C.3   1 <1>   0.0600 
 18 C       -3.0780    -5.4850    -1.5380 C.3   1 <1>  -0.1600 
 19 C       -3.0460    -7.0330     0.2700 C.3   1 <1>  -0.1600 
 20 C       -4.4000    -6.2580    -1.6210 C.3   1 <1>  -0.0800 
 21 C       -4.3840    -7.2500    -0.4500 C.3   1 <1>  -0.0800 
 22 C       -5.6380    -5.3740    -1.4360 C.3   1 <1>  -0.1600 
 23 C       -5.6100    -6.9250     0.4130 C.3   1 <1>  -0.1600 
 24 C       -5.9550    -5.4830     0.0550 C.3   1 <1>   0.4230 
 25 N       -7.3530    -5.1030     0.4260 N.4   1 <1>  -0.9590 
 26 C       -8.4340    -5.8610    -0.2870 C.3   1 <1>   0.2630 
 27 C       -7.5590    -3.6320     0.2520 C.3   1 <1>   0.2630 
 28 H        5.9140    -1.6070    -1.0090 H     1 <1>   0.0600 
 29 H        6.5620     0.0480     0.3720 H     1 <1>   0.0800 
 30 H        5.9060    -0.0940     1.9920 H     1 <1>   0.0800 
 31 H        5.2560     1.0990     0.8890 H     1 <1>   0.0800 
 32 H        0.9010    -1.4950     1.9780 H     1 <1>   0.1500 
 33 H        2.3230    -4.2620    -1.8140 H     1 <1>   0.1500 
 34 H       -0.6280    -3.1780     1.0480 H     1 <1>   0.1500 
 35 H       -1.7480    -7.1630    -1.4380 H     1 <1>   0.0800 
 36 H       -1.0270    -5.8300     1.9270 H     1 <1>   0.0800 
 37 H        0.5890    -5.8180     1.2630 H     1 <1>   0.0800 
 38 H       -0.3950    -7.2400     1.0920 H     1 <1>   0.0800 
 39 H       -3.1990    -4.5690    -0.9880 H     1 <1>   0.0800 
 40 H       -2.7060    -5.2620    -2.5230 H     1 <1>   0.0800 
 41 H       -2.6490    -7.9650     0.6340 H     1 <1>   0.0800 
 42 H       -3.1760    -6.3480     1.0880 H     1 <1>   0.0800 
 43 H       -4.4430    -6.7890    -2.5590 H     1 <1>   0.0800 
 44 H       -4.4320    -8.2620    -0.8220 H     1 <1>   0.0800 
 45 H       -6.4280    -5.7860    -2.0340 H     1 <1>   0.0800 
 46 H       -5.4510    -4.3590    -1.7400 H     1 <1>   0.0800 
 47 H       -5.4060    -7.0420     1.4630 H     1 <1>   0.0800 
 48 H       -6.4000    -7.5950     0.1280 H     1 <1>   0.0800 
 49 H       -5.2620    -4.8460     0.5820 H     1 <1>   0.0800 
 50 H       -7.4440    -5.3120     1.4310 H     1 <1>   0.4500 
 51 H       -8.4010    -5.6610    -1.3450 H     1 <1>   0.0800 
 52 H       -9.4020    -5.5660     0.0850 H     1 <1>   0.0800 
 53 H       -8.3220    -6.9210    -0.1320 H     1 <1>   0.0800 
 54 H       -7.4750    -3.3630    -0.7890 H     1 <1>   0.0800 
 55 H       -6.8200    -3.0810     0.8110 H     1 <1>   0.0800 
 56 H       -8.5370    -3.3460     0.6030 H     1 <1>   0.0800 
@<TRIPOS>BOND
  1   1   2  2   
  2   2   3  am  
  3   2   4  1   
  4   3   5  1   
  5   3   6  1   
  6   4   7  ar  
  7   4   8  ar  
  8   5   9  2   
  9   5  28  1   
 10   6  29  1   
 11   6  30  1   
 12   6  31  1   
 13   7   9  1   
 14   7  10  ar  
 15   8  11  ar  
 16   8  32  1   
 17  10  12  ar  
 18  10  33  1   
 19  11  12  ar  
 20  11  34  1   
 21  12  13  1   
 22  13  14  2   
 23  13  15  am  
 24  15  16  1   
 25  15  17  1   
 26  16  18  1   
 27  16  19  1   
 28  16  35  1   
 29  17  36  1   
 30  17  37  1   
 31  17  38  1   
 32  18  20  1   
 33  18  39  1   
 34  18  40  1   
 35  19  21  1   
 36  19  41  1   
 37  19  42  1   
 38  20  21  1   
 39  20  22  1   
 40  20  43  1   
 41  21  23  1   
 42  21  44  1   
 43  22  24  1   
 44  22  45  1   
 45  22  46  1   
 46  23  24  1   
 47  23  47  1   
 48  23  48  1   
 49  24  25  1   
 50  24  49  1   
 51  25  26  1   
 52  25  27  1   
 53  25  50  1   
 54  26  51  1   
 55  26  52  1   
 56  26  53  1   
 57  27  54  1   
 58  27  55  1   
 59  27  56  1   
@<TRIPOS>SUBSTRUCTURE
  1 ****  13 GROUP 4 **** **** 0

# MOE 2024.06 (io_trps.svl 2023.06)
