@<TRIPOS>MOLECULE
NONAME
47 49 1 0 0 
SMALL
USER_CHARGES


@<TRIPOS>ATOM
  1 S        0.0400     0.2370     0.0930 S.o2  1 <1>   1.4470 
  2 O       -0.7620     0.8880     1.0980 O.2   1 <1>  -0.6500 
  3 O        1.4080     0.6120    -0.1680 O.2   1 <1>  -0.6500 
  4 N       -0.7660     0.4850    -1.3430 N.am  1 <1>  -0.9780 
  5 C       -0.0750    -1.5660     0.2890 C.ar  1 <1>  -0.0090 
  6 C        0.8540    -2.4150    -0.3000 C.ar  1 <1>  -0.1500 
  7 C       -1.1070    -2.1490     1.0150 C.ar  1 <1>  -0.1500 
  8 C        0.7530    -3.7890    -0.1720 C.ar  1 <1>  -0.1500 
  9 C       -1.2070    -3.5230     1.1460 C.ar  1 <1>  -0.1500 
 10 C       -0.2840    -4.3790     0.5470 C.ar  1 <1>   0.0860 
 11 C       -0.3780    -5.8220     0.6780 C.2   1 <1>   0.5440 
 12 O        0.6200    -6.4680     0.9320 O.2   1 <1>  -0.5700 
 13 N       -1.5710    -6.4850     0.5030 N.am  1 <1>  -0.6600 
 14 C       -2.6840    -6.0070    -0.3590 C.3   1 <1>   0.1400 
 15 C       -1.7420    -7.9320     0.7780 C.3   1 <1>   0.1400 
 16 C       -3.6090    -7.2150    -0.5630 C.3   1 <1>   0.2000 
 17 C       -2.7040    -8.4230    -0.3030 C.3   1 <1>  -0.0800 
 18 O       -4.6230    -7.1930     0.4010 O.3   1 <1>  -0.5600 
 19 C       -3.4510    -9.7140     0.0780 C.3   1 <1>   0.0200 
 20 C       -5.7690    -6.4870     0.0430 C.3   1 <1>   0.0400 
 21 C       -2.5420   -10.9300     0.1580 C.2   1 <1>  -0.0400 
 22 O       -3.0500   -12.0680     0.5500 O.3   1 <1>  -0.0190 
 23 C       -1.2400   -11.1330    -0.1020 C.2   1 <1>  -0.1500 
 24 N       -2.1610   -13.0190     0.5690 N.2   1 <1>  -0.4100 
 25 C       -1.0600   -12.4840     0.1820 C.2   1 <1>   0.1080 
 26 C        0.2510   -13.2270     0.0560 C.3   1 <1>  -0.0590 
 27 H       -1.7160     0.1530    -1.2220 H     1 <1>   0.4200 
 28 H       -0.2870    -0.0460    -2.0610 H     1 <1>   0.4200 
 29 H        1.6760    -1.9970    -0.8590 H     1 <1>   0.1500 
 30 H       -1.8380    -1.5180     1.4970 H     1 <1>   0.1500 
 31 H        1.4930    -4.4270    -0.6270 H     1 <1>   0.1500 
 32 H       -2.0050    -3.9470     1.7310 H     1 <1>   0.1500 
 33 H       -3.2090    -5.1910     0.1030 H     1 <1>   0.0800 
 34 H       -2.2800    -5.6920    -1.3050 H     1 <1>   0.0800 
 35 H       -0.8020    -8.4560     0.7470 H     1 <1>   0.0800 
 36 H       -2.1810    -8.0480     1.7550 H     1 <1>   0.0800 
 37 H       -4.0480    -7.2460    -1.5460 H     1 <1>   0.0800 
 38 H       -2.1320    -8.6030    -1.1960 H     1 <1>   0.0800 
 39 H       -4.2150    -9.9120    -0.6530 H     1 <1>   0.0800 
 40 H       -3.9370    -9.5870     1.0300 H     1 <1>   0.0800 
 41 H       -6.4570    -6.5280     0.8690 H     1 <1>   0.0800 
 42 H       -6.2170    -6.9510    -0.8200 H     1 <1>   0.0800 
 43 H       -5.5150    -5.4630    -0.1650 H     1 <1>   0.0800 
 44 H       -0.4820   -10.4550    -0.4460 H     1 <1>   0.1500 
 45 H        0.9940   -12.7630     0.6770 H     1 <1>   0.0800 
 46 H        0.5810   -13.2130    -0.9660 H     1 <1>   0.0800 
 47 H        0.1240   -14.2490     0.3680 H     1 <1>   0.0800 
@<TRIPOS>BOND
  1   1   2  2   
  2   1   3  2   
  3   1   4  am  
  4   1   5  1   
  5   4  27  1   
  6   4  28  1   
  7   5   6  ar  
  8   5   7  ar  
  9   6   8  ar  
 10   6  29  1   
 11   7   9  ar  
 12   7  30  1   
 13   8  10  ar  
 14   8  31  1   
 15   9  10  ar  
 16   9  32  1   
 17  10  11  1   
 18  11  12  2   
 19  11  13  am  
 20  13  14  1   
 21  13  15  1   
 22  14  16  1   
 23  14  33  1   
 24  14  34  1   
 25  15  17  1   
 26  15  35  1   
 27  15  36  1   
 28  16  17  1   
 29  16  18  1   
 30  16  37  1   
 31  17  19  1   
 32  17  38  1   
 33  18  20  1   
 34  19  21  1   
 35  19  39  1   
 36  19  40  1   
 37  20  41  1   
 38  20  42  1   
 39  20  43  1   
 40  21  22  1   
 41  21  23  2   
 42  22  24  1   
 43  23  25  1   
 44  23  44  1   
 45  24  25  2   
 46  25  26  1   
 47  26  45  1   
 48  26  46  1   
 49  26  47  1   
@<TRIPOS>SUBSTRUCTURE
  1 ****  13 GROUP 4 **** **** 0

# MOE 2024.06 (io_trps.svl 2023.06)
