@<TRIPOS>MOLECULE
NONAME
53 56 1 0 0 
SMALL
USER_CHARGES


@<TRIPOS>ATOM
  1 S       -0.4210     0.2080    -1.3950 S.o2  1 <1>   1.5760 
  2 O        0.1990     1.3840    -1.9650 O.2   1 <1>  -0.6500 
  3 O       -1.1500    -0.7170    -2.2340 O.2   1 <1>  -0.6500 
  4 N       -1.4440     0.6970    -0.1470 N.am  1 <1>  -0.8490 
  5 N        0.7540    -0.6320    -0.5150 N.am  1 <1>  -0.8490 
  6 C       -2.4690     1.6280    -0.6260 C.3   1 <1>   0.1960 
  7 C       -2.0650    -0.4450     0.5480 C.3   1 <1>   0.1960 
  8 C        1.5920    -1.4300    -1.4090 C.3   1 <1>   0.1960 
  9 C        1.5560     0.2790     0.3150 C.3   1 <1>   0.1160 
 10 C       -3.1260     2.3640     0.5640 C.3   1 <1>   0.1430 
 11 C       -3.2620    -0.0280     1.4280 C.3   1 <1>  -0.1600 
 12 C        2.4070    -2.4570    -0.6240 C.3   1 <1>  -0.2400 
 13 C       -4.4800     2.8760     0.1020 C.ar  1 <1>   0.1660 
 14 C       -3.2160     1.4570     1.8190 C.3   1 <1>  -0.1600 
 15 C       -2.3750     3.6810     0.8910 C.3   1 <1>  -0.1600 
 16 N       -5.5550     2.1440    -0.0700 N.ar  1 <1>  -0.6200 
 17 C       -4.4520     4.2150    -0.1370 C.ar  1 <1>  -0.1440 
 18 C       -3.0900     4.8060     0.1240 C.3   1 <1>  -0.0170 
 19 C       -6.6470     2.7980    -0.4860 C.ar  1 <1>   0.6200 
 20 C       -5.6100     4.8110    -0.5660 C.ar  1 <1>   0.1600 
 21 N       -6.7090     4.1130    -0.7400 N.ar  1 <1>  -0.6200 
 22 C       -7.8630     2.0180    -0.6760 C.ar  1 <1>   0.0000 
 23 C       -9.1300     2.5840    -0.5100 C.ar  1 <1>  -0.1500 
 24 C       -7.8200     0.6660    -1.0330 C.ar  1 <1>  -0.1500 
 25 C      -10.2870     1.8480    -0.6880 C.ar  1 <1>  -0.1500 
 26 C       -8.9730    -0.0770    -1.2130 C.ar  1 <1>  -0.1500 
 27 C      -10.2110     0.5130    -1.0410 C.ar  1 <1>  -0.1500 
 28 H       -3.2130     1.0780    -1.1790 H     1 <1>   0.0800 
 29 H       -2.0380     2.3530    -1.2970 H     1 <1>   0.0800 
 30 H       -1.3160    -0.9100     1.1660 H     1 <1>   0.0800 
 31 H       -2.4040    -1.1810    -0.1630 H     1 <1>   0.0800 
 32 H        2.2390    -0.7890    -1.9870 H     1 <1>   0.0800 
 33 H        0.9640    -1.9720    -2.0980 H     1 <1>   0.0800 
 34 H        0.9110     0.8890     0.9230 H     1 <1>   0.0800 
 35 H        2.1560     0.9250    -0.3030 H     1 <1>   0.0800 
 36 H        2.1970    -0.2760     0.9750 H     1 <1>   0.0800 
 37 H       -3.2890    -0.6440     2.3080 H     1 <1>   0.0800 
 38 H       -4.1720    -0.2160     0.8830 H     1 <1>   0.0800 
 39 H        3.1720    -1.9840    -0.0380 H     1 <1>   0.0800 
 40 H        2.8870    -3.1290    -1.3120 H     1 <1>   0.0800 
 41 H        1.7600    -3.0290     0.0160 H     1 <1>   0.0800 
 42 H       -4.0790     1.7180     2.4070 H     1 <1>   0.0800 
 43 H       -2.3420     1.6030     2.4290 H     1 <1>   0.0800 
 44 H       -1.3290     3.6220     0.6430 H     1 <1>   0.0800 
 45 H       -2.4630     3.8920     1.9420 H     1 <1>   0.0800 
 46 H       -2.5940     5.0040    -0.8110 H     1 <1>   0.0800 
 47 H       -3.1490     5.7080     0.7070 H     1 <1>   0.0800 
 48 H       -5.6370     5.8680    -0.7680 H     1 <1>   0.1500 
 49 H       -9.2090     3.6220    -0.2350 H     1 <1>   0.1500 
 50 H       -6.8650     0.1900    -1.1730 H     1 <1>   0.1500 
 51 H      -11.2480     2.3140    -0.5530 H     1 <1>   0.1500 
 52 H       -8.9080    -1.1150    -1.4880 H     1 <1>   0.1500 
 53 H      -11.1100    -0.0620    -1.1800 H     1 <1>   0.1500 
@<TRIPOS>BOND
  1   1   2  2   
  2   1   3  2   
  3   1   4  am  
  4   1   5  am  
  5   4   6  1   
  6   4   7  1   
  7   5   8  1   
  8   5   9  1   
  9   6  10  1   
 10   6  28  1   
 11   6  29  1   
 12   7  11  1   
 13   7  30  1   
 14   7  31  1   
 15   8  12  1   
 16   8  32  1   
 17   8  33  1   
 18   9  34  1   
 19   9  35  1   
 20   9  36  1   
 21  10  13  1   
 22  10  14  1   
 23  10  15  1   
 24  11  14  1   
 25  11  37  1   
 26  11  38  1   
 27  12  39  1   
 28  12  40  1   
 29  12  41  1   
 30  13  16  ar  
 31  13  17  ar  
 32  14  42  1   
 33  14  43  1   
 34  15  18  1   
 35  15  44  1   
 36  15  45  1   
 37  16  19  ar  
 38  17  18  1   
 39  17  20  ar  
 40  18  46  1   
 41  18  47  1   
 42  19  21  ar  
 43  19  22  1   
 44  20  21  ar  
 45  20  48  1   
 46  22  23  ar  
 47  22  24  ar  
 48  23  25  ar  
 49  23  49  1   
 50  24  26  ar  
 51  24  50  1   
 52  25  27  ar  
 53  25  51  1   
 54  26  27  ar  
 55  26  52  1   
 56  27  53  1   
@<TRIPOS>SUBSTRUCTURE
  1 ****   6 GROUP 4 **** **** 0

# MOE 2024.06 (io_trps.svl 2023.06)
