@<TRIPOS>MOLECULE
NONAME
52 56 1 0 0 
SMALL
USER_CHARGES


@<TRIPOS>ATOM
  1 S       -0.0330    -0.0530     1.6420 S.o2  1 <1>   1.4470 
  2 O       -0.6200    -1.3080     2.0700 O.2   1 <1>  -0.6500 
  3 O        0.1020     0.9880     2.6380 O.2   1 <1>  -0.6500 
  4 N       -1.0500     0.5100     0.4070 N.am  1 <1>  -0.8490 
  5 C        1.5500    -0.4060     0.8440 C.ar  1 <1>  -0.0090 
  6 C       -2.2380     1.1930     0.9460 C.3   1 <1>   0.1960 
  7 C       -1.4310    -0.5340    -0.5460 C.3   1 <1>   0.1960 
  8 C        2.2570     0.6270     0.1940 C.ar  1 <1>   0.3100 
  9 C        2.0690    -1.6810     0.8620 C.ar  1 <1>  -0.1500 
 10 C       -3.0310     1.8980    -0.1720 C.3   1 <1>   0.1440 
 11 C       -2.1810     0.0860    -1.7310 C.3   1 <1>  -0.1600 
 12 N        1.7580     1.8930     0.1650 N.ar  1 <1>  -0.6200 
 13 C        3.4920     0.3160    -0.4270 C.ar  1 <1>   0.0000 
 14 C        3.2850    -1.9920     0.2490 C.ar  1 <1>  -0.1440 
 15 C       -4.2420     2.5760     0.4420 C.ar  1 <1>   0.1670 
 16 C       -3.4140     0.8750    -1.2620 C.3   1 <1>  -0.1600 
 17 C       -2.2330     3.0990    -0.7490 C.3   1 <1>  -0.1600 
 18 C        2.4420     2.8170    -0.4360 C.ar  1 <1>   0.1600 
 19 C        3.9800    -1.0020    -0.3850 C.ar  1 <1>  -0.1500 
 20 C        4.2010     1.3440    -1.0720 C.ar  1 <1>  -0.1500 
 21 C        3.7980    -3.4200     0.3080 C.3   1 <1>  -0.0970 
 22 N       -5.3260     1.9680     0.8640 N.ar  1 <1>  -0.6200 
 23 C       -4.0720     3.9270     0.5210 C.ar  1 <1>  -0.1440 
 24 C       -2.7300     4.3580    -0.0180 C.3   1 <1>  -0.0170 
 25 C        3.6690     2.5960    -1.0710 C.ar  1 <1>  -0.1500 
 26 C       -6.2460     2.7850     1.3530 C.ar  1 <1>   0.7200 
 27 C       -5.0920     4.6710     1.0620 C.ar  1 <1>   0.1600 
 28 N       -6.1980     4.1030     1.4890 N.ar  1 <1>  -0.6200 
 29 N       -7.3610     2.2000     1.7950 N.pl3 1 <1>  -0.9000 
 30 H       -1.9380     1.9330     1.6680 H     1 <1>   0.0800 
 31 H       -2.8710     0.4800     1.4480 H     1 <1>   0.0800 
 32 H       -2.0550    -1.2660    -0.0590 H     1 <1>   0.0800 
 33 H       -0.5480    -1.0320    -0.9120 H     1 <1>   0.0800 
 34 H        1.5320    -2.4710     1.3620 H     1 <1>   0.1500 
 35 H       -2.4880    -0.6940    -2.4040 H     1 <1>   0.0800 
 36 H       -1.5080     0.7340    -2.2660 H     1 <1>   0.0800 
 37 H       -3.8840     1.3710    -2.0930 H     1 <1>   0.0800 
 38 H       -4.1300     0.1830    -0.8520 H     1 <1>   0.0800 
 39 H       -2.4570     3.2090    -1.7960 H     1 <1>   0.0800 
 40 H       -1.1690     2.9740    -0.6440 H     1 <1>   0.0800 
 41 H        2.0410     3.8160    -0.4470 H     1 <1>   0.1500 
 42 H        4.9200    -1.2130    -0.8640 H     1 <1>   0.1500 
 43 H        5.1410     1.1290    -1.5480 H     1 <1>   0.1500 
 44 H        3.0920    -4.0840    -0.1570 H     1 <1>   0.0800 
 45 H        3.9330    -3.7190     1.3320 H     1 <1>   0.0800 
 46 H        4.7400    -3.5110    -0.2020 H     1 <1>   0.0800 
 47 H       -2.8160     5.1960    -0.6860 H     1 <1>   0.0800 
 48 H       -2.0730     4.6030     0.7990 H     1 <1>   0.0800 
 49 H        4.1680     3.4210    -1.5470 H     1 <1>   0.1500 
 50 H       -5.0010     5.7400     1.1470 H     1 <1>   0.1500 
 51 H       -7.9150     2.7600     2.4360 H     1 <1>   0.4000 
 52 H       -7.2750     1.2100     2.0010 H     1 <1>   0.4000 
@<TRIPOS>BOND
  1   1   2  2   
  2   1   3  2   
  3   1   4  am  
  4   1   5  1   
  5   4   6  1   
  6   4   7  1   
  7   5   8  ar  
  8   5   9  ar  
  9   6  10  1   
 10   6  30  1   
 11   6  31  1   
 12   7  11  1   
 13   7  32  1   
 14   7  33  1   
 15   8  12  ar  
 16   8  13  ar  
 17   9  14  ar  
 18   9  34  1   
 19  10  15  1   
 20  10  16  1   
 21  10  17  1   
 22  11  16  1   
 23  11  35  1   
 24  11  36  1   
 25  12  18  ar  
 26  13  19  ar  
 27  13  20  ar  
 28  14  19  ar  
 29  14  21  1   
 30  15  22  ar  
 31  15  23  ar  
 32  16  37  1   
 33  16  38  1   
 34  17  24  1   
 35  17  39  1   
 36  17  40  1   
 37  18  25  ar  
 38  18  41  1   
 39  19  42  1   
 40  20  25  ar  
 41  20  43  1   
 42  21  44  1   
 43  21  45  1   
 44  21  46  1   
 45  22  26  ar  
 46  23  24  1   
 47  23  27  ar  
 48  24  47  1   
 49  24  48  1   
 50  25  49  1   
 51  26  28  ar  
 52  26  29  1   
 53  27  28  ar  
 54  27  50  1   
 55  29  51  1   
 56  29  52  1   
@<TRIPOS>SUBSTRUCTURE
  1 ****   4 GROUP 4 **** **** 0

# MOE 2024.06 (io_trps.svl 2023.06)
