@<TRIPOS>MOLECULE
NONAME
47 48 1 0 0 
SMALL
USER_CHARGES


@<TRIPOS>ATOM
  1 CL       2.1040    -0.3630     2.4940 Cl    1 <1>  -0.1770 
  2 C        2.6970     1.1460     1.8250 C.ar  1 <1>   0.1770 
  3 C        3.9850     1.1950     1.3050 C.ar  1 <1>  -0.1440 
  4 C        1.8680     2.2620     1.8330 C.ar  1 <1>  -0.1440 
  5 C        4.4430     2.3900     0.7740 C.ar  1 <1>  -0.1500 
  6 C        4.8870    -0.0310     1.3140 C.3   1 <1>  -0.0960 
  7 C        2.3450     3.4470     1.2970 C.ar  1 <1>  -0.1500 
  8 C        0.4640     2.1970     2.4170 C.3   1 <1>  -0.0960 
  9 C        3.6200     3.5070     0.7550 C.ar  1 <1>   0.0830 
 10 O        4.0820     4.6740     0.2480 O.3   1 <1>  -0.3630 
 11 C        3.9120     5.0230    -1.1340 C.3   1 <1>   0.3410 
 12 C        4.5650     6.4120    -1.3540 C.2   1 <1>   0.5690 
 13 C        4.6050     3.9660    -2.0120 C.3   1 <1>  -0.2400 
 14 C        2.4090     5.0850    -1.4590 C.3   1 <1>  -0.2400 
 15 O        4.5350     6.9150    -2.4510 O.2   1 <1>  -0.5700 
 16 N        5.1560     7.0180    -0.2780 N.am  1 <1>  -0.4940 
 17 C        5.8140     8.2250    -0.1840 C.2   1 <1>   0.4420 
 18 S        6.4090     8.6650     1.3820 S.3   1 <1>  -0.0800 
 19 N        6.0770     9.1150    -1.0680 N.2   1 <1>  -0.3380 
 20 C        7.0140    10.1240     0.6720 C.2   1 <1>   0.1980 
 21 N        6.7630    10.1920    -0.5760 N.2   1 <1>  -0.3380 
 22 C        7.7440    11.0930     1.6070 C.3   1 <1>   0.3800 
 23 O        7.7300    12.4120     1.1400 O.3   1 <1>  -0.5600 
 24 C        9.2130    10.7080     1.7650 C.3   1 <1>  -0.2400 
 25 C        6.4780    13.0250     1.0980 C.3   1 <1>   0.0400 
 26 H        5.4380     2.4650     0.3750 H     1 <1>   0.1500 
 27 H        4.4310    -0.8260     0.7510 H     1 <1>   0.0800 
 28 H        5.0400    -0.3660     2.3240 H     1 <1>   0.0800 
 29 H        5.8450     0.1880     0.8790 H     1 <1>   0.0800 
 30 H        1.7330     4.3310     1.2990 H     1 <1>   0.1500 
 31 H       -0.1210     1.4670     1.8860 H     1 <1>   0.0800 
 32 H       -0.0310     3.1480     2.3440 H     1 <1>   0.0800 
 33 H        0.5110     1.9160     3.4540 H     1 <1>   0.0800 
 34 H        5.6440     3.8840    -1.7480 H     1 <1>   0.0800 
 35 H        4.5470     4.2610    -3.0450 H     1 <1>   0.0800 
 36 H        4.1280     3.0080    -1.9190 H     1 <1>   0.0800 
 37 H        1.9150     5.7840    -0.8080 H     1 <1>   0.0800 
 38 H        1.9510     4.1170    -1.3700 H     1 <1>   0.0800 
 39 H        2.2720     5.4200    -2.4720 H     1 <1>   0.0800 
 40 H        5.0930     6.4740     0.5830 H     1 <1>   0.3700 
 41 H        7.2690    11.0860     2.5730 H     1 <1>   0.0800 
 42 H        9.6990    10.7280     0.8060 H     1 <1>   0.0800 
 43 H        9.2950     9.7170     2.1710 H     1 <1>   0.0800 
 44 H        9.7040    11.3960     2.4290 H     1 <1>   0.0800 
 45 H        6.6190    14.0460     0.7900 H     1 <1>   0.0800 
 46 H        6.0320    13.0020     2.0770 H     1 <1>   0.0800 
 47 H        5.8510    12.5240     0.3810 H     1 <1>   0.0800 
@<TRIPOS>BOND
  1   1   2  1   
  2   2   3  ar  
  3   2   4  ar  
  4   3   5  ar  
  5   3   6  1   
  6   4   7  ar  
  7   4   8  1   
  8   5   9  ar  
  9   5  26  1   
 10   6  27  1   
 11   6  28  1   
 12   6  29  1   
 13   7   9  ar  
 14   7  30  1   
 15   8  31  1   
 16   8  32  1   
 17   8  33  1   
 18   9  10  1   
 19  10  11  1   
 20  11  12  1   
 21  11  13  1   
 22  11  14  1   
 23  12  15  2   
 24  12  16  am  
 25  13  34  1   
 26  13  35  1   
 27  13  36  1   
 28  14  37  1   
 29  14  38  1   
 30  14  39  1   
 31  16  17  1   
 32  16  40  1   
 33  17  18  1   
 34  17  19  2   
 35  18  20  1   
 36  19  21  1   
 37  20  21  2   
 38  20  22  1   
 39  22  23  1   
 40  22  24  1   
 41  22  41  1   
 42  23  25  1   
 43  24  42  1   
 44  24  43  1   
 45  24  44  1   
 46  25  45  1   
 47  25  46  1   
 48  25  47  1   
@<TRIPOS>SUBSTRUCTURE
  1 ****  16 GROUP 4 **** **** 0

# MOE 2024.06 (io_trps.svl 2023.06)
