@<TRIPOS>MOLECULE
NONAME
49 51 1 0 0 
SMALL
USER_CHARGES


@<TRIPOS>ATOM
  1 S       -1.0770    -0.7580    -1.1050 S.3   1 <1>  -0.0800 
  2 C       -1.5760    -1.5030     0.4110 C.2   1 <1>  -0.1400 
  3 C       -1.0670     0.8350    -0.3720 C.2   1 <1>  -0.1100 
  4 C       -1.7070    -0.5660     1.3690 C.2   1 <1>  -0.1500 
  5 C       -1.7840    -3.0080     0.4450 C.3   1 <1>   0.3800 
  6 C       -1.4190     0.7630     0.9240 C.2   1 <1>  -0.1500 
  7 O       -0.5760    -3.6000     0.1540 O.3   1 <1>  -0.6800 
  8 C       -2.8360    -3.5100    -0.5690 C.3   1 <1>  -0.0800 
  9 C       -4.2040    -2.8270    -0.3690 C.3   1 <1>  -0.1600 
 10 C       -3.0150    -5.0410    -0.5120 C.3   1 <1>  -0.1600 
 11 C       -5.2410    -3.3400    -1.3680 C.3   1 <1>   0.3430 
 12 C       -4.0680    -5.5240    -1.5070 C.3   1 <1>   0.3430 
 13 N       -5.3580    -4.8180    -1.2520 N.4   1 <1>  -0.9590 
 14 C       -6.4540    -5.3720    -2.1170 C.3   1 <1>   0.5240 
 15 C       -6.7840    -6.8080    -1.7150 C.2   1 <1>   0.3350 
 16 N       -6.8980    -7.7860    -2.5170 N.2   1 <1>  -0.4100 
 17 N       -6.9450    -7.1400    -0.4390 N.2   1 <1>  -0.5650 
 18 O       -7.1620    -8.8360    -1.8000 O.3   1 <1>  -0.0190 
 19 C       -7.1750    -8.3880    -0.5680 C.2   1 <1>   0.2980 
 20 C       -7.4590    -9.3590     0.5650 C.3   1 <1>   0.0200 
 21 C       -6.1870   -10.0380     1.1100 C.3   1 <1>  -0.0800 
 22 C       -5.4900   -10.9050     0.0500 C.3   1 <1>  -0.2400 
 23 C       -6.5300   -10.9030     2.3290 C.3   1 <1>  -0.2400 
 24 H       -0.7930     1.6670    -0.9980 H     1 <1>   0.1500 
 25 H       -1.9980    -0.7450     2.3910 H     1 <1>   0.1500 
 26 H       -2.0560    -3.3060     1.4430 H     1 <1>   0.0800 
 27 H       -1.4890     1.6000     1.5980 H     1 <1>   0.1500 
 28 H        0.1390    -2.9890     0.4220 H     1 <1>   0.4000 
 29 H       -2.4800    -3.2510    -1.5530 H     1 <1>   0.0800 
 30 H       -4.1030    -1.7640    -0.5070 H     1 <1>   0.0800 
 31 H       -4.5600    -2.9890     0.6340 H     1 <1>   0.0800 
 32 H       -3.2900    -5.3510     0.4810 H     1 <1>   0.0800 
 33 H       -2.0820    -5.5220    -0.7500 H     1 <1>   0.0800 
 34 H       -4.9350    -3.0730    -2.3670 H     1 <1>   0.0800 
 35 H       -6.1920    -2.8730    -1.1660 H     1 <1>   0.0800 
 36 H       -4.1970    -6.5900    -1.3990 H     1 <1>   0.0800 
 37 H       -3.7300    -5.3230    -2.5120 H     1 <1>   0.0800 
 38 H       -5.6360    -5.0590    -0.2880 H     1 <1>   0.4500 
 39 H       -6.1640    -5.3510    -3.1540 H     1 <1>   0.0800 
 40 H       -7.3460    -4.7810    -1.9990 H     1 <1>   0.0800 
 41 H       -8.1580   -10.1030     0.2240 H     1 <1>   0.0800 
 42 H       -7.9320    -8.8120     1.3610 H     1 <1>   0.0800 
 43 H       -5.5010    -9.2700     1.4270 H     1 <1>   0.0800 
 44 H       -6.1580   -11.6600    -0.3250 H     1 <1>   0.0800 
 45 H       -4.6310   -11.3940     0.4760 H     1 <1>   0.0800 
 46 H       -5.1490   -10.3060    -0.7750 H     1 <1>   0.0800 
 47 H       -7.2110   -11.6920     2.0600 H     1 <1>   0.0800 
 48 H       -6.9840   -10.3060     3.1010 H     1 <1>   0.0800 
 49 H       -5.6380   -11.3480     2.7350 H     1 <1>   0.0800 
@<TRIPOS>BOND
  1   1   2  1   
  2   1   3  1   
  3   2   4  2   
  4   2   5  1   
  5   3   6  2   
  6   3  24  1   
  7   4   6  1   
  8   4  25  1   
  9   5   7  1   
 10   5   8  1   
 11   5  26  1   
 12   6  27  1   
 13   7  28  1   
 14   8   9  1   
 15   8  10  1   
 16   8  29  1   
 17   9  11  1   
 18   9  30  1   
 19   9  31  1   
 20  10  12  1   
 21  10  32  1   
 22  10  33  1   
 23  11  13  1   
 24  11  34  1   
 25  11  35  1   
 26  12  13  1   
 27  12  36  1   
 28  12  37  1   
 29  13  14  1   
 30  13  38  1   
 31  14  15  1   
 32  14  39  1   
 33  14  40  1   
 34  15  16  2   
 35  15  17  1   
 36  16  18  1   
 37  17  19  2   
 38  18  19  1   
 39  19  20  1   
 40  20  21  1   
 41  20  41  1   
 42  20  42  1   
 43  21  22  1   
 44  21  23  1   
 45  21  43  1   
 46  22  44  1   
 47  22  45  1   
 48  22  46  1   
 49  23  47  1   
 50  23  48  1   
 51  23  49  1   
@<TRIPOS>SUBSTRUCTURE
  1 ****  12 GROUP 4 **** **** 0

# MOE 2024.06 (io_trps.svl 2023.06)
