@<TRIPOS>MOLECULE
NONAME
48 51 1 0 0 
SMALL
USER_CHARGES


@<TRIPOS>ATOM
  1 O        0.3220    -0.3080     0.9360 O.2   1 <1>  -0.5700 
  2 C        1.2170    -0.7370     0.2320 C.2   1 <1>   0.5440 
  3 N        2.1410     0.1050    -0.3200 N.am  1 <1>  -0.4930 
  4 C        1.3370    -2.1530    -0.0090 C.ar  1 <1>   0.0860 
  5 C        2.4130     1.4700    -0.0640 C.2   1 <1>   0.0630 
  6 C        0.2650    -2.9500    -0.4310 C.ar  1 <1>   0.0000 
  7 C        2.5340    -2.8300     0.1550 C.ar  1 <1>  -0.1500 
  8 C        3.7190     1.9640     0.0320 C.2   1 <1>   0.3720 
  9 C        1.6190     2.5480     0.1160 C.2   1 <1>  -0.3320 
 10 C        0.4890    -4.2880    -0.6430 C.ar  1 <1>   0.3970 
 11 C       -1.0990    -2.8200    -0.7580 C.2   1 <1>   0.1080 
 12 C        2.6350    -4.2000    -0.0920 C.ar  1 <1>   0.1660 
 13 N        3.7530     3.2360     0.2730 N.2   1 <1>  -0.7070 
 14 N        4.8730     1.1670    -0.1140 N.pl3 1 <1>  -0.8210 
 15 N        2.4520     3.5970     0.3360 N.pl3 1 <1>   0.3140 
 16 C        0.1010     2.6580     0.0840 C.3   1 <1>  -0.0600 
 17 O       -0.6470    -4.8320    -1.0430 O.3   1 <1>  -0.0190 
 18 N        1.6360    -4.9510    -0.4920 N.ar  1 <1>  -0.5670 
 19 N       -1.6060    -3.9400    -1.1150 N.2   1 <1>  -0.4100 
 20 C       -1.9020    -1.5350    -0.7130 C.3   1 <1>  -0.0590 
 21 C        3.9620    -4.9040     0.1010 C.3   1 <1>  -0.0970 
 22 C        5.8070     1.7180    -1.1380 C.3   1 <1>   0.2090 
 23 C        5.6170     1.0590     1.1710 C.3   1 <1>   0.2090 
 24 C        2.0730     4.9880     0.6120 C.3   1 <1>   0.0160 
 25 C        7.0840     2.1000    -0.4000 C.3   1 <1>  -0.1600 
 26 C        7.0910     1.1940     0.8180 C.3   1 <1>  -0.1600 
 27 H        2.9560    -0.3350    -0.7510 H     1 <1>   0.3700 
 28 H        3.4040    -2.2920     0.4880 H     1 <1>   0.1500 
 29 H       -0.3270     1.7820    -0.3660 H     1 <1>   0.0800 
 30 H       -0.2050     3.5110    -0.4940 H     1 <1>   0.0800 
 31 H       -0.2820     2.7500     1.0850 H     1 <1>   0.0800 
 32 H       -1.3770    -0.7500    -1.2250 H     1 <1>   0.0800 
 33 H       -2.0640    -1.2430     0.3090 H     1 <1>   0.0800 
 34 H       -2.8560    -1.6790    -1.1860 H     1 <1>   0.0800 
 35 H        4.7250    -4.2230     0.4280 H     1 <1>   0.0800 
 36 H        4.2700    -5.3520    -0.8270 H     1 <1>   0.0800 
 37 H        3.8520    -5.6810     0.8360 H     1 <1>   0.0800 
 38 H        5.3890     2.5690    -1.6500 H     1 <1>   0.0800 
 39 H        6.0160     0.9480    -1.8600 H     1 <1>   0.0800 
 40 H        5.4140     0.1140     1.6440 H     1 <1>   0.0800 
 41 H        5.3300     1.8550     1.8390 H     1 <1>   0.0800 
 42 H        1.3600     5.0080     1.4140 H     1 <1>   0.0800 
 43 H        1.6450     5.4170    -0.2740 H     1 <1>   0.0800 
 44 H        2.9490     5.5420     0.8940 H     1 <1>   0.0800 
 45 H        7.0060     3.1280    -0.0920 H     1 <1>   0.0800 
 46 H        7.9570     1.9780    -1.0160 H     1 <1>   0.0800 
 47 H        7.4830     0.2260     0.5600 H     1 <1>   0.0800 
 48 H        7.6600     1.6040     1.6330 H     1 <1>   0.0800 
@<TRIPOS>BOND
  1   1   2  2   
  2   2   3  am  
  3   2   4  1   
  4   3   5  1   
  5   3  27  1   
  6   4   6  ar  
  7   4   7  ar  
  8   5   8  1   
  9   5   9  2   
 10   6  10  ar  
 11   6  11  1   
 12   7  12  ar  
 13   7  28  1   
 14   8  13  2   
 15   8  14  1   
 16   9  15  1   
 17   9  16  1   
 18  10  17  1   
 19  10  18  ar  
 20  11  19  2   
 21  11  20  1   
 22  12  18  ar  
 23  12  21  1   
 24  13  15  1   
 25  14  22  1   
 26  14  23  1   
 27  15  24  1   
 28  16  29  1   
 29  16  30  1   
 30  16  31  1   
 31  17  19  1   
 32  20  32  1   
 33  20  33  1   
 34  20  34  1   
 35  21  35  1   
 36  21  36  1   
 37  21  37  1   
 38  22  25  1   
 39  22  38  1   
 40  22  39  1   
 41  23  26  1   
 42  23  40  1   
 43  23  41  1   
 44  24  42  1   
 45  24  43  1   
 46  24  44  1   
 47  25  26  1   
 48  25  45  1   
 49  25  46  1   
 50  26  47  1   
 51  26  48  1   
@<TRIPOS>SUBSTRUCTURE
  1 ****   3 GROUP 4 **** **** 0

# MOE 2024.06 (io_trps.svl 2023.06)
