@<TRIPOS>MOLECULE
NONAME
56 59 1 0 0 
SMALL
USER_CHARGES


@<TRIPOS>ATOM
  1 O       -3.2010     1.4980     2.9370 O.2   1 <1>  -0.5700 
  2 C       -3.2550     1.8230     1.7740 C.2   1 <1>   0.5690 
  3 N       -3.7920     0.9850     0.8320 N.am  1 <1>  -0.6600 
  4 C       -2.7270     3.1920     1.4050 C.3   1 <1>   0.1570 
  5 C       -3.8320     1.2170    -0.6390 C.3   1 <1>   0.1400 
  6 C       -4.1960    -0.4100     1.1410 C.3   1 <1>   0.1400 
  7 N       -1.4790     3.0720     0.6350 N.pl3 1 <1>   0.3140 
  8 C       -4.5160    -0.0260    -1.2120 C.3   1 <1>   0.2000 
  9 C       -4.1850    -1.1360    -0.2110 C.3   1 <1>  -0.0800 
 10 N       -1.4450     3.4310    -0.6590 N.2   1 <1>  -0.7070 
 11 C       -0.2690     2.6600     1.0540 C.2   1 <1>  -0.3320 
 12 O       -5.8870     0.1740    -1.1980 O.3   1 <1>  -0.6800 
 13 C       -2.8040    -1.7530    -0.5180 C.3   1 <1>  -0.0170 
 14 C       -0.2220     3.2530    -1.0310 C.2   1 <1>   0.1080 
 15 C        0.5940     2.7480    -0.0040 C.2   1 <1>  -0.0860 
 16 C        0.0180     2.1900     2.4770 C.3   1 <1>  -0.0600 
 17 C       -2.4390    -2.8640     0.4620 C.ar  1 <1>  -0.1440 
 18 C        0.2020     3.6160    -2.4400 C.3   1 <1>  -0.0590 
 19 C        1.9980     2.4210    -0.0660 C.2   1 <1>   0.5950 
 20 C       -2.9990    -4.1610     0.3860 C.ar  1 <1>   0.0000 
 21 C       -1.5420    -2.6220     1.4600 C.ar  1 <1>  -0.1500 
 22 O        2.7620     2.5800     0.8510 O.2   1 <1>  -0.5700 
 23 C        2.5800     1.8090    -1.3220 C.3   1 <1>  -0.1790 
 24 C       -2.5970    -5.1080     1.3600 C.ar  1 <1>   0.3100 
 25 C       -3.9280    -4.5770    -0.5970 C.ar  1 <1>  -0.1500 
 26 C       -1.2090    -3.6310     2.3710 C.ar  1 <1>   0.1600 
 27 N       -1.7040    -4.8280     2.3430 N.ar  1 <1>  -0.6200 
 28 C       -3.1410    -6.4020     1.3160 C.ar  1 <1>  -0.1500 
 29 C       -4.4380    -5.8470    -0.6120 C.ar  1 <1>  -0.1500 
 30 C       -4.0430    -6.7720     0.3560 C.ar  1 <1>  -0.1500 
 31 H       -2.5290     3.7560     2.2950 H     1 <1>   0.0800 
 32 H       -3.4550     3.7160     0.8170 H     1 <1>   0.0800 
 33 H       -4.3590     2.1200    -0.8930 H     1 <1>   0.0800 
 34 H       -2.8260     1.2690    -1.0160 H     1 <1>   0.0800 
 35 H       -3.5330    -0.8560     1.8620 H     1 <1>   0.0800 
 36 H       -5.1910    -0.4010     1.5510 H     1 <1>   0.0800 
 37 H       -4.2180    -0.2450    -2.2230 H     1 <1>   0.0800 
 38 H       -4.9310    -1.9100    -0.2320 H     1 <1>   0.0800 
 39 H       -6.1580     0.4910    -0.3140 H     1 <1>   0.4000 
 40 H       -2.0490    -0.9860    -0.4760 H     1 <1>   0.0800 
 41 H       -2.7900    -2.1450    -1.5200 H     1 <1>   0.0800 
 42 H        1.0630     1.9880     2.6180 H     1 <1>   0.0800 
 43 H       -0.5260     1.2880     2.6900 H     1 <1>   0.0800 
 44 H       -0.2720     2.9450     3.1850 H     1 <1>   0.0800 
 45 H        1.1320     4.1510    -2.4230 H     1 <1>   0.0800 
 46 H       -0.5420     4.2490    -2.8880 H     1 <1>   0.0800 
 47 H        0.2990     2.7300    -3.0380 H     1 <1>   0.0800 
 48 H       -1.0740    -1.6610     1.5800 H     1 <1>   0.1500 
 49 H        1.8300     1.2510    -1.8490 H     1 <1>   0.0800 
 50 H        3.3780     1.1410    -1.0550 H     1 <1>   0.0800 
 51 H        2.9760     2.5820    -1.9520 H     1 <1>   0.0800 
 52 H       -4.2440    -3.8840    -1.3530 H     1 <1>   0.1500 
 53 H       -0.4990    -3.3960     3.1450 H     1 <1>   0.1500 
 54 H       -2.8210    -7.0960     2.0700 H     1 <1>   0.1500 
 55 H       -5.1460    -6.1490    -1.3650 H     1 <1>   0.1500 
 56 H       -4.4510    -7.7680     0.3350 H     1 <1>   0.1500 
@<TRIPOS>BOND
  1   1   2  2   
  2   2   3  am  
  3   2   4  1   
  4   3   5  1   
  5   3   6  1   
  6   4   7  1   
  7   4  31  1   
  8   4  32  1   
  9   5   8  1   
 10   5  33  1   
 11   5  34  1   
 12   6   9  1   
 13   6  35  1   
 14   6  36  1   
 15   7  10  1   
 16   7  11  1   
 17   8   9  1   
 18   8  12  1   
 19   8  37  1   
 20   9  13  1   
 21   9  38  1   
 22  10  14  2   
 23  11  15  2   
 24  11  16  1   
 25  12  39  1   
 26  13  17  1   
 27  13  40  1   
 28  13  41  1   
 29  14  15  1   
 30  14  18  1   
 31  15  19  1   
 32  16  42  1   
 33  16  43  1   
 34  16  44  1   
 35  17  20  ar  
 36  17  21  ar  
 37  18  45  1   
 38  18  46  1   
 39  18  47  1   
 40  19  22  2   
 41  19  23  1   
 42  20  24  ar  
 43  20  25  ar  
 44  21  26  ar  
 45  21  48  1   
 46  23  49  1   
 47  23  50  1   
 48  23  51  1   
 49  24  27  ar  
 50  24  28  ar  
 51  25  29  ar  
 52  25  52  1   
 53  26  27  ar  
 54  26  53  1   
 55  28  30  ar  
 56  28  54  1   
 57  29  30  ar  
 58  29  55  1   
 59  30  56  1   
@<TRIPOS>SUBSTRUCTURE
  1 ****  13 GROUP 4 **** **** 0

# MOE 2024.06 (io_trps.svl 2023.06)
