@<TRIPOS>MOLECULE
NONAME
54 57 1 0 0 
SMALL
USER_CHARGES


@<TRIPOS>ATOM
  1 O        1.3230    -1.4560    -0.1540 O.3   1 <1>  -0.5600 
  2 C        2.4510    -1.0410     0.5660 C.3   1 <1>   0.7040 
  3 C        0.0780    -1.4010     0.5260 C.3   1 <1>   0.2000 
  4 O        2.1810     0.2770     0.9840 O.3   1 <1>  -0.5600 
  5 C        3.6130    -0.8950    -0.3960 C.ar  1 <1>  -0.1440 
  6 C        2.7150    -1.9350     1.8240 C.3   1 <1>   0.2000 
  7 C        0.2030    -1.8940     1.9950 C.3   1 <1>   0.2000 
  8 C       -0.9410    -2.1920    -0.3140 C.3   1 <1>   0.1200 
  9 C        2.8150     1.2200     0.1590 C.3   1 <1>   0.2640 
 10 C        3.8400     0.4330    -0.6070 C.ar  1 <1>  -0.1440 
 11 C        4.3930    -1.8490    -1.0290 C.ar  1 <1>  -0.1500 
 12 O        3.7940    -2.8350     1.7230 O.3   1 <1>  -0.6800 
 13 C        1.4620    -2.7510     2.1640 C.3   1 <1>   0.2000 
 14 O       -0.9000    -2.6330     2.4110 O.3   1 <1>  -0.6800 
 15 O       -0.8270    -1.8220    -1.6470 O.3   1 <1>  -0.6800 
 16 C        4.8680     0.8620    -1.4260 C.ar  1 <1>  -0.1500 
 17 C        5.4380    -1.4430    -1.8470 C.ar  1 <1>  -0.1430 
 18 O        1.5510    -3.2630     3.4600 O.3   1 <1>  -0.6800 
 19 C        5.6710    -0.0860    -2.0410 C.ar  1 <1>  -0.1500 
 20 C        6.3210    -2.4900    -2.5150 C.3   1 <1>   0.1270 
 21 C        6.8360    -3.4950    -1.4920 C.ar  1 <1>  -0.1430 
 22 C        7.6610    -3.0740    -0.4610 C.ar  1 <1>  -0.1500 
 23 C        6.4800    -4.8330    -1.5680 C.ar  1 <1>  -0.1500 
 24 C        8.1220    -3.9760     0.4820 C.ar  1 <1>  -0.1500 
 25 C        6.9420    -5.7350    -0.6260 C.ar  1 <1>  -0.1500 
 26 C        7.7660    -5.3130     0.4050 C.ar  1 <1>  -0.1430 
 27 C        8.2700    -6.3040     1.4410 C.3   1 <1>  -0.0170 
 28 C        7.2910    -6.4030     2.6130 C.3   1 <1>  -0.2400 
 29 H       -0.2330    -0.3710     0.5440 H     1 <1>   0.0800 
 30 H        2.9470    -1.2730     2.6390 H     1 <1>   0.0800 
 31 H        0.2700    -1.0370     2.6420 H     1 <1>   0.0800 
 32 H       -1.9480    -1.9970     0.0120 H     1 <1>   0.0800 
 33 H       -0.7480    -3.2480    -0.2400 H     1 <1>   0.0800 
 34 H        3.2620     1.9800     0.7750 H     1 <1>   0.0800 
 35 H        2.0800     1.6460    -0.5020 H     1 <1>   0.0800 
 36 H        4.1920    -2.8980    -0.8850 H     1 <1>   0.1500 
 37 H        4.5700    -2.4010     1.3030 H     1 <1>   0.4000 
 38 H        1.3990    -3.5830     1.4830 H     1 <1>   0.0800 
 39 H       -0.6310    -3.1190     3.2220 H     1 <1>   0.4000 
 40 H        0.1290    -1.7110    -1.8420 H     1 <1>   0.4000 
 41 H        5.0420     1.9120    -1.5870 H     1 <1>   0.1500 
 42 H        2.4110    -3.7300     3.5390 H     1 <1>   0.4000 
 43 H        6.4770     0.2410    -2.6750 H     1 <1>   0.1500 
 44 H        7.1620    -2.0200    -2.9930 H     1 <1>   0.0800 
 45 H        5.7510    -2.9910    -3.2760 H     1 <1>   0.0800 
 46 H        7.9430    -2.0380    -0.3870 H     1 <1>   0.1500 
 47 H        5.8390    -5.1820    -2.3590 H     1 <1>   0.1500 
 48 H        8.7590    -3.6330     1.2770 H     1 <1>   0.1500 
 49 H        6.6550    -6.7690    -0.6960 H     1 <1>   0.1500 
 50 H        9.2350    -5.9930     1.8020 H     1 <1>   0.0800 
 51 H        8.3900    -7.2730     0.9880 H     1 <1>   0.0800 
 52 H        7.1780    -5.4420     3.0820 H     1 <1>   0.0800 
 53 H        7.6530    -7.1060     3.3410 H     1 <1>   0.0800 
 54 H        6.3270    -6.7290     2.2630 H     1 <1>   0.0800 
@<TRIPOS>BOND
  1   1   2  1   
  2   1   3  1   
  3   2   4  1   
  4   2   5  1   
  5   2   6  1   
  6   3   7  1   
  7   3   8  1   
  8   3  29  1   
  9   4   9  1   
 10   5  10  ar  
 11   5  11  ar  
 12   6  12  1   
 13   6  13  1   
 14   6  30  1   
 15   7  13  1   
 16   7  14  1   
 17   7  31  1   
 18   8  15  1   
 19   8  32  1   
 20   8  33  1   
 21   9  10  1   
 22   9  34  1   
 23   9  35  1   
 24  10  16  ar  
 25  11  17  ar  
 26  11  36  1   
 27  12  37  1   
 28  13  18  1   
 29  13  38  1   
 30  14  39  1   
 31  15  40  1   
 32  16  19  ar  
 33  16  41  1   
 34  17  19  ar  
 35  17  20  1   
 36  18  42  1   
 37  19  43  1   
 38  20  21  1   
 39  20  44  1   
 40  20  45  1   
 41  21  22  ar  
 42  21  23  ar  
 43  22  24  ar  
 44  22  46  1   
 45  23  25  ar  
 46  23  47  1   
 47  24  26  ar  
 48  24  48  1   
 49  25  26  ar  
 50  25  49  1   
 51  26  27  1   
 52  27  28  1   
 53  27  50  1   
 54  27  51  1   
 55  28  52  1   
 56  28  53  1   
 57  28  54  1   
@<TRIPOS>SUBSTRUCTURE
  1 ****  11 GROUP 4 **** **** 0

# MOE 2024.06 (io_trps.svl 2023.06)
