@<TRIPOS>MOLECULE
NONAME
48 50 1 0 0 
SMALL
USER_CHARGES


@<TRIPOS>ATOM
  1 CL       1.2560    -1.4970    -0.9350 Cl    1 <1>  -0.1770 
  2 C       -0.3480    -1.5000    -0.2400 C.ar  1 <1>   0.1770 
  3 C       -0.6270    -0.7550     0.8930 C.ar  1 <1>   0.1770 
  4 C       -1.3330    -2.2610    -0.8390 C.ar  1 <1>  -0.1500 
  5 CL       0.6080     0.2090     1.6640 Cl    1 <1>  -0.1770 
  6 C       -1.9010    -0.7650     1.4300 C.ar  1 <1>  -0.1500 
  7 C       -2.6270    -2.2980    -0.3150 C.ar  1 <1>   0.0860 
  8 C       -2.8870    -1.5300     0.8250 C.ar  1 <1>  -0.1500 
  9 C       -3.6590    -3.1010    -0.9490 C.2   1 <1>   0.5440 
 10 O       -3.6690    -3.1960    -2.1620 O.2   1 <1>  -0.5700 
 11 N       -4.6180    -3.7740    -0.2130 N.am  1 <1>  -0.6600 
 12 C       -5.8610    -4.2730    -0.8840 C.3   1 <1>   0.2200 
 13 C       -4.2130    -4.4730     1.0460 C.3   1 <1>   0.0600 
 14 C       -6.6100    -3.1590    -1.6150 C.3   1 <1>  -0.1600 
 15 C       -6.9230    -4.7920     0.0880 C.3   1 <1>  -0.1600 
 16 C       -8.0420    -3.6790    -1.7890 C.3   1 <1>  -0.0800 
 17 C       -8.2490    -4.7250    -0.6840 C.3   1 <1>  -0.0800 
 18 C       -9.1130    -2.6020    -1.5840 C.3   1 <1>  -0.1600 
 19 C       -9.4330    -4.2380     0.1610 C.3   1 <1>  -0.1600 
 20 C       -9.5060    -2.7390    -0.1150 C.3   1 <1>   0.4230 
 21 N      -10.8310    -2.1410     0.2380 N.4   1 <1>  -0.9590 
 22 C      -11.9970    -2.6540    -0.5560 C.3   1 <1>   0.2630 
 23 C      -10.7700    -0.6490     0.1520 C.3   1 <1>   0.2630 
 24 H       -1.1010    -2.8290    -1.7230 H     1 <1>   0.1500 
 25 H       -2.1140    -0.1800     2.3070 H     1 <1>   0.1500 
 26 H       -3.8810    -1.5310     1.2380 H     1 <1>   0.1500 
 27 H       -5.6020    -5.0490    -1.5860 H     1 <1>   0.0800 
 28 H       -4.7880    -4.1020     1.8750 H     1 <1>   0.0800 
 29 H       -3.1690    -4.3190     1.2540 H     1 <1>   0.0800 
 30 H       -4.3740    -5.5330     0.9450 H     1 <1>   0.0800 
 31 H       -6.5930    -2.2700    -1.0090 H     1 <1>   0.0800 
 32 H       -6.1650    -2.9460    -2.5710 H     1 <1>   0.0800 
 33 H       -6.7120    -5.7990     0.4020 H     1 <1>   0.0800 
 34 H       -6.9650    -4.1430     0.9450 H     1 <1>   0.0800 
 35 H       -8.1380    -4.1380    -2.7600 H     1 <1>   0.0800 
 36 H       -8.4590    -5.6880    -1.1220 H     1 <1>   0.0800 
 37 H       -9.9380    -2.8330    -2.2320 H     1 <1>   0.0800 
 38 H       -8.7400    -1.6200    -1.8170 H     1 <1>   0.0800 
 39 H       -9.2950    -4.4500     1.2070 H     1 <1>   0.0800 
 40 H      -10.3150    -4.7410    -0.1890 H     1 <1>   0.0800 
 41 H       -8.7360    -2.2670     0.4740 H     1 <1>   0.0800 
 42 H      -10.9990    -2.3890     1.2240 H     1 <1>   0.4500 
 43 H      -11.8860    -2.4020    -1.5970 H     1 <1>   0.0800 
 44 H      -12.9140    -2.2150    -0.1960 H     1 <1>   0.0800 
 45 H      -12.0780    -3.7240    -0.4660 H     1 <1>   0.0800 
 46 H      -10.5970    -0.3390    -0.8660 H     1 <1>   0.0800 
 47 H       -9.9700    -0.2700     0.7680 H     1 <1>   0.0800 
 48 H      -11.6980    -0.2160     0.4910 H     1 <1>   0.0800 
@<TRIPOS>BOND
  1   1   2  1   
  2   2   3  ar  
  3   2   4  ar  
  4   3   5  1   
  5   3   6  ar  
  6   4   7  ar  
  7   4  24  1   
  8   6   8  ar  
  9   6  25  1   
 10   7   8  ar  
 11   7   9  1   
 12   8  26  1   
 13   9  10  2   
 14   9  11  am  
 15  11  12  1   
 16  11  13  1   
 17  12  14  1   
 18  12  15  1   
 19  12  27  1   
 20  13  28  1   
 21  13  29  1   
 22  13  30  1   
 23  14  16  1   
 24  14  31  1   
 25  14  32  1   
 26  15  17  1   
 27  15  33  1   
 28  15  34  1   
 29  16  17  1   
 30  16  18  1   
 31  16  35  1   
 32  17  19  1   
 33  17  36  1   
 34  18  20  1   
 35  18  37  1   
 36  18  38  1   
 37  19  20  1   
 38  19  39  1   
 39  19  40  1   
 40  20  21  1   
 41  20  41  1   
 42  21  22  1   
 43  21  23  1   
 44  21  42  1   
 45  22  43  1   
 46  22  44  1   
 47  22  45  1   
 48  23  46  1   
 49  23  47  1   
 50  23  48  1   
@<TRIPOS>SUBSTRUCTURE
  1 ****  11 GROUP 4 **** **** 0

# MOE 2024.06 (io_trps.svl 2023.06)
