@<TRIPOS>MOLECULE
NONAME
45 46 1 0 0 
SMALL
USER_CHARGES


@<TRIPOS>ATOM
  1 CL       1.8850     0.8910    -2.1690 Cl    1 <1>  -0.1770 
  2 C        2.2750    -0.5160    -1.2130 C.ar  1 <1>   0.1770 
  3 C        1.5540    -1.6760    -1.3840 C.ar  1 <1>  -0.1500 
  4 C        3.3060    -0.4420    -0.2980 C.ar  1 <1>  -0.1500 
  5 C        1.8400    -2.8230    -0.6390 C.ar  1 <1>   0.0860 
  6 C        3.6100    -1.5580     0.4580 C.ar  1 <1>  -0.1500 
  7 C        2.8890    -2.7430     0.3000 C.ar  1 <1>   0.0830 
  8 C        1.0470    -4.0200    -0.8740 C.2   1 <1>   0.5440 
  9 O        3.1770    -3.8370     1.0520 O.3   1 <1>  -0.3630 
 10 O       -0.0810    -3.9380    -1.3230 O.2   1 <1>  -0.5700 
 11 N        1.5280    -5.2670    -0.6080 N.am  1 <1>  -0.7300 
 12 C        4.1810    -3.8590     2.0440 C.3   1 <1>   0.0400 
 13 C        0.7670    -6.5270    -0.7440 C.3   1 <1>   0.2200 
 14 C       -0.1330    -6.7070     0.4810 C.3   1 <1>  -0.0800 
 15 C        1.7060    -7.7290    -0.6670 C.3   1 <1>   0.1200 
 16 C        0.4200    -7.9630     1.1640 C.3   1 <1>   0.1200 
 17 C       -1.6400    -6.6960     0.1410 C.3   1 <1>  -0.0550 
 18 O        1.7140    -8.0990     0.6750 O.3   1 <1>  -0.5600 
 19 S       -2.2910    -8.0780    -0.8130 S.o2  1 <1>   1.3330 
 20 O       -1.2870    -8.5270    -1.7510 O.2   1 <1>  -0.6500 
 21 O       -3.6120    -7.7390    -1.2930 O.2   1 <1>  -0.6500 
 22 N       -2.4960    -9.2980     0.3540 N.am  1 <1>  -0.8490 
 23 C       -3.7530    -9.1860     1.1030 C.3   1 <1>   0.1160 
 24 C       -2.3820   -10.6420    -0.2230 C.3   1 <1>   0.1160 
 25 H        0.7570    -1.6940    -2.1070 H     1 <1>   0.1500 
 26 H        3.8540     0.4760    -0.1840 H     1 <1>   0.1500 
 27 H        4.4130    -1.4800     1.1660 H     1 <1>   0.1500 
 28 H        2.3600    -5.3260    -0.0110 H     1 <1>   0.3700 
 29 H        4.1860    -4.8370     2.4930 H     1 <1>   0.0800 
 30 H        3.9530    -3.1190     2.7910 H     1 <1>   0.0800 
 31 H        5.1340    -3.6650     1.5840 H     1 <1>   0.0800 
 32 H        0.2290    -6.5200    -1.6770 H     1 <1>   0.0800 
 33 H        0.0350    -5.8890     1.1600 H     1 <1>   0.0800 
 34 H        2.7060    -7.5030    -0.9890 H     1 <1>   0.0800 
 35 H        1.3120    -8.5530    -1.2360 H     1 <1>   0.0800 
 36 H       -0.1120    -8.8570     0.8970 H     1 <1>   0.0800 
 37 H        0.4590    -7.8670     2.2350 H     1 <1>   0.0800 
 38 H       -1.8300    -5.7950    -0.4120 H     1 <1>   0.0800 
 39 H       -2.1950    -6.6170     1.0540 H     1 <1>   0.0800 
 40 H       -3.7820    -9.9220     1.8880 H     1 <1>   0.0800 
 41 H       -4.5960    -9.3380     0.4490 H     1 <1>   0.0800 
 42 H       -3.8350    -8.2100     1.5490 H     1 <1>   0.0800 
 43 H       -2.5090   -11.3890     0.5410 H     1 <1>   0.0800 
 44 H       -1.4070   -10.7740    -0.6620 H     1 <1>   0.0800 
 45 H       -3.1280   -10.7850    -0.9880 H     1 <1>   0.0800 
@<TRIPOS>BOND
  1   1   2  1   
  2   2   3  ar  
  3   2   4  ar  
  4   3   5  ar  
  5   3  25  1   
  6   4   6  ar  
  7   4  26  1   
  8   5   7  ar  
  9   5   8  1   
 10   6   7  ar  
 11   6  27  1   
 12   7   9  1   
 13   8  10  2   
 14   8  11  am  
 15   9  12  1   
 16  11  13  1   
 17  11  28  1   
 18  12  29  1   
 19  12  30  1   
 20  12  31  1   
 21  13  14  1   
 22  13  15  1   
 23  13  32  1   
 24  14  16  1   
 25  14  17  1   
 26  14  33  1   
 27  15  18  1   
 28  15  34  1   
 29  15  35  1   
 30  16  18  1   
 31  16  36  1   
 32  16  37  1   
 33  17  19  1   
 34  17  38  1   
 35  17  39  1   
 36  19  20  2   
 37  19  21  2   
 38  19  22  am  
 39  22  23  1   
 40  22  24  1   
 41  23  40  1   
 42  23  41  1   
 43  23  42  1   
 44  24  43  1   
 45  24  44  1   
 46  24  45  1   
@<TRIPOS>SUBSTRUCTURE
  1 ****  11 GROUP 4 **** **** 0

# MOE 2024.06 (io_trps.svl 2023.06)
