@<TRIPOS>MOLECULE
NONAME
39 41 1 0 0 
SMALL
USER_CHARGES


@<TRIPOS>ATOM
  1 F        0.5370     0.3030     1.0440 F     1 <1>  -0.3400 
  2 C        1.6280    -0.1990     0.4770 C.3   1 <1>   1.1640 
  3 F        2.5720    -0.1930     1.4080 F     1 <1>  -0.3400 
  4 F        2.0060     0.6800    -0.4430 F     1 <1>  -0.3400 
  5 C        1.4100    -1.5970    -0.1110 C.ar  1 <1>  -0.1440 
  6 C        0.3440    -2.4020     0.2440 C.ar  1 <1>  -0.1500 
  7 C        2.2870    -2.1420    -1.0360 C.ar  1 <1>  -0.1500 
  8 C        0.1830    -3.6680    -0.3150 C.ar  1 <1>   0.4100 
  9 C        2.0560    -3.4100    -1.5340 C.ar  1 <1>   0.1600 
 10 N        1.0350    -4.1760    -1.1970 N.ar  1 <1>  -0.6200 
 11 N       -0.8980    -4.4510     0.0550 N.pl3 1 <1>  -0.8380 
 12 C       -2.2690    -3.8720     0.0300 C.3   1 <1>   0.2090 
 13 C       -0.9650    -5.8810    -0.3480 C.3   1 <1>   0.2090 
 14 C       -3.2010    -5.0270    -0.3490 C.3   1 <1>   0.2000 
 15 C       -2.4070    -6.3020    -0.0760 C.3   1 <1>  -0.0800 
 16 O       -4.3650    -5.0230     0.4080 O.3   1 <1>  -0.6800 
 17 C       -2.8800    -7.4890    -0.9300 C.3   1 <1>   0.0200 
 18 C       -2.1270    -8.7760    -0.6380 C.2   1 <1>  -0.0400 
 19 O       -2.3050    -9.7990    -1.4300 O.3   1 <1>  -0.0190 
 20 C       -1.2570    -9.1460     0.3160 C.2   1 <1>  -0.1500 
 21 N       -1.5990   -10.8290    -1.0630 N.2   1 <1>  -0.4100 
 22 C       -0.9560   -10.4640    -0.0130 C.2   1 <1>   0.1080 
 23 C       -0.0040   -11.3530     0.7540 C.3   1 <1>  -0.0590 
 24 H       -0.3790    -2.0720     0.9660 H     1 <1>   0.1500 
 25 H        3.1490    -1.5910    -1.3710 H     1 <1>   0.1500 
 26 H        2.7490    -3.8190    -2.2500 H     1 <1>   0.1500 
 27 H       -2.5090    -3.4890     1.0060 H     1 <1>   0.0800 
 28 H       -2.3310    -3.0840    -0.7010 H     1 <1>   0.0800 
 29 H       -0.7420    -5.9730    -1.3990 H     1 <1>   0.0800 
 30 H       -0.2580    -6.4630     0.2170 H     1 <1>   0.0800 
 31 H       -3.4710    -4.9460    -1.3880 H     1 <1>   0.0800 
 32 H       -2.4790    -6.5520     0.9680 H     1 <1>   0.0800 
 33 H       -4.1530    -5.1290     1.3560 H     1 <1>   0.4000 
 34 H       -2.7620    -7.2510    -1.9730 H     1 <1>   0.0800 
 35 H       -3.9270    -7.6620    -0.7510 H     1 <1>   0.0800 
 36 H       -0.8600    -8.5980     1.1500 H     1 <1>   0.1500 
 37 H        0.9640   -10.8900     0.8080 H     1 <1>   0.0800 
 38 H        0.0920   -12.3020     0.2580 H     1 <1>   0.0800 
 39 H       -0.3770   -11.5160     1.7480 H     1 <1>   0.0800 
@<TRIPOS>BOND
  1   1   2  1   
  2   2   3  1   
  3   2   4  1   
  4   2   5  1   
  5   5   6  ar  
  6   5   7  ar  
  7   6   8  ar  
  8   6  24  1   
  9   7   9  ar  
 10   7  25  1   
 11   8  10  ar  
 12   8  11  1   
 13   9  10  ar  
 14   9  26  1   
 15  11  12  1   
 16  11  13  1   
 17  12  14  1   
 18  12  27  1   
 19  12  28  1   
 20  13  15  1   
 21  13  29  1   
 22  13  30  1   
 23  14  15  1   
 24  14  16  1   
 25  14  31  1   
 26  15  17  1   
 27  15  32  1   
 28  16  33  1   
 29  17  18  1   
 30  17  34  1   
 31  17  35  1   
 32  18  19  1   
 33  18  20  2   
 34  19  21  1   
 35  20  22  1   
 36  20  36  1   
 37  21  22  2   
 38  22  23  1   
 39  23  37  1   
 40  23  38  1   
 41  23  39  1   
@<TRIPOS>SUBSTRUCTURE
  1 ****  11 GROUP 4 **** **** 0

# MOE 2024.06 (io_trps.svl 2023.06)
