@<TRIPOS>MOLECULE
NONAME
42 43 1 0 0 
SMALL
USER_CHARGES


@<TRIPOS>ATOM
  1 S        0.2100     1.8380     2.5160 S.3   1 <1>  -0.0800 
  2 C       -0.7760     1.7200     1.0840 C.2   1 <1>  -0.1400 
  3 C        0.0220     0.1160     2.7490 C.2   1 <1>   0.2280 
  4 C       -1.1590     0.4420     0.9260 C.2   1 <1>   0.0460 
  5 C       -1.0280     2.9900     0.3050 C.3   1 <1>   0.5230 
  6 N       -0.6960    -0.4560     1.8670 N.2   1 <1>  -0.5650 
  7 C       -2.0390    -0.1420    -0.1600 C.3   1 <1>  -0.0590 
  8 N        0.2230     3.4790    -0.3410 N.4   1 <1>  -0.9590 
  9 C        0.1120     4.8310    -0.9700 C.3   1 <1>   0.5030 
 10 C        0.9460     2.4080    -1.1080 C.3   1 <1>   0.4860 
 11 C       -0.3860     5.8730     0.0790 C.3   1 <1>   0.1200 
 12 C        1.4870     5.2870    -1.4760 C.3   1 <1>  -0.2400 
 13 C       -0.8580     4.7740    -2.1560 C.3   1 <1>  -0.2400 
 14 C        2.4260     2.3670    -0.7200 C.ar  1 <1>   0.1670 
 15 O        0.1770     5.6280     1.3340 O.3   1 <1>  -0.6800 
 16 N        2.7440     2.8280     0.4860 N.ar  1 <1>  -0.6200 
 17 C        3.3510     1.8680    -1.6250 C.ar  1 <1>  -0.1500 
 18 C        4.0300     2.7830     0.8000 C.ar  1 <1>   0.1600 
 19 C        4.6860     1.8320    -1.2840 C.ar  1 <1>  -0.1500 
 20 C        5.0230     2.3040    -0.0350 C.ar  1 <1>  -0.1500 
 21 H        0.5150    -0.3230     3.6000 H     1 <1>   0.1500 
 22 H       -1.4080     3.7360     0.9840 H     1 <1>   0.0800 
 23 H       -1.7770     2.8020    -0.4460 H     1 <1>   0.0800 
 24 H       -2.3630     0.6100    -0.8540 H     1 <1>   0.0800 
 25 H       -2.9050    -0.5960     0.2890 H     1 <1>   0.0800 
 26 H       -1.4970    -0.9030    -0.6930 H     1 <1>   0.0800 
 27 H        0.8700     3.6460     0.4580 H     1 <1>   0.4500 
 28 H        0.8520     2.5760    -2.1670 H     1 <1>   0.0800 
 29 H        0.5280     1.4420    -0.8850 H     1 <1>   0.0800 
 30 H       -1.4560     5.8320     0.1830 H     1 <1>   0.0800 
 31 H       -0.1190     6.8720    -0.2250 H     1 <1>   0.0800 
 32 H        2.2010     5.3030    -0.6710 H     1 <1>   0.0800 
 33 H        1.4230     6.2870    -1.8680 H     1 <1>   0.0800 
 34 H        1.8560     4.6640    -2.2690 H     1 <1>   0.0800 
 35 H       -1.8520     4.5120    -1.8440 H     1 <1>   0.0800 
 36 H       -0.5240     4.0770    -2.9020 H     1 <1>   0.0800 
 37 H       -0.9140     5.7430    -2.6220 H     1 <1>   0.0800 
 38 H        0.0280     6.3790     1.9490 H     1 <1>   0.4000 
 39 H        3.0450     1.5050    -2.5910 H     1 <1>   0.1500 
 40 H        4.3090     3.1470     1.7750 H     1 <1>   0.1500 
 41 H        5.4340     1.4510    -1.9600 H     1 <1>   0.1500 
 42 H        6.0480     2.3010     0.2920 H     1 <1>   0.1500 
@<TRIPOS>BOND
  1   1   2  1   
  2   1   3  1   
  3   2   4  2   
  4   2   5  1   
  5   3   6  2   
  6   3  21  1   
  7   4   6  1   
  8   4   7  1   
  9   5   8  1   
 10   5  22  1   
 11   5  23  1   
 12   7  24  1   
 13   7  25  1   
 14   7  26  1   
 15   8   9  1   
 16   8  10  1   
 17   8  27  1   
 18   9  11  1   
 19   9  12  1   
 20   9  13  1   
 21  10  14  1   
 22  10  28  1   
 23  10  29  1   
 24  11  15  1   
 25  11  30  1   
 26  11  31  1   
 27  12  32  1   
 28  12  33  1   
 29  12  34  1   
 30  13  35  1   
 31  13  36  1   
 32  13  37  1   
 33  14  16  ar  
 34  14  17  ar  
 35  15  38  1   
 36  16  18  ar  
 37  17  19  ar  
 38  17  39  1   
 39  18  20  ar  
 40  18  40  1   
 41  19  20  ar  
 42  19  41  1   
 43  20  42  1   
@<TRIPOS>SUBSTRUCTURE
  1 ****   8 GROUP 4 **** **** 0

# MOE 2024.06 (io_trps.svl 2023.06)
