@<TRIPOS>MOLECULE
NONAME
41 42 1 0 0 
SMALL
USER_CHARGES


@<TRIPOS>ATOM
  1 CL      -0.3720     0.1400     0.2460 Cl    1 <1>  -0.1770 
  2 C       -0.3370    -1.5960     0.3730 C.ar  1 <1>   0.1770 
  3 C       -0.0910    -2.3550    -0.7540 C.ar  1 <1>  -0.1500 
  4 C       -0.5550    -2.1930     1.6030 C.ar  1 <1>  -0.1500 
  5 C       -0.0720    -3.7300    -0.6190 C.ar  1 <1>   0.1900 
  6 C       -0.5300    -3.5750     1.7090 C.ar  1 <1>  -0.1500 
  7 F        0.1710    -4.4330    -1.6910 F     1 <1>  -0.1900 
  8 C       -0.2960    -4.3830     0.5940 C.ar  1 <1>   0.0860 
  9 C       -0.2790    -5.8220     0.7200 C.2   1 <1>   0.5440 
 10 O        0.5760    -6.3470     1.4050 O.2   1 <1>  -0.5700 
 11 N       -1.2300    -6.6180     0.1250 N.am  1 <1>  -0.6600 
 12 C       -2.4280    -6.1370    -0.6070 C.3   1 <1>   0.1400 
 13 C       -1.2560    -8.0940     0.2740 C.3   1 <1>   0.1400 
 14 C       -3.1600    -7.4080    -1.0330 C.3   1 <1>   0.2000 
 15 C       -2.6930    -8.4960    -0.0700 C.3   1 <1>  -0.0800 
 16 O       -4.5350    -7.2630    -0.9520 O.3   1 <1>  -0.6800 
 17 C       -2.8330    -9.9050    -0.6710 C.3   1 <1>  -0.0550 
 18 S       -2.4060   -11.2110     0.4780 S.o2  1 <1>   1.3330 
 19 O       -0.9760   -11.2010     0.6920 O.2   1 <1>  -0.6500 
 20 O       -3.3030   -11.1120     1.6070 O.2   1 <1>  -0.6500 
 21 N       -2.7910   -12.6180    -0.3910 N.am  1 <1>  -0.8490 
 22 C       -3.1760   -13.7250     0.4900 C.3   1 <1>   0.1160 
 23 C       -1.7250   -13.0520    -1.3000 C.3   1 <1>   0.1160 
 24 H        0.0840    -1.8880    -1.7050 H     1 <1>   0.1500 
 25 H       -0.7370    -1.5780     2.4670 H     1 <1>   0.1500 
 26 H       -0.6890    -4.0450     2.6650 H     1 <1>   0.1500 
 27 H       -3.0350    -5.5440     0.0540 H     1 <1>   0.0800 
 28 H       -2.1420    -5.5630    -1.4710 H     1 <1>   0.0800 
 29 H       -0.5520    -8.5260    -0.4170 H     1 <1>   0.0800 
 30 H       -0.9910    -8.3870     1.2770 H     1 <1>   0.0800 
 31 H       -2.9040    -7.6470    -2.0510 H     1 <1>   0.0800 
 32 H       -3.2650    -8.4370     0.8400 H     1 <1>   0.0800 
 33 H       -4.8130    -7.1300    -0.0250 H     1 <1>   0.4000 
 34 H       -2.2200    -9.9830    -1.5470 H     1 <1>   0.0800 
 35 H       -3.8540   -10.0420    -0.9740 H     1 <1>   0.0800 
 36 H       -3.4290   -14.5950    -0.0920 H     1 <1>   0.0800 
 37 H       -4.0390   -13.4500     1.0730 H     1 <1>   0.0800 
 38 H       -2.3690   -13.9680     1.1610 H     1 <1>   0.0800 
 39 H       -2.0590   -13.8920    -1.8860 H     1 <1>   0.0800 
 40 H       -0.8480   -13.3390    -0.7430 H     1 <1>   0.0800 
 41 H       -1.4610   -12.2540    -1.9720 H     1 <1>   0.0800 
@<TRIPOS>BOND
  1   1   2  1   
  2   2   3  ar  
  3   2   4  ar  
  4   3   5  ar  
  5   3  24  1   
  6   4   6  ar  
  7   4  25  1   
  8   5   7  1   
  9   5   8  ar  
 10   6   8  ar  
 11   6  26  1   
 12   8   9  1   
 13   9  10  2   
 14   9  11  am  
 15  11  12  1   
 16  11  13  1   
 17  12  14  1   
 18  12  27  1   
 19  12  28  1   
 20  13  15  1   
 21  13  29  1   
 22  13  30  1   
 23  14  15  1   
 24  14  16  1   
 25  14  31  1   
 26  15  17  1   
 27  15  32  1   
 28  16  33  1   
 29  17  18  1   
 30  17  34  1   
 31  17  35  1   
 32  18  19  2   
 33  18  20  2   
 34  18  21  am  
 35  21  22  1   
 36  21  23  1   
 37  22  36  1   
 38  22  37  1   
 39  22  38  1   
 40  23  39  1   
 41  23  40  1   
 42  23  41  1   
@<TRIPOS>SUBSTRUCTURE
  1 ****  11 GROUP 4 **** **** 0

# MOE 2024.06 (io_trps.svl 2023.06)
