@<TRIPOS>MOLECULE
NONAME
53 55 1 0 0 
SMALL
USER_CHARGES


@<TRIPOS>ATOM
  1 O       -1.1730     0.3730    -2.7510 O.2   1 <1>  -0.5700 
  2 C       -1.7140     1.0500    -1.9110 C.2   1 <1>   0.5690 
  3 N       -2.4090     0.4870    -0.8760 N.am  1 <1>  -0.6600 
  4 C       -1.5990     2.5600    -2.0370 C.3   1 <1>  -0.0990 
  5 C       -3.1250     1.1990     0.2130 C.3   1 <1>   0.1400 
  6 C       -2.4710    -0.9800    -0.6720 C.3   1 <1>   0.1400 
  7 C       -0.4720     3.1220    -1.1560 C.3   1 <1>  -0.1600 
  8 C       -3.7840     0.0950     1.0390 C.3   1 <1>   0.2000 
  9 C       -2.9640    -1.1630     0.7640 C.3   1 <1>  -0.0800 
 10 C       -0.3320     4.6410    -1.3040 C.3   1 <1>  -0.0160 
 11 O       -3.7660     0.3940     2.3910 O.3   1 <1>  -0.6800 
 12 C       -3.7520    -2.4630     0.9830 C.3   1 <1>   0.0210 
 13 C        0.7200     5.1600    -0.3400 C.ar  1 <1>  -0.1440 
 14 C       -2.9220    -3.6710     0.5990 C.2   1 <1>   0.1080 
 15 C        2.0640     5.1140    -0.6800 C.ar  1 <1>  -0.1500 
 16 C        0.3490     5.6750     0.8930 C.ar  1 <1>  -0.1500 
 17 N       -1.8110    -3.9770     1.1950 N.2   1 <1>  -0.7070 
 18 C       -3.2360    -4.5640    -0.4200 C.2   1 <1>  -0.1500 
 19 C        3.0280     5.5750     0.1990 C.ar  1 <1>  -0.1500 
 20 C        1.3110     6.1370     1.7730 C.ar  1 <1>  -0.1500 
 21 N       -1.3820    -5.0870     0.5640 N.pl3 1 <1>   0.3000 
 22 C       -2.2280    -5.4610    -0.4190 C.2   1 <1>  -0.3320 
 23 C        2.6540     6.0900     1.4370 C.ar  1 <1>   0.0820 
 24 C       -2.0160    -6.6700    -1.3120 C.3   1 <1>  -0.0600 
 25 O        3.5310     6.5590     2.3580 O.3   1 <1>  -0.3620 
 26 C        4.9190     6.5650     2.1100 C.3   1 <1>   0.0400 
 27 H       -1.3940     2.7920    -3.0670 H     1 <1>   0.0800 
 28 H       -2.5380     3.0150    -1.7840 H     1 <1>   0.0800 
 29 H       -2.4170     1.7450     0.8100 H     1 <1>   0.0800 
 30 H       -3.8680     1.8620    -0.1930 H     1 <1>   0.0800 
 31 H       -3.1650    -1.4010    -1.3790 H     1 <1>   0.0800 
 32 H       -1.5030    -1.4320    -0.8140 H     1 <1>   0.0800 
 33 H       -0.6640     2.8850    -0.1250 H     1 <1>   0.0800 
 34 H        0.4580     2.6520    -1.4290 H     1 <1>   0.0800 
 35 H       -4.8090    -0.0260     0.7300 H     1 <1>   0.0800 
 36 H       -2.0920    -1.1710     1.3940 H     1 <1>   0.0800 
 37 H       -1.2740     5.1190    -1.0990 H     1 <1>   0.0800 
 38 H       -0.0510     4.8870    -2.3130 H     1 <1>   0.0800 
 39 H       -2.8560     0.3260     2.7390 H     1 <1>   0.4000 
 40 H       -4.6560    -2.4520     0.4020 H     1 <1>   0.0800 
 41 H       -4.0230    -2.5470     2.0210 H     1 <1>   0.0800 
 42 H        2.3620     4.7140    -1.6330 H     1 <1>   0.1500 
 43 H       -0.6880     5.7190     1.1740 H     1 <1>   0.1500 
 44 H       -4.1010    -4.5230    -1.0570 H     1 <1>   0.1500 
 45 H        4.0590     5.5240    -0.0950 H     1 <1>   0.1500 
 46 H        1.0270     6.5360     2.7300 H     1 <1>   0.1500 
 47 H       -0.5100    -5.5610     0.8260 H     1 <1>   0.2700 
 48 H       -2.8260    -6.7560    -2.0150 H     1 <1>   0.0800 
 49 H       -1.9790    -7.5670    -0.7200 H     1 <1>   0.0800 
 50 H       -1.0960    -6.5710    -1.8600 H     1 <1>   0.0800 
 51 H        5.4100     6.9810     2.9700 H     1 <1>   0.0800 
 52 H        5.1160     7.1740     1.2450 H     1 <1>   0.0800 
 53 H        5.2500     5.5530     1.9540 H     1 <1>   0.0800 
@<TRIPOS>BOND
  1   1   2  2   
  2   2   3  am  
  3   2   4  1   
  4   3   5  1   
  5   3   6  1   
  6   4   7  1   
  7   4  27  1   
  8   4  28  1   
  9   5   8  1   
 10   5  29  1   
 11   5  30  1   
 12   6   9  1   
 13   6  31  1   
 14   6  32  1   
 15   7  10  1   
 16   7  33  1   
 17   7  34  1   
 18   8   9  1   
 19   8  11  1   
 20   8  35  1   
 21   9  12  1   
 22   9  36  1   
 23  10  13  1   
 24  10  37  1   
 25  10  38  1   
 26  11  39  1   
 27  12  14  1   
 28  12  40  1   
 29  12  41  1   
 30  13  15  ar  
 31  13  16  ar  
 32  14  17  2   
 33  14  18  1   
 34  15  19  ar  
 35  15  42  1   
 36  16  20  ar  
 37  16  43  1   
 38  17  21  1   
 39  18  22  2   
 40  18  44  1   
 41  19  23  ar  
 42  19  45  1   
 43  20  23  ar  
 44  20  46  1   
 45  21  22  1   
 46  21  47  1   
 47  22  24  1   
 48  23  25  1   
 49  24  48  1   
 50  24  49  1   
 51  24  50  1   
 52  25  26  1   
 53  26  51  1   
 54  26  52  1   
 55  26  53  1   
@<TRIPOS>SUBSTRUCTURE
  1 ****   3 GROUP 4 **** **** 0

# MOE 2024.06 (io_trps.svl 2023.06)
