@<TRIPOS>MOLECULE
NONAME
48 51 1 0 0 
SMALL
USER_CHARGES


@<TRIPOS>ATOM
  1 O       -2.7830     1.9180    -2.6920 O.co2 1 <1>  -0.9000 
  2 C       -2.0460     2.9080    -2.7730 C.2   1 <1>   1.0320 
  3 O       -1.7320     3.3640    -3.8870 O.co2 1 <1>  -0.9000 
  4 C       -1.5790     3.5990    -1.6150 C.2   1 <1>  -0.3840 
  5 N       -0.9130     4.7520    -1.7450 N.pl3 1 <1>   0.0330 
  6 C       -1.6680     3.3450    -0.2670 C.2   1 <1>   0.1410 
  7 C       -0.6410     5.1730    -0.5000 C.2   1 <1>   0.0360 
  8 N       -1.0780     4.3760     0.4160 N.2   1 <1>  -0.5650 
  9 C       -2.2870     2.2030     0.3980 C.2   1 <1>   0.7160 
 10 O       -1.5970     1.4170     1.0350 O.2   1 <1>  -0.5700 
 11 N       -3.6610     2.0170     0.4080 N.am  1 <1>  -0.6600 
 12 C       -4.6120     2.9130    -0.3190 C.3   1 <1>   0.1400 
 13 C       -4.3240     0.9000     1.1250 C.3   1 <1>   0.1400 
 14 C       -5.5910     3.5550     0.6810 C.3   1 <1>   0.1430 
 15 C       -5.3230     1.4720     2.1400 C.3   1 <1>  -0.1600 
 16 C       -6.5500     4.4600    -0.0720 C.ar  1 <1>   0.1670 
 17 C       -6.3170     2.4490     1.4810 C.3   1 <1>  -0.1600 
 18 C       -4.8570     4.5650     1.6060 C.3   1 <1>  -0.1600 
 19 N       -7.5780     4.0650    -0.7830 N.ar  1 <1>  -0.6200 
 20 C       -6.2110     5.7710     0.0720 C.ar  1 <1>  -0.1440 
 21 C       -4.9840     5.9410     0.9330 C.3   1 <1>  -0.0170 
 22 C       -8.2770     5.0410    -1.3650 C.ar  1 <1>   0.7200 
 23 C       -6.9950     6.7060    -0.5540 C.ar  1 <1>   0.1600 
 24 N       -8.0360     6.3540    -1.2710 N.ar  1 <1>  -0.6200 
 25 N       -9.3540     4.6550    -2.1390 N.pl3 1 <1>  -0.8380 
 26 C       -9.4220     3.2950    -2.7410 C.3   1 <1>   0.1290 
 27 C      -10.3940     5.6200    -2.5830 C.3   1 <1>   0.1290 
 28 H       -0.6930     5.1640    -2.6600 H     1 <1>   0.2700 
 29 H       -0.1080     6.0870    -0.3100 H     1 <1>   0.1500 
 30 H       -5.1540     2.3290    -1.0430 H     1 <1>   0.0800 
 31 H       -4.0930     3.6820    -0.8590 H     1 <1>   0.0800 
 32 H       -3.6000     0.2850     1.6300 H     1 <1>   0.0800 
 33 H       -4.8360     0.2860     0.4030 H     1 <1>   0.0800 
 34 H       -4.7720     1.9750     2.9150 H     1 <1>   0.0800 
 35 H       -5.8630     0.6620     2.5970 H     1 <1>   0.0800 
 36 H       -6.9440     1.8950     0.8040 H     1 <1>   0.0800 
 37 H       -6.9570     2.8900     2.2250 H     1 <1>   0.0800 
 38 H       -3.8280     4.3050     1.7810 H     1 <1>   0.0800 
 39 H       -5.3600     4.6080     2.5550 H     1 <1>   0.0800 
 40 H       -4.1260     6.1320     0.3110 H     1 <1>   0.0800 
 41 H       -5.0990     6.7280     1.6570 H     1 <1>   0.0800 
 42 H       -6.7660     7.7530    -0.4660 H     1 <1>   0.1500 
 43 H       -8.4330     2.8830    -2.8550 H     1 <1>   0.0800 
 44 H       -9.8830     3.3400    -3.7120 H     1 <1>   0.0800 
 45 H       -9.9970     2.6480    -2.1020 H     1 <1>   0.0800 
 46 H      -10.5130     6.4030    -1.8540 H     1 <1>   0.0800 
 47 H      -11.3380     5.1170    -2.6980 H     1 <1>   0.0800 
 48 H      -10.1030     6.0560    -3.5220 H     1 <1>   0.0800 
@<TRIPOS>BOND
  1   1   2  ar  
  2   2   3  ar  
  3   2   4  1   
  4   4   5  1   
  5   4   6  2   
  6   5   7  1   
  7   5  28  1   
  8   6   8  1   
  9   6   9  1   
 10   7   8  2   
 11   7  29  1   
 12   9  10  2   
 13   9  11  am  
 14  11  12  1   
 15  11  13  1   
 16  12  14  1   
 17  12  30  1   
 18  12  31  1   
 19  13  15  1   
 20  13  32  1   
 21  13  33  1   
 22  14  16  1   
 23  14  17  1   
 24  14  18  1   
 25  15  17  1   
 26  15  34  1   
 27  15  35  1   
 28  16  19  ar  
 29  16  20  ar  
 30  17  36  1   
 31  17  37  1   
 32  18  21  1   
 33  18  38  1   
 34  18  39  1   
 35  19  22  ar  
 36  20  21  1   
 37  20  23  ar  
 38  21  40  1   
 39  21  41  1   
 40  22  24  ar  
 41  22  25  1   
 42  23  24  ar  
 43  23  42  1   
 44  25  26  1   
 45  25  27  1   
 46  26  43  1   
 47  26  44  1   
 48  26  45  1   
 49  27  46  1   
 50  27  47  1   
 51  27  48  1   
@<TRIPOS>SUBSTRUCTURE
  1 ****  12 GROUP 4 **** **** 0

# MOE 2024.06 (io_trps.svl 2023.06)
