@<TRIPOS>MOLECULE
NONAME
49 50 1 0 0 
SMALL
USER_CHARGES


@<TRIPOS>ATOM
  1 S        0.7740     0.8300     2.3090 S.3   1 <1>  -0.0800 
  2 C        1.3750     1.4190     0.7680 C.2   1 <1>  -0.1400 
  3 C        0.9510    -0.8340     1.7980 C.2   1 <1>  -0.1100 
  4 C        1.6830     0.3870    -0.0490 C.2   1 <1>  -0.1810 
  5 C        1.4260     2.9300     0.6570 C.3   1 <1>   0.6030 
  6 C        1.4360    -0.8930     0.5460 C.2   1 <1>  -0.1500 
  7 C        2.2410     0.4140    -1.4630 C.3   1 <1>  -0.0590 
  8 N        0.6780     3.3370    -0.5920 N.4   1 <1>  -0.9590 
  9 C        2.9240     3.3620     0.7620 C.3   1 <1>   0.2090 
 10 C        0.6750     4.8030    -0.9000 C.3   1 <1>   0.2630 
 11 C       -0.7430     2.8520    -0.5200 C.3   1 <1>   0.2630 
 12 N        3.1760     4.8460     0.7600 N.pl3 1 <1>  -0.8690 
 13 C        4.2280     5.6070     0.4260 C.ar  1 <1>   0.7710 
 14 N        3.9690     6.8900     0.3930 N.ar  1 <1>  -0.6200 
 15 N        5.4410     5.0890     0.1560 N.ar  1 <1>  -0.1790 
 16 C        4.9600     7.7130     0.1010 C.ar  1 <1>   0.4100 
 17 C        6.4720     5.8980    -0.1900 C.ar  1 <1>   0.2110 
 18 N        4.6680     9.0360     0.1430 N.pl3 1 <1>  -0.8380 
 19 C        6.2540     7.2370    -0.2360 C.ar  1 <1>  -0.1440 
 20 C        5.4020     9.9950     1.0170 C.3   1 <1>   0.1290 
 21 C        3.4010     9.5870    -0.4160 C.3   1 <1>   0.1290 
 22 C        7.3730     8.1820    -0.6730 C.3   1 <1>  -0.0970 
 23 H        0.6710    -1.6040     2.4970 H     1 <1>   0.1500 
 24 H        0.9090     3.3360     1.5110 H     1 <1>   0.0800 
 25 H        1.6330    -1.8070     0.0110 H     1 <1>   0.1500 
 26 H        2.4680     1.4100    -1.7900 H     1 <1>   0.0800 
 27 H        1.5300    -0.0230    -2.1440 H     1 <1>   0.0800 
 28 H        3.1450    -0.1700    -1.5070 H     1 <1>   0.0800 
 29 H        1.1140     2.8310    -1.3730 H     1 <1>   0.4500 
 30 H        3.4720     2.8970    -0.0390 H     1 <1>   0.0800 
 31 H        3.3050     2.9590     1.6860 H     1 <1>   0.0800 
 32 H        0.2610     5.3620    -0.0750 H     1 <1>   0.0800 
 33 H        0.0750     4.9980    -1.7750 H     1 <1>   0.0800 
 34 H        1.6740     5.1570    -1.0950 H     1 <1>   0.0800 
 35 H       -1.2570     3.3070     0.3120 H     1 <1>   0.0800 
 36 H       -0.7740     1.7800    -0.3950 H     1 <1>   0.0800 
 37 H       -1.2720     3.1000    -1.4270 H     1 <1>   0.0800 
 38 H        2.4260     5.4230     1.1640 H     1 <1>   0.4000 
 39 H        5.5640     4.0870     0.2530 H     1 <1>   0.4570 
 40 H        7.4290     5.4570    -0.4230 H     1 <1>   0.1500 
 41 H        6.1200     9.4760     1.6280 H     1 <1>   0.0800 
 42 H        4.7110    10.5020     1.6690 H     1 <1>   0.0800 
 43 H        5.9120    10.7250     0.4120 H     1 <1>   0.0800 
 44 H        2.9520     8.8830    -1.0940 H     1 <1>   0.0800 
 45 H        3.6040    10.4980    -0.9530 H     1 <1>   0.0800 
 46 H        2.7090     9.7950     0.3820 H     1 <1>   0.0800 
 47 H        6.9900     8.9120    -1.3660 H     1 <1>   0.0800 
 48 H        8.1700     7.6490    -1.1610 H     1 <1>   0.0800 
 49 H        7.7840     8.6980     0.1760 H     1 <1>   0.0800 
@<TRIPOS>BOND
  1   1   2  1   
  2   1   3  1   
  3   2   4  2   
  4   2   5  1   
  5   3   6  2   
  6   3  23  1   
  7   4   6  1   
  8   4   7  1   
  9   5   8  1   
 10   5   9  1   
 11   5  24  1   
 12   6  25  1   
 13   7  26  1   
 14   7  27  1   
 15   7  28  1   
 16   8  10  1   
 17   8  11  1   
 18   8  29  1   
 19   9  12  1   
 20   9  30  1   
 21   9  31  1   
 22  10  32  1   
 23  10  33  1   
 24  10  34  1   
 25  11  35  1   
 26  11  36  1   
 27  11  37  1   
 28  12  13  1   
 29  12  38  1   
 30  13  14  ar  
 31  13  15  ar  
 32  14  16  ar  
 33  15  17  ar  
 34  15  39  1   
 35  16  18  1   
 36  16  19  ar  
 37  17  19  ar  
 38  17  40  1   
 39  18  20  1   
 40  18  21  1   
 41  19  22  1   
 42  20  41  1   
 43  20  42  1   
 44  20  43  1   
 45  21  44  1   
 46  21  45  1   
 47  21  46  1   
 48  22  47  1   
 49  22  48  1   
 50  22  49  1   
@<TRIPOS>SUBSTRUCTURE
  1 ****  12 GROUP 4 **** **** 0

# MOE 2024.06 (io_trps.svl 2023.06)
