@<TRIPOS>MOLECULE
NONAME
45 47 1 0 0 
SMALL
USER_CHARGES


@<TRIPOS>ATOM
  1 CL       2.3760     0.3620     2.0270 Cl    1 <1>  -0.1770 
  2 C        2.5400    -0.8620     0.7940 C.ar  1 <1>   0.1770 
  3 C        2.0710    -2.1410     1.0430 C.ar  1 <1>  -0.1500 
  4 C        3.1390    -0.5270    -0.4090 C.ar  1 <1>  -0.1500 
  5 C        2.1940    -3.1250     0.0710 C.ar  1 <1>  -0.1440 
  6 C        3.2700    -1.4980    -1.3890 C.ar  1 <1>  -0.1500 
  7 C        2.7970    -2.7740    -1.1300 C.ar  1 <1>   0.1900 
  8 C        1.6920    -4.5410     0.3250 C.3   1 <1>   0.2540 
  9 F        2.9370    -3.6750    -2.0670 F     1 <1>  -0.1900 
 10 N        0.3510    -4.5420     0.9430 N.3   1 <1>  -0.8100 
 11 C       -0.0710    -5.8690     1.4430 C.3   1 <1>   0.1100 
 12 C       -0.7040    -3.9280     0.1070 C.3   1 <1>   0.1100 
 13 C       -0.4450    -6.8380     0.2890 C.3   1 <1>   0.4230 
 14 C       -1.1000    -4.8400    -1.0660 C.3   1 <1>  -0.1600 
 15 N       -0.8200    -8.2220     0.7340 N.4   1 <1>  -0.9590 
 16 C       -1.5700    -6.2360    -0.5750 C.3   1 <1>  -0.1060 
 17 C       -1.0250    -9.1440    -0.4140 C.3   1 <1>   0.3430 
 18 C        0.0160    -8.8160     1.8100 C.3   1 <1>   0.2630 
 19 C       -2.8570    -6.1120     0.2670 C.2   1 <1>   0.9060 
 20 C       -1.8150    -7.1500    -1.7990 C.3   1 <1>  -0.1600 
 21 C       -2.0950    -8.5970    -1.3630 C.3   1 <1>  -0.1600 
 22 O       -3.0340    -6.8920     1.2190 O.co2 1 <1>  -0.9000 
 23 O       -3.7030    -5.2740    -0.0400 O.co2 1 <1>  -0.9000 
 24 H        1.6060    -2.3630     1.9880 H     1 <1>   0.1500 
 25 H        3.4930     0.4750    -0.5710 H     1 <1>   0.1500 
 26 H        3.7300    -1.2750    -2.3350 H     1 <1>   0.1500 
 27 H        2.3860    -5.0200     0.9940 H     1 <1>   0.0800 
 28 H        1.6740    -5.1060    -0.5890 H     1 <1>   0.0800 
 29 H        0.7290    -6.2770     2.0330 H     1 <1>   0.0800 
 30 H       -0.9220    -5.7330     2.0890 H     1 <1>   0.0800 
 31 H       -1.5720    -3.7450     0.7210 H     1 <1>   0.0800 
 32 H       -0.3790    -2.9720    -0.2670 H     1 <1>   0.0800 
 33 H        0.4290    -6.9240    -0.3320 H     1 <1>   0.0800 
 34 H       -1.9010    -4.3640    -1.6050 H     1 <1>   0.0800 
 35 H       -0.2730    -4.9270    -1.7470 H     1 <1>   0.0800 
 36 H       -1.7820    -8.0340     1.1290 H     1 <1>   0.4500 
 37 H       -0.0980    -9.2620    -0.9500 H     1 <1>   0.0800 
 38 H       -1.3370   -10.1100    -0.0540 H     1 <1>   0.0800 
 39 H        1.0330    -8.9300     1.4750 H     1 <1>   0.0800 
 40 H       -0.3740    -9.7810     2.0880 H     1 <1>   0.0800 
 41 H       -0.0010    -8.1830     2.6820 H     1 <1>   0.0800 
 42 H       -2.6560    -6.7750    -2.3590 H     1 <1>   0.0800 
 43 H       -0.9550    -7.1350    -2.4460 H     1 <1>   0.0800 
 44 H       -2.1530    -9.2270    -2.2320 H     1 <1>   0.0800 
 45 H       -3.0530    -8.6470    -0.8720 H     1 <1>   0.0800 
@<TRIPOS>BOND
  1   1   2  1   
  2   2   3  ar  
  3   2   4  ar  
  4   3   5  ar  
  5   3  24  1   
  6   4   6  ar  
  7   4  25  1   
  8   5   7  ar  
  9   5   8  1   
 10   6   7  ar  
 11   6  26  1   
 12   7   9  1   
 13   8  10  1   
 14   8  27  1   
 15   8  28  1   
 16  10  11  1   
 17  10  12  1   
 18  11  13  1   
 19  11  29  1   
 20  11  30  1   
 21  12  14  1   
 22  12  31  1   
 23  12  32  1   
 24  13  15  1   
 25  13  16  1   
 26  13  33  1   
 27  14  16  1   
 28  14  34  1   
 29  14  35  1   
 30  15  17  1   
 31  15  18  1   
 32  15  36  1   
 33  16  19  1   
 34  16  20  1   
 35  17  21  1   
 36  17  37  1   
 37  17  38  1   
 38  18  39  1   
 39  18  40  1   
 40  18  41  1   
 41  19  22  ar  
 42  19  23  ar  
 43  20  21  1   
 44  20  42  1   
 45  20  43  1   
 46  21  44  1   
 47  21  45  1   
@<TRIPOS>SUBSTRUCTURE
  1 ****  10 GROUP 4 **** **** 0

# MOE 2024.06 (io_trps.svl 2023.06)
