@<TRIPOS>MOLECULE
NONAME
54 57 1 0 0 
SMALL
USER_CHARGES


@<TRIPOS>ATOM
  1 O        0.9550     1.7980    -1.9410 O.2   1 <1>  -0.5700 
  2 C        1.0210     2.7840    -1.2290 C.2   1 <1>   0.6900 
  3 N        2.2610     3.3620    -0.9770 N.am  1 <1>  -0.4200 
  4 N       -0.1280     3.3280    -0.6810 N.am  1 <1>  -0.4230 
  5 C        2.3590     4.5100    -0.2160 C.2   1 <1>   0.7150 
  6 C        3.4800     2.7370    -1.5720 C.3   1 <1>   0.0600 
  7 C       -0.0250     4.4600     0.1180 C.2   1 <1>   0.2900 
  8 C       -1.4760     2.7400    -0.9020 C.3   1 <1>   0.0600 
  9 O        3.4250     5.0840    -0.0500 O.2   1 <1>  -0.5700 
 10 C        1.1720     5.0350     0.3520 C.2   1 <1>  -0.2370 
 11 N       -1.0230     5.1060     0.7330 N.2   1 <1>  -0.5650 
 12 N        0.9200     6.0950     1.1620 N.pl3 1 <1>   0.0480 
 13 C       -0.4180     6.0720     1.3500 C.2   1 <1>   0.0360 
 14 C        1.9110     7.0420     1.7070 C.3   1 <1>   0.0960 
 15 C        2.4390     7.9280     0.5690 C.3   1 <1>   0.3430 
 16 N        3.7570     8.5680     0.8900 N.4   1 <1>  -0.9590 
 17 C        4.0200     9.6870    -0.0760 C.3   1 <1>   0.3430 
 18 C        4.8670     7.5620     0.8350 C.3   1 <1>   0.3430 
 19 C        5.3330    10.4130     0.2470 C.3   1 <1>  -0.0190 
 20 C        6.1930     8.2300     1.2040 C.3   1 <1>  -0.1600 
 21 C        5.5710    11.5080    -0.7960 C.2   1 <1>   0.4230 
 22 C        6.5070     9.4180     0.2840 C.3   1 <1>  -0.1600 
 23 O        5.0400    11.3470    -1.8690 O.2   1 <1>  -0.5700 
 24 C        6.3960    12.6600    -0.4650 C.ar  1 <1>   0.3960 
 25 N        6.8800    12.7800     0.7820 N.ar  1 <1>  -0.6200 
 26 C        6.6690    13.6190    -1.4440 C.ar  1 <1>  -0.1500 
 27 C        7.6240    13.8420     1.0400 C.ar  1 <1>   0.1600 
 28 C        7.4450    14.7210    -1.1630 C.ar  1 <1>  -0.1500 
 29 C        7.9330    14.8260     0.1190 C.ar  1 <1>  -0.1500 
 30 H        3.4380     1.6680    -1.4490 H     1 <1>   0.0800 
 31 H        4.3750     3.0980    -1.0960 H     1 <1>   0.0800 
 32 H        3.5220     2.9640    -2.6230 H     1 <1>   0.0800 
 33 H       -1.4210     1.8630    -1.5230 H     1 <1>   0.0800 
 34 H       -2.1100     3.4660    -1.3800 H     1 <1>   0.0800 
 35 H       -1.9080     2.4710     0.0460 H     1 <1>   0.0800 
 36 H       -0.9300     6.7960     1.9620 H     1 <1>   0.1500 
 37 H        2.7030     6.4650     2.1480 H     1 <1>   0.0800 
 38 H        1.4450     7.6430     2.4660 H     1 <1>   0.0800 
 39 H        1.7060     8.6910     0.3620 H     1 <1>   0.0800 
 40 H        2.5550     7.3290    -0.3200 H     1 <1>   0.0800 
 41 H        3.7360     8.9710     1.8360 H     1 <1>   0.4500 
 42 H        3.2100    10.3980    -0.0500 H     1 <1>   0.0800 
 43 H        4.0800     9.2930    -1.0780 H     1 <1>   0.0800 
 44 H        4.9360     7.1490    -0.1590 H     1 <1>   0.0800 
 45 H        4.6740     6.7480     1.5160 H     1 <1>   0.0800 
 46 H        5.2220    10.8730     1.2120 H     1 <1>   0.0800 
 47 H        6.9820     7.5030     1.1240 H     1 <1>   0.0800 
 48 H        6.1600     8.5550     2.2300 H     1 <1>   0.0800 
 49 H        7.3990     9.9160     0.6280 H     1 <1>   0.0800 
 50 H        6.7010     9.0550    -0.7130 H     1 <1>   0.0800 
 51 H        6.2650    13.4930    -2.4330 H     1 <1>   0.1500 
 52 H        8.0140    13.9380     2.0400 H     1 <1>   0.1500 
 53 H        7.6610    15.4660    -1.9120 H     1 <1>   0.1500 
 54 H        8.5460    15.6620     0.4050 H     1 <1>   0.1500 
@<TRIPOS>BOND
  1   1   2  2   
  2   2   3  am  
  3   2   4  am  
  4   3   5  am  
  5   3   6  1   
  6   4   7  1   
  7   4   8  1   
  8   5   9  2   
  9   5  10  1   
 10   6  30  1   
 11   6  31  1   
 12   6  32  1   
 13   7  10  2   
 14   7  11  1   
 15   8  33  1   
 16   8  34  1   
 17   8  35  1   
 18  10  12  1   
 19  11  13  2   
 20  12  13  1   
 21  12  14  1   
 22  13  36  1   
 23  14  15  1   
 24  14  37  1   
 25  14  38  1   
 26  15  16  1   
 27  15  39  1   
 28  15  40  1   
 29  16  17  1   
 30  16  18  1   
 31  16  41  1   
 32  17  19  1   
 33  17  42  1   
 34  17  43  1   
 35  18  20  1   
 36  18  44  1   
 37  18  45  1   
 38  19  21  1   
 39  19  22  1   
 40  19  46  1   
 41  20  22  1   
 42  20  47  1   
 43  20  48  1   
 44  21  23  2   
 45  21  24  1   
 46  22  49  1   
 47  22  50  1   
 48  24  25  ar  
 49  24  26  ar  
 50  25  27  ar  
 51  26  28  ar  
 52  26  51  1   
 53  27  29  ar  
 54  27  52  1   
 55  28  29  ar  
 56  28  53  1   
 57  29  54  1   
@<TRIPOS>SUBSTRUCTURE
  1 ****  15 GROUP 4 **** **** 0

# MOE 2024.06 (io_trps.svl 2023.06)
