@<TRIPOS>MOLECULE
NONAME
59 61 1 0 0 
SMALL
USER_CHARGES


@<TRIPOS>ATOM
  1 O       -0.7880     0.8100     2.2380 O.2   1 <1>  -0.5700 
  2 C       -1.0840     1.3610     1.2030 C.2   1 <1>   0.5770 
  3 N       -2.2010     0.9550     0.4970 N.am  1 <1>  -0.6600 
  4 C       -0.1420     2.4650     0.7030 C.3   1 <1>   0.0530 
  5 C       -3.0580    -0.1490     1.0280 C.3   1 <1>   0.1400 
  6 C       -2.6140     1.4790    -0.8380 C.3   1 <1>   0.1400 
  7 C        0.6150     3.2110     1.8520 C.3   1 <1>   0.0000 
  8 C       -0.8350     3.8300     0.3890 C.3   1 <1>   0.0000 
  9 C        0.8130     1.8810    -0.3610 C.3   1 <1>   0.1200 
 10 C       -4.5170     0.2850     1.2420 C.3   1 <1>   0.1400 
 11 C       -3.8340     2.3920    -0.6870 C.3   1 <1>  -0.1600 
 12 C        0.3090     4.5530     1.1430 C.3   1 <1>   0.0000 
 13 O        1.4700     2.8780    -1.0800 O.3   1 <1>  -0.5600 
 14 N       -5.2640     0.3660    -0.0560 N.am  1 <1>  -0.6600 
 15 C       -5.1830     1.6690    -0.7950 C.3   1 <1>   0.1400 
 16 C        2.4190     2.3990    -1.9770 C.3   1 <1>   0.0400 
 17 C       -6.0580    -0.6420    -0.5560 C.2   1 <1>   0.5690 
 18 O       -6.6390    -0.5280    -1.6150 O.2   1 <1>  -0.5700 
 19 C       -6.3000    -1.9780     0.1940 C.3   1 <1>   0.4840 
 20 N       -7.5540    -2.6750    -0.2440 N.4   1 <1>  -0.9590 
 21 C       -5.2180    -3.0180    -0.0780 C.3   1 <1>  -0.1600 
 22 C       -7.3910    -4.1370    -0.0310 C.3   1 <1>   0.3430 
 23 C       -8.7860    -2.0770     0.3260 C.3   1 <1>   0.3430 
 24 C       -5.8940    -4.3680     0.1560 C.3   1 <1>  -0.1600 
 25 C      -10.0010    -2.6070    -0.4250 C.3   1 <1>  -0.2400 
 26 H       -3.0140    -0.9830     0.3510 H     1 <1>   0.0800 
 27 H       -2.6780    -0.4900     1.9750 H     1 <1>   0.0800 
 28 H       -1.8120     2.0350    -1.2870 H     1 <1>   0.0800 
 29 H       -2.8390     0.6600    -1.5000 H     1 <1>   0.0800 
 30 H        0.1170     3.1550     2.8060 H     1 <1>   0.0000 
 31 H        1.6650     2.9880     1.9130 H     1 <1>   0.0000 
 32 H       -0.8880     4.0830    -0.6550 H     1 <1>   0.0000 
 33 H       -1.7730     3.9500     0.9020 H     1 <1>   0.0000 
 34 H        0.2650     1.2790    -1.0630 H     1 <1>   0.0800 
 35 H        1.5490     1.2610     0.1240 H     1 <1>   0.0800 
 36 H       -4.5370     1.2370     1.7460 H     1 <1>   0.0800 
 37 H       -4.9910    -0.4220     1.8960 H     1 <1>   0.0800 
 38 H       -3.8040     3.1240    -1.4730 H     1 <1>   0.0800 
 39 H       -3.7820     2.9360     0.2390 H     1 <1>   0.0800 
 40 H        1.1040     4.8800     0.4970 H     1 <1>   0.0000 
 41 H       -0.0370     5.3220     1.8110 H     1 <1>   0.0000 
 42 H       -5.3740     1.4940    -1.8410 H     1 <1>   0.0800 
 43 H       -5.9610     2.3220    -0.4360 H     1 <1>   0.0800 
 44 H        2.8580     3.2430    -2.4800 H     1 <1>   0.0800 
 45 H        1.9390     1.7580    -2.6960 H     1 <1>   0.0800 
 46 H        3.1800     1.8630    -1.4380 H     1 <1>   0.0800 
 47 H       -6.3550    -1.7910     1.2520 H     1 <1>   0.0800 
 48 H       -7.5780    -2.4810    -1.2610 H     1 <1>   0.4500 
 49 H       -4.8980    -2.9410    -1.1040 H     1 <1>   0.0800 
 50 H       -4.3640    -2.8830     0.5610 H     1 <1>   0.0800 
 51 H       -7.9220    -4.4530     0.8530 H     1 <1>   0.0800 
 52 H       -7.7640    -4.6850    -0.8820 H     1 <1>   0.0800 
 53 H       -8.8660    -2.3120     1.3760 H     1 <1>   0.0800 
 54 H       -8.7510    -1.0030     0.2180 H     1 <1>   0.0800 
 55 H       -5.7170    -4.7100     1.1620 H     1 <1>   0.0800 
 56 H       -5.5300    -5.1190    -0.5250 H     1 <1>   0.0800 
 57 H      -10.1170    -3.6660    -0.2880 H     1 <1>   0.0800 
 58 H       -9.9260    -2.3800    -1.4740 H     1 <1>   0.0800 
 59 H      -10.8860    -2.1270    -0.0460 H     1 <1>   0.0800 
@<TRIPOS>BOND
  1   1   2  2   
  2   2   3  am  
  3   2   4  1   
  4   3   5  1   
  5   3   6  1   
  6   4   7  1   
  7   4   8  1   
  8   4   9  1   
  9   5  10  1   
 10   5  26  1   
 11   5  27  1   
 12   6  11  1   
 13   6  28  1   
 14   6  29  1   
 15   7  12  1   
 16   7  30  1   
 17   7  31  1   
 18   8  12  1   
 19   8  32  1   
 20   8  33  1   
 21   9  13  1   
 22   9  34  1   
 23   9  35  1   
 24  10  14  1   
 25  10  36  1   
 26  10  37  1   
 27  11  15  1   
 28  11  38  1   
 29  11  39  1   
 30  12  40  1   
 31  12  41  1   
 32  13  16  1   
 33  14  15  1   
 34  14  17  am  
 35  15  42  1   
 36  15  43  1   
 37  16  44  1   
 38  16  45  1   
 39  16  46  1   
 40  17  18  2   
 41  17  19  1   
 42  19  20  1   
 43  19  21  1   
 44  19  47  1   
 45  20  22  1   
 46  20  23  1   
 47  20  48  1   
 48  21  24  1   
 49  21  49  1   
 50  21  50  1   
 51  22  24  1   
 52  22  51  1   
 53  22  52  1   
 54  23  25  1   
 55  23  53  1   
 56  23  54  1   
 57  24  55  1   
 58  24  56  1   
 59  25  57  1   
 60  25  58  1   
 61  25  59  1   
@<TRIPOS>SUBSTRUCTURE
  1 ****   5 GROUP 4 **** **** 0

# MOE 2024.06 (io_trps.svl 2023.06)
