@<TRIPOS>MOLECULE
NONAME
44 45 1 0 0 
SMALL
USER_CHARGES


@<TRIPOS>ATOM
  1 O       -0.3570     0.3330    -0.4460 O.2   1 <1>  -0.5700 
  2 C       -1.4260     0.8890    -0.3520 C.2   1 <1>   0.5690 
  3 N       -2.5960     0.1890    -0.4540 N.am  1 <1>  -0.6600 
  4 C       -1.4760     2.3940    -0.1090 C.3   1 <1>  -0.0990 
  5 C       -3.9660     0.7230    -0.2640 C.3   1 <1>   0.1400 
  6 C       -2.6300    -1.2750    -0.6690 C.3   1 <1>   0.1400 
  7 C       -0.1050     3.0930    -0.1590 C.3   1 <1>  -0.1600 
  8 C       -4.8850    -0.4970    -0.3610 C.3   1 <1>   0.2000 
  9 C       -3.9900    -1.7160    -0.1280 C.3   1 <1>  -0.0800 
 10 C       -0.2360     4.6030     0.0800 C.3   1 <1>  -0.1600 
 11 O       -5.8890    -0.4550     0.5930 O.3   1 <1>  -0.6800 
 12 C       -4.5410    -2.9880    -0.7910 C.3   1 <1>   0.0200 
 13 C        1.1330     5.2890     0.0290 C.3   1 <1>  -0.1600 
 14 C       -3.6840    -4.2170    -0.5370 C.2   1 <1>  -0.0400 
 15 C        1.0050     6.7960     0.2670 C.3   1 <1>  -0.2400 
 16 O       -3.9560    -5.3150    -1.1920 O.3   1 <1>  -0.0190 
 17 C       -2.6360    -4.4700     0.2630 C.2   1 <1>  -0.1500 
 18 N       -3.1450    -6.2840    -0.8790 N.2   1 <1>  -0.4100 
 19 C       -2.3380    -5.8030    -0.0030 C.2   1 <1>   0.1080 
 20 C       -1.2190    -6.5880     0.6440 C.3   1 <1>  -0.0590 
 21 H       -2.1140     2.8320    -0.8540 H     1 <1>   0.0800 
 22 H       -1.9180     2.5600     0.8560 H     1 <1>   0.0800 
 23 H       -4.0410     1.1860     0.7050 H     1 <1>   0.0800 
 24 H       -4.2000     1.4340    -1.0370 H     1 <1>   0.0800 
 25 H       -2.5500    -1.4730    -1.7250 H     1 <1>   0.0800 
 26 H       -1.8160    -1.7570    -0.1550 H     1 <1>   0.0800 
 27 H        0.5390     2.6640     0.5900 H     1 <1>   0.0800 
 28 H        0.3460     2.9170    -1.1210 H     1 <1>   0.0800 
 29 H       -5.3450    -0.5270    -1.3350 H     1 <1>   0.0800 
 30 H       -3.8800    -1.8800     0.9300 H     1 <1>   0.0800 
 31 H       -0.8770     5.0320    -0.6720 H     1 <1>   0.0800 
 32 H       -0.6850     4.7770     1.0430 H     1 <1>   0.0800 
 33 H       -5.5100    -0.4860     1.4920 H     1 <1>   0.4000 
 34 H       -4.6150    -2.8370    -1.8540 H     1 <1>   0.0800 
 35 H       -5.5320    -3.1840    -0.4200 H     1 <1>   0.0800 
 36 H        1.7790     4.8650     0.7790 H     1 <1>   0.0800 
 37 H        1.5870     5.1200    -0.9340 H     1 <1>   0.0800 
 38 H        0.5740     6.9890     1.2340 H     1 <1>   0.0800 
 39 H        0.3810     7.2440    -0.4870 H     1 <1>   0.0800 
 40 H        1.9750     7.2580     0.2270 H     1 <1>   0.0800 
 41 H       -2.1180    -3.8360     0.9580 H     1 <1>   0.1500 
 42 H       -0.2740    -6.1270     0.4200 H     1 <1>   0.0800 
 43 H       -1.2130    -7.5950     0.2690 H     1 <1>   0.0800 
 44 H       -1.3590    -6.6130     1.7090 H     1 <1>   0.0800 
@<TRIPOS>BOND
  1   1   2  2   
  2   2   3  am  
  3   2   4  1   
  4   3   5  1   
  5   3   6  1   
  6   4   7  1   
  7   4  21  1   
  8   4  22  1   
  9   5   8  1   
 10   5  23  1   
 11   5  24  1   
 12   6   9  1   
 13   6  25  1   
 14   6  26  1   
 15   7  10  1   
 16   7  27  1   
 17   7  28  1   
 18   8   9  1   
 19   8  11  1   
 20   8  29  1   
 21   9  12  1   
 22   9  30  1   
 23  10  13  1   
 24  10  31  1   
 25  10  32  1   
 26  11  33  1   
 27  12  14  1   
 28  12  34  1   
 29  12  35  1   
 30  13  15  1   
 31  13  36  1   
 32  13  37  1   
 33  14  16  1   
 34  14  17  2   
 35  15  38  1   
 36  15  39  1   
 37  15  40  1   
 38  16  18  1   
 39  17  19  1   
 40  17  41  1   
 41  18  19  2   
 42  19  20  1   
 43  20  42  1   
 44  20  43  1   
 45  20  44  1   
@<TRIPOS>SUBSTRUCTURE
  1 ****   6 GROUP 4 **** **** 0

# MOE 2024.06 (io_trps.svl 2023.06)
