@<TRIPOS>MOLECULE
NONAME
47 49 1 0 0 
SMALL
USER_CHARGES


@<TRIPOS>ATOM
  1 O        0.0850    -0.5280     0.0440 O.3   1 <1>  -0.3630 
  2 C        1.1830     0.2250    -0.2180 C.ar  1 <1>   0.0830 
  3 C        0.1230    -1.9290    -0.0390 C.3   1 <1>   0.1200 
  4 C        1.0370     1.5990    -0.1070 C.ar  1 <1>  -0.1500 
  5 C        2.4180    -0.3040    -0.5840 C.ar  1 <1>  -0.1500 
  6 C       -1.2730    -2.4410     0.3120 C.3   1 <1>  -0.1600 
  7 C        2.1050     2.4410    -0.3570 C.ar  1 <1>  -0.1500 
  8 C        3.4860     0.5400    -0.8330 C.ar  1 <1>  -0.1500 
  9 C       -1.3310    -3.9640     0.2210 C.3   1 <1>   0.3430 
 10 C        3.3310     1.9120    -0.7210 C.ar  1 <1>  -0.1500 
 11 N       -2.6680    -4.4510     0.6500 N.4   1 <1>  -0.9590 
 12 C       -3.8110    -4.0650    -0.2200 C.3   1 <1>   0.3430 
 13 C       -2.7530    -5.9340     0.7800 C.3   1 <1>   0.3430 
 14 C       -4.9300    -4.9990     0.2350 C.3   1 <1>   0.2000 
 15 C       -4.2100    -6.3310     0.4680 C.3   1 <1>  -0.0800 
 16 O       -5.3860    -4.5390     1.4650 O.3   1 <1>  -0.6800 
 17 C       -4.3070    -7.2500    -0.7690 C.3   1 <1>  -0.0170 
 18 C       -3.6360    -8.5980    -0.5420 C.ar  1 <1>   0.1670 
 19 N       -2.3120    -8.5980    -0.5230 N.ar  1 <1>  -0.6200 
 20 C       -4.4090    -9.7470    -0.3740 C.ar  1 <1>   0.1600 
 21 C       -1.8190    -9.8140    -0.3370 C.ar  1 <1>   0.1600 
 22 N       -3.9160   -10.9560    -0.1760 N.ar  1 <1>  -0.6200 
 23 C       -2.5950   -10.9540    -0.1680 C.ar  1 <1>   0.1600 
 24 H        0.3980    -2.1980    -1.0450 H     1 <1>   0.0800 
 25 H        0.8590    -2.2880     0.6610 H     1 <1>   0.0800 
 26 H        0.0820     2.0050     0.1760 H     1 <1>   0.1500 
 27 H        2.5720    -1.3610    -0.6790 H     1 <1>   0.1500 
 28 H       -1.5080    -2.1280     1.3140 H     1 <1>   0.0800 
 29 H       -1.9730    -2.0010    -0.3760 H     1 <1>   0.0800 
 30 H        1.9830     3.5070    -0.2690 H     1 <1>   0.1500 
 31 H        4.4410     0.1320    -1.1160 H     1 <1>   0.1500 
 32 H       -0.5730    -4.3840     0.8630 H     1 <1>   0.0800 
 33 H       -1.1290    -4.2800    -0.7900 H     1 <1>   0.0800 
 34 H        4.1630     2.5660    -0.9160 H     1 <1>   0.1500 
 35 H       -2.9030    -4.0640     1.5780 H     1 <1>   0.4500 
 36 H       -4.0890    -3.0310    -0.0920 H     1 <1>   0.0800 
 37 H       -3.5720    -4.2550    -1.2530 H     1 <1>   0.0800 
 38 H       -2.0850    -6.3970     0.0740 H     1 <1>   0.0800 
 39 H       -2.4770    -6.2470     1.7740 H     1 <1>   0.0800 
 40 H       -5.7560    -5.0410    -0.4550 H     1 <1>   0.0800 
 41 H       -4.6340    -6.8550     1.3080 H     1 <1>   0.0800 
 42 H       -6.2060    -5.0010     1.7420 H     1 <1>   0.4000 
 43 H       -3.8500    -6.7820    -1.6230 H     1 <1>   0.0800 
 44 H       -5.3440    -7.4120    -1.0100 H     1 <1>   0.0800 
 45 H       -5.4820    -9.6680    -0.4030 H     1 <1>   0.1500 
 46 H       -0.7480    -9.9190    -0.3180 H     1 <1>   0.1500 
 47 H       -2.1030   -11.9000    -0.0210 H     1 <1>   0.1500 
@<TRIPOS>BOND
  1   1   2  1   
  2   1   3  1   
  3   2   4  ar  
  4   2   5  ar  
  5   3   6  1   
  6   3  24  1   
  7   3  25  1   
  8   4   7  ar  
  9   4  26  1   
 10   5   8  ar  
 11   5  27  1   
 12   6   9  1   
 13   6  28  1   
 14   6  29  1   
 15   7  10  ar  
 16   7  30  1   
 17   8  10  ar  
 18   8  31  1   
 19   9  11  1   
 20   9  32  1   
 21   9  33  1   
 22  10  34  1   
 23  11  12  1   
 24  11  13  1   
 25  11  35  1   
 26  12  14  1   
 27  12  36  1   
 28  12  37  1   
 29  13  15  1   
 30  13  38  1   
 31  13  39  1   
 32  14  15  1   
 33  14  16  1   
 34  14  40  1   
 35  15  17  1   
 36  15  41  1   
 37  16  42  1   
 38  17  18  1   
 39  17  43  1   
 40  17  44  1   
 41  18  19  ar  
 42  18  20  ar  
 43  19  21  ar  
 44  20  22  ar  
 45  20  45  1   
 46  21  23  ar  
 47  21  46  1   
 48  22  23  ar  
 49  23  47  1   
@<TRIPOS>SUBSTRUCTURE
  1 ****   9 GROUP 4 **** **** 0

# MOE 2024.06 (io_trps.svl 2023.06)
