@<TRIPOS>MOLECULE
NONAME
30 32 1 0 0 
SMALL
USER_CHARGES


@<TRIPOS>ATOM
  1 O       -0.1450     0.9490    -1.3030 O.2   1 <1>  -0.5700 
  2 C       -1.1050     1.4350    -0.7570 C.2   1 <1>   0.6300 
  3 N       -2.3420     0.8870    -0.7190 N.am  1 <1>  -0.5470 
  4 C       -1.1470     2.7750    -0.0240 C.3   1 <1>   0.0320 
  5 C       -3.2430     1.7160    -0.0600 C.ar  1 <1>   0.1170 
  6 C       -2.6090     2.8640     0.3780 C.ar  1 <1>  -0.0320 
  7 C       -0.0580     3.2590     0.8840 C.3   1 <1>  -0.1000 
  8 C       -0.3280     3.9620    -0.4240 C.3   1 <1>  -0.2000 
  9 C       -4.5940     1.5210     0.1740 C.ar  1 <1>  -0.1500 
 10 C       -3.3090     3.8440     1.0560 C.ar  1 <1>  -0.1500 
 11 C        1.1370     2.3520     1.1100 C.2   1 <1>   0.7200 
 12 C       -5.3000     2.5000     0.8550 C.ar  1 <1>  -0.1500 
 13 C       -4.6630     3.6540     1.2930 C.ar  1 <1>  -0.1500 
 14 O        1.0890     1.4510     1.9080 O.2   1 <1>  -0.5700 
 15 O        2.2190     2.6130     0.3910 O.3   1 <1>  -0.4300 
 16 C        3.3510     1.7800     0.4500 C.3   1 <1>   0.1200 
 17 C        4.4030     2.3430    -0.5000 C.3   1 <1>  -0.2400 
 18 H       -2.5430    -0.0150    -1.1460 H     1 <1>   0.3700 
 19 H       -0.3530     3.7520     1.7900 H     1 <1>   0.1000 
 20 H        0.3780     3.8470    -1.2290 H     1 <1>   0.1000 
 21 H       -0.7870     4.9340    -0.4100 H     1 <1>   0.1000 
 22 H       -5.0800     0.6260    -0.1680 H     1 <1>   0.1500 
 23 H       -2.8140     4.7370     1.3950 H     1 <1>   0.1500 
 24 H       -6.3510     2.3660     1.0470 H     1 <1>   0.1500 
 25 H       -5.2240     4.4070     1.8210 H     1 <1>   0.1500 
 26 H        3.7110     1.7630     1.4650 H     1 <1>   0.0800 
 27 H        3.0550     0.7870     0.1530 H     1 <1>   0.0800 
 28 H        4.6770     3.3390    -0.2010 H     1 <1>   0.0800 
 29 H        4.0200     2.3600    -1.5040 H     1 <1>   0.0800 
 30 H        5.2800     1.7230    -0.4780 H     1 <1>   0.0800 
@<TRIPOS>BOND
  1   1   2  2   
  2   2   3  am  
  3   2   4  1   
  4   3   5  1   
  5   3  18  1   
  6   4   6  1   
  7   4   7  1   
  8   4   8  1   
  9   5   6  ar  
 10   5   9  ar  
 11   6  10  ar  
 12   7   8  1   
 13   7  11  1   
 14   7  19  1   
 15   8  20  1   
 16   8  21  1   
 17   9  12  ar  
 18   9  22  1   
 19  10  13  ar  
 20  10  23  1   
 21  11  14  2   
 22  11  15  1   
 23  12  13  ar  
 24  12  24  1   
 25  13  25  1   
 26  15  16  1   
 27  16  17  1   
 28  16  26  1   
 29  16  27  1   
 30  17  28  1   
 31  17  29  1   
 32  17  30  1   
@<TRIPOS>SUBSTRUCTURE
  1 ****   4 GROUP 4 **** **** 0

# MOE 2024.06 (io_trps.svl 2023.06)
