@<TRIPOS>MOLECULE
NONAME
53 56 1 0 0 
SMALL
USER_CHARGES


@<TRIPOS>ATOM
  1 O       -0.3220     0.6420    -2.0130 O.2   1 <1>  -0.5700 
  2 C       -1.2260     1.1790    -1.3970 C.2   1 <1>   0.5440 
  3 N       -2.3470     0.4370    -1.0900 N.am  1 <1>  -0.6600 
  4 C       -1.1410     2.5680    -1.0180 C.ar  1 <1>   0.0860 
  5 C       -3.5210     0.9490    -0.3330 C.3   1 <1>   0.1400 
  6 C       -2.3390    -1.0430    -1.0690 C.3   1 <1>   0.1400 
  7 C       -0.3630     3.0060     0.0700 C.ar  1 <1>   0.1000 
  8 C       -1.8640     3.5140    -1.7460 C.ar  1 <1>  -0.1500 
  9 C       -4.2100    -0.3020     0.2230 C.3   1 <1>   0.2000 
 10 C       -3.1370    -1.3840     0.1860 C.3   1 <1>  -0.0800 
 11 N        0.4300     2.1710     0.8550 N.pl3 1 <1>  -0.8380 
 12 C       -0.3550     4.3610     0.3870 C.ar  1 <1>  -0.1500 
 13 C       -1.8420     4.8540    -1.4170 C.ar  1 <1>  -0.1500 
 14 O       -4.6550    -0.1110     1.5210 O.3   1 <1>  -0.6800 
 15 C       -3.6640    -2.8240     0.2100 C.3   1 <1>   0.0210 
 16 C        1.9010     2.1230     0.5950 C.3   1 <1>   0.2090 
 17 C       -0.1080     1.0010     1.6190 C.3   1 <1>   0.2090 
 18 C       -1.0830     5.2800    -0.3400 C.ar  1 <1>  -0.1500 
 19 C       -2.5070    -3.8030     0.1370 C.2   1 <1>   0.1080 
 20 C        2.3730     0.7080     0.2180 C.3   1 <1>   0.1200 
 21 C        0.5430    -0.3340     1.2000 C.3   1 <1>   0.1200 
 22 N       -1.4950    -3.7560     0.9480 N.2   1 <1>  -0.7070 
 23 C       -2.3830    -4.8260    -0.7970 C.2   1 <1>  -0.1500 
 24 O        1.9380    -0.2290     1.1640 O.3   1 <1>  -0.5600 
 25 N       -0.6890    -4.7560     0.5460 N.pl3 1 <1>   0.3000 
 26 C       -1.2060    -5.4190    -0.5100 C.2   1 <1>  -0.3320 
 27 C       -0.5300    -6.5950    -1.1910 C.3   1 <1>  -0.0600 
 28 H       -3.1930     1.5950     0.4630 H     1 <1>   0.0800 
 29 H       -4.1810     1.4830    -0.9930 H     1 <1>   0.0800 
 30 H       -2.8300    -1.4100    -1.9540 H     1 <1>   0.0800 
 31 H       -1.3400    -1.4430    -1.0280 H     1 <1>   0.0800 
 32 H       -2.4490     3.1810    -2.5860 H     1 <1>   0.1500 
 33 H       -5.0550    -0.5600    -0.3930 H     1 <1>   0.0800 
 34 H       -2.4750    -1.2480     1.0230 H     1 <1>   0.0800 
 35 H        0.2380     4.6850     1.2220 H     1 <1>   0.1500 
 36 H       -2.4080     5.5670    -1.9920 H     1 <1>   0.1500 
 37 H       -3.8980    -0.0210     2.1310 H     1 <1>   0.4000 
 38 H       -4.3350    -2.9910    -0.6130 H     1 <1>   0.0800 
 39 H       -4.2020    -2.9950     1.1250 H     1 <1>   0.0800 
 40 H        2.1490     2.8020    -0.2030 H     1 <1>   0.0800 
 41 H        2.4230     2.4430     1.4790 H     1 <1>   0.0800 
 42 H        0.0820     1.1590     2.6660 H     1 <1>   0.0800 
 43 H       -1.1720     0.9380     1.4870 H     1 <1>   0.0800 
 44 H       -1.0600     6.3230    -0.0750 H     1 <1>   0.1500 
 45 H        3.4460     0.6720     0.1870 H     1 <1>   0.0800 
 46 H        1.9890     0.4300    -0.7500 H     1 <1>   0.0800 
 47 H        0.2040    -0.6310     0.2260 H     1 <1>   0.0800 
 48 H        0.2860    -1.1100     1.8990 H     1 <1>   0.0800 
 49 H       -3.0880    -5.0680    -1.5730 H     1 <1>   0.1500 
 50 H        0.2060    -4.9580     1.0090 H     1 <1>   0.2700 
 51 H       -1.1370    -6.9500    -2.0050 H     1 <1>   0.0800 
 52 H       -0.3900    -7.4000    -0.4920 H     1 <1>   0.0800 
 53 H        0.4270    -6.2980    -1.5810 H     1 <1>   0.0800 
@<TRIPOS>BOND
  1   1   2  2   
  2   2   3  am  
  3   2   4  1   
  4   3   5  1   
  5   3   6  1   
  6   4   7  ar  
  7   4   8  ar  
  8   5   9  1   
  9   5  28  1   
 10   5  29  1   
 11   6  10  1   
 12   6  30  1   
 13   6  31  1   
 14   7  11  1   
 15   7  12  ar  
 16   8  13  ar  
 17   8  32  1   
 18   9  10  1   
 19   9  14  1   
 20   9  33  1   
 21  10  15  1   
 22  10  34  1   
 23  11  16  1   
 24  11  17  1   
 25  12  18  ar  
 26  12  35  1   
 27  13  18  ar  
 28  13  36  1   
 29  14  37  1   
 30  15  19  1   
 31  15  38  1   
 32  15  39  1   
 33  16  20  1   
 34  16  40  1   
 35  16  41  1   
 36  17  21  1   
 37  17  42  1   
 38  17  43  1   
 39  18  44  1   
 40  19  22  2   
 41  19  23  1   
 42  20  24  1   
 43  20  45  1   
 44  20  46  1   
 45  21  24  1   
 46  21  47  1   
 47  21  48  1   
 48  22  25  1   
 49  23  26  2   
 50  23  49  1   
 51  25  26  1   
 52  25  50  1   
 53  26  27  1   
 54  27  51  1   
 55  27  52  1   
 56  27  53  1   
@<TRIPOS>SUBSTRUCTURE
  1 ****   3 GROUP 4 **** **** 0

# MOE 2024.06 (io_trps.svl 2023.06)
