@<TRIPOS>MOLECULE
NONAME
51 54 1 0 0 
SMALL
USER_CHARGES


@<TRIPOS>ATOM
  1 O       -0.1600    -0.3410     0.6780 O.2   1 <1>  -0.5700 
  2 C       -0.1760    -1.5500     0.6590 C.2   1 <1>   0.5690 
  3 N        0.9730    -2.3010     0.4700 N.am  1 <1>  -0.4770 
  4 C       -1.5350    -2.2280     0.8750 C.3   1 <1>   0.2010 
  5 C        2.2400    -1.7310     0.2600 C.ar  1 <1>   0.1170 
  6 C        0.9030    -3.7840     0.3250 C.3   1 <1>   0.1400 
  7 N       -1.5420    -3.7190     0.6780 N.am  1 <1>  -0.6600 
  8 C        2.4730    -0.9030    -0.8310 C.ar  1 <1>  -0.1500 
  9 C        3.2910    -2.0010     1.1290 C.ar  1 <1>  -0.1500 
 10 C       -0.2800    -4.3910     1.0860 C.3   1 <1>   0.1400 
 11 C       -2.6820    -4.3720     0.2650 C.2   1 <1>   0.5440 
 12 C        3.7270    -0.3670    -1.0640 C.ar  1 <1>  -0.1440 
 13 C        4.5520    -1.4730     0.9070 C.ar  1 <1>  -0.1440 
 14 O       -3.7340    -3.7630     0.2790 O.2   1 <1>  -0.5700 
 15 C       -2.6580    -5.7530    -0.1700 C.ar  1 <1>   0.0860 
 16 C        4.7640    -0.6590    -0.1930 C.ar  1 <1>  -0.1500 
 17 C        3.9760     0.5390    -2.2560 C.3   1 <1>  -0.0970 
 18 C        5.6990    -1.7690     1.8560 C.3   1 <1>  -0.0970 
 19 C       -3.4690    -6.7090     0.4490 C.ar  1 <1>  -0.1500 
 20 C       -1.8270    -6.1690    -1.2200 C.ar  1 <1>  -0.1500 
 21 C       -3.4170    -8.0260     0.0390 C.ar  1 <1>  -0.1430 
 22 C       -1.7780    -7.4910    -1.6270 C.ar  1 <1>  -0.1500 
 23 C       -2.5820    -8.4070    -0.9760 C.ar  1 <1>   0.0830 
 24 C       -4.1660    -9.2340     0.5170 C.3   1 <1>  -0.0170 
 25 O       -2.6490    -9.7160    -1.2450 O.3   1 <1>  -0.3620 
 26 C       -3.5630   -10.3510    -0.3630 C.3   1 <1>   0.2000 
 27 C       -4.6000   -11.0950    -1.2050 C.3   1 <1>  -0.2400 
 28 H       -2.2380    -1.7760     0.1980 H     1 <1>   0.0800 
 29 H       -1.8620    -2.0110     1.8750 H     1 <1>   0.0800 
 30 H        1.8140    -4.2260     0.6880 H     1 <1>   0.0800 
 31 H        0.8150    -4.0240    -0.7200 H     1 <1>   0.0800 
 32 H        1.6560    -0.6790    -1.4920 H     1 <1>   0.1500 
 33 H        3.1120    -2.6230     1.9850 H     1 <1>   0.1500 
 34 H       -0.1320    -4.2530     2.1440 H     1 <1>   0.0800 
 35 H       -0.3260    -5.4490     0.8990 H     1 <1>   0.0800 
 36 H        5.7410    -0.2440    -0.3700 H     1 <1>   0.1500 
 37 H        3.0640     0.7200    -2.7970 H     1 <1>   0.0800 
 38 H        4.6860     0.0820    -2.9210 H     1 <1>   0.0800 
 39 H        4.3670     1.4830    -1.9220 H     1 <1>   0.0800 
 40 H        5.3930    -2.4420     2.6350 H     1 <1>   0.0800 
 41 H        6.0410    -0.8550     2.3080 H     1 <1>   0.0800 
 42 H        6.5140    -2.2160     1.3160 H     1 <1>   0.0800 
 43 H       -4.1310    -6.4060     1.2410 H     1 <1>   0.1500 
 44 H       -1.2180    -5.4380    -1.7210 H     1 <1>   0.1500 
 45 H       -1.1410    -7.8170    -2.4300 H     1 <1>   0.1500 
 46 H       -5.2230    -9.1210     0.3530 H     1 <1>   0.0800 
 47 H       -3.9800    -9.4260     1.5580 H     1 <1>   0.0800 
 48 H       -2.9990   -11.0400     0.2410 H     1 <1>   0.0800 
 49 H       -5.1260   -10.4060    -1.8420 H     1 <1>   0.0800 
 50 H       -5.3090   -11.5880    -0.5660 H     1 <1>   0.0800 
 51 H       -4.1120   -11.8370    -1.8110 H     1 <1>   0.0800 
@<TRIPOS>BOND
  1   1   2  2   
  2   2   3  am  
  3   2   4  1   
  4   3   5  1   
  5   3   6  1   
  6   4   7  1   
  7   4  28  1   
  8   4  29  1   
  9   5   8  ar  
 10   5   9  ar  
 11   6  10  1   
 12   6  30  1   
 13   6  31  1   
 14   7  10  1   
 15   7  11  am  
 16   8  12  ar  
 17   8  32  1   
 18   9  13  ar  
 19   9  33  1   
 20  10  34  1   
 21  10  35  1   
 22  11  14  2   
 23  11  15  1   
 24  12  16  ar  
 25  12  17  1   
 26  13  16  ar  
 27  13  18  1   
 28  15  19  ar  
 29  15  20  ar  
 30  16  36  1   
 31  17  37  1   
 32  17  38  1   
 33  17  39  1   
 34  18  40  1   
 35  18  41  1   
 36  18  42  1   
 37  19  21  ar  
 38  19  43  1   
 39  20  22  ar  
 40  20  44  1   
 41  21  23  ar  
 42  21  24  1   
 43  22  23  ar  
 44  22  45  1   
 45  23  25  1   
 46  24  26  1   
 47  24  46  1   
 48  24  47  1   
 49  25  26  1   
 50  26  27  1   
 51  26  48  1   
 52  27  49  1   
 53  27  50  1   
 54  27  51  1   
@<TRIPOS>SUBSTRUCTURE
  1 ****  10 GROUP 4 **** **** 0

# MOE 2024.06 (io_trps.svl 2023.06)
