@<TRIPOS>MOLECULE
NONAME
47 49 1 0 0 
SMALL
USER_CHARGES


@<TRIPOS>ATOM
  1 O        2.2730    -0.6300     2.3590 O.2   1 <1>  -0.5700 
  2 C        2.2820    -0.8980     1.1710 C.2   1 <1>   0.5440 
  3 N        2.6570     0.0890     0.2720 N.am  1 <1>  -0.6600 
  4 C        1.9420    -2.2370     0.7410 C.ar  1 <1>   0.0860 
  5 C        3.0150     1.4460     0.7970 C.3   1 <1>   0.1400 
  6 C        3.0530    -0.2480    -1.1330 C.3   1 <1>   0.1400 
  7 C        0.7890    -2.4910     0.0010 C.ar  1 <1>  -0.1500 
  8 C        2.7810    -3.3090     1.0370 C.ar  1 <1>  -0.1500 
  9 C        4.5410     1.6660     0.9710 C.3   1 <1>   0.4230 
 10 C        4.5070     0.1240    -1.4990 C.3   1 <1>  -0.0800 
 11 C        0.4850    -3.7630    -0.4480 C.ar  1 <1>  -0.1440 
 12 C        2.5010    -4.5930     0.6020 C.ar  1 <1>  -0.1430 
 13 N        5.2070     2.2220    -0.2650 N.4   1 <1>  -0.9590 
 14 C        5.3280     0.4290     1.4860 C.3   1 <1>   0.1200 
 15 C        5.6070    -0.6170    -0.7060 C.3   1 <1>   0.1200 
 16 C        4.7060     1.6400    -1.5460 C.3   1 <1>   0.3430 
 17 C        1.3490    -4.8110    -0.1470 C.ar  1 <1>   0.0830 
 18 C       -0.7820    -4.0040    -1.2560 C.3   1 <1>  -0.0970 
 19 C        3.4570    -5.7260     0.9540 C.3   1 <1>  -0.0970 
 20 C        5.1360     3.7150    -0.3020 C.3   1 <1>   0.2630 
 21 O        5.3250    -0.7070     0.6550 O.3   1 <1>  -0.5600 
 22 O        1.0640    -6.0470    -0.5810 O.3   1 <1>  -0.5330 
 23 H        2.5940     2.2000     0.1570 H     1 <1>   0.0800 
 24 H        2.5540     1.5860     1.7590 H     1 <1>   0.0800 
 25 H        2.9360    -1.3040    -1.3080 H     1 <1>   0.0800 
 26 H        2.3740     0.2520    -1.8020 H     1 <1>   0.0800 
 27 H        0.1300    -1.6710    -0.2170 H     1 <1>   0.1500 
 28 H        3.6660    -3.1100     1.6170 H     1 <1>   0.1500 
 29 H        4.6410     2.4120     1.7420 H     1 <1>   0.0800 
 30 H        4.6240    -0.1960    -2.5190 H     1 <1>   0.0800 
 31 H        6.1950     1.9470    -0.1830 H     1 <1>   0.4500 
 32 H        4.8960     0.1160     2.4220 H     1 <1>   0.0800 
 33 H        6.3520     0.6940     1.6770 H     1 <1>   0.0800 
 34 H        6.5770    -0.1690    -0.8340 H     1 <1>   0.0800 
 35 H        5.6650    -1.6330    -1.0610 H     1 <1>   0.0800 
 36 H        3.7690     2.1010    -1.8140 H     1 <1>   0.0800 
 37 H        5.4130     1.8700    -2.3270 H     1 <1>   0.0800 
 38 H       -1.3340    -3.0930    -1.3990 H     1 <1>   0.0800 
 39 H       -1.4100    -4.7100    -0.7430 H     1 <1>   0.0800 
 40 H       -0.5290    -4.4090    -2.2200 H     1 <1>   0.0800 
 41 H        4.2870    -5.3600     1.5320 H     1 <1>   0.0800 
 42 H        3.8440    -6.1760     0.0570 H     1 <1>   0.0800 
 43 H        2.9460    -6.4710     1.5370 H     1 <1>   0.0800 
 44 H        4.1120     4.0420    -0.3790 H     1 <1>   0.0800 
 45 H        5.6830     4.0960    -1.1500 H     1 <1>   0.0800 
 46 H        5.5650     4.1340     0.5940 H     1 <1>   0.0800 
 47 H        1.7150    -6.7070    -0.2890 H     1 <1>   0.4500 
@<TRIPOS>BOND
  1   1   2  2   
  2   2   3  am  
  3   2   4  1   
  4   3   5  1   
  5   3   6  1   
  6   4   7  ar  
  7   4   8  ar  
  8   5   9  1   
  9   5  23  1   
 10   5  24  1   
 11   6  10  1   
 12   6  25  1   
 13   6  26  1   
 14   7  11  ar  
 15   7  27  1   
 16   8  12  ar  
 17   8  28  1   
 18   9  13  1   
 19   9  14  1   
 20   9  29  1   
 21  10  15  1   
 22  10  16  1   
 23  10  30  1   
 24  11  17  ar  
 25  11  18  1   
 26  12  17  ar  
 27  12  19  1   
 28  13  16  1   
 29  13  20  1   
 30  13  31  1   
 31  14  21  1   
 32  14  32  1   
 33  14  33  1   
 34  15  21  1   
 35  15  34  1   
 36  15  35  1   
 37  16  36  1   
 38  16  37  1   
 39  17  22  1   
 40  18  38  1   
 41  18  39  1   
 42  18  40  1   
 43  19  41  1   
 44  19  42  1   
 45  19  43  1   
 46  20  44  1   
 47  20  45  1   
 48  20  46  1   
 49  22  47  1   
@<TRIPOS>SUBSTRUCTURE
  1 ****   2 GROUP 4 **** **** 0

# MOE 2024.06 (io_trps.svl 2023.06)
