@<TRIPOS>MOLECULE
NONAME
57 60 1 0 0 
SMALL
USER_CHARGES


@<TRIPOS>ATOM
  1 O       -0.7010     3.2380    -2.5730 O.co2 1 <1>  -0.9000 
  2 C       -1.1590     2.8870    -1.4790 C.2   1 <1>   0.9060 
  3 O       -2.3440     3.0340    -1.1870 O.co2 1 <1>  -0.9000 
  4 C       -0.1770     2.4220    -0.4230 C.3   1 <1>  -0.1060 
  5 C       -0.7140     2.6080     1.0140 C.3   1 <1>   0.2000 
  6 C        1.0340     3.3440    -0.5420 C.3   1 <1>   0.3430 
  7 C        0.1570     0.9500    -0.7890 C.3   1 <1>  -0.0170 
  8 O        0.2690     2.2250     1.9170 O.3   1 <1>  -0.6800 
  9 C       -1.0450     4.0660     1.3800 C.3   1 <1>  -0.1600 
 10 N        0.7340     4.8000    -0.2710 N.4   1 <1>  -0.9590 
 11 C        1.2310     0.2770     0.0560 C.ar  1 <1>  -0.1440 
 12 C       -0.6150     5.0880     0.3290 C.3   1 <1>   0.3430 
 13 C        0.8330     5.5390    -1.5560 C.3   1 <1>   0.5240 
 14 C        0.8690    -0.5640     1.0990 C.ar  1 <1>  -0.1500 
 15 C        2.5760     0.4880    -0.2100 C.ar  1 <1>  -0.1500 
 16 C        0.8750     7.0180    -1.2420 C.2   1 <1>  -0.1810 
 17 C        1.8390    -1.1630     1.8830 C.ar  1 <1>  -0.1500 
 18 C        3.5460    -0.1110     0.5740 C.ar  1 <1>  -0.1500 
 19 C       -0.1180     7.9310    -1.5720 C.2   1 <1>   0.1390 
 20 C        1.8080     7.7510    -0.5950 C.2   1 <1>  -0.3020 
 21 C        3.1780    -0.9330     1.6240 C.ar  1 <1>  -0.1500 
 22 N        0.1630     9.1230    -1.1560 N.2   1 <1>  -0.7070 
 23 N        1.3740     9.0360    -0.5530 N.pl3 1 <1>   0.5930 
 24 C        2.0210    10.1230     0.0950 C.ar  1 <1>  -0.0230 
 25 C        3.2520    10.6210    -0.3420 C.ar  1 <1>  -0.1440 
 26 C        1.4150    10.7000     1.2070 C.ar  1 <1>  -0.1500 
 27 C        3.8560    11.6580     0.3520 C.ar  1 <1>  -0.1500 
 28 C        3.9490    10.0630    -1.5770 C.3   1 <1>  -0.0970 
 29 C        2.0240    11.7360     1.8900 C.ar  1 <1>  -0.1500 
 30 C        3.2490    12.2130     1.4640 C.ar  1 <1>  -0.1500 
 31 H       -1.5760     1.9800     1.1760 H     1 <1>   0.0800 
 32 H        1.4490     3.2330    -1.5310 H     1 <1>   0.0800 
 33 H        1.7750     3.0060     0.1640 H     1 <1>   0.0800 
 34 H       -0.7500     0.3720    -0.7300 H     1 <1>   0.0800 
 35 H        0.4680     0.9070    -1.8200 H     1 <1>   0.0800 
 36 H        0.5930     1.3210     1.6990 H     1 <1>   0.4000 
 37 H       -2.1140     4.1460     1.4670 H     1 <1>   0.0800 
 38 H       -0.6340     4.3350     2.3370 H     1 <1>   0.0800 
 39 H        1.4460     5.1650     0.3660 H     1 <1>   0.4500 
 40 H       -0.6280     6.0770     0.7560 H     1 <1>   0.0800 
 41 H       -1.3540     5.0720    -0.4580 H     1 <1>   0.0800 
 42 H        1.7290     5.2550    -2.0820 H     1 <1>   0.0800 
 43 H       -0.0140     5.3140    -2.1860 H     1 <1>   0.0800 
 44 H       -0.1700    -0.7580     1.3070 H     1 <1>   0.1500 
 45 H        2.8780     1.1120    -1.0320 H     1 <1>   0.1500 
 46 H        1.5520    -1.8100     2.6940 H     1 <1>   0.1500 
 47 H        4.5890     0.0570     0.3670 H     1 <1>   0.1500 
 48 H       -1.0260     7.6900    -2.1050 H     1 <1>   0.1500 
 49 H        2.7460     7.4660    -0.1570 H     1 <1>   0.1500 
 50 H        3.9320    -1.3990     2.2350 H     1 <1>   0.1500 
 51 H        0.4570    10.3370     1.5370 H     1 <1>   0.1500 
 52 H        4.8060    12.0470     0.0290 H     1 <1>   0.1500 
 53 H        4.7410    10.7160    -1.8970 H     1 <1>   0.0800 
 54 H        3.2500     9.9700    -2.3900 H     1 <1>   0.0800 
 55 H        4.3710     9.0980    -1.3620 H     1 <1>   0.0800 
 56 H        1.5450    12.1730     2.7500 H     1 <1>   0.1500 
 57 H        3.7270    13.0190     1.9930 H     1 <1>   0.1500 
@<TRIPOS>BOND
  1   1   2  ar  
  2   2   3  ar  
  3   2   4  1   
  4   4   5  1   
  5   4   6  1   
  6   4   7  1   
  7   5   8  1   
  8   5   9  1   
  9   5  31  1   
 10   6  10  1   
 11   6  32  1   
 12   6  33  1   
 13   7  11  1   
 14   7  34  1   
 15   7  35  1   
 16   8  36  1   
 17   9  12  1   
 18   9  37  1   
 19   9  38  1   
 20  10  12  1   
 21  10  13  1   
 22  10  39  1   
 23  11  14  ar  
 24  11  15  ar  
 25  12  40  1   
 26  12  41  1   
 27  13  16  1   
 28  13  42  1   
 29  13  43  1   
 30  14  17  ar  
 31  14  44  1   
 32  15  18  ar  
 33  15  45  1   
 34  16  19  1   
 35  16  20  2   
 36  17  21  ar  
 37  17  46  1   
 38  18  21  ar  
 39  18  47  1   
 40  19  22  2   
 41  19  48  1   
 42  20  23  1   
 43  20  49  1   
 44  21  50  1   
 45  22  23  1   
 46  23  24  1   
 47  24  25  ar  
 48  24  26  ar  
 49  25  27  ar  
 50  25  28  1   
 51  26  29  ar  
 52  26  51  1   
 53  27  30  ar  
 54  27  52  1   
 55  28  53  1   
 56  28  54  1   
 57  28  55  1   
 58  29  30  ar  
 59  29  56  1   
 60  30  57  1   
@<TRIPOS>SUBSTRUCTURE
  1 ****  10 GROUP 4 **** **** 0

# MOE 2024.06 (io_trps.svl 2023.06)
