@<TRIPOS>MOLECULE
NONAME
48 50 1 0 0 
SMALL
USER_CHARGES


@<TRIPOS>ATOM
  1 O       -1.4650    -0.5700     0.5010 O.2   1 <1>  -0.5700 
  2 C       -2.1960     0.3170     0.0630 C.2   1 <1>   0.6160 
  3 N       -1.8540     1.6450     0.3260 N.am  1 <1>  -0.4690 
  4 C       -3.3920     0.0180    -0.6770 C.2   1 <1>   0.0290 
  5 C       -2.7040     2.6650    -0.0460 C.2   1 <1>  -0.0290 
  6 C       -0.5710     1.9420     1.0380 C.3   1 <1>   0.0600 
  7 C       -4.2250     1.0620    -1.0260 C.2   1 <1>  -0.1380 
  8 C       -3.6500    -1.3620    -1.0220 C.2   1 <1>   0.6160 
  9 C       -3.8600     2.3840    -0.7040 C.2   1 <1>  -0.1500 
 10 C       -2.3480     4.1080     0.2870 C.3   1 <1>  -0.1020 
 11 C       -5.5520     0.8820    -1.7580 C.3   1 <1>  -0.1020 
 12 O       -4.1360    -1.6620    -2.0990 O.2   1 <1>  -0.5700 
 13 N       -3.3840    -2.3840    -0.1570 N.am  1 <1>  -0.7300 
 14 C       -3.5120    -3.8250    -0.4650 C.3   1 <1>   0.2200 
 15 C       -4.7340    -4.4040     0.2330 C.3   1 <1>  -0.0800 
 16 C       -2.3430    -4.6460     0.0870 C.3   1 <1>   0.1200 
 17 C       -4.2280    -5.7480     0.7400 C.3   1 <1>   0.1200 
 18 C       -5.9590    -4.4950    -0.6880 C.3   1 <1>  -0.0170 
 19 O       -2.8800    -5.5450     1.0100 O.3   1 <1>  -0.5600 
 20 C       -7.1300    -5.1610     0.0190 C.ar  1 <1>  -0.1440 
 21 C       -7.5070    -6.4620    -0.2480 C.ar  1 <1>  -0.1500 
 22 C       -7.8750    -4.4940     0.9700 C.ar  1 <1>  -0.1500 
 23 C       -8.5780    -7.0180     0.4320 C.ar  1 <1>   0.1600 
 24 C       -8.9290    -5.1430     1.5940 C.ar  1 <1>   0.1600 
 25 N       -9.2970    -6.3900     1.3480 N.ar  1 <1>  -0.6200 
 26 H       -0.0710     2.7730     0.5760 H     1 <1>   0.0800 
 27 H        0.1010     1.1020     1.0040 H     1 <1>   0.0800 
 28 H       -0.7790     2.1750     2.0670 H     1 <1>   0.0800 
 29 H       -4.5250     3.1790    -0.9950 H     1 <1>   0.1500 
 30 H       -2.1970     4.2200     1.3460 H     1 <1>   0.0800 
 31 H       -3.1390     4.7740    -0.0070 H     1 <1>   0.0800 
 32 H       -1.4560     4.4020    -0.2340 H     1 <1>   0.0800 
 33 H       -6.2250     1.6930    -1.5430 H     1 <1>   0.0800 
 34 H       -6.0370    -0.0300    -1.4600 H     1 <1>   0.0800 
 35 H       -5.3800     0.8490    -2.8190 H     1 <1>   0.0800 
 36 H       -2.7600    -2.1590     0.6290 H     1 <1>   0.3700 
 37 H       -3.5630    -3.9740    -1.5310 H     1 <1>   0.0800 
 38 H       -4.9760    -3.8080     1.0960 H     1 <1>   0.0800 
 39 H       -1.6090    -4.0370     0.5870 H     1 <1>   0.0800 
 40 H       -1.8770    -5.2170    -0.6960 H     1 <1>   0.0800 
 41 H       -4.3040    -6.5110    -0.0160 H     1 <1>   0.0800 
 42 H       -4.7290    -6.0640     1.6390 H     1 <1>   0.0800 
 43 H       -5.7100    -5.0480    -1.5770 H     1 <1>   0.0800 
 44 H       -6.2450    -3.5040    -0.9960 H     1 <1>   0.0800 
 45 H       -6.9800    -7.0490    -0.9770 H     1 <1>   0.1500 
 46 H       -7.6450    -3.4780     1.2320 H     1 <1>   0.1500 
 47 H       -8.8580    -8.0330     0.2110 H     1 <1>   0.1500 
 48 H       -9.4980    -4.6070     2.3330 H     1 <1>   0.1500 
@<TRIPOS>BOND
  1   1   2  2   
  2   2   3  am  
  3   2   4  1   
  4   3   5  1   
  5   3   6  1   
  6   4   7  2   
  7   4   8  1   
  8   5   9  2   
  9   5  10  1   
 10   6  26  1   
 11   6  27  1   
 12   6  28  1   
 13   7   9  1   
 14   7  11  1   
 15   8  12  2   
 16   8  13  am  
 17   9  29  1   
 18  10  30  1   
 19  10  31  1   
 20  10  32  1   
 21  11  33  1   
 22  11  34  1   
 23  11  35  1   
 24  13  14  1   
 25  13  36  1   
 26  14  15  1   
 27  14  16  1   
 28  14  37  1   
 29  15  17  1   
 30  15  18  1   
 31  15  38  1   
 32  16  19  1   
 33  16  39  1   
 34  16  40  1   
 35  17  19  1   
 36  17  41  1   
 37  17  42  1   
 38  18  20  1   
 39  18  43  1   
 40  18  44  1   
 41  20  21  ar  
 42  20  22  ar  
 43  21  23  ar  
 44  21  45  1   
 45  22  24  ar  
 46  22  46  1   
 47  23  25  ar  
 48  23  47  1   
 49  24  25  ar  
 50  24  48  1   
@<TRIPOS>SUBSTRUCTURE
  1 ****  13 GROUP 4 **** **** 0

# MOE 2024.06 (io_trps.svl 2023.06)
