@<TRIPOS>MOLECULE
NONAME
50 53 1 0 0 
SMALL
USER_CHARGES


@<TRIPOS>ATOM
  1 O        0.0820    -0.6350    -0.2460 O.2   1 <1>  -0.5700 
  2 C        0.9390    -1.4520     0.0060 C.2   1 <1>   0.6900 
  3 N        0.7130    -2.6720     0.5720 N.am  1 <1>  -0.4200 
  4 N        2.2480    -1.2730    -0.2680 N.am  1 <1>  -0.7300 
  5 C        1.8720    -3.3820     0.6120 C.2   1 <1>   0.5690 
  6 C       -0.6300    -3.2980     0.6330 C.3   1 <1>   0.2010 
  7 C        2.9850    -2.5300     0.0190 C.3   1 <1>   0.2010 
  8 O        2.0120    -4.4980     1.0510 O.2   1 <1>  -0.5700 
  9 C       -1.0360    -4.0050    -0.6660 C.2   1 <1>   0.5690 
 10 O       -0.2630    -3.9980    -1.6000 O.2   1 <1>  -0.5700 
 11 N       -2.2540    -4.6390    -0.7520 N.am  1 <1>  -0.6600 
 12 C       -3.2860    -4.6860     0.3220 C.3   1 <1>   0.1400 
 13 C       -2.6360    -5.4280    -1.9570 C.3   1 <1>   0.1400 
 14 C       -3.4770    -6.1370     0.7680 C.3   1 <1>  -0.1600 
 15 C       -2.8310    -6.8940    -1.5580 C.3   1 <1>  -0.1600 
 16 C       -3.8480    -7.0570    -0.4130 C.3   1 <1>   0.4240 
 17 O       -5.0480    -6.5480    -0.9560 O.3   1 <1>  -0.5600 
 18 C       -3.9960    -8.5470     0.0120 C.ar  1 <1>  -0.1430 
 19 C       -6.2470    -6.9480    -0.3790 C.3   1 <1>   0.1200 
 20 C       -2.9230    -9.2850     0.5320 C.ar  1 <1>   0.0830 
 21 C       -5.2280    -9.1880    -0.1200 C.ar  1 <1>  -0.1430 
 22 C       -6.4290    -8.4330    -0.6490 C.3   1 <1>  -0.0170 
 23 O       -1.7200    -8.6730     0.6900 O.3   1 <1>  -0.3630 
 24 C       -3.0950   -10.6220     0.8850 C.ar  1 <1>  -0.1500 
 25 C       -5.3860   -10.5180     0.2320 C.ar  1 <1>  -0.1500 
 26 C       -0.5460    -9.3680     1.0500 C.3   1 <1>   0.0400 
 27 C       -4.3210   -11.2360     0.7330 C.ar  1 <1>  -0.1500 
 28 H        2.5380    -0.5980    -0.9770 H     1 <1>   0.3700 
 29 H       -1.3550    -2.5350     0.8510 H     1 <1>   0.0800 
 30 H       -0.6360    -4.0180     1.4290 H     1 <1>   0.0800 
 31 H        3.7700    -2.3670     0.7350 H     1 <1>   0.0800 
 32 H        3.3610    -2.9760    -0.8840 H     1 <1>   0.0800 
 33 H       -4.2130    -4.2980    -0.0690 H     1 <1>   0.0800 
 34 H       -3.0080    -4.0820     1.1660 H     1 <1>   0.0800 
 35 H       -1.8770    -5.3610    -2.7180 H     1 <1>   0.0800 
 36 H       -3.5500    -5.0300    -2.3650 H     1 <1>   0.0800 
 37 H       -4.2320    -6.1950     1.5280 H     1 <1>   0.0800 
 38 H       -2.5600    -6.4610     1.2190 H     1 <1>   0.0800 
 39 H       -1.8720    -7.2810    -1.2780 H     1 <1>   0.0800 
 40 H       -3.1660    -7.4610    -2.4060 H     1 <1>   0.0800 
 41 H       -7.0390    -6.3810    -0.8360 H     1 <1>   0.0800 
 42 H       -6.2240    -6.7430     0.6760 H     1 <1>   0.0800 
 43 H       -6.5270    -8.5980    -1.7070 H     1 <1>   0.0800 
 44 H       -7.3270    -8.7720    -0.1670 H     1 <1>   0.0800 
 45 H       -2.2880   -11.2040     1.2840 H     1 <1>   0.1500 
 46 H       -6.3410   -11.0010     0.1180 H     1 <1>   0.1500 
 47 H        0.2720    -8.6710     1.0340 H     1 <1>   0.0800 
 48 H       -0.3720   -10.1530     0.3350 H     1 <1>   0.0800 
 49 H       -0.6660    -9.7670     2.0410 H     1 <1>   0.0800 
 50 H       -4.4470   -12.2700     1.0060 H     1 <1>   0.1500 
@<TRIPOS>BOND
  1   1   2  2   
  2   2   3  am  
  3   2   4  am  
  4   3   5  am  
  5   3   6  1   
  6   4   7  1   
  7   4  28  1   
  8   5   7  1   
  9   5   8  2   
 10   6   9  1   
 11   6  29  1   
 12   6  30  1   
 13   7  31  1   
 14   7  32  1   
 15   9  10  2   
 16   9  11  am  
 17  11  12  1   
 18  11  13  1   
 19  12  14  1   
 20  12  33  1   
 21  12  34  1   
 22  13  15  1   
 23  13  35  1   
 24  13  36  1   
 25  14  16  1   
 26  14  37  1   
 27  14  38  1   
 28  15  16  1   
 29  15  39  1   
 30  15  40  1   
 31  16  17  1   
 32  16  18  1   
 33  17  19  1   
 34  18  20  ar  
 35  18  21  ar  
 36  19  22  1   
 37  19  41  1   
 38  19  42  1   
 39  20  23  1   
 40  20  24  ar  
 41  21  22  1   
 42  21  25  ar  
 43  22  43  1   
 44  22  44  1   
 45  23  26  1   
 46  24  27  ar  
 47  24  45  1   
 48  25  27  ar  
 49  25  46  1   
 50  26  47  1   
 51  26  48  1   
 52  26  49  1   
 53  27  50  1   
@<TRIPOS>SUBSTRUCTURE
  1 ****  11 GROUP 4 **** **** 0

# MOE 2024.06 (io_trps.svl 2023.06)
