@<TRIPOS>MOLECULE
NONAME
43 45 1 0 0 
SMALL
USER_CHARGES


@<TRIPOS>ATOM
  1 CL       2.1420    -0.7540    -1.8280 Cl    1 <1>  -0.1770 
  2 C        2.6550     0.6420    -0.9010 C.ar  1 <1>   0.1770 
  3 C        3.8170     0.6270    -0.1350 C.ar  1 <1>   0.1660 
  4 C        1.8710     1.7760    -0.9540 C.ar  1 <1>  -0.1500 
  5 N        4.2450     1.6710     0.5640 N.ar  1 <1>  -0.6200 
  6 C        4.6970    -0.6070    -0.0500 C.3   1 <1>  -0.0960 
  7 C        2.3120     2.8550    -0.2230 C.ar  1 <1>  -0.1500 
  8 C        3.4940     2.7570     0.5070 C.ar  1 <1>   0.4100 
  9 N        3.9770     3.8020     1.2360 N.pl3 1 <1>  -0.8690 
 10 C        4.2660     5.0930     0.5750 C.3   1 <1>   0.2090 
 11 C        5.7640     5.4210     0.6540 C.3   1 <1>  -0.0800 
 12 C        6.0130     6.8000     0.0250 C.3   1 <1>   0.1400 
 13 C        6.6370     4.3480    -0.0320 C.3   1 <1>  -0.1600 
 14 N        7.4650     7.1310     0.0660 N.am  1 <1>  -0.6600 
 15 C        8.1180     4.7550    -0.0230 C.3   1 <1>  -0.1600 
 16 C        7.9210     8.2480     0.7230 C.2   1 <1>   0.6300 
 17 C        8.3310     6.1430    -0.6340 C.3   1 <1>   0.1400 
 18 O        7.1730     8.9960     1.3070 O.2   1 <1>  -0.5700 
 19 C        9.4120     8.5780     0.7430 C.3   1 <1>  -0.1000 
 20 C        9.8960     9.9980     0.6580 C.3   1 <1>  -0.2000 
 21 C       10.1180     9.0680    -0.4910 C.3   1 <1>  -0.2000 
 22 H        0.9680     1.8010    -1.5360 H     1 <1>   0.1500 
 23 H        4.1350    -1.5060    -0.2200 H     1 <1>   0.0800 
 24 H        5.1390    -0.6710     0.9280 H     1 <1>   0.0800 
 25 H        5.4830    -0.5380    -0.7790 H     1 <1>   0.0800 
 26 H        1.7560     3.7720    -0.1990 H     1 <1>   0.1500 
 27 H        4.7740     3.4760     1.7890 H     1 <1>   0.4000 
 28 H        3.6990     5.8650     1.0680 H     1 <1>   0.0800 
 29 H        3.9570     5.0550    -0.4570 H     1 <1>   0.0800 
 30 H        6.0340     5.4890     1.6940 H     1 <1>   0.0800 
 31 H        5.4420     7.5450     0.5530 H     1 <1>   0.0800 
 32 H        5.6890     6.8020    -1.0010 H     1 <1>   0.0800 
 33 H        6.3110     4.2140    -1.0490 H     1 <1>   0.0800 
 34 H        6.5330     3.4020     0.4710 H     1 <1>   0.0800 
 35 H        8.6930     4.0320    -0.5740 H     1 <1>   0.0800 
 36 H        8.4850     4.7610     0.9890 H     1 <1>   0.0800 
 37 H        9.3700     6.4080    -0.5590 H     1 <1>   0.0800 
 38 H        8.0670     6.1260    -1.6770 H     1 <1>   0.0800 
 39 H        9.9460     7.9300     1.4130 H     1 <1>   0.1000 
 40 H       10.7330    10.2920     1.2670 H     1 <1>   0.1000 
 41 H        9.1610    10.7800     0.5650 H     1 <1>   0.1000 
 42 H        9.5460     9.2230    -1.3890 H     1 <1>   0.1000 
 43 H       11.1180     8.7220    -0.6890 H     1 <1>   0.1000 
@<TRIPOS>BOND
  1   1   2  1   
  2   2   3  ar  
  3   2   4  ar  
  4   3   5  ar  
  5   3   6  1   
  6   4   7  ar  
  7   4  22  1   
  8   5   8  ar  
  9   6  23  1   
 10   6  24  1   
 11   6  25  1   
 12   7   8  ar  
 13   7  26  1   
 14   8   9  1   
 15   9  10  1   
 16   9  27  1   
 17  10  11  1   
 18  10  28  1   
 19  10  29  1   
 20  11  12  1   
 21  11  13  1   
 22  11  30  1   
 23  12  14  1   
 24  12  31  1   
 25  12  32  1   
 26  13  15  1   
 27  13  33  1   
 28  13  34  1   
 29  14  16  am  
 30  14  17  1   
 31  15  17  1   
 32  15  35  1   
 33  15  36  1   
 34  16  18  2   
 35  16  19  1   
 36  17  37  1   
 37  17  38  1   
 38  19  20  1   
 39  19  21  1   
 40  19  39  1   
 41  20  21  1   
 42  20  40  1   
 43  20  41  1   
 44  21  42  1   
 45  21  43  1   
@<TRIPOS>SUBSTRUCTURE
  1 ****  13 GROUP 4 **** **** 0

# MOE 2024.06 (io_trps.svl 2023.06)
