@<TRIPOS>MOLECULE
NONAME
50 53 1 0 0 
SMALL
USER_CHARGES


@<TRIPOS>ATOM
  1 O       -0.9000    -0.9290    -0.8350 O.3   1 <1>  -0.6800 
  2 C        0.2570    -1.6680    -1.0230 C.3   1 <1>   0.1200 
  3 C        1.0420    -1.8050     0.3160 C.3   1 <1>   0.0000 
  4 C        2.4010    -2.5250     0.0880 C.3   1 <1>   0.4230 
  5 C        1.3470    -0.4010     0.9030 C.3   1 <1>  -0.1600 
  6 C        0.2110    -2.6020     1.3650 C.3   1 <1>  -0.1600 
  7 N        2.2580    -3.9720    -0.3870 N.4   1 <1>  -0.9590 
  8 C        3.3870    -1.6680    -0.7520 C.3   1 <1>   0.2090 
  9 C        2.2780     0.4430     0.0290 C.3   1 <1>   0.2090 
 10 C        0.5920    -4.0910     1.4660 C.3   1 <1>  -0.1600 
 11 C        1.0200    -4.6590     0.1160 C.3   1 <1>   0.3430 
 12 C        2.3750    -4.1880    -1.8680 C.3   1 <1>   0.2630 
 13 N        3.5680    -0.2920    -0.1840 N.pl3 1 <1>  -0.8380 
 14 C        4.7750     0.2430     0.1520 C.ar  1 <1>   0.1000 
 15 C        5.1270     1.6180    -0.0820 C.ar  1 <1>   0.0000 
 16 C        5.7270    -0.5480     0.8020 C.ar  1 <1>  -0.1500 
 17 C        6.3030     2.1380     0.5010 C.ar  1 <1>   0.3610 
 18 C        4.3980     2.4920    -0.9140 C.ar  1 <1>  -0.1500 
 19 C        6.8860    -0.0210     1.3060 C.ar  1 <1>   0.2110 
 20 N        7.1470     1.2910     1.1810 N.ar  1 <1>  -0.1790 
 21 C        6.6340     3.4940     0.3530 C.ar  1 <1>  -0.1500 
 22 C        4.7440     3.8100    -1.0680 C.ar  1 <1>  -0.1500 
 23 C        5.8620     4.3240    -0.4160 C.ar  1 <1>  -0.1500 
 24 H       -1.4090    -0.8200    -1.6650 H     1 <1>   0.4000 
 25 H       -0.0400    -2.6280    -1.4020 H     1 <1>   0.0800 
 26 H        0.8370    -1.1640    -1.7750 H     1 <1>   0.0800 
 27 H        2.8480    -2.5760     1.0670 H     1 <1>   0.0800 
 28 H        1.8110    -0.4960     1.8700 H     1 <1>   0.0800 
 29 H        0.4310     0.1440     1.0550 H     1 <1>   0.0800 
 30 H        0.3260    -2.1740     2.3470 H     1 <1>   0.0800 
 31 H       -0.8380    -2.5240     1.1360 H     1 <1>   0.0800 
 32 H        3.0410    -4.4780     0.0500 H     1 <1>   0.4500 
 33 H        3.0150    -1.5580    -1.7550 H     1 <1>   0.0800 
 34 H        4.3380    -2.1650    -0.8110 H     1 <1>   0.0800 
 35 H        2.4600     1.3780     0.5320 H     1 <1>   0.0800 
 36 H        1.8130     0.6590    -0.9180 H     1 <1>   0.0800 
 37 H       -0.2570    -4.6440     1.8310 H     1 <1>   0.0800 
 38 H        1.3870    -4.2270     2.1790 H     1 <1>   0.0800 
 39 H        0.2110    -4.5170    -0.5820 H     1 <1>   0.0800 
 40 H        1.1980    -5.7190     0.2060 H     1 <1>   0.0800 
 41 H        1.5920    -3.6640    -2.3900 H     1 <1>   0.0800 
 42 H        2.2950    -5.2380    -2.0990 H     1 <1>   0.0800 
 43 H        3.3280    -3.8360    -2.2300 H     1 <1>   0.0800 
 44 H        5.5320    -1.5930     0.9490 H     1 <1>   0.1500 
 45 H        3.5500     2.1200    -1.4590 H     1 <1>   0.1500 
 46 H        7.6000    -0.6460     1.8210 H     1 <1>   0.1500 
 47 H        8.0050     1.6930     1.5690 H     1 <1>   0.4570 
 48 H        7.5070     3.8950     0.8370 H     1 <1>   0.1500 
 49 H        4.1580     4.4610    -1.6980 H     1 <1>   0.1500 
 50 H        6.1100     5.3670    -0.5380 H     1 <1>   0.1500 
@<TRIPOS>BOND
  1   1   2  1   
  2   1  24  1   
  3   2   3  1   
  4   2  25  1   
  5   2  26  1   
  6   3   4  1   
  7   3   5  1   
  8   3   6  1   
  9   4   7  1   
 10   4   8  1   
 11   4  27  1   
 12   5   9  1   
 13   5  28  1   
 14   5  29  1   
 15   6  10  1   
 16   6  30  1   
 17   6  31  1   
 18   7  11  1   
 19   7  12  1   
 20   7  32  1   
 21   8  13  1   
 22   8  33  1   
 23   8  34  1   
 24   9  13  1   
 25   9  35  1   
 26   9  36  1   
 27  10  11  1   
 28  10  37  1   
 29  10  38  1   
 30  11  39  1   
 31  11  40  1   
 32  12  41  1   
 33  12  42  1   
 34  12  43  1   
 35  13  14  1   
 36  14  15  ar  
 37  14  16  ar  
 38  15  17  ar  
 39  15  18  ar  
 40  16  19  ar  
 41  16  44  1   
 42  17  20  ar  
 43  17  21  ar  
 44  18  22  ar  
 45  18  45  1   
 46  19  20  ar  
 47  19  46  1   
 48  20  47  1   
 49  21  23  ar  
 50  21  48  1   
 51  22  23  ar  
 52  22  49  1   
 53  23  50  1   
@<TRIPOS>SUBSTRUCTURE
  1 ****  13 GROUP 4 **** **** 0

# MOE 2024.06 (io_trps.svl 2023.06)
