@<TRIPOS>MOLECULE
NONAME
43 44 1 0 0 
SMALL
USER_CHARGES


@<TRIPOS>ATOM
  1 O       -0.1440     0.5510     0.4170 O.3   1 <1>  -0.5600 
  2 C        0.0530     1.3900    -0.6700 C.3   1 <1>   0.1200 
  3 C       -1.5020     0.5430     0.7470 C.3   1 <1>   0.1200 
  4 C       -0.8460     2.5780    -0.3440 C.3   1 <1>   0.4230 
  5 C       -2.0810     1.8590     0.1920 C.3   1 <1>  -0.0800 
  6 N       -0.2290     3.3420     0.7730 N.4   1 <1>  -0.9060 
  7 C       -3.1210     1.6110    -0.9190 C.3   1 <1>  -0.0170 
  8 C        0.8910     4.2140     0.3790 C.3   1 <1>   0.4230 
  9 C       -4.3450     0.8940    -0.3710 C.ar  1 <1>  -0.1440 
 10 C        1.9770     4.0780     1.4560 C.3   1 <1>  -0.1600 
 11 C        0.3840     5.6590     0.2300 C.3   1 <1>  -0.1600 
 12 C       -5.3040     1.5530     0.3720 C.ar  1 <1>  -0.1500 
 13 C       -4.5640    -0.4520    -0.5900 C.ar  1 <1>  -0.1500 
 14 C        3.2870     4.7950     1.0940 C.3   1 <1>  -0.2400 
 15 C       -0.7620     5.8460    -0.7780 C.3   1 <1>  -0.2400 
 16 C       -6.3970     0.8530     0.8570 C.ar  1 <1>   0.1600 
 17 C       -5.6910    -1.0580    -0.0590 C.ar  1 <1>   0.1600 
 18 N       -6.6080    -0.4370     0.6620 N.ar  1 <1>  -0.6200 
 19 H        1.0960     1.6390    -0.7530 H     1 <1>   0.0800 
 20 H       -0.2710     0.8760    -1.5600 H     1 <1>   0.0800 
 21 H       -1.9500    -0.3290     0.3020 H     1 <1>   0.0800 
 22 H       -1.5930     0.4790     1.8190 H     1 <1>   0.0800 
 23 H       -1.0540     3.2060    -1.1950 H     1 <1>   0.0800 
 24 H       -2.5580     2.4190     0.9770 H     1 <1>   0.0800 
 25 H       -0.9250     3.9000     1.2730 H     1 <1>   0.4500 
 26 H        0.1250     2.6230     1.4220 H     1 <1>   0.4500 
 27 H       -2.6950     1.0270    -1.7170 H     1 <1>   0.0800 
 28 H       -3.4380     2.5500    -1.3400 H     1 <1>   0.0800 
 29 H        1.3000     3.8810    -0.5620 H     1 <1>   0.0800 
 30 H        1.6200     4.4660     2.3950 H     1 <1>   0.0800 
 31 H        2.2110     3.0350     1.5900 H     1 <1>   0.0800 
 32 H        0.0850     6.0440     1.1900 H     1 <1>   0.0800 
 33 H        1.2040     6.2710    -0.1040 H     1 <1>   0.0800 
 34 H       -5.2220     2.6040     0.5810 H     1 <1>   0.1500 
 35 H       -3.8760    -1.0430    -1.1670 H     1 <1>   0.1500 
 36 H        3.1560     5.8630     1.0630 H     1 <1>   0.0800 
 37 H        3.6590     4.4610     0.1410 H     1 <1>   0.0800 
 38 H        4.0360     4.5810     1.8380 H     1 <1>   0.0800 
 39 H       -1.6690     5.3720    -0.4450 H     1 <1>   0.0800 
 40 H       -0.4890     5.4580    -1.7440 H     1 <1>   0.0800 
 41 H       -0.9690     6.8970    -0.8930 H     1 <1>   0.0800 
 42 H       -7.1360     1.3810     1.4350 H     1 <1>   0.1500 
 43 H       -5.8460    -2.1090    -0.2380 H     1 <1>   0.1500 
@<TRIPOS>BOND
  1   1   2  1   
  2   1   3  1   
  3   2   4  1   
  4   2  19  1   
  5   2  20  1   
  6   3   5  1   
  7   3  21  1   
  8   3  22  1   
  9   4   5  1   
 10   4   6  1   
 11   4  23  1   
 12   5   7  1   
 13   5  24  1   
 14   6   8  1   
 15   6  25  1   
 16   6  26  1   
 17   7   9  1   
 18   7  27  1   
 19   7  28  1   
 20   8  10  1   
 21   8  11  1   
 22   8  29  1   
 23   9  12  ar  
 24   9  13  ar  
 25  10  14  1   
 26  10  30  1   
 27  10  31  1   
 28  11  15  1   
 29  11  32  1   
 30  11  33  1   
 31  12  16  ar  
 32  12  34  1   
 33  13  17  ar  
 34  13  35  1   
 35  14  36  1   
 36  14  37  1   
 37  14  38  1   
 38  15  39  1   
 39  15  40  1   
 40  15  41  1   
 41  16  18  ar  
 42  16  42  1   
 43  17  18  ar  
 44  17  43  1   
@<TRIPOS>SUBSTRUCTURE
  1 ****   5 GROUP 4 **** **** 0

# MOE 2024.06 (io_trps.svl 2023.06)
