@<TRIPOS>MOLECULE
NONAME
57 59 1 0 0 
SMALL
USER_CHARGES


@<TRIPOS>ATOM
  1 O       -0.4430     1.1470    -1.0070 O.2   1 <1>  -0.5700 
  2 C       -0.6700     2.3340    -0.9990 C.2   1 <1>   0.5690 
  3 N       -1.4340     2.9590    -0.0460 N.am  1 <1>  -0.6600 
  4 C       -0.0740     3.1740    -2.1230 C.3   1 <1>   0.1810 
  5 C       -1.6630     4.4430    -0.1070 C.3   1 <1>   0.3640 
  6 C       -2.0110     2.2900     1.1540 C.3   1 <1>   0.2200 
  7 O        0.2740     4.4560    -1.6760 O.3   1 <1>  -0.5600 
  8 C       -3.1500     4.7180    -0.3460 C.ar  1 <1>  -0.1440 
  9 C       -0.8190     5.2080    -1.1660 C.3   1 <1>   0.2610 
 10 C       -0.8910     1.7900     2.0640 C.3   1 <1>  -0.2400 
 11 C       -2.9740     1.1690     0.7610 C.3   1 <1>  -0.2400 
 12 C       -3.8710     4.0160    -1.3050 C.ar  1 <1>  -0.1500 
 13 C       -3.7980     5.6940     0.3970 C.ar  1 <1>  -0.1500 
 14 C       -0.3160     6.5190    -0.5530 C.2   1 <1>   0.5690 
 15 C       -5.2120     4.2830    -1.5130 C.ar  1 <1>  -0.1500 
 16 C       -5.1400     5.9620     0.1900 C.ar  1 <1>  -0.1500 
 17 O       -1.1100     7.3370    -0.1500 O.2   1 <1>  -0.5700 
 18 N        1.0220     6.7390    -0.4650 N.am  1 <1>  -0.7300 
 19 C       -5.8490     5.2560    -0.7650 C.ar  1 <1>  -0.1500 
 20 C        1.6620     7.9430     0.1150 C.3   1 <1>   0.1400 
 21 C        1.7380     9.0560    -0.9320 C.3   1 <1>   0.1400 
 22 N        2.2890    10.2990    -0.3250 N.am  1 <1>  -0.6600 
 23 C        3.6420    10.4510    -0.1660 C.2   1 <1>   0.5690 
 24 C        1.2760    11.2560     0.1990 C.3   1 <1>   0.1400 
 25 O        4.4230     9.5840    -0.4830 O.2   1 <1>  -0.5700 
 26 C        4.2110    11.7330     0.4190 C.3   1 <1>  -0.0990 
 27 C        1.8790    12.6390     0.4690 C.3   1 <1>  -0.1600 
 28 C        3.1930    12.5300     1.2460 C.3   1 <1>  -0.1600 
 29 H       -0.7780     3.2630    -2.9310 H     1 <1>   0.0800 
 30 H        0.8200     2.6990    -2.4870 H     1 <1>   0.0800 
 31 H       -1.4030     4.8390     0.8600 H     1 <1>   0.0800 
 32 H       -2.5820     3.0160     1.7100 H     1 <1>   0.0800 
 33 H       -1.4450     5.4610    -2.0030 H     1 <1>   0.0800 
 34 H       -0.3300     1.0080     1.5850 H     1 <1>   0.0800 
 35 H       -1.3090     1.3950     2.9720 H     1 <1>   0.0800 
 36 H       -0.2290     2.5980     2.3170 H     1 <1>   0.0800 
 37 H       -2.4580     0.3630     0.2750 H     1 <1>   0.0800 
 38 H       -3.7390     1.5480     0.1080 H     1 <1>   0.0800 
 39 H       -3.4490     0.7770     1.6410 H     1 <1>   0.0800 
 40 H       -3.3940     3.2510    -1.8930 H     1 <1>   0.1500 
 41 H       -3.2610     6.2620     1.1380 H     1 <1>   0.1500 
 42 H       -5.7620     3.7320    -2.2560 H     1 <1>   0.1500 
 43 H       -5.6310     6.7230     0.7710 H     1 <1>   0.1500 
 44 H        1.6440     6.0280    -0.8690 H     1 <1>   0.3700 
 45 H       -6.8920     5.4650    -0.9250 H     1 <1>   0.1500 
 46 H        1.0790     8.2810     0.9540 H     1 <1>   0.0800 
 47 H        2.6530     7.6940     0.4550 H     1 <1>   0.0800 
 48 H        0.7560     9.2500    -1.3280 H     1 <1>   0.0800 
 49 H        2.3770     8.7430    -1.7400 H     1 <1>   0.0800 
 50 H        0.4710    11.3550    -0.5100 H     1 <1>   0.0800 
 51 H        0.8700    10.8570     1.1130 H     1 <1>   0.0800 
 52 H        5.0610    11.4880     1.0300 H     1 <1>   0.0800 
 53 H        4.5570    12.3350    -0.4010 H     1 <1>   0.0800 
 54 H        2.0490    13.1380    -0.4700 H     1 <1>   0.0800 
 55 H        1.1730    13.2280     1.0270 H     1 <1>   0.0800 
 56 H        3.0170    12.0250     2.1810 H     1 <1>   0.0800 
 57 H        3.5830    13.5100     1.4590 H     1 <1>   0.0800 
@<TRIPOS>BOND
  1   1   2  2   
  2   2   3  am  
  3   2   4  1   
  4   3   5  1   
  5   3   6  1   
  6   4   7  1   
  7   4  29  1   
  8   4  30  1   
  9   5   8  1   
 10   5   9  1   
 11   5  31  1   
 12   6  10  1   
 13   6  11  1   
 14   6  32  1   
 15   7   9  1   
 16   8  12  ar  
 17   8  13  ar  
 18   9  14  1   
 19   9  33  1   
 20  10  34  1   
 21  10  35  1   
 22  10  36  1   
 23  11  37  1   
 24  11  38  1   
 25  11  39  1   
 26  12  15  ar  
 27  12  40  1   
 28  13  16  ar  
 29  13  41  1   
 30  14  17  2   
 31  14  18  am  
 32  15  19  ar  
 33  15  42  1   
 34  16  19  ar  
 35  16  43  1   
 36  18  20  1   
 37  18  44  1   
 38  19  45  1   
 39  20  21  1   
 40  20  46  1   
 41  20  47  1   
 42  21  22  1   
 43  21  48  1   
 44  21  49  1   
 45  22  23  am  
 46  22  24  1   
 47  23  25  2   
 48  23  26  1   
 49  24  27  1   
 50  24  50  1   
 51  24  51  1   
 52  26  28  1   
 53  26  52  1   
 54  26  53  1   
 55  27  28  1   
 56  27  54  1   
 57  27  55  1   
 58  28  56  1   
 59  28  57  1   
@<TRIPOS>SUBSTRUCTURE
  1 ****  14 GROUP 4 **** **** 0

# MOE 2024.06 (io_trps.svl 2023.06)
