@<TRIPOS>MOLECULE
NONAME
46 48 1 0 0 
SMALL
USER_CHARGES


@<TRIPOS>ATOM
  1 F        3.6120     2.5740    -0.7650 F     1 <1>  -0.3400 
  2 C        3.5060     1.2580    -0.9010 C.3   1 <1>   0.8800 
  3 F        2.2090     0.9920    -0.8600 F     1 <1>  -0.3400 
  4 O        4.1010     0.6660     0.2360 O.3   1 <1>  -0.3630 
  5 C        4.9720    -0.3490     0.0630 C.ar  1 <1>   0.0830 
  6 C        6.1510    -0.2050    -0.6840 C.ar  1 <1>   0.0860 
  7 C        4.6790    -1.5450     0.6990 C.ar  1 <1>  -0.1500 
  8 C        6.4980     1.0450    -1.3170 C.2   1 <1>   0.5440 
  9 C        6.9990    -1.3070    -0.7790 C.ar  1 <1>  -0.1500 
 10 C        5.5400    -2.6210     0.5940 C.ar  1 <1>  -0.1500 
 11 O        6.1940     1.2120    -2.4830 O.2   1 <1>  -0.5700 
 12 N        7.0900     2.0880    -0.6330 N.am  1 <1>  -0.6600 
 13 C        6.7020    -2.4990    -0.1480 C.ar  1 <1>  -0.1500 
 14 C        7.3720     2.0080     0.8520 C.3   1 <1>   0.2200 
 15 C        7.4180     3.3420    -1.3840 C.3   1 <1>   0.1400 
 16 C        6.7660     3.1890     1.6250 C.3   1 <1>   0.1200 
 17 C        8.8810     1.8620     1.1450 C.3   1 <1>   0.3430 
 18 C        8.3510     4.3330    -0.6630 C.3   1 <1>  -0.0800 
 19 O        7.6380     4.2800     1.6460 O.3   1 <1>  -0.5600 
 20 N        9.7360     2.3100    -0.0020 N.4   1 <1>  -0.9590 
 21 C        7.6510     5.0570     0.4970 C.3   1 <1>   0.1200 
 22 C        9.7330     3.7710    -0.2720 C.3   1 <1>   0.3430 
 23 C       11.1150     1.6820     0.0920 C.3   1 <1>   0.2370 
 24 C       11.0730     0.1550    -0.0360 C.2   1 <1>   0.9060 
 25 O       11.9320    -0.5220     0.5240 O.co2 1 <1>  -0.9000 
 26 O       10.1040    -0.3250    -0.6390 O.co2 1 <1>  -0.9000 
 27 H        3.9230     0.9370    -1.8390 H     1 <1>   0.0800 
 28 H        3.7760    -1.6310     1.2770 H     1 <1>   0.1500 
 29 H        7.9110    -1.2240    -1.3490 H     1 <1>   0.1500 
 30 H        5.3120    -3.5510     1.0870 H     1 <1>   0.1500 
 31 H        7.3830    -3.3300    -0.2340 H     1 <1>   0.1500 
 32 H        6.8970     1.1340     1.2560 H     1 <1>   0.0800 
 33 H        7.8760     3.0640    -2.3190 H     1 <1>   0.0800 
 34 H        6.4930     3.8380    -1.6260 H     1 <1>   0.0800 
 35 H        6.6200     2.8970     2.6500 H     1 <1>   0.0800 
 36 H        5.8110     3.4800     1.2200 H     1 <1>   0.0800 
 37 H        9.0720     0.8180     1.3330 H     1 <1>   0.0800 
 38 H        9.1370     2.4060     2.0390 H     1 <1>   0.0800 
 39 H        8.5470     5.1080    -1.3810 H     1 <1>   0.0800 
 40 H        9.2970     1.8070    -0.8010 H     1 <1>   0.4500 
 41 H        6.6400     5.3320     0.2440 H     1 <1>   0.0800 
 42 H        8.1900     5.9570     0.7400 H     1 <1>   0.0800 
 43 H       10.1000     4.2990     0.5940 H     1 <1>   0.0800 
 44 H       10.4130     3.9610    -1.0850 H     1 <1>   0.0800 
 45 H       11.7400     2.0460    -0.7020 H     1 <1>   0.0800 
 46 H       11.5770     1.9230     1.0310 H     1 <1>   0.0800 
@<TRIPOS>BOND
  1   1   2  1   
  2   2   3  1   
  3   2   4  1   
  4   2  27  1   
  5   4   5  1   
  6   5   6  ar  
  7   5   7  ar  
  8   6   8  1   
  9   6   9  ar  
 10   7  10  ar  
 11   7  28  1   
 12   8  11  2   
 13   8  12  am  
 14   9  13  ar  
 15   9  29  1   
 16  10  13  ar  
 17  10  30  1   
 18  12  14  1   
 19  12  15  1   
 20  13  31  1   
 21  14  16  1   
 22  14  17  1   
 23  14  32  1   
 24  15  18  1   
 25  15  33  1   
 26  15  34  1   
 27  16  19  1   
 28  16  35  1   
 29  16  36  1   
 30  17  20  1   
 31  17  37  1   
 32  17  38  1   
 33  18  21  1   
 34  18  22  1   
 35  18  39  1   
 36  19  21  1   
 37  20  22  1   
 38  20  23  1   
 39  20  40  1   
 40  21  41  1   
 41  21  42  1   
 42  22  43  1   
 43  22  44  1   
 44  23  24  1   
 45  23  45  1   
 46  23  46  1   
 47  24  25  ar  
 48  24  26  ar  
@<TRIPOS>SUBSTRUCTURE
  1 ****  12 GROUP 4 **** **** 0

# MOE 2024.06 (io_trps.svl 2023.06)
