@<TRIPOS>MOLECULE
NONAME
58 62 1 0 0 
SMALL
USER_CHARGES


@<TRIPOS>ATOM
  1 O       -0.9310     0.4090    -1.1000 O.2   1 <1>  -0.5700 
  2 C       -1.7790     0.8850    -0.3710 C.2   1 <1>   0.5440 
  3 N       -2.5980     0.0370     0.3350 N.am  1 <1>  -0.6600 
  4 C       -1.8540     2.3240    -0.2380 C.ar  1 <1>   0.0860 
  5 C       -3.7390     0.4410     1.1920 C.3   1 <1>   0.1400 
  6 C       -2.6810    -1.4110     0.0320 C.3   1 <1>   0.1400 
  7 C       -0.8140     3.0390     0.3770 C.ar  1 <1>   0.0170 
  8 C       -2.9520     3.0280    -0.7290 C.ar  1 <1>  -0.1500 
  9 C       -4.8450    -0.5670     0.8790 C.3   1 <1>  -0.0800 
 10 C       -4.1090    -1.8390     0.3990 C.3   1 <1>  -0.0800 
 11 C        0.3550     2.3610     0.8800 C.cat 1 <1>   0.7830 
 12 C       -0.9240     4.4250     0.4980 C.ar  1 <1>  -0.1500 
 13 C       -3.0460     4.3990    -0.6010 C.ar  1 <1>  -0.1500 
 14 C       -5.9000    -0.0160    -0.1170 C.3   1 <1>   0.4240 
 15 C       -4.8210    -2.5970    -0.7400 C.3   1 <1>  -0.1600 
 16 N        0.5530     2.0410     2.1580 N.pl3 1 <1>  -0.7000 
 17 N        1.4280     1.9690     0.1790 N.pl3 1 <1>  -0.7640 
 18 C       -2.0280     5.1000     0.0170 C.ar  1 <1>  -0.1500 
 19 O       -5.2220     0.3480    -1.2680 O.3   1 <1>  -0.6800 
 20 C       -6.6420     1.2210     0.4400 C.ar  1 <1>  -0.1440 
 21 C       -6.9050    -1.1150    -0.5250 C.3   1 <1>  -0.1600 
 22 C       -6.3420    -2.5540    -0.5560 C.3   1 <1>  -0.1600 
 23 C        1.7620     1.4120     2.2740 C.2   1 <1>   0.2000 
 24 C        2.3060     1.3650     1.0420 C.2   1 <1>   0.2000 
 25 C        1.6090     2.0460    -1.2980 C.3   1 <1>   0.2740 
 26 C       -7.2690     1.1540     1.6820 C.ar  1 <1>  -0.1500 
 27 C       -6.7190     2.4240    -0.2600 C.ar  1 <1>  -0.1500 
 28 C       -7.9290     2.2480     2.2130 C.ar  1 <1>  -0.1500 
 29 C       -7.3790     3.5200     0.2680 C.ar  1 <1>  -0.1500 
 30 C       -7.9830     3.4350     1.5070 C.ar  1 <1>  -0.1500 
 31 H       -3.4460     0.3490     2.2230 H     1 <1>   0.0800 
 32 H       -4.0570     1.4510     1.0090 H     1 <1>   0.0800 
 33 H       -2.4710    -1.5820    -1.0110 H     1 <1>   0.0800 
 34 H       -1.9590    -1.9460     0.6240 H     1 <1>   0.0800 
 35 H       -3.7450     2.4880    -1.2200 H     1 <1>   0.1500 
 36 H       -5.3550    -0.8040     1.7930 H     1 <1>   0.0800 
 37 H       -4.0350    -2.5090     1.2390 H     1 <1>   0.0800 
 38 H       -0.1350     4.9870     0.9700 H     1 <1>   0.1500 
 39 H       -3.9090     4.9200    -0.9820 H     1 <1>   0.1500 
 40 H       -4.5760    -2.1750    -1.7000 H     1 <1>   0.0800 
 41 H       -4.4880    -3.6210    -0.7510 H     1 <1>   0.0800 
 42 H       -0.1140     2.2260     2.9100 H     1 <1>   0.4500 
 43 H       -2.1010     6.1710     0.1180 H     1 <1>   0.1500 
 44 H       -4.6060    -0.3740    -1.4860 H     1 <1>   0.4000 
 45 H       -7.7290    -1.1090     0.1650 H     1 <1>   0.0800 
 46 H       -7.3170    -0.8610    -1.4870 H     1 <1>   0.0800 
 47 H       -6.5850    -3.0430     0.3730 H     1 <1>   0.0800 
 48 H       -6.8220    -3.1080    -1.3440 H     1 <1>   0.0800 
 49 H        2.1570     1.0380     3.2060 H     1 <1>   0.1500 
 50 H        3.2480     0.9390     0.7320 H     1 <1>   0.1500 
 51 H        2.5420     2.5280    -1.5310 H     1 <1>   0.0800 
 52 H        0.8070     2.6010    -1.7530 H     1 <1>   0.0800 
 53 H        1.6120     1.0520    -1.7140 H     1 <1>   0.0800 
 54 H       -7.2590     0.2440     2.2530 H     1 <1>   0.1500 
 55 H       -6.2700     2.5230    -1.2320 H     1 <1>   0.1500 
 56 H       -8.4060     2.1750     3.1750 H     1 <1>   0.1500 
 57 H       -7.4250     4.4380    -0.2900 H     1 <1>   0.1500 
 58 H       -8.4970     4.2860     1.9180 H     1 <1>   0.1500 
@<TRIPOS>BOND
  1   1   2  2   
  2   2   3  am  
  3   2   4  1   
  4   3   5  1   
  5   3   6  1   
  6   4   7  ar  
  7   4   8  ar  
  8   5   9  1   
  9   5  31  1   
 10   5  32  1   
 11   6  10  1   
 12   6  33  1   
 13   6  34  1   
 14   7  11  1   
 15   7  12  ar  
 16   8  13  ar  
 17   8  35  1   
 18   9  10  1   
 19   9  14  1   
 20   9  36  1   
 21  10  15  1   
 22  10  37  1   
 23  11  16  ar  
 24  11  17  ar  
 25  12  18  ar  
 26  12  38  1   
 27  13  18  ar  
 28  13  39  1   
 29  14  19  1   
 30  14  20  1   
 31  14  21  1   
 32  15  22  1   
 33  15  40  1   
 34  15  41  1   
 35  16  23  1   
 36  16  42  1   
 37  17  24  1   
 38  17  25  1   
 39  18  43  1   
 40  19  44  1   
 41  20  26  ar  
 42  20  27  ar  
 43  21  22  1   
 44  21  45  1   
 45  21  46  1   
 46  22  47  1   
 47  22  48  1   
 48  23  24  2   
 49  23  49  1   
 50  24  50  1   
 51  25  51  1   
 52  25  52  1   
 53  25  53  1   
 54  26  28  ar  
 55  26  54  1   
 56  27  29  ar  
 57  27  55  1   
 58  28  30  ar  
 59  28  56  1   
 60  29  30  ar  
 61  29  57  1   
 62  30  58  1   
@<TRIPOS>SUBSTRUCTURE
  1 ****   5 GROUP 4 **** **** 0

# MOE 2024.06 (io_trps.svl 2023.06)
