@<TRIPOS>MOLECULE
NONAME
51 54 1 0 0 
SMALL
USER_CHARGES


@<TRIPOS>ATOM
  1 S        0.0510    -0.3220     0.9190 S.o2  1 <1>   1.5760 
  2 O        0.4540    -1.7100     0.9360 O.2   1 <1>  -0.6500 
  3 O       -0.0310     0.4280     2.1540 O.2   1 <1>  -0.6500 
  4 N       -1.3860    -0.1160     0.0500 N.am  1 <1>  -0.8490 
  5 N        1.1060     0.5060    -0.1030 N.am  1 <1>  -0.8490 
  6 C       -2.6130    -0.1460     0.8460 C.3   1 <1>   0.1960 
  7 C       -1.4910    -0.8760    -1.2000 C.3   1 <1>   0.1960 
  8 C        0.8410     1.9290    -0.1960 C.3   1 <1>   0.1960 
  9 C        2.4870     0.3940     0.3180 C.3   1 <1>   0.1960 
 10 C       -3.0520    -1.5800     1.1540 C.3   1 <1>  -0.1600 
 11 C       -1.9630    -2.3200    -0.9860 C.3   1 <1>  -0.1600 
 12 C        2.1140     2.5080    -0.8010 C.3   1 <1>  -0.1600 
 13 C        3.2080     1.5010    -0.4430 C.3   1 <1>  -0.1600 
 14 C       -3.2380    -2.3990    -0.1350 C.3   1 <1>   0.4240 
 15 O       -4.2030    -1.7230    -0.9140 O.3   1 <1>  -0.5600 
 16 C       -3.6520    -3.8760     0.1300 C.ar  1 <1>  -0.1430 
 17 C       -5.5430    -2.0010    -0.6730 C.3   1 <1>   0.1200 
 18 C       -2.8330    -4.7600     0.8430 C.ar  1 <1>   0.0820 
 19 C       -4.8670    -4.3610    -0.3530 C.ar  1 <1>  -0.1430 
 20 C       -5.8100    -3.4380    -1.0970 C.3   1 <1>  -0.0170 
 21 O       -1.6660    -4.3080     1.3610 O.3   1 <1>  -0.3630 
 22 C       -3.2170    -6.0830     1.0360 C.ar  1 <1>  -0.1500 
 23 C       -5.2400    -5.6810    -0.1610 C.ar  1 <1>  -0.1500 
 24 C       -0.5370    -5.1430     1.4780 C.3   1 <1>   0.0400 
 25 C       -4.4150    -6.5450     0.5310 C.ar  1 <1>  -0.1500 
 26 H       -3.3920     0.3500     0.2910 H     1 <1>   0.0800 
 27 H       -2.4750     0.4020     1.7620 H     1 <1>   0.0800 
 28 H       -0.5410    -0.8740    -1.7090 H     1 <1>   0.0800 
 29 H       -2.1990    -0.3750    -1.8390 H     1 <1>   0.0800 
 30 H        0.6850     2.3480     0.7850 H     1 <1>   0.0800 
 31 H       -0.0230     2.1210    -0.8100 H     1 <1>   0.0800 
 32 H        2.8810    -0.5820     0.0880 H     1 <1>   0.0800 
 33 H        2.5630     0.5720     1.3800 H     1 <1>   0.0800 
 34 H       -3.9660    -1.5710     1.7150 H     1 <1>   0.0800 
 35 H       -2.3090    -2.0250     1.7850 H     1 <1>   0.0800 
 36 H       -1.1680    -2.8770    -0.5360 H     1 <1>   0.0800 
 37 H       -2.1540    -2.7790    -1.9380 H     1 <1>   0.0800 
 38 H        2.3150     3.4870    -0.4040 H     1 <1>   0.0800 
 39 H        2.0060     2.5750    -1.8690 H     1 <1>   0.0800 
 40 H        3.6500     1.0960    -1.3360 H     1 <1>   0.0800 
 41 H        3.9800     1.9390     0.1650 H     1 <1>   0.0800 
 42 H       -6.1340    -1.3180    -1.2560 H     1 <1>   0.0800 
 43 H       -5.7560    -1.8560     0.3720 H     1 <1>   0.0800 
 44 H       -5.6580    -3.5350    -2.1570 H     1 <1>   0.0800 
 45 H       -6.8310    -3.6880    -0.8740 H     1 <1>   0.0800 
 46 H       -2.5940    -6.7600     1.5880 H     1 <1>   0.1500 
 47 H       -6.1770    -6.0430    -0.5490 H     1 <1>   0.1500 
 48 H        0.3190    -4.5140     1.6510 H     1 <1>   0.0800 
 49 H       -0.4090    -5.6890     0.5600 H     1 <1>   0.0800 
 50 H       -0.6760    -5.8080     2.3100 H     1 <1>   0.0800 
 51 H       -4.7080    -7.5700     0.6790 H     1 <1>   0.1500 
@<TRIPOS>BOND
  1   1   2  2   
  2   1   3  2   
  3   1   4  am  
  4   1   5  am  
  5   4   6  1   
  6   4   7  1   
  7   5   8  1   
  8   5   9  1   
  9   6  10  1   
 10   6  26  1   
 11   6  27  1   
 12   7  11  1   
 13   7  28  1   
 14   7  29  1   
 15   8  12  1   
 16   8  30  1   
 17   8  31  1   
 18   9  13  1   
 19   9  32  1   
 20   9  33  1   
 21  10  14  1   
 22  10  34  1   
 23  10  35  1   
 24  11  14  1   
 25  11  36  1   
 26  11  37  1   
 27  12  13  1   
 28  12  38  1   
 29  12  39  1   
 30  13  40  1   
 31  13  41  1   
 32  14  15  1   
 33  14  16  1   
 34  15  17  1   
 35  16  18  ar  
 36  16  19  ar  
 37  17  20  1   
 38  17  42  1   
 39  17  43  1   
 40  18  21  1   
 41  18  22  ar  
 42  19  20  1   
 43  19  23  ar  
 44  20  44  1   
 45  20  45  1   
 46  21  24  1   
 47  22  25  ar  
 48  22  46  1   
 49  23  25  ar  
 50  23  47  1   
 51  24  48  1   
 52  24  49  1   
 53  24  50  1   
 54  25  51  1   
@<TRIPOS>SUBSTRUCTURE
  1 ****  11 GROUP 4 **** **** 0

# MOE 2024.06 (io_trps.svl 2023.06)
