@<TRIPOS>MOLECULE
NONAME
31 32 1 0 0 
SMALL
USER_CHARGES


@<TRIPOS>ATOM
  1 O        0.1070    -0.1230     0.3540 O.3   1 <1>  -0.5600 
  2 C        0.8150    -1.1310    -0.2940 C.3   1 <1>   0.5600 
  3 C       -1.1260    -0.6190     0.7290 C.3   1 <1>   0.2000 
  4 O       -0.1340    -2.0750    -0.6580 O.3   1 <1>  -0.5600 
  5 C        1.8350    -1.7420     0.6600 C.3   1 <1>  -0.2400 
  6 C        1.4380    -0.5600    -1.5550 C.3   1 <1>  -0.2400 
  7 C       -1.1570    -2.0550     0.2620 C.3   1 <1>   0.2000 
  8 C       -2.2130     0.0720    -0.0940 C.3   1 <1>   0.4230 
  9 C       -2.5130    -2.2780    -0.4330 C.3   1 <1>  -0.0800 
 10 N       -2.6860     1.3440     0.4970 N.4   1 <1>  -0.8530 
 11 C       -3.3040    -0.9740    -0.2110 C.3   1 <1>  -0.1600 
 12 C       -3.2300    -3.5370     0.0720 C.3   1 <1>   0.1200 
 13 O       -4.5370    -3.5070    -0.3790 O.3   1 <1>  -0.6800 
 14 H       -1.2700    -0.5370     1.7920 H     1 <1>   0.0800 
 15 H        2.3430    -2.5530     0.1710 H     1 <1>   0.0800 
 16 H        1.3660    -2.1080     1.5530 H     1 <1>   0.0800 
 17 H        2.5670    -1.0020     0.9280 H     1 <1>   0.0800 
 18 H        1.9620    -1.3350    -2.0820 H     1 <1>   0.0800 
 19 H        2.1430     0.2100    -1.2990 H     1 <1>   0.0800 
 20 H        0.6790    -0.1510    -2.1950 H     1 <1>   0.0800 
 21 H       -0.9470    -2.7550     1.0530 H     1 <1>   0.0800 
 22 H       -1.8100     0.2480    -1.0790 H     1 <1>   0.0800 
 23 H       -2.3370    -2.4020    -1.4900 H     1 <1>   0.0800 
 24 H       -3.1270     1.1960     1.4090 H     1 <1>   0.4500 
 25 H       -3.3590     1.8000    -0.1270 H     1 <1>   0.4500 
 26 H       -1.8780     1.9680     0.6190 H     1 <1>   0.4500 
 27 H       -3.8690    -1.0430     0.7040 H     1 <1>   0.0800 
 28 H       -3.9670    -0.7860    -1.0380 H     1 <1>   0.0800 
 29 H       -3.2520    -3.5750     1.1490 H     1 <1>   0.0800 
 30 H       -2.7530    -4.4240    -0.3100 H     1 <1>   0.0800 
 31 H       -4.9870    -4.3600    -0.2090 H     1 <1>   0.4000 
@<TRIPOS>BOND
  1   1   2  1   
  2   1   3  1   
  3   2   4  1   
  4   2   5  1   
  5   2   6  1   
  6   3   7  1   
  7   3   8  1   
  8   3  14  1   
  9   4   7  1   
 10   5  15  1   
 11   5  16  1   
 12   5  17  1   
 13   6  18  1   
 14   6  19  1   
 15   6  20  1   
 16   7   9  1   
 17   7  21  1   
 18   8  10  1   
 19   8  11  1   
 20   8  22  1   
 21   9  11  1   
 22   9  12  1   
 23   9  23  1   
 24  10  24  1   
 25  10  25  1   
 26  10  26  1   
 27  11  27  1   
 28  11  28  1   
 29  12  13  1   
 30  12  29  1   
 31  12  30  1   
 32  13  31  1   
@<TRIPOS>SUBSTRUCTURE
  1 ****   7 GROUP 4 **** **** 0

# MOE 2024.06 (io_trps.svl 2023.06)
