@<TRIPOS>MOLECULE
NONAME
49 50 1 0 0 
SMALL
USER_CHARGES


@<TRIPOS>ATOM
  1 S        0.7240    -0.9960     2.1510 S.o2  1 <1>   1.4470 
  2 O        1.9530    -1.7490     2.2660 O.2   1 <1>  -0.6500 
  3 O        0.2280    -0.2870     3.3070 O.2   1 <1>  -0.6500 
  4 N       -0.4530    -2.1300     1.7830 N.am  1 <1>  -0.9140 
  5 C        0.7840     0.0760     0.6930 C.ar  1 <1>  -0.0090 
  6 C       -0.0370    -3.1550     0.8380 C.3   1 <1>   0.2760 
  7 C       -0.3580     0.6940     0.1910 C.ar  1 <1>   0.0830 
  8 C        1.9870     0.3060     0.0330 C.ar  1 <1>  -0.1500 
  9 C       -1.2570    -3.6730     0.0960 C.3   1 <1>  -0.0800 
 10 C        0.3810    -4.4130     1.5920 C.3   1 <1>   0.1200 
 11 O       -1.5570     0.5120     0.7800 O.3   1 <1>  -0.3630 
 12 C       -0.3000     1.4930    -0.9400 C.ar  1 <1>  -0.1500 
 13 C        2.0580     1.1120    -1.0920 C.ar  1 <1>  -0.1430 
 14 C       -1.8380    -4.7010     1.0760 C.3   1 <1>   0.1200 
 15 C       -2.2440    -2.5750    -0.3520 C.3   1 <1>  -0.0550 
 16 O       -0.8170    -5.0100     1.9850 O.3   1 <1>  -0.5600 
 17 C       -1.9920     1.5380     1.6440 C.3   1 <1>   0.0400 
 18 C        0.9060     1.7020    -1.5800 C.ar  1 <1>  -0.1500 
 19 C        3.3870     1.3410    -1.7900 C.3   1 <1>  -0.0970 
 20 S       -3.6130    -3.2050    -1.3140 S.o2  1 <1>   1.3330 
 21 O       -4.5160    -3.9260    -0.4440 O.2   1 <1>  -0.6500 
 22 O       -3.0660    -3.8680    -2.4760 O.2   1 <1>  -0.6500 
 23 N       -4.4100    -1.8010    -1.8370 N.am  1 <1>  -0.8490 
 24 C       -5.2630    -2.0600    -2.9990 C.3   1 <1>   0.1160 
 25 C       -5.1880    -1.1460    -0.7810 C.3   1 <1>   0.1160 
 26 H       -0.6520    -2.6070     2.6620 H     1 <1>   0.4200 
 27 H        0.7230    -2.7950     0.1640 H     1 <1>   0.0800 
 28 H        2.8850    -0.1560     0.4080 H     1 <1>   0.1500 
 29 H       -0.9200    -4.2070    -0.7760 H     1 <1>   0.0800 
 30 H        0.9900    -4.2100     2.4560 H     1 <1>   0.0800 
 31 H        0.8930    -5.0980     0.9380 H     1 <1>   0.0800 
 32 H       -1.2000     1.9450    -1.3180 H     1 <1>   0.1500 
 33 H       -2.1500    -5.6030     0.5770 H     1 <1>   0.0800 
 34 H       -2.6620    -4.2950     1.6390 H     1 <1>   0.0800 
 35 H       -1.7110    -1.8560    -0.9440 H     1 <1>   0.0800 
 36 H       -2.6290    -2.0620     0.5070 H     1 <1>   0.0800 
 37 H       -2.9250     1.2360     2.0830 H     1 <1>   0.0800 
 38 H       -2.1240     2.4430     1.0770 H     1 <1>   0.0800 
 39 H       -1.2560     1.6840     2.4150 H     1 <1>   0.0800 
 40 H        0.9430     2.3240    -2.4580 H     1 <1>   0.1500 
 41 H        3.4210     2.3270    -2.2180 H     1 <1>   0.0800 
 42 H        3.5160     0.6180    -2.5750 H     1 <1>   0.0800 
 43 H        4.2020     1.2470    -1.0950 H     1 <1>   0.0800 
 44 H       -5.7340    -1.1490    -3.3270 H     1 <1>   0.0800 
 45 H       -6.0220    -2.7850    -2.7540 H     1 <1>   0.0800 
 46 H       -4.6700    -2.4430    -3.8130 H     1 <1>   0.0800 
 47 H       -5.6230    -0.2350    -1.1550 H     1 <1>   0.0800 
 48 H       -4.5510    -0.8970     0.0510 H     1 <1>   0.0800 
 49 H       -5.9750    -1.7940    -0.4330 H     1 <1>   0.0800 
@<TRIPOS>BOND
  1   1   2  2   
  2   1   3  2   
  3   1   4  am  
  4   1   5  1   
  5   4   6  1   
  6   4  26  1   
  7   5   7  ar  
  8   5   8  ar  
  9   6   9  1   
 10   6  10  1   
 11   6  27  1   
 12   7  11  1   
 13   7  12  ar  
 14   8  13  ar  
 15   8  28  1   
 16   9  14  1   
 17   9  15  1   
 18   9  29  1   
 19  10  16  1   
 20  10  30  1   
 21  10  31  1   
 22  11  17  1   
 23  12  18  ar  
 24  12  32  1   
 25  13  18  ar  
 26  13  19  1   
 27  14  16  1   
 28  14  33  1   
 29  14  34  1   
 30  15  20  1   
 31  15  35  1   
 32  15  36  1   
 33  17  37  1   
 34  17  38  1   
 35  17  39  1   
 36  18  40  1   
 37  19  41  1   
 38  19  42  1   
 39  19  43  1   
 40  20  21  2   
 41  20  22  2   
 42  20  23  am  
 43  23  24  1   
 44  23  25  1   
 45  24  44  1   
 46  24  45  1   
 47  24  46  1   
 48  25  47  1   
 49  25  48  1   
 50  25  49  1   
@<TRIPOS>SUBSTRUCTURE
  1 ****  15 GROUP 4 **** **** 0

# MOE 2024.06 (io_trps.svl 2023.06)
