@<TRIPOS>MOLECULE
NONAME
56 59 1 0 0 
SMALL
USER_CHARGES


@<TRIPOS>ATOM
  1 O        0.7170    -1.3690    -1.4660 O.3   1 <1>  -0.6800 
  2 C        0.7360    -1.8770    -0.1740 C.3   1 <1>   0.1200 
  3 C        2.1050    -1.6280     0.5240 C.3   1 <1>   0.0000 
  4 C        3.3350    -2.0280    -0.3450 C.3   1 <1>   0.4230 
  5 C        2.2180    -0.1260     0.9060 C.3   1 <1>  -0.1600 
  6 C        2.1380    -2.4640     1.8360 C.3   1 <1>  -0.1600 
  7 N        3.3420    -3.5050    -0.7440 N.4   1 <1>  -0.9590 
  8 C        3.6060    -1.0150    -1.5020 C.3   1 <1>   0.3430 
  9 C        2.4130     0.8120    -0.2890 C.3   1 <1>   0.3430 
 10 C        2.8740    -3.8130     1.6960 C.3   1 <1>  -0.1600 
 11 C        2.7510    -4.4160     0.2960 C.3   1 <1>   0.3430 
 12 C        2.7050    -3.8070    -2.0710 C.3   1 <1>   0.2630 
 13 N        3.6410     0.4090    -1.0280 N.4   1 <1>  -0.9590 
 14 C        3.9620     1.3850    -2.0970 C.3   1 <1>   0.5240 
 15 C        4.6520     2.5540    -1.4320 C.2   1 <1>  -0.1810 
 16 C        5.4240     2.5520    -0.3110 C.2   1 <1>  -0.0260 
 17 C        4.6380     3.8710    -1.8610 C.2   1 <1>   0.1390 
 18 N        5.7770     1.5130     0.5340 N.2   1 <1>  -0.5760 
 19 N        5.8360     3.8570    -0.1310 N.pl3 1 <1>   0.6010 
 20 N        5.3320     4.6590    -1.0940 N.2   1 <1>  -0.7070 
 21 C        6.5520     1.8270     1.5250 C.2   1 <1>   0.3750 
 22 C        6.6620     4.1710     0.9390 C.2   1 <1>  -0.1690 
 23 C        7.0190     3.1520     1.7650 C.2   1 <1>  -0.1360 
 24 C        6.9860     0.7420     2.4850 C.3   1 <1>  -0.1790 
 25 C        7.1100     5.6150     1.1160 C.3   1 <1>  -0.1020 
 26 H       -0.2030    -1.3830    -1.8220 H     1 <1>   0.4000 
 27 H       -0.0580    -1.4020     0.3810 H     1 <1>   0.0800 
 28 H        0.5090    -2.9270    -0.2350 H     1 <1>   0.0800 
 29 H        4.1770    -1.9060     0.3160 H     1 <1>   0.0800 
 30 H        3.0480     0.0320     1.5750 H     1 <1>   0.0800 
 31 H        1.3330     0.1820     1.4370 H     1 <1>   0.0800 
 32 H        2.6260    -1.9200     2.6290 H     1 <1>   0.0800 
 33 H        1.1320    -2.6440     2.1800 H     1 <1>   0.0800 
 34 H        4.3330    -3.7850    -0.8150 H     1 <1>   0.4500 
 35 H        2.8340    -1.1130    -2.2450 H     1 <1>   0.0800 
 36 H        4.5500    -1.2560    -1.9590 H     1 <1>   0.0800 
 37 H        2.5150     1.8270     0.0650 H     1 <1>   0.0800 
 38 H        1.5540     0.7660    -0.9400 H     1 <1>   0.0800 
 39 H        2.4710    -4.5080     2.4150 H     1 <1>   0.0800 
 40 H        3.9170    -3.6940     1.9350 H     1 <1>   0.0800 
 41 H        1.7060    -4.5810     0.0870 H     1 <1>   0.0800 
 42 H        3.2450    -5.3750     0.2680 H     1 <1>   0.0800 
 43 H        1.6630    -3.5320    -2.0630 H     1 <1>   0.0800 
 44 H        2.7760    -4.8610    -2.2870 H     1 <1>   0.0800 
 45 H        3.1970    -3.2680    -2.8640 H     1 <1>   0.0800 
 46 H        4.4360     0.5540    -0.3680 H     1 <1>   0.4500 
 47 H        4.6360     0.9490    -2.8150 H     1 <1>   0.0800 
 48 H        3.0660     1.7060    -2.6050 H     1 <1>   0.0800 
 49 H        4.1190     4.2390    -2.7330 H     1 <1>   0.1500 
 50 H        7.6580     3.3130     2.6140 H     1 <1>   0.1500 
 51 H        8.0590     0.6720     2.4910 H     1 <1>   0.0800 
 52 H        6.5820    -0.2090     2.1940 H     1 <1>   0.0800 
 53 H        6.6460     0.9750     3.4780 H     1 <1>   0.0800 
 54 H        7.6560     5.9410     0.2470 H     1 <1>   0.0800 
 55 H        7.7440     5.7200     1.9780 H     1 <1>   0.0800 
 56 H        6.2540     6.2560     1.2380 H     1 <1>   0.0800 
@<TRIPOS>BOND
  1   1   2  1   
  2   1  26  1   
  3   2   3  1   
  4   2  27  1   
  5   2  28  1   
  6   3   4  1   
  7   3   5  1   
  8   3   6  1   
  9   4   7  1   
 10   4   8  1   
 11   4  29  1   
 12   5   9  1   
 13   5  30  1   
 14   5  31  1   
 15   6  10  1   
 16   6  32  1   
 17   6  33  1   
 18   7  11  1   
 19   7  12  1   
 20   7  34  1   
 21   8  13  1   
 22   8  35  1   
 23   8  36  1   
 24   9  13  1   
 25   9  37  1   
 26   9  38  1   
 27  10  11  1   
 28  10  39  1   
 29  10  40  1   
 30  11  41  1   
 31  11  42  1   
 32  12  43  1   
 33  12  44  1   
 34  12  45  1   
 35  13  14  1   
 36  13  46  1   
 37  14  15  1   
 38  14  47  1   
 39  14  48  1   
 40  15  16  2   
 41  15  17  1   
 42  16  18  1   
 43  16  19  1   
 44  17  20  2   
 45  17  49  1   
 46  18  21  2   
 47  19  20  1   
 48  19  22  1   
 49  21  23  1   
 50  21  24  1   
 51  22  23  2   
 52  22  25  1   
 53  23  50  1   
 54  24  51  1   
 55  24  52  1   
 56  24  53  1   
 57  25  54  1   
 58  25  55  1   
 59  25  56  1   
@<TRIPOS>SUBSTRUCTURE
  1 ****  13 GROUP 4 **** **** 0

# MOE 2024.06 (io_trps.svl 2023.06)
