@<TRIPOS>MOLECULE
NONAME
49 52 1 0 0 
SMALL
USER_CHARGES


@<TRIPOS>ATOM
  1 O        0.1940     0.8200    -0.5640 O.2   1 <1>  -0.5700 
  2 C       -0.4410     1.8470    -0.6980 C.2   1 <1>   0.5440 
  3 N       -1.8170     1.7840    -0.7580 N.am  1 <1>  -0.6600 
  4 C        0.2730     3.1000    -0.7810 C.ar  1 <1>   0.0860 
  5 C       -2.7190     2.9810    -0.7620 C.3   1 <1>   0.1400 
  6 C       -2.5250     0.4670    -0.6740 C.3   1 <1>   0.1400 
  7 C        0.2710     3.8440    -1.9600 C.ar  1 <1>   0.1600 
  8 C        0.9850     3.6060     0.2950 C.ar  1 <1>  -0.1500 
  9 C       -3.5610     3.0490     0.5330 C.3   1 <1>   0.1440 
 10 C       -3.9510     0.6070    -0.1130 C.3   1 <1>  -0.1600 
 11 N        0.8730     5.0110    -2.1420 N.ar  1 <1>  -0.6200 
 12 C        1.6260     4.8140     0.1300 C.ar  1 <1>   0.0820 
 13 C       -4.7430     3.9620     0.2560 C.ar  1 <1>   0.1670 
 14 C       -3.9960     1.6420     1.0220 C.3   1 <1>  -0.1600 
 15 C       -2.8120     3.8220     1.6500 C.3   1 <1>  -0.1600 
 16 C        1.5400     5.4700    -1.0940 C.ar  1 <1>   0.1600 
 17 O        2.3210     5.3260     1.1630 O.3   1 <1>  -0.5320 
 18 N       -5.8030     3.6410    -0.4440 N.ar  1 <1>  -0.6200 
 19 C       -4.5690     5.1910     0.8170 C.ar  1 <1>  -0.1440 
 20 C       -3.2570     5.2920     1.5530 C.3   1 <1>  -0.0170 
 21 C       -6.7220     4.6030    -0.5630 C.ar  1 <1>   0.7200 
 22 C       -5.5630     6.1190     0.6380 C.ar  1 <1>   0.1600 
 23 N       -6.6440     5.8360    -0.0500 N.ar  1 <1>  -0.6200 
 24 N       -7.8590     4.2950    -1.2840 N.pl3 1 <1>  -0.8380 
 25 C       -8.8190     5.3410    -1.7320 C.3   1 <1>   0.1290 
 26 C       -8.2320     2.8910    -1.6100 C.3   1 <1>   0.1290 
 27 H       -3.3810     2.8930    -1.6070 H     1 <1>   0.0800 
 28 H       -2.1700     3.8950    -0.8850 H     1 <1>   0.0800 
 29 H       -1.9650    -0.1880    -0.0280 H     1 <1>   0.0800 
 30 H       -2.5560     0.0160    -1.6520 H     1 <1>   0.0800 
 31 H       -0.2670     3.4400    -2.8010 H     1 <1>   0.1500 
 32 H        1.0410     3.0700     1.2250 H     1 <1>   0.1500 
 33 H       -4.2830    -0.3500     0.2480 H     1 <1>   0.0800 
 34 H       -4.6210     0.9040    -0.9010 H     1 <1>   0.0800 
 35 H       -4.9860     1.6880     1.4420 H     1 <1>   0.0800 
 36 H       -3.3280     1.3040     1.7950 H     1 <1>   0.0800 
 37 H       -1.7440     3.7160     1.5780 H     1 <1>   0.0800 
 38 H       -3.1240     3.4510     2.6110 H     1 <1>   0.0800 
 39 H        2.0430     6.4130    -1.2160 H     1 <1>   0.1500 
 40 H        2.8140     6.1420     0.9570 H     1 <1>   0.4500 
 41 H       -2.5570     5.8660     0.9700 H     1 <1>   0.0800 
 42 H       -3.3760     5.7350     2.5260 H     1 <1>   0.0800 
 43 H       -5.4720     7.1040     1.0630 H     1 <1>   0.1500 
 44 H       -8.3110     6.2750    -1.8960 H     1 <1>   0.0800 
 45 H       -9.5750     5.4810    -0.9800 H     1 <1>   0.0800 
 46 H       -9.2850     5.0450    -2.6560 H     1 <1>   0.0800 
 47 H       -7.8380     2.2140    -0.8710 H     1 <1>   0.0800 
 48 H       -7.8330     2.6280    -2.5740 H     1 <1>   0.0800 
 49 H       -9.3030     2.7860    -1.6270 H     1 <1>   0.0800 
@<TRIPOS>BOND
  1   1   2  2   
  2   2   3  am  
  3   2   4  1   
  4   3   5  1   
  5   3   6  1   
  6   4   7  ar  
  7   4   8  ar  
  8   5   9  1   
  9   5  27  1   
 10   5  28  1   
 11   6  10  1   
 12   6  29  1   
 13   6  30  1   
 14   7  11  ar  
 15   7  31  1   
 16   8  12  ar  
 17   8  32  1   
 18   9  13  1   
 19   9  14  1   
 20   9  15  1   
 21  10  14  1   
 22  10  33  1   
 23  10  34  1   
 24  11  16  ar  
 25  12  16  ar  
 26  12  17  1   
 27  13  18  ar  
 28  13  19  ar  
 29  14  35  1   
 30  14  36  1   
 31  15  20  1   
 32  15  37  1   
 33  15  38  1   
 34  16  39  1   
 35  17  40  1   
 36  18  21  ar  
 37  19  20  1   
 38  19  22  ar  
 39  20  41  1   
 40  20  42  1   
 41  21  23  ar  
 42  21  24  1   
 43  22  23  ar  
 44  22  43  1   
 45  24  25  1   
 46  24  26  1   
 47  25  44  1   
 48  25  45  1   
 49  25  46  1   
 50  26  47  1   
 51  26  48  1   
 52  26  49  1   
@<TRIPOS>SUBSTRUCTURE
  1 ****   5 GROUP 4 **** **** 0

# MOE 2024.06 (io_trps.svl 2023.06)
