@<TRIPOS>MOLECULE
NONAME
54 56 1 0 0 
SMALL
USER_CHARGES


@<TRIPOS>ATOM
  1 F       -0.2050     0.8400     0.2880 F     1 <1>  -0.1900 
  2 C       -1.5050     0.9920     0.2930 C.ar  1 <1>   0.1900 
  3 C       -2.1290     2.0650    -0.3540 C.ar  1 <1>   0.0830 
  4 C       -2.2320     0.0350     0.9740 C.ar  1 <1>  -0.1500 
  5 O       -1.5250     3.0660    -1.0550 O.3   1 <1>  -0.3630 
  6 C       -3.5110     2.1380    -0.2870 C.ar  1 <1>  -0.1500 
  7 C       -3.6100     0.1390     1.0210 C.ar  1 <1>  -0.1500 
  8 C       -0.1310     3.1250    -1.2670 C.3   1 <1>   0.0400 
  9 C       -4.2800     1.1890     0.3900 C.ar  1 <1>   0.0530 
 10 C       -5.7160     1.3140     0.4390 C.2   1 <1>   0.0870 
 11 O       -6.2510     2.5020     0.5740 O.3   1 <1>  -0.0190 
 12 C       -6.7430     0.4210     0.3860 C.2   1 <1>  -0.0860 
 13 N       -7.5550     2.4740     0.6230 N.2   1 <1>  -0.4100 
 14 C       -7.8780     1.2350     0.5110 C.2   1 <1>   0.3720 
 15 C       -6.7490    -1.0010     0.2220 C.2   1 <1>   0.7160 
 16 N       -9.2110     0.7930     0.4930 N.pl3 1 <1>  -0.8210 
 17 O       -5.7810    -1.6010    -0.2050 O.2   1 <1>  -0.5700 
 18 N       -7.8670    -1.7120     0.5280 N.am  1 <1>  -0.7300 
 19 C       -9.8530     0.9710    -0.8400 C.3   1 <1>   0.1290 
 20 C      -10.0510     1.3740     1.5780 C.3   1 <1>   0.1290 
 21 C       -8.1400    -3.1350     0.2150 C.3   1 <1>   0.1400 
 22 C       -9.2850    -3.2800    -0.8190 C.3   1 <1>   0.0000 
 23 C      -10.6180    -2.7850    -0.2240 C.3   1 <1>  -0.1600 
 24 C       -9.5660    -4.7760    -1.0390 C.3   1 <1>  -0.1600 
 25 C       -8.8710    -2.5540    -2.1240 C.3   1 <1>   0.1200 
 26 C      -11.1350    -3.9330     0.6470 C.3   1 <1>  -0.1600 
 27 C      -10.4660    -5.2090     0.1230 C.3   1 <1>  -0.1600 
 28 O       -9.8750    -2.5930    -3.0840 O.3   1 <1>  -0.6800 
 29 H       -1.7250    -0.7790     1.4600 H     1 <1>   0.1500 
 30 H       -4.0030     2.9570    -0.7790 H     1 <1>   0.1500 
 31 H       -4.1750    -0.6060     1.5540 H     1 <1>   0.1500 
 32 H        0.0790     3.9910    -1.8670 H     1 <1>   0.0800 
 33 H        0.1820     2.2360    -1.7860 H     1 <1>   0.0800 
 34 H        0.3640     3.2120    -0.3160 H     1 <1>   0.0800 
 35 H       -8.6900    -1.1250     0.7330 H     1 <1>   0.3700 
 36 H       -9.1730     0.6790    -1.6220 H     1 <1>   0.0800 
 37 H      -10.1210     2.0030    -0.9900 H     1 <1>   0.0800 
 38 H      -10.7370     0.3600    -0.9090 H     1 <1>   0.0800 
 39 H       -9.5430     1.2810     2.5230 H     1 <1>   0.0800 
 40 H      -10.9900     0.8510     1.6370 H     1 <1>   0.0800 
 41 H      -10.2370     2.4180     1.3880 H     1 <1>   0.0800 
 42 H       -8.3950    -3.6420     1.1290 H     1 <1>   0.0800 
 43 H       -7.2460    -3.5950    -0.1720 H     1 <1>   0.0800 
 44 H      -11.3310    -2.6160    -1.0120 H     1 <1>   0.0800 
 45 H      -10.5210    -1.8730     0.3360 H     1 <1>   0.0800 
 46 H       -8.6640    -5.3630    -1.0890 H     1 <1>   0.0800 
 47 H      -10.1140    -4.9210    -1.9530 H     1 <1>   0.0800 
 48 H       -7.9890    -3.0070    -2.5430 H     1 <1>   0.0800 
 49 H       -8.6600    -1.5170    -1.9320 H     1 <1>   0.0800 
 50 H      -12.2080    -4.0020     0.5920 H     1 <1>   0.0800 
 51 H      -10.8530    -3.7720     1.6740 H     1 <1>   0.0800 
 52 H       -9.8730    -5.6540     0.9040 H     1 <1>   0.0800 
 53 H      -11.1970    -5.9270    -0.2070 H     1 <1>   0.0800 
 54 H      -10.1150    -3.5180    -3.2830 H     1 <1>   0.4000 
@<TRIPOS>BOND
  1   1   2  1   
  2   2   3  ar  
  3   2   4  ar  
  4   3   5  1   
  5   3   6  ar  
  6   4   7  ar  
  7   4  29  1   
  8   5   8  1   
  9   6   9  ar  
 10   6  30  1   
 11   7   9  ar  
 12   7  31  1   
 13   8  32  1   
 14   8  33  1   
 15   8  34  1   
 16   9  10  1   
 17  10  11  1   
 18  10  12  2   
 19  11  13  1   
 20  12  14  1   
 21  12  15  1   
 22  13  14  2   
 23  14  16  1   
 24  15  17  2   
 25  15  18  am  
 26  16  19  1   
 27  16  20  1   
 28  18  21  1   
 29  18  35  1   
 30  19  36  1   
 31  19  37  1   
 32  19  38  1   
 33  20  39  1   
 34  20  40  1   
 35  20  41  1   
 36  21  22  1   
 37  21  42  1   
 38  21  43  1   
 39  22  23  1   
 40  22  24  1   
 41  22  25  1   
 42  23  26  1   
 43  23  44  1   
 44  23  45  1   
 45  24  27  1   
 46  24  46  1   
 47  24  47  1   
 48  25  28  1   
 49  25  48  1   
 50  25  49  1   
 51  26  27  1   
 52  26  50  1   
 53  26  51  1   
 54  27  52  1   
 55  27  53  1   
 56  28  54  1   
@<TRIPOS>SUBSTRUCTURE
  1 ****  15 GROUP 4 **** **** 0

# MOE 2024.06 (io_trps.svl 2023.06)
