@<TRIPOS>MOLECULE
NONAME
50 52 1 0 0 
SMALL
USER_CHARGES


@<TRIPOS>ATOM
  1 O       -1.5620    -0.6500     2.0100 O.2   1 <1>  -0.5700 
  2 C       -1.2390    -1.1200     0.9400 C.2   1 <1>   0.5440 
  3 N       -0.5290    -0.3050     0.1230 N.am  1 <1>  -0.8000 
  4 C       -1.5400    -2.4730     0.5510 C.ar  1 <1>   0.0860 
  5 C       -2.8450    -2.9430     0.2940 C.ar  1 <1>   0.4100 
  6 C       -0.4870    -3.3680     0.4230 C.ar  1 <1>  -0.1500 
  7 N       -3.0880    -4.2070    -0.0540 N.ar  1 <1>  -0.6200 
  8 N       -3.9800    -2.1420     0.3640 N.pl3 1 <1>  -0.8380 
  9 C       -0.7490    -4.6690     0.0580 C.ar  1 <1>  -0.1430 
 10 C       -2.0710    -5.0330    -0.1700 C.ar  1 <1>   0.1670 
 11 C       -5.2890    -2.6900     0.8380 C.3   1 <1>   0.2090 
 12 C       -4.0190    -0.7390    -0.1440 C.3   1 <1>   0.2090 
 13 C        0.4050    -5.6550    -0.0740 C.3   1 <1>  -0.0970 
 14 C       -2.4390    -6.4480    -0.5730 C.3   1 <1>  -0.0970 
 15 C       -6.3950    -2.6670    -0.2600 C.3   1 <1>   0.0000 
 16 C       -5.4140    -0.3480    -0.6560 C.3   1 <1>  -0.1600 
 17 C       -7.7630    -2.5650     0.4550 C.3   1 <1>   0.2000 
 18 C       -6.1210    -1.5470    -1.3010 C.3   1 <1>  -0.1600 
 19 C       -6.4940    -4.0380    -0.9500 C.3   1 <1>  -0.1600 
 20 O       -8.7740    -2.2310    -0.4560 O.3   1 <1>  -0.5600 
 21 C       -8.0360    -3.9860     0.9600 C.3   1 <1>  -0.1600 
 22 C       -7.3260    -4.9300    -0.0200 C.3   1 <1>  -0.1600 
 23 C       -9.8860    -1.6050     0.0990 C.3   1 <1>   0.0400 
 24 H       -0.3030     0.6370     0.4410 H     1 <1>   0.3700 
 25 H       -0.2150    -0.5760    -0.8090 H     1 <1>   0.3700 
 26 H        0.5180    -3.0370     0.6190 H     1 <1>   0.1500 
 27 H       -5.1610    -3.6870     1.2220 H     1 <1>   0.0800 
 28 H       -5.5970    -2.0800     1.6680 H     1 <1>   0.0800 
 29 H       -3.7260    -0.0620     0.6410 H     1 <1>   0.0800 
 30 H       -3.3140    -0.6490    -0.9520 H     1 <1>   0.0800 
 31 H        1.3280    -5.2160     0.2600 H     1 <1>   0.0800 
 32 H        0.5220    -5.9510    -1.1010 H     1 <1>   0.0800 
 33 H        0.2160    -6.5290     0.5230 H     1 <1>   0.0800 
 34 H       -1.8000    -6.7950    -1.3630 H     1 <1>   0.0800 
 35 H       -3.4550    -6.4830    -0.9250 H     1 <1>   0.0800 
 36 H       -2.3490    -7.1000     0.2760 H     1 <1>   0.0800 
 37 H       -6.0050     0.0230     0.1620 H     1 <1>   0.0800 
 38 H       -5.3140     0.4480    -1.3700 H     1 <1>   0.0800 
 39 H       -7.7470    -1.8330     1.2460 H     1 <1>   0.0800 
 40 H       -5.4710    -1.9380    -2.0650 H     1 <1>   0.0800 
 41 H       -7.0230    -1.2290    -1.7900 H     1 <1>   0.0800 
 42 H       -7.0250    -3.9250    -1.8800 H     1 <1>   0.0800 
 43 H       -5.5260    -4.4570    -1.1580 H     1 <1>   0.0800 
 44 H       -7.5980    -4.1020     1.9360 H     1 <1>   0.0800 
 45 H       -9.0870    -4.2000     1.0300 H     1 <1>   0.0800 
 46 H       -6.6880    -5.6130     0.5150 H     1 <1>   0.0800 
 47 H       -8.0410    -5.4950    -0.5940 H     1 <1>   0.0800 
 48 H      -10.5980    -1.4340    -0.6890 H     1 <1>   0.0800 
 49 H       -9.5850    -0.6650     0.5260 H     1 <1>   0.0800 
 50 H      -10.3220    -2.2410     0.8490 H     1 <1>   0.0800 
@<TRIPOS>BOND
  1   1   2  2   
  2   2   3  am  
  3   2   4  1   
  4   3  24  1   
  5   3  25  1   
  6   4   5  ar  
  7   4   6  ar  
  8   5   7  ar  
  9   5   8  1   
 10   6   9  ar  
 11   6  26  1   
 12   7  10  ar  
 13   8  11  1   
 14   8  12  1   
 15   9  10  ar  
 16   9  13  1   
 17  10  14  1   
 18  11  15  1   
 19  11  27  1   
 20  11  28  1   
 21  12  16  1   
 22  12  29  1   
 23  12  30  1   
 24  13  31  1   
 25  13  32  1   
 26  13  33  1   
 27  14  34  1   
 28  14  35  1   
 29  14  36  1   
 30  15  17  1   
 31  15  18  1   
 32  15  19  1   
 33  16  18  1   
 34  16  37  1   
 35  16  38  1   
 36  17  20  1   
 37  17  21  1   
 38  17  39  1   
 39  18  40  1   
 40  18  41  1   
 41  19  22  1   
 42  19  42  1   
 43  19  43  1   
 44  20  23  1   
 45  21  22  1   
 46  21  44  1   
 47  21  45  1   
 48  22  46  1   
 49  22  47  1   
 50  23  48  1   
 51  23  49  1   
 52  23  50  1   
@<TRIPOS>SUBSTRUCTURE
  1 ****   8 GROUP 4 **** **** 0

# MOE 2024.06 (io_trps.svl 2023.06)
