@<TRIPOS>MOLECULE
NONAME
45 47 1 0 0 
SMALL
USER_CHARGES


@<TRIPOS>ATOM
  1 O       -2.1750     1.0610    -1.9840 O.2   1 <1>  -0.5700 
  2 C       -1.9340     1.1430    -0.7950 C.2   1 <1>   0.5440 
  3 N       -1.9260     0.0020    -0.0500 N.am  1 <1>  -0.7300 
  4 C       -1.6790     2.4180    -0.1550 C.ar  1 <1>   0.0860 
  5 C       -2.1690    -1.3600    -0.5750 C.3   1 <1>   0.2200 
  6 C       -0.5310     3.1840    -0.4020 C.ar  1 <1>  -0.1440 
  7 C       -2.6050     2.9040     0.7680 C.ar  1 <1>  -0.1500 
  8 C       -3.5960    -1.7680    -0.2550 C.3   1 <1>  -0.0800 
  9 C       -1.3630    -2.3740     0.2300 C.3   1 <1>   0.1200 
 10 C       -0.3390     4.3830     0.2660 C.ar  1 <1>  -0.1500 
 11 C        0.5350     2.7260    -1.3940 C.3   1 <1>  -0.0170 
 12 C       -2.4090     4.1010     1.4290 C.ar  1 <1>  -0.1500 
 13 C       -3.4640    -2.2910     1.1790 C.3   1 <1>   0.1200 
 14 C       -4.1060    -2.8470    -1.2280 C.3   1 <1>  -0.0160 
 15 O       -2.1330    -2.6840     1.3540 O.3   1 <1>  -0.5600 
 16 C       -1.2710     4.8430     1.1780 C.ar  1 <1>  -0.1500 
 17 C        1.4880     1.7190    -0.7450 C.3   1 <1>  -0.2400 
 18 C       -5.5500    -3.2230    -0.9320 C.ar  1 <1>  -0.1430 
 19 C       -6.5970    -2.3900    -1.2710 C.ar  1 <1>  -0.1500 
 20 C       -5.8890    -4.4100    -0.3150 C.ar  1 <1>  -0.1500 
 21 C       -7.8960    -2.7710    -0.9790 C.ar  1 <1>   0.1600 
 22 C       -7.2220    -4.6960    -0.0680 C.ar  1 <1>   0.1600 
 23 N       -8.2340    -3.9040    -0.3840 N.ar  1 <1>  -0.6200 
 24 H       -1.7430     0.0520     0.9550 H     1 <1>   0.3700 
 25 H       -1.9400    -1.4000    -1.6270 H     1 <1>   0.0800 
 26 H       -3.4950     2.3320     0.9630 H     1 <1>   0.1500 
 27 H       -4.2590    -0.9220    -0.2990 H     1 <1>   0.0800 
 28 H       -0.4060    -1.9930     0.5380 H     1 <1>   0.0800 
 29 H       -1.2290    -3.2820    -0.3320 H     1 <1>   0.0800 
 30 H        0.5430     4.9710     0.0800 H     1 <1>   0.1500 
 31 H        0.0760     2.2880    -2.2630 H     1 <1>   0.0800 
 32 H        1.1000     3.5750    -1.7360 H     1 <1>   0.0800 
 33 H       -3.1390     4.4570     2.1360 H     1 <1>   0.1500 
 34 H       -4.1070    -3.1280     1.3860 H     1 <1>   0.0800 
 35 H       -3.6640    -1.5060     1.8870 H     1 <1>   0.0800 
 36 H       -3.4850    -3.7240    -1.1740 H     1 <1>   0.0800 
 37 H       -4.0490    -2.4710    -2.2350 H     1 <1>   0.0800 
 38 H       -1.1110     5.7770     1.6890 H     1 <1>   0.1500 
 39 H        0.9520     0.8380    -0.4400 H     1 <1>   0.0800 
 40 H        1.9590     2.1560     0.1180 H     1 <1>   0.0800 
 41 H        2.2500     1.4300    -1.4470 H     1 <1>   0.0800 
 42 H       -6.4140    -1.4500    -1.7580 H     1 <1>   0.1500 
 43 H       -5.1330    -5.1150    -0.0230 H     1 <1>   0.1500 
 44 H       -8.7000    -2.1090    -1.2500 H     1 <1>   0.1500 
 45 H       -7.4680    -5.6260     0.4150 H     1 <1>   0.1500 
@<TRIPOS>BOND
  1   1   2  2   
  2   2   3  am  
  3   2   4  1   
  4   3   5  1   
  5   3  24  1   
  6   4   6  ar  
  7   4   7  ar  
  8   5   8  1   
  9   5   9  1   
 10   5  25  1   
 11   6  10  ar  
 12   6  11  1   
 13   7  12  ar  
 14   7  26  1   
 15   8  13  1   
 16   8  14  1   
 17   8  27  1   
 18   9  15  1   
 19   9  28  1   
 20   9  29  1   
 21  10  16  ar  
 22  10  30  1   
 23  11  17  1   
 24  11  31  1   
 25  11  32  1   
 26  12  16  ar  
 27  12  33  1   
 28  13  15  1   
 29  13  34  1   
 30  13  35  1   
 31  14  18  1   
 32  14  36  1   
 33  14  37  1   
 34  16  38  1   
 35  17  39  1   
 36  17  40  1   
 37  17  41  1   
 38  18  19  ar  
 39  18  20  ar  
 40  19  21  ar  
 41  19  42  1   
 42  20  22  ar  
 43  20  43  1   
 44  21  23  ar  
 45  21  44  1   
 46  22  23  ar  
 47  22  45  1   
@<TRIPOS>SUBSTRUCTURE
  1 ****   3 GROUP 4 **** **** 0

# MOE 2024.06 (io_trps.svl 2023.06)
