@<TRIPOS>MOLECULE
NONAME
60 64 1 0 0 
SMALL
USER_CHARGES


@<TRIPOS>ATOM
  1 O        1.3440     1.0600     0.8080 O.co2 1 <1>  -0.9000 
  2 C        0.9870     2.0520     1.4570 C.2   1 <1>   0.9060 
  3 O        1.1090     2.1120     2.6880 O.co2 1 <1>  -0.9000 
  4 C        0.2870     3.1930     0.7340 C.3   1 <1>   0.0140 
  5 O        1.1900     4.1830     0.2400 O.3   1 <1>  -0.3630 
  6 C        0.7440     5.3390    -0.3000 C.ar  1 <1>   0.0830 
  7 C       -0.5980     5.6220    -0.5300 C.ar  1 <1>  -0.1500 
  8 C        1.7060     6.2780    -0.6220 C.ar  1 <1>  -0.1500 
  9 C       -0.9670     6.8500    -1.0530 C.ar  1 <1>  -0.1500 
 10 C        1.3420     7.5030    -1.1470 C.ar  1 <1>  -0.1500 
 11 C        0.0010     7.8000    -1.3480 C.ar  1 <1>  -0.1440 
 12 C       -0.3860     9.1700    -1.8370 C.3   1 <1>   0.4870 
 13 N       -0.2730    10.0100    -0.6260 N.4   1 <1>  -0.9060 
 14 C       -0.1090    11.4800    -0.8730 C.3   1 <1>   0.4230 
 15 C        0.7760    12.1470     0.1970 C.3   1 <1>   0.1430 
 16 C       -1.4250    12.2500    -1.0250 C.3   1 <1>  -0.0800 
 17 C        2.0470    11.2820     0.3270 C.ar  1 <1>  -0.1430 
 18 C        0.0010    12.2550     1.5340 C.3   1 <1>   0.3430 
 19 C        1.1110    13.5640    -0.3100 C.3   1 <1>   0.1100 
 20 C       -2.2130    12.3470     0.2920 C.3   1 <1>   0.3430 
 21 C       -1.0710    13.6440    -1.5590 C.3   1 <1>   0.1100 
 22 C        2.3680    10.5810     1.4890 C.ar  1 <1>  -0.1500 
 23 C        2.8890    11.1430    -0.7740 C.ar  1 <1>  -0.1500 
 24 N       -1.3920    12.8310     1.4510 N.4   1 <1>  -0.9590 
 25 N       -0.1080    14.3110    -0.6720 N.3   1 <1>  -0.8100 
 26 C        3.4760     9.7540     1.5340 C.ar  1 <1>  -0.1500 
 27 C        4.0010    10.3210    -0.7240 C.ar  1 <1>  -0.1500 
 28 C       -1.3850    14.3420     1.5530 C.3   1 <1>   0.3430 
 29 C       -0.6990    15.1210     0.4090 C.3   1 <1>   0.1100 
 30 C        4.2920     9.6200     0.4280 C.ar  1 <1>  -0.1500 
 31 H       -0.3840     3.6590     1.4270 H     1 <1>   0.0800 
 32 H       -0.2540     2.7850    -0.0970 H     1 <1>   0.0800 
 33 H       -1.3550     4.8930    -0.3060 H     1 <1>   0.1500 
 34 H        2.7400     6.0310    -0.4510 H     1 <1>   0.1500 
 35 H       -2.0130     7.0420    -1.2180 H     1 <1>   0.1500 
 36 H        2.1240     8.2060    -1.3840 H     1 <1>   0.1500 
 37 H       -1.3900     9.1740    -2.2310 H     1 <1>   0.0800 
 38 H        0.3050     9.4910    -2.6000 H     1 <1>   0.0800 
 39 H        0.6090     9.6660    -0.2020 H     1 <1>   0.4500 
 40 H       -1.0050     9.7330     0.0320 H     1 <1>   0.4500 
 41 H        0.4240    11.5870    -1.8040 H     1 <1>   0.0800 
 42 H       -2.0430    11.7730    -1.7650 H     1 <1>   0.0800 
 43 H        0.5890    12.8330     2.2280 H     1 <1>   0.0800 
 44 H       -0.0830    11.2620     1.9420 H     1 <1>   0.0800 
 45 H        1.7290    13.5130    -1.1890 H     1 <1>   0.0800 
 46 H        1.6750    14.1070     0.4310 H     1 <1>   0.0800 
 47 H       -2.6030    11.3700     0.5280 H     1 <1>   0.0800 
 48 H       -3.0600    13.0010     0.1520 H     1 <1>   0.0800 
 49 H       -1.9550    14.2520    -1.6700 H     1 <1>   0.0800 
 50 H       -0.6250    13.5570    -2.5370 H     1 <1>   0.0800 
 51 H        1.7930    10.6380     2.3960 H     1 <1>   0.1500 
 52 H        2.7130    11.6640    -1.6990 H     1 <1>   0.1500 
 53 H       -1.8860    12.5350     2.3080 H     1 <1>   0.4500 
 54 H        3.7140     9.2100     2.4340 H     1 <1>   0.1500 
 55 H        4.6490    10.2270    -1.5810 H     1 <1>   0.1500 
 56 H       -0.9050    14.6290     2.4750 H     1 <1>   0.0800 
 57 H       -2.4020    14.6940     1.6230 H     1 <1>   0.0800 
 58 H       -1.4180    15.7990    -0.0200 H     1 <1>   0.0800 
 59 H        0.0700    15.7440     0.8340 H     1 <1>   0.0800 
 60 H        5.1560     8.9770     0.4690 H     1 <1>   0.1500 
@<TRIPOS>BOND
  1   1   2  ar  
  2   2   3  ar  
  3   2   4  1   
  4   4   5  1   
  5   4  31  1   
  6   4  32  1   
  7   5   6  1   
  8   6   7  ar  
  9   6   8  ar  
 10   7   9  ar  
 11   7  33  1   
 12   8  10  ar  
 13   8  34  1   
 14   9  11  ar  
 15   9  35  1   
 16  10  11  ar  
 17  10  36  1   
 18  11  12  1   
 19  12  13  1   
 20  12  37  1   
 21  12  38  1   
 22  13  14  1   
 23  13  39  1   
 24  13  40  1   
 25  14  15  1   
 26  14  16  1   
 27  14  41  1   
 28  15  17  1   
 29  15  18  1   
 30  15  19  1   
 31  16  20  1   
 32  16  21  1   
 33  16  42  1   
 34  17  22  ar  
 35  17  23  ar  
 36  18  24  1   
 37  18  43  1   
 38  18  44  1   
 39  19  25  1   
 40  19  45  1   
 41  19  46  1   
 42  20  24  1   
 43  20  47  1   
 44  20  48  1   
 45  21  25  1   
 46  21  49  1   
 47  21  50  1   
 48  22  26  ar  
 49  22  51  1   
 50  23  27  ar  
 51  23  52  1   
 52  24  28  1   
 53  24  53  1   
 54  25  29  1   
 55  26  30  ar  
 56  26  54  1   
 57  27  30  ar  
 58  27  55  1   
 59  28  29  1   
 60  28  56  1   
 61  28  57  1   
 62  29  58  1   
 63  29  59  1   
 64  30  60  1   
@<TRIPOS>SUBSTRUCTURE
  1 ****  13 GROUP 4 **** **** 0

# MOE 2024.06 (io_trps.svl 2023.06)
