@<TRIPOS>MOLECULE
NONAME
35 35 1 0 0 
SMALL
USER_CHARGES


@<TRIPOS>ATOM
  1 O        0.0210     0.0830    -0.6700 O.2   1 <1>  -0.5700 
  2 C        0.0450    -1.0870    -0.3880 C.2   1 <1>   0.6590 
  3 O        1.1740    -1.7220    -0.1280 O.3   1 <1>  -0.4300 
  4 C       -1.2130    -1.9300    -0.2970 C.3   1 <1>  -0.0990 
  5 C        2.4110    -1.0470    -0.1810 C.3   1 <1>   0.2640 
  6 C       -2.4460    -1.2590    -0.9300 C.3   1 <1>  -0.0990 
  7 C        3.5140    -2.0250     0.1890 C.ar  1 <1>  -0.1440 
  8 C       -3.6660    -2.1460    -0.8320 C.2   1 <1>   0.5690 
  9 C        3.8670    -3.0390    -0.6890 C.ar  1 <1>  -0.1500 
 10 C        4.1780    -1.9140     1.4010 C.ar  1 <1>  -0.1500 
 11 O       -3.7200    -3.1470    -1.5030 O.2   1 <1>  -0.5700 
 12 N       -4.6620    -1.8030     0.0100 N.am  1 <1>  -0.7300 
 13 C        4.8750    -3.9290    -0.3610 C.ar  1 <1>  -0.1500 
 14 C        5.1860    -2.8030     1.7300 C.ar  1 <1>  -0.1500 
 15 C       -5.8810    -2.5630     0.1750 C.3   1 <1>   0.4200 
 16 C        5.5360    -3.8110     0.8490 C.ar  1 <1>  -0.1500 
 17 O       -6.6020    -1.8410     1.1050 O.3   1 <1>  -0.5600 
 18 C       -7.8370    -2.4030     1.4080 C.3   1 <1>   0.0400 
 19 H       -1.4050    -2.1370     0.7390 H     1 <1>   0.0800 
 20 H       -1.0270    -2.8660    -0.7930 H     1 <1>   0.0800 
 21 H        2.3770    -0.2200     0.5080 H     1 <1>   0.0800 
 22 H        2.5530    -0.6740    -1.1800 H     1 <1>   0.0800 
 23 H       -2.2540    -1.0610    -1.9690 H     1 <1>   0.0800 
 24 H       -2.6410    -0.3190    -0.4450 H     1 <1>   0.0800 
 25 H        3.3540    -3.1400    -1.6290 H     1 <1>   0.1500 
 26 H        3.9130    -1.1360     2.0960 H     1 <1>   0.1500 
 27 H       -4.6520    -0.9570     0.5780 H     1 <1>   0.3700 
 28 H        5.1440    -4.7140    -1.0460 H     1 <1>   0.1500 
 29 H        5.6980    -2.7120     2.6720 H     1 <1>   0.1500 
 30 H       -5.6730    -3.5480     0.5580 H     1 <1>   0.0800 
 31 H       -6.4300    -2.6150    -0.7520 H     1 <1>   0.0800 
 32 H        6.3200    -4.5030     1.1050 H     1 <1>   0.1500 
 33 H       -8.3210    -1.7750     2.1360 H     1 <1>   0.0800 
 34 H       -7.6910    -3.3870     1.8190 H     1 <1>   0.0800 
 35 H       -8.4370    -2.4490     0.5150 H     1 <1>   0.0800 
@<TRIPOS>BOND
  1   1   2  2   
  2   2   3  1   
  3   2   4  1   
  4   3   5  1   
  5   4   6  1   
  6   4  19  1   
  7   4  20  1   
  8   5   7  1   
  9   5  21  1   
 10   5  22  1   
 11   6   8  1   
 12   6  23  1   
 13   6  24  1   
 14   7   9  ar  
 15   7  10  ar  
 16   8  11  2   
 17   8  12  am  
 18   9  13  ar  
 19   9  25  1   
 20  10  14  ar  
 21  10  26  1   
 22  12  15  1   
 23  12  27  1   
 24  13  16  ar  
 25  13  28  1   
 26  14  16  ar  
 27  14  29  1   
 28  15  17  1   
 29  15  30  1   
 30  15  31  1   
 31  16  32  1   
 32  17  18  1   
 33  18  33  1   
 34  18  34  1   
 35  18  35  1   
@<TRIPOS>SUBSTRUCTURE
  1 ****   4 GROUP 4 **** **** 0

# MOE 2024.06 (io_trps.svl 2023.06)
