@<TRIPOS>MOLECULE
NONAME
35 36 1 0 0 
SMALL
USER_CHARGES


@<TRIPOS>ATOM
  1 F        0.3220    -0.1920     1.5000 F     1 <1>  -0.1900 
  2 C        1.2990    -0.8920     0.9930 C.ar  1 <1>   0.1900 
  3 C        1.3140    -2.2560     1.1890 C.ar  1 <1>  -0.1500 
  4 C        2.2810    -0.2390     0.2770 C.ar  1 <1>  -0.1500 
  5 C        2.3470    -3.0230     0.6540 C.ar  1 <1>   0.0860 
  6 C        3.3130    -0.9890    -0.2590 C.ar  1 <1>  -0.1500 
  7 C        3.3500    -2.3650    -0.0760 C.ar  1 <1>  -0.1440 
  8 C        2.3480    -4.4590     0.8620 C.2   1 <1>   0.5440 
  9 C        4.5000    -3.1620    -0.6790 C.3   1 <1>  -0.0960 
 10 O        3.1620    -4.9520     1.6210 O.2   1 <1>  -0.5700 
 11 N        1.4450    -5.2760     0.2210 N.am  1 <1>  -0.6600 
 12 C        1.3230    -6.7310     0.5820 C.3   1 <1>   0.1400 
 13 C        0.4940    -4.8160    -0.8280 C.3   1 <1>   0.1400 
 14 C       -0.0820    -7.3170     0.3170 C.3   1 <1>   0.2000 
 15 C       -0.9570    -5.0010    -0.3560 C.3   1 <1>  -0.1600 
 16 O       -0.1670    -7.7780    -0.9880 O.3   1 <1>  -0.6800 
 17 C       -1.1750    -6.2600     0.5260 C.3   1 <1>  -0.1860 
 18 C       -2.5470    -6.8770     0.3390 C.2   1 <1>   0.9060 
 19 O       -3.3820    -6.7540     1.2370 O.co2 1 <1>  -0.9000 
 20 O       -2.7760    -7.5000    -0.7080 O.co2 1 <1>  -0.9000 
 21 H        0.5310    -2.7300     1.7540 H     1 <1>   0.1500 
 22 H        2.2380     0.8280     0.1460 H     1 <1>   0.1500 
 23 H        4.0880    -0.4940    -0.8180 H     1 <1>   0.1500 
 24 H        5.1470    -2.5350    -1.2640 H     1 <1>   0.0800 
 25 H        4.1170    -3.9420    -1.3130 H     1 <1>   0.0800 
 26 H        5.0820    -3.6140     0.1060 H     1 <1>   0.0800 
 27 H        2.0600    -7.3020     0.0460 H     1 <1>   0.0800 
 28 H        1.5270    -6.8330     1.6330 H     1 <1>   0.0800 
 29 H        0.6660    -3.7900    -1.1000 H     1 <1>   0.0800 
 30 H        0.6540    -5.4150    -1.7090 H     1 <1>   0.0800 
 31 H       -0.2560    -8.1630     0.9600 H     1 <1>   0.0800 
 32 H       -1.2770    -4.1320     0.1910 H     1 <1>   0.0800 
 33 H       -1.5800    -5.0700    -1.2310 H     1 <1>   0.0800 
 34 H       -1.1500    -7.8440    -1.1800 H     1 <1>   0.4000 
 35 H       -1.1160    -5.9520     1.5530 H     1 <1>   0.0800 
@<TRIPOS>BOND
  1   1   2  1   
  2   2   3  ar  
  3   2   4  ar  
  4   3   5  ar  
  5   3  21  1   
  6   4   6  ar  
  7   4  22  1   
  8   5   7  ar  
  9   5   8  1   
 10   6   7  ar  
 11   6  23  1   
 12   7   9  1   
 13   8  10  2   
 14   8  11  am  
 15   9  24  1   
 16   9  25  1   
 17   9  26  1   
 18  11  12  1   
 19  11  13  1   
 20  12  14  1   
 21  12  27  1   
 22  12  28  1   
 23  13  15  1   
 24  13  29  1   
 25  13  30  1   
 26  14  16  1   
 27  14  17  1   
 28  14  31  1   
 29  15  17  1   
 30  15  32  1   
 31  15  33  1   
 32  16  34  1   
 33  17  18  1   
 34  17  35  1   
 35  18  19  ar  
 36  18  20  ar  
@<TRIPOS>SUBSTRUCTURE
  1 ****  11 GROUP 4 **** **** 0

# MOE 2024.06 (io_trps.svl 2023.06)
