@<TRIPOS>MOLECULE
NONAME
44 45 1 0 0 
SMALL
USER_CHARGES


@<TRIPOS>ATOM
  1 S       -0.5050    -0.3450    -0.6120 S.o2  1 <1>   1.3330 
  2 O        0.7000     0.3690    -0.9460 O.2   1 <1>  -0.6500 
  3 O       -0.8700    -1.5460    -1.3160 O.2   1 <1>  -0.6500 
  4 N       -0.2470    -0.8710     0.9350 N.am  1 <1>  -0.9780 
  5 C       -1.8910     0.7920    -0.4810 C.3   1 <1>  -0.0550 
  6 C       -3.1790     0.1570     0.0730 C.3   1 <1>  -0.1600 
  7 C       -4.3410     1.1690     0.1200 C.3   1 <1>  -0.0990 
  8 C       -5.6490     0.5960     0.6610 C.2   1 <1>   0.5690 
  9 O       -5.6480    -0.5390     1.0770 O.2   1 <1>  -0.5700 
 10 N       -6.7880     1.3610     0.6620 N.am  1 <1>  -0.6600 
 11 C       -8.0970     0.7890     1.1030 C.3   1 <1>   0.1400 
 12 C       -6.9000     2.7690     0.1910 C.3   1 <1>   0.1400 
 13 C       -9.1200     0.7950    -0.0610 C.3   1 <1>   0.0000 
 14 C       -7.8920     2.8430    -0.9760 C.3   1 <1>  -0.1600 
 15 C      -10.4870     0.2190     0.3630 C.3   1 <1>   0.2000 
 16 C       -9.2570     2.2340    -0.6070 C.3   1 <1>  -0.1600 
 17 C       -8.6950    -0.2010    -1.1540 C.3   1 <1>  -0.1600 
 18 O      -10.8390     0.5530     1.6600 O.3   1 <1>  -0.6800 
 19 C      -10.3930    -1.3020     0.2180 C.3   1 <1>  -0.1600 
 20 C       -9.1640    -1.5710    -0.6590 C.3   1 <1>  -0.1600 
 21 H        0.7660    -0.9400     0.9990 H     1 <1>   0.4200 
 22 H       -0.5910    -1.8290     0.9240 H     1 <1>   0.4200 
 23 H       -1.6060     1.6090     0.1530 H     1 <1>   0.0800 
 24 H       -2.0940     1.1930    -1.4560 H     1 <1>   0.0800 
 25 H       -3.4620    -0.6780    -0.5470 H     1 <1>   0.0800 
 26 H       -2.9950    -0.2180     1.0660 H     1 <1>   0.0800 
 27 H       -4.5240     1.5310    -0.8740 H     1 <1>   0.0800 
 28 H       -4.0610     1.9980     0.7430 H     1 <1>   0.0800 
 29 H       -7.9680    -0.2120     1.4750 H     1 <1>   0.0800 
 30 H       -8.4660     1.3910     1.9150 H     1 <1>   0.0800 
 31 H       -7.2570     3.3780     1.0050 H     1 <1>   0.0800 
 32 H       -5.9480     3.1590    -0.1180 H     1 <1>   0.0800 
 33 H       -8.0260     3.8710    -1.2610 H     1 <1>   0.0800 
 34 H       -7.4750     2.3230    -1.8210 H     1 <1>   0.0800 
 35 H      -11.2560     0.5940    -0.2920 H     1 <1>   0.0800 
 36 H       -9.9010     2.2460    -1.4690 H     1 <1>   0.0800 
 37 H       -9.7180     2.8470     0.1490 H     1 <1>   0.0800 
 38 H       -9.2080     0.0270    -2.0730 H     1 <1>   0.0800 
 39 H       -7.6360    -0.1940    -1.3460 H     1 <1>   0.0800 
 40 H      -10.2890     0.0530     2.2910 H     1 <1>   0.4000 
 41 H      -10.2750    -1.7890     1.1700 H     1 <1>   0.0800 
 42 H      -11.2820    -1.6720    -0.2620 H     1 <1>   0.0800 
 43 H       -8.3860    -2.0200    -0.0630 H     1 <1>   0.0800 
 44 H       -9.3920    -2.2290    -1.4800 H     1 <1>   0.0800 
@<TRIPOS>BOND
  1   1   2  2   
  2   1   3  2   
  3   1   4  am  
  4   1   5  1   
  5   4  21  1   
  6   4  22  1   
  7   5   6  1   
  8   5  23  1   
  9   5  24  1   
 10   6   7  1   
 11   6  25  1   
 12   6  26  1   
 13   7   8  1   
 14   7  27  1   
 15   7  28  1   
 16   8   9  2   
 17   8  10  am  
 18  10  11  1   
 19  10  12  1   
 20  11  13  1   
 21  11  29  1   
 22  11  30  1   
 23  12  14  1   
 24  12  31  1   
 25  12  32  1   
 26  13  15  1   
 27  13  16  1   
 28  13  17  1   
 29  14  16  1   
 30  14  33  1   
 31  14  34  1   
 32  15  18  1   
 33  15  19  1   
 34  15  35  1   
 35  16  36  1   
 36  16  37  1   
 37  17  20  1   
 38  17  38  1   
 39  17  39  1   
 40  18  40  1   
 41  19  20  1   
 42  19  41  1   
 43  19  42  1   
 44  20  43  1   
 45  20  44  1   
@<TRIPOS>SUBSTRUCTURE
  1 ****   8 GROUP 4 **** **** 0

# MOE 2024.06 (io_trps.svl 2023.06)
