@<TRIPOS>MOLECULE
NONAME
32 33 1 0 0 
SMALL
USER_CHARGES


@<TRIPOS>ATOM
  1 O        1.4620     0.8850    -1.3050 O.2   1 <1>  -0.5700 
  2 C        1.7650     0.0330    -0.5030 C.2   1 <1>   0.5690 
  3 N        2.9530     0.0600     0.1680 N.am  1 <1>  -0.4930 
  4 C        0.7980    -1.1430    -0.2510 C.3   1 <1>   0.3410 
  5 C        4.0330     0.9570     0.1580 C.2   1 <1>   0.3520 
  6 O        1.2950    -1.8990     0.8490 O.3   1 <1>  -0.2170 
  7 C        0.8410    -2.1530    -1.4050 C.3   1 <1>  -0.0990 
  8 C       -0.6280    -0.6910     0.0970 C.3   1 <1>  -0.2400 
  9 N        5.0800     0.6880     0.8340 N.2   1 <1>  -0.4100 
 10 C        4.2300     2.1940    -0.4820 C.2   1 <1>   0.3520 
 11 N        1.8680    -3.0220     0.4600 N.2   1 <1>  -0.5130 
 12 C        1.6530    -3.2280    -0.7560 C.2   1 <1>   0.3280 
 13 O        5.8660     1.6980     0.6160 O.3   1 <1>   0.2420 
 14 N        5.3930     2.6190    -0.1660 N.2   1 <1>  -0.4100 
 15 N        3.3370     2.8780    -1.3270 N.am  1 <1>  -0.4930 
 16 C        2.1280    -4.4130    -1.5650 C.3   1 <1>  -0.1790 
 17 C        3.3910     4.0810    -1.9480 C.2   1 <1>   0.5690 
 18 O        2.4710     4.4360    -2.6400 O.2   1 <1>  -0.5700 
 19 C        4.5730     5.0120    -1.8030 C.3   1 <1>  -0.1790 
 20 H        3.1030    -0.7470     0.7850 H     1 <1>   0.3700 
 21 H        1.3230    -1.7510    -2.2780 H     1 <1>   0.0800 
 22 H       -0.1370    -2.5180    -1.6600 H     1 <1>   0.0800 
 23 H       -0.6070    -0.0250     0.9410 H     1 <1>   0.0800 
 24 H       -1.2460    -1.5390     0.3310 H     1 <1>   0.0800 
 25 H       -1.0610    -0.1660    -0.7360 H     1 <1>   0.0800 
 26 H        2.4660     2.3670    -1.5250 H     1 <1>   0.3700 
 27 H        1.2860    -4.9450    -1.9670 H     1 <1>   0.0800 
 28 H        2.6910    -5.0800    -0.9370 H     1 <1>   0.0800 
 29 H        2.7580    -4.0810    -2.3700 H     1 <1>   0.0800 
 30 H        5.4570     4.5400    -2.1870 H     1 <1>   0.0800 
 31 H        4.7170     5.2610    -0.7690 H     1 <1>   0.0800 
 32 H        4.3950     5.9160    -2.3560 H     1 <1>   0.0800 
@<TRIPOS>BOND
  1   1   2  2   
  2   2   3  am  
  3   2   4  1   
  4   3   5  1   
  5   3  20  1   
  6   4   6  1   
  7   4   7  1   
  8   4   8  1   
  9   5   9  2   
 10   5  10  1   
 11   6  11  1   
 12   7  12  1   
 13   7  21  1   
 14   7  22  1   
 15   8  23  1   
 16   8  24  1   
 17   8  25  1   
 18   9  13  1   
 19  10  14  2   
 20  10  15  1   
 21  11  12  2   
 22  12  16  1   
 23  13  14  1   
 24  15  17  am  
 25  15  26  1   
 26  16  27  1   
 27  16  28  1   
 28  16  29  1   
 29  17  18  2   
 30  17  19  1   
 31  19  30  1   
 32  19  31  1   
 33  19  32  1   
@<TRIPOS>SUBSTRUCTURE
  1 ****   3 GROUP 4 **** **** 0

# MOE 2024.06 (io_trps.svl 2023.06)
