@<TRIPOS>MOLECULE
NONAME
42 44 1 0 0 
SMALL
USER_CHARGES


@<TRIPOS>ATOM
  1 O        0.3160     0.6250     0.8100 O.co2 1 <1>  -0.9000 
  2 C        1.4980     0.3190     0.9590 C.2   1 <1>   0.9060 
  3 O        1.9040    -0.2180     2.0020 O.co2 1 <1>  -0.9000 
  4 C        2.4740     0.5450    -0.2100 C.3   1 <1>  -0.1060 
  5 C        3.9070     0.1690     0.2100 C.3   1 <1>   0.4230 
  6 C        2.4120     2.0520    -0.6180 C.3   1 <1>  -0.1600 
  7 C        2.1030    -0.3800    -1.3920 C.3   1 <1>  -0.1600 
  8 N        3.9590    -1.2410     0.7230 N.4   1 <1>  -0.9590 
  9 C        4.4690     1.2940     1.1020 C.3   1 <1>   0.2090 
 10 C        3.7720     2.7190    -0.8870 C.3   1 <1>   0.2090 
 11 C        2.2250    -1.8580    -0.9730 C.3   1 <1>  -0.1600 
 12 C        3.5820    -2.2060    -0.3450 C.3   1 <1>   0.3430 
 13 C        5.2310    -1.6020     1.3980 C.3   1 <1>   0.2630 
 14 N        4.7610     2.4720     0.2150 N.pl3 1 <1>  -0.8380 
 15 C        6.0750     2.6840    -0.1280 C.ar  1 <1>   0.4100 
 16 N        6.7940     1.6200    -0.4770 N.ar  1 <1>  -0.6200 
 17 C        6.5850     3.9780    -0.1190 C.ar  1 <1>  -0.1500 
 18 C        8.0480     1.8660    -0.8260 C.ar  1 <1>   0.1600 
 19 C        7.8900     4.2110    -0.4840 C.ar  1 <1>  -0.1500 
 20 C        8.6560     3.1160    -0.8530 C.ar  1 <1>   0.0730 
 21 C       10.0240     3.2540    -1.2500 C.1   1 <1>   0.4840 
 22 N       11.1140     3.3530    -1.5680 N.1   1 <1>  -0.5570 
 23 H        4.5200     0.1940    -0.6740 H     1 <1>   0.0800 
 24 H        1.9520     2.6140     0.1790 H     1 <1>   0.0800 
 25 H        1.7710     2.1800    -1.4720 H     1 <1>   0.0800 
 26 H        1.0880    -0.1820    -1.6990 H     1 <1>   0.0800 
 27 H        2.7490    -0.1830    -2.2310 H     1 <1>   0.0800 
 28 H        3.1790    -1.2220     1.4360 H     1 <1>   0.4500 
 29 H        5.3750     0.9890     1.5900 H     1 <1>   0.0800 
 30 H        3.7560     1.5780     1.8570 H     1 <1>   0.0800 
 31 H        3.6310     3.7800    -0.9990 H     1 <1>   0.0800 
 32 H        4.1750     2.3400    -1.8120 H     1 <1>   0.0800 
 33 H        2.0630    -2.4850    -1.8310 H     1 <1>   0.0800 
 34 H        1.4480    -2.0940    -0.2630 H     1 <1>   0.0800 
 35 H        4.3370    -2.1910    -1.1150 H     1 <1>   0.0800 
 36 H        3.5360    -3.2020     0.0640 H     1 <1>   0.0800 
 37 H        6.0610    -1.4740     0.7230 H     1 <1>   0.0800 
 38 H        5.1970    -2.6270     1.7280 H     1 <1>   0.0800 
 39 H        5.3830    -0.9750     2.2610 H     1 <1>   0.0800 
 40 H        5.9390     4.7820     0.1810 H     1 <1>   0.1500 
 41 H        8.6410     1.0140    -1.1140 H     1 <1>   0.1500 
 42 H        8.3040     5.2060    -0.4820 H     1 <1>   0.1500 
@<TRIPOS>BOND
  1   1   2  ar  
  2   2   3  ar  
  3   2   4  1   
  4   4   5  1   
  5   4   6  1   
  6   4   7  1   
  7   5   8  1   
  8   5   9  1   
  9   5  23  1   
 10   6  10  1   
 11   6  24  1   
 12   6  25  1   
 13   7  11  1   
 14   7  26  1   
 15   7  27  1   
 16   8  12  1   
 17   8  13  1   
 18   8  28  1   
 19   9  14  1   
 20   9  29  1   
 21   9  30  1   
 22  10  14  1   
 23  10  31  1   
 24  10  32  1   
 25  11  12  1   
 26  11  33  1   
 27  11  34  1   
 28  12  35  1   
 29  12  36  1   
 30  13  37  1   
 31  13  38  1   
 32  13  39  1   
 33  14  15  1   
 34  15  16  ar  
 35  15  17  ar  
 36  16  18  ar  
 37  17  19  ar  
 38  17  40  1   
 39  18  20  ar  
 40  18  41  1   
 41  19  20  ar  
 42  19  42  1   
 43  20  21  1   
 44  21  22  3   
@<TRIPOS>SUBSTRUCTURE
  1 ****   9 GROUP 4 **** **** 0

# MOE 2024.06 (io_trps.svl 2023.06)
