@<TRIPOS>MOLECULE
NONAME
50 53 1 0 0 
SMALL
USER_CHARGES


@<TRIPOS>ATOM
  1 O        0.3020    -0.7370     1.3220 O.3   1 <1>  -0.2170 
  2 N        0.4610     0.4870     0.8820 N.2   1 <1>  -0.5130 
  3 C        1.4930    -1.4830     1.2930 C.3   1 <1>   0.2000 
  4 C        1.6900     0.7750     0.7540 C.2   1 <1>   0.3030 
  5 C        2.5570    -0.4040     1.1160 C.3   1 <1>  -0.0990 
  6 C        1.4330    -2.4820     0.1130 C.3   1 <1>   0.3430 
  7 C        2.2550     2.0340     0.3120 C.ar  1 <1>   0.0860 
  8 N        0.0970    -3.1470    -0.0560 N.4   1 <1>  -0.9590 
  9 C        1.4210     3.0710    -0.1110 C.ar  1 <1>  -0.1500 
 10 C        3.6320     2.2760     0.2830 C.ar  1 <1>  -0.1500 
 11 C        0.1840    -4.5430    -0.5770 C.3   1 <1>   0.3430 
 12 C       -0.8770    -2.3270    -0.8310 C.3   1 <1>   0.3430 
 13 C        1.9280     4.2810    -0.5490 C.ar  1 <1>  -0.1500 
 14 C        4.1450     3.4840    -0.1540 C.ar  1 <1>  -0.1500 
 15 C       -1.2040    -5.1010    -0.9240 C.3   1 <1>  -0.1600 
 16 C       -2.2910    -2.8600    -0.5850 C.3   1 <1>  -0.1600 
 17 C        3.2940     4.4890    -0.5720 C.ar  1 <1>  -0.1500 
 18 C       -2.3420    -4.3530    -0.2150 C.3   1 <1>   0.4240 
 19 O       -2.0850    -4.4590     1.1370 O.3   1 <1>  -0.6800 
 20 C       -3.7490    -4.9250    -0.4260 C.ar  1 <1>  -0.1440 
 21 C       -4.8070    -4.4140     0.3220 C.ar  1 <1>  -0.1500 
 22 C       -4.0230    -5.9370    -1.3420 C.ar  1 <1>  -0.1500 
 23 C       -6.0930    -4.9000     0.1660 C.ar  1 <1>  -0.1500 
 24 C       -5.3090    -6.4240    -1.4990 C.ar  1 <1>  -0.1500 
 25 C       -6.3450    -5.9070    -0.7450 C.ar  1 <1>  -0.1500 
 26 H        1.5940    -1.9930     2.2350 H     1 <1>   0.0800 
 27 H        3.2630    -0.6440     0.3430 H     1 <1>   0.0800 
 28 H        3.0680    -0.2180     2.0430 H     1 <1>   0.0800 
 29 H        2.1920    -3.2290     0.2740 H     1 <1>   0.0800 
 30 H        1.6840    -1.9600    -0.7950 H     1 <1>   0.0800 
 31 H       -0.3510    -3.2360     0.8780 H     1 <1>   0.4500 
 32 H        0.3540     2.9290    -0.0950 H     1 <1>   0.1500 
 33 H        4.3250     1.5220     0.6060 H     1 <1>   0.1500 
 34 H        0.6290    -5.1690     0.1800 H     1 <1>   0.0800 
 35 H        0.8110    -4.5770    -1.4530 H     1 <1>   0.0800 
 36 H       -0.6410    -2.3890    -1.8810 H     1 <1>   0.0800 
 37 H       -0.8320    -1.2900    -0.5380 H     1 <1>   0.0800 
 38 H        1.2600     5.0620    -0.8700 H     1 <1>   0.1500 
 39 H        5.2100     3.6460    -0.1690 H     1 <1>   0.1500 
 40 H       -1.2370    -6.1470    -0.6780 H     1 <1>   0.0800 
 41 H       -1.3440    -5.0200    -1.9870 H     1 <1>   0.0800 
 42 H       -2.8560    -2.7030    -1.4870 H     1 <1>   0.0800 
 43 H       -2.7660    -2.2750     0.1820 H     1 <1>   0.0800 
 44 H        3.6920     5.4310    -0.9130 H     1 <1>   0.1500 
 45 H       -2.7880    -5.0280     1.5190 H     1 <1>   0.4000 
 46 H       -4.6420    -3.6260     1.0370 H     1 <1>   0.1500 
 47 H       -3.2540    -6.3720    -1.9540 H     1 <1>   0.1500 
 48 H       -6.8990    -4.4930     0.7530 H     1 <1>   0.1500 
 49 H       -5.5070    -7.2080    -2.2100 H     1 <1>   0.1500 
 50 H       -7.3450    -6.2870    -0.8680 H     1 <1>   0.1500 
@<TRIPOS>BOND
  1   1   2  1   
  2   1   3  1   
  3   2   4  2   
  4   3   5  1   
  5   3   6  1   
  6   3  26  1   
  7   4   5  1   
  8   4   7  1   
  9   5  27  1   
 10   5  28  1   
 11   6   8  1   
 12   6  29  1   
 13   6  30  1   
 14   7   9  ar  
 15   7  10  ar  
 16   8  11  1   
 17   8  12  1   
 18   8  31  1   
 19   9  13  ar  
 20   9  32  1   
 21  10  14  ar  
 22  10  33  1   
 23  11  15  1   
 24  11  34  1   
 25  11  35  1   
 26  12  16  1   
 27  12  36  1   
 28  12  37  1   
 29  13  17  ar  
 30  13  38  1   
 31  14  17  ar  
 32  14  39  1   
 33  15  18  1   
 34  15  40  1   
 35  15  41  1   
 36  16  18  1   
 37  16  42  1   
 38  16  43  1   
 39  17  44  1   
 40  18  19  1   
 41  18  20  1   
 42  19  45  1   
 43  20  21  ar  
 44  20  22  ar  
 45  21  23  ar  
 46  21  46  1   
 47  22  24  ar  
 48  22  47  1   
 49  23  25  ar  
 50  23  48  1   
 51  24  25  ar  
 52  24  49  1   
 53  25  50  1   
@<TRIPOS>SUBSTRUCTURE
  1 ****  12 GROUP 4 **** **** 0

# MOE 2024.06 (io_trps.svl 2023.06)
