@<TRIPOS>MOLECULE
NONAME
48 50 1 0 0 
SMALL
USER_CHARGES


@<TRIPOS>ATOM
  1 O       -3.5660     2.3840    -1.2570 O.2   1 <1>  -0.5700 
  2 C       -3.0030     1.4920    -0.6620 C.2   1 <1>   0.5690 
  3 N       -3.4870     0.2060    -0.7250 N.am  1 <1>  -0.6600 
  4 C       -1.7540     1.8790     0.1480 C.3   1 <1>  -0.0190 
  5 C       -2.8400    -0.9740    -0.0430 C.3   1 <1>   0.3640 
  6 C       -4.7730    -0.0230    -1.4570 C.3   1 <1>   0.1400 
  7 C       -2.0330     3.0630     1.0990 C.3   1 <1>  -0.1600 
  8 C       -0.5720     2.2120    -0.7850 C.3   1 <1>  -0.1600 
  9 C       -1.4670    -1.2340    -0.6720 C.ar  1 <1>  -0.1440 
 10 C       -3.6500    -2.3100    -0.0370 C.3   1 <1>   0.2000 
 11 C       -5.0880    -1.5000    -1.6910 C.3   1 <1>   0.1200 
 12 C       -0.7810     3.4450     1.9040 C.3   1 <1>  -0.1600 
 13 C        0.6860     2.5920     0.0120 C.3   1 <1>  -0.1600 
 14 C       -1.2970    -1.2510    -2.0510 C.ar  1 <1>  -0.1500 
 15 C       -0.3640    -1.4600     0.1410 C.ar  1 <1>  -0.1500 
 16 O       -4.9700    -2.1820    -0.4880 O.3   1 <1>  -0.5600 
 17 C       -3.7310    -2.9330     1.3640 C.3   1 <1>   0.1200 
 18 C        0.3950     3.7490     0.9710 C.3   1 <1>   0.2000 
 19 C       -0.0510    -1.4870    -2.6050 C.ar  1 <1>  -0.1500 
 20 C        0.8830    -1.6940    -0.4110 C.ar  1 <1>  -0.1500 
 21 O       -2.4600    -3.1600     1.8860 O.3   1 <1>  -0.6800 
 22 O        1.5140     3.9610     1.7430 O.3   1 <1>  -0.6800 
 23 C        1.0400    -1.7080    -1.7850 C.ar  1 <1>  -0.1500 
 24 H       -1.4540     1.0610     0.7690 H     1 <1>   0.0800 
 25 H       -2.6900    -0.6990     0.9860 H     1 <1>   0.0800 
 26 H       -5.5740     0.4160    -0.8880 H     1 <1>   0.0800 
 27 H       -4.7370     0.4810    -2.4070 H     1 <1>   0.0800 
 28 H       -2.3580     3.9140     0.5240 H     1 <1>   0.0800 
 29 H       -2.8310     2.8020     1.7730 H     1 <1>   0.0800 
 30 H       -0.3530     1.3650    -1.4100 H     1 <1>   0.0800 
 31 H       -0.8490     3.0300    -1.4290 H     1 <1>   0.0800 
 32 H       -3.1720    -3.0170    -0.6920 H     1 <1>   0.0800 
 33 H       -4.4240    -1.9350    -2.4180 H     1 <1>   0.0800 
 34 H       -6.1010    -1.6100    -2.0370 H     1 <1>   0.0800 
 35 H       -0.5250     2.6320     2.5600 H     1 <1>   0.0800 
 36 H       -0.9950     4.3150     2.5000 H     1 <1>   0.0800 
 37 H        1.4640     2.8820    -0.6720 H     1 <1>   0.0800 
 38 H        1.0180     1.7310     0.5650 H     1 <1>   0.0800 
 39 H       -2.1350    -1.0720    -2.7020 H     1 <1>   0.1500 
 40 H       -0.4690    -1.4550     1.2130 H     1 <1>   0.1500 
 41 H       -4.2530    -3.8730     1.3290 H     1 <1>   0.0800 
 42 H       -4.2440    -2.2650     2.0340 H     1 <1>   0.0800 
 43 H        0.2020     4.6520     0.4150 H     1 <1>   0.0800 
 44 H        0.0690    -1.4950    -3.6740 H     1 <1>   0.1500 
 45 H        1.7310    -1.8670     0.2280 H     1 <1>   0.1500 
 46 H       -2.0100    -3.8840     1.4040 H     1 <1>   0.4000 
 47 H        1.7250     3.1540     2.2460 H     1 <1>   0.4000 
 48 H        2.0100    -1.8900    -2.2160 H     1 <1>   0.1500 
@<TRIPOS>BOND
  1   1   2  2   
  2   2   3  am  
  3   2   4  1   
  4   3   5  1   
  5   3   6  1   
  6   4   7  1   
  7   4   8  1   
  8   4  24  1   
  9   5   9  1   
 10   5  10  1   
 11   5  25  1   
 12   6  11  1   
 13   6  26  1   
 14   6  27  1   
 15   7  12  1   
 16   7  28  1   
 17   7  29  1   
 18   8  13  1   
 19   8  30  1   
 20   8  31  1   
 21   9  14  ar  
 22   9  15  ar  
 23  10  16  1   
 24  10  17  1   
 25  10  32  1   
 26  11  16  1   
 27  11  33  1   
 28  11  34  1   
 29  12  18  1   
 30  12  35  1   
 31  12  36  1   
 32  13  18  1   
 33  13  37  1   
 34  13  38  1   
 35  14  19  ar  
 36  14  39  1   
 37  15  20  ar  
 38  15  40  1   
 39  17  21  1   
 40  17  41  1   
 41  17  42  1   
 42  18  22  1   
 43  18  43  1   
 44  19  23  ar  
 45  19  44  1   
 46  20  23  ar  
 47  20  45  1   
 48  21  46  1   
 49  22  47  1   
 50  23  48  1   
@<TRIPOS>SUBSTRUCTURE
  1 ****   9 GROUP 4 **** **** 0

# MOE 2024.06 (io_trps.svl 2023.06)
