@<TRIPOS>MOLECULE
NONAME
48 51 1 0 0 
SMALL
USER_CHARGES


@<TRIPOS>ATOM
  1 S        1.8960     3.0400    -3.2810 S.3   1 <1>  -0.0800 
  2 C        1.5710     3.7820    -1.7070 C.2   1 <1>  -0.0450 
  3 C        1.1190     1.5410    -2.8320 C.2   1 <1>  -0.1100 
  4 C        2.0320     5.1310    -1.5010 C.2   1 <1>   0.5940 
  5 C        0.9050     2.8700    -0.9440 C.2   1 <1>  -0.1500 
  6 C        0.6520     1.6170    -1.5730 C.2   1 <1>  -0.1500 
  7 O        2.6240     5.7570    -2.3460 O.2   1 <1>  -0.5700 
  8 C        1.8010     5.8470    -0.1750 C.3   1 <1>  -0.0190 
  9 C        2.5550     5.1490     0.9650 C.3   1 <1>   0.2090 
 10 C        0.3160     6.0790     0.1740 C.3   1 <1>  -0.1600 
 11 N        2.3900     5.9290     2.2300 N.pl3 1 <1>  -0.8380 
 12 C        0.2000     6.8300     1.5100 C.3   1 <1>  -0.1600 
 13 C        3.3650     6.8470     2.6140 C.ar  1 <1>   0.4100 
 14 C        0.9730     6.1370     2.6400 C.3   1 <1>   0.2090 
 15 N        4.1350     7.3250     1.6520 N.ar  1 <1>  -0.6200 
 16 C        3.5150     7.2460     3.9510 C.ar  1 <1>   0.1600 
 17 C        5.0520     8.2210     2.0510 C.ar  1 <1>   0.3960 
 18 N        4.3910     8.1270     4.3870 N.ar  1 <1>  -0.6200 
 19 C        5.9910     8.8320     1.0980 C.2   1 <1>   0.5440 
 20 C        5.1440     8.5920     3.3980 C.ar  1 <1>   0.1600 
 21 O        6.9570     9.4380     1.5350 O.2   1 <1>  -0.5700 
 22 N        5.8710     8.7850    -0.2830 N.am  1 <1>  -0.6600 
 23 C        4.7600     8.1910    -1.0650 C.3   1 <1>   0.1400 
 24 C        6.9010     9.3420    -1.1900 C.3   1 <1>   0.1400 
 25 C        5.0240     8.5980    -2.5090 C.3   1 <1>  -0.1600 
 26 C        6.5300     8.8240    -2.5750 C.3   1 <1>  -0.1600 
 27 H        1.0920     0.7530    -3.5640 H     1 <1>   0.1500 
 28 H        0.5680     3.0220     0.0650 H     1 <1>   0.1500 
 29 H        0.1320     0.8270    -1.0580 H     1 <1>   0.1500 
 30 H        2.2470     6.8190    -0.2790 H     1 <1>   0.0800 
 31 H        3.6000     5.0620     0.7150 H     1 <1>   0.0800 
 32 H        2.1780     4.1560     1.1240 H     1 <1>   0.0800 
 33 H       -0.2080     5.1440     0.2510 H     1 <1>   0.0800 
 34 H       -0.1510     6.6570    -0.6050 H     1 <1>   0.0800 
 35 H       -0.8360     6.9140     1.7890 H     1 <1>   0.0800 
 36 H        0.5860     7.8290     1.3970 H     1 <1>   0.0800 
 37 H        0.9200     6.7410     3.5290 H     1 <1>   0.0800 
 38 H        0.5260     5.1820     2.8580 H     1 <1>   0.0800 
 39 H        2.8690     6.7940     4.6790 H     1 <1>   0.1500 
 40 H        5.8900     9.3160     3.6750 H     1 <1>   0.1500 
 41 H        3.8080     8.5600    -0.7250 H     1 <1>   0.0800 
 42 H        4.7930     7.1190    -0.9710 H     1 <1>   0.0800 
 43 H        7.8860     9.0210    -0.8950 H     1 <1>   0.0800 
 44 H        6.8470    10.4170    -1.1590 H     1 <1>   0.0800 
 45 H        4.5040     9.5170    -2.7140 H     1 <1>   0.0800 
 46 H        4.6870     7.8430    -3.1980 H     1 <1>   0.0800 
 47 H        7.0320     7.8870    -2.7420 H     1 <1>   0.0800 
 48 H        6.8100     9.5150    -3.3490 H     1 <1>   0.0800 
@<TRIPOS>BOND
  1   1   2  1   
  2   1   3  1   
  3   2   4  1   
  4   2   5  2   
  5   3   6  2   
  6   3  27  1   
  7   4   7  2   
  8   4   8  1   
  9   5   6  1   
 10   5  28  1   
 11   6  29  1   
 12   8   9  1   
 13   8  10  1   
 14   8  30  1   
 15   9  11  1   
 16   9  31  1   
 17   9  32  1   
 18  10  12  1   
 19  10  33  1   
 20  10  34  1   
 21  11  13  1   
 22  11  14  1   
 23  12  14  1   
 24  12  35  1   
 25  12  36  1   
 26  13  15  ar  
 27  13  16  ar  
 28  14  37  1   
 29  14  38  1   
 30  15  17  ar  
 31  16  18  ar  
 32  16  39  1   
 33  17  19  1   
 34  17  20  ar  
 35  18  20  ar  
 36  19  21  2   
 37  19  22  am  
 38  20  40  1   
 39  22  23  1   
 40  22  24  1   
 41  23  25  1   
 42  23  41  1   
 43  23  42  1   
 44  24  26  1   
 45  24  43  1   
 46  24  44  1   
 47  25  26  1   
 48  25  45  1   
 49  25  46  1   
 50  26  47  1   
 51  26  48  1   
@<TRIPOS>SUBSTRUCTURE
  1 ****   9 GROUP 4 **** **** 0

# MOE 2024.06 (io_trps.svl 2023.06)
