@<TRIPOS>MOLECULE
NONAME
40 41 1 0 0 
SMALL
USER_CHARGES


@<TRIPOS>ATOM
  1 S        0.2240     0.2270    -1.3040 S.o2  1 <1>   1.3330 
  2 O       -0.8120     1.1250    -1.7590 O.2   1 <1>  -0.6500 
  3 O        0.4780    -0.9980    -2.0300 O.2   1 <1>  -0.6500 
  4 N       -0.1500    -0.1930     0.3000 N.am  1 <1>  -0.8490 
  5 C        1.7720     1.1240    -1.1700 C.3   1 <1>  -0.0550 
  6 C       -0.7430     0.9100     1.0650 C.3   1 <1>   0.1160 
  7 C       -1.0210    -1.3690     0.3720 C.3   1 <1>   0.1160 
  8 C        2.9750     0.2580    -0.7350 C.3   1 <1>  -0.0800 
  9 C        4.3190     0.9650    -0.7870 C.3   1 <1>   0.2200 
 10 C        2.9200    -0.2540     0.7090 C.3   1 <1>   0.1200 
 11 N        4.2110     2.3430    -0.2550 N.am  1 <1>  -0.7300 
 12 C        5.1240     0.1160     0.1860 C.3   1 <1>   0.1200 
 13 O        4.2300    -0.2340     1.1990 O.3   1 <1>  -0.5600 
 14 C        4.1770     3.5000    -0.9840 C.2   1 <1>   0.5440 
 15 O        4.1860     3.4000    -2.1990 O.2   1 <1>  -0.5700 
 16 C        4.1130     4.8020    -0.3150 C.ar  1 <1>   0.3960 
 17 N        3.9740     4.8370     1.0240 N.ar  1 <1>  -0.6200 
 18 C        4.1940     5.9780    -1.0650 C.ar  1 <1>  -0.1500 
 19 C        3.9230     6.0280     1.5910 C.ar  1 <1>   0.1600 
 20 C        4.1380     7.2140    -0.4610 C.ar  1 <1>  -0.1500 
 21 C        4.0000     7.2290     0.9080 C.ar  1 <1>  -0.1500 
 22 H        2.0000     1.5440    -2.1310 H     1 <1>   0.0800 
 23 H        1.6490     1.9430    -0.4890 H     1 <1>   0.0800 
 24 H       -0.8810     0.6160     2.0910 H     1 <1>   0.0800 
 25 H       -1.6980     1.1870     0.6480 H     1 <1>   0.0800 
 26 H       -0.0960     1.7700     1.0440 H     1 <1>   0.0800 
 27 H       -1.2290    -1.6180     1.3980 H     1 <1>   0.0800 
 28 H       -0.5370    -2.2150    -0.0870 H     1 <1>   0.0800 
 29 H       -1.9480    -1.1800    -0.1440 H     1 <1>   0.0800 
 30 H        3.0290    -0.6010    -1.3820 H     1 <1>   0.0800 
 31 H        4.7490     0.9720    -1.7750 H     1 <1>   0.0800 
 32 H        2.5380    -1.2600     0.7640 H     1 <1>   0.0800 
 33 H        2.3320     0.3910     1.3380 H     1 <1>   0.0800 
 34 H        4.1840     2.4210     0.7680 H     1 <1>   0.3700 
 35 H        5.9620     0.6430     0.6070 H     1 <1>   0.0800 
 36 H        5.4580    -0.7910    -0.2850 H     1 <1>   0.0800 
 37 H        4.3020     5.9110    -2.1340 H     1 <1>   0.1500 
 38 H        3.8150     6.0550     2.6630 H     1 <1>   0.1500 
 39 H        4.2010     8.1250    -1.0320 H     1 <1>   0.1500 
 40 H        3.9510     8.1600     1.4440 H     1 <1>   0.1500 
@<TRIPOS>BOND
  1   1   2  2   
  2   1   3  2   
  3   1   4  am  
  4   1   5  1   
  5   4   6  1   
  6   4   7  1   
  7   5   8  1   
  8   5  22  1   
  9   5  23  1   
 10   6  24  1   
 11   6  25  1   
 12   6  26  1   
 13   7  27  1   
 14   7  28  1   
 15   7  29  1   
 16   8   9  1   
 17   8  10  1   
 18   8  30  1   
 19   9  11  1   
 20   9  12  1   
 21   9  31  1   
 22  10  13  1   
 23  10  32  1   
 24  10  33  1   
 25  11  14  am  
 26  11  34  1   
 27  12  13  1   
 28  12  35  1   
 29  12  36  1   
 30  14  15  2   
 31  14  16  1   
 32  16  17  ar  
 33  16  18  ar  
 34  17  19  ar  
 35  18  20  ar  
 36  18  37  1   
 37  19  21  ar  
 38  19  38  1   
 39  20  21  ar  
 40  20  39  1   
 41  21  40  1   
@<TRIPOS>SUBSTRUCTURE
  1 ****  11 GROUP 4 **** **** 0

# MOE 2024.06 (io_trps.svl 2023.06)
