@<TRIPOS>MOLECULE
NONAME
43 46 1 0 0 
SMALL
USER_CHARGES


@<TRIPOS>ATOM
  1 CL       2.5080    -1.8130    -2.4110 Cl    1 <1>  -0.1770 
  2 C        2.5940    -0.5400    -1.2140 C.ar  1 <1>   0.1770 
  3 C        3.7780     0.1540    -1.0050 C.ar  1 <1>  -0.1440 
  4 C        1.4520    -0.2590    -0.4890 C.ar  1 <1>  -0.1500 
  5 C        3.8100     1.1510    -0.0320 C.ar  1 <1>  -0.1440 
  6 C        5.0310    -0.1770    -1.8130 C.3   1 <1>  -0.0160 
  7 C        1.4860     0.7330     0.4720 C.ar  1 <1>  -0.1500 
  8 C        2.6610     1.4310     0.6970 C.ar  1 <1>  -0.1500 
  9 C        5.0730     1.9620     0.2650 C.3   1 <1>   0.3530 
 10 C        6.0420     0.9690    -1.7960 C.3   1 <1>   0.2090 
 11 N        6.2790     1.3880    -0.3950 N.pl3 1 <1>  -0.8380 
 12 C        7.5330     1.8440    -0.0250 C.ar  1 <1>   0.4100 
 13 N        7.6040     3.0930     0.4030 N.ar  1 <1>  -0.6200 
 14 C        8.6600     1.0130    -0.1140 C.ar  1 <1>   0.1600 
 15 C        8.8450     3.4900     0.7340 C.ar  1 <1>   0.3960 
 16 N        9.8900     1.3670     0.1960 N.ar  1 <1>  -0.6200 
 17 C        9.1040     4.8460     1.2260 C.2   1 <1>   0.5440 
 18 C        9.9360     2.6210     0.6240 C.ar  1 <1>   0.1600 
 19 O       10.0410     5.0300     1.9870 O.2   1 <1>  -0.5700 
 20 N        8.3640     5.9580     0.8640 N.am  1 <1>  -0.6600 
 21 C        7.2900     6.0020    -0.1530 C.3   1 <1>   0.1400 
 22 C        8.6380     7.3090     1.4010 C.3   1 <1>   0.1400 
 23 C        7.0890     7.4850    -0.4420 C.3   1 <1>  -0.1600 
 24 C        7.5270     8.1890     0.8390 C.3   1 <1>  -0.1600 
 25 H        0.5500    -0.8140    -0.6760 H     1 <1>   0.1500 
 26 H        4.7740    -0.3830    -2.8350 H     1 <1>   0.0800 
 27 H        5.4920    -1.0570    -1.4020 H     1 <1>   0.0800 
 28 H        0.6030     0.9610     1.0450 H     1 <1>   0.1500 
 29 H        2.6750     2.1990     1.4510 H     1 <1>   0.1500 
 30 H        5.2370     1.9900     1.3290 H     1 <1>   0.0800 
 31 H        4.9310     2.9730    -0.0780 H     1 <1>   0.0800 
 32 H        5.6490     1.8040    -2.3510 H     1 <1>   0.0800 
 33 H        6.9610     0.6560    -2.2610 H     1 <1>   0.0800 
 34 H        8.5030     0.0070    -0.4570 H     1 <1>   0.1500 
 35 H       10.9060     2.9930     0.9090 H     1 <1>   0.1500 
 36 H        6.3940     5.5770     0.2670 H     1 <1>   0.0800 
 37 H        7.5700     5.4600    -1.0400 H     1 <1>   0.0800 
 38 H        9.6000     7.6380     1.0480 H     1 <1>   0.0800 
 39 H        8.6350     7.2990     2.4780 H     1 <1>   0.0800 
 40 H        6.0700     7.7070    -0.7060 H     1 <1>   0.0800 
 41 H        7.7330     7.7720    -1.2550 H     1 <1>   0.0800 
 42 H        7.8650     9.1940     0.6620 H     1 <1>   0.0800 
 43 H        6.7120     8.2110     1.5420 H     1 <1>   0.0800 
@<TRIPOS>BOND
  1   1   2  1   
  2   2   3  ar  
  3   2   4  ar  
  4   3   5  ar  
  5   3   6  1   
  6   4   7  ar  
  7   4  25  1   
  8   5   8  ar  
  9   5   9  1   
 10   6  10  1   
 11   6  26  1   
 12   6  27  1   
 13   7   8  ar  
 14   7  28  1   
 15   8  29  1   
 16   9  11  1   
 17   9  30  1   
 18   9  31  1   
 19  10  11  1   
 20  10  32  1   
 21  10  33  1   
 22  11  12  1   
 23  12  13  ar  
 24  12  14  ar  
 25  13  15  ar  
 26  14  16  ar  
 27  14  34  1   
 28  15  17  1   
 29  15  18  ar  
 30  16  18  ar  
 31  17  19  2   
 32  17  20  am  
 33  18  35  1   
 34  20  21  1   
 35  20  22  1   
 36  21  23  1   
 37  21  36  1   
 38  21  37  1   
 39  22  24  1   
 40  22  38  1   
 41  22  39  1   
 42  23  24  1   
 43  23  40  1   
 44  23  41  1   
 45  24  42  1   
 46  24  43  1   
@<TRIPOS>SUBSTRUCTURE
  1 ****  11 GROUP 4 **** **** 0

# MOE 2024.06 (io_trps.svl 2023.06)
