@<TRIPOS>MOLECULE
NONAME
35 36 1 0 0 
SMALL
USER_CHARGES


@<TRIPOS>ATOM
  1 O        0.3760    -0.1610    -1.1550 O.2   1 <1>  -0.5700 
  2 C        1.2450    -0.6820    -0.4800 C.2   1 <1>   0.7160 
  3 N        2.2550     0.0780     0.0440 N.am  1 <1>  -0.4930 
  4 C        1.2290    -2.0980    -0.2060 C.2   1 <1>  -0.0860 
  5 C        2.5260     1.4590    -0.1160 C.2   1 <1>   0.0630 
  6 C        0.2080    -2.9880    -0.0300 C.2   1 <1>  -0.3320 
  7 C        2.3690    -2.8930    -0.0550 C.2   1 <1>   0.1390 
  8 C        1.8820     2.4110    -0.9090 C.2   1 <1>   0.1390 
  9 C        3.5120     2.1440     0.4980 C.2   1 <1>  -0.3020 
 10 N        0.7580    -4.1930     0.2100 N.pl3 1 <1>   0.3140 
 11 C       -1.2920    -2.7330    -0.0820 C.3   1 <1>  -0.0600 
 12 N        2.0970    -4.1300     0.2010 N.2   1 <1>  -0.7070 
 13 N        2.4200     3.5890    -0.8000 N.2   1 <1>  -0.7070 
 14 N        3.4340     3.4270     0.0760 N.pl3 1 <1>   0.3140 
 15 C        0.0630    -5.4640     0.4560 C.3   1 <1>   0.0160 
 16 C        4.3330     4.5390     0.5010 C.3   1 <1>   0.1760 
 17 C        3.5330     5.6440     1.2060 C.3   1 <1>  -0.2400 
 18 C        5.1020     5.1050    -0.7020 C.3   1 <1>  -0.2400 
 19 H        2.8630    -0.4060     0.6990 H     1 <1>   0.3700 
 20 H        3.3780    -2.5300    -0.1470 H     1 <1>   0.1500 
 21 H        1.0360     2.2010    -1.5410 H     1 <1>   0.1500 
 22 H        4.2510     1.8040     1.1970 H     1 <1>   0.1500 
 23 H       -1.4980    -1.6890    -0.2420 H     1 <1>   0.0800 
 24 H       -1.7540    -3.0280     0.8430 H     1 <1>   0.0800 
 25 H       -1.7340    -3.2890    -0.8890 H     1 <1>   0.0800 
 26 H       -0.5770    -5.6830    -0.3770 H     1 <1>   0.0800 
 27 H       -0.5180    -5.3790     1.3550 H     1 <1>   0.0800 
 28 H        0.7900    -6.2470     0.5690 H     1 <1>   0.0800 
 29 H        5.0420     4.1330     1.1990 H     1 <1>   0.0800 
 30 H        2.8170     6.0760     0.5280 H     1 <1>   0.0800 
 31 H        4.1920     6.4200     1.5480 H     1 <1>   0.0800 
 32 H        3.0100     5.2390     2.0540 H     1 <1>   0.0800 
 33 H        4.4170     5.5260    -1.4170 H     1 <1>   0.0800 
 34 H        5.6700     4.3250    -1.1780 H     1 <1>   0.0800 
 35 H        5.7790     5.8750    -0.3820 H     1 <1>   0.0800 
@<TRIPOS>BOND
  1   1   2  2   
  2   2   3  am  
  3   2   4  1   
  4   3   5  1   
  5   3  19  1   
  6   4   6  2   
  7   4   7  1   
  8   5   8  1   
  9   5   9  2   
 10   6  10  1   
 11   6  11  1   
 12   7  12  2   
 13   7  20  1   
 14   8  13  2   
 15   8  21  1   
 16   9  14  1   
 17   9  22  1   
 18  10  12  1   
 19  10  15  1   
 20  11  23  1   
 21  11  24  1   
 22  11  25  1   
 23  13  14  1   
 24  14  16  1   
 25  15  26  1   
 26  15  27  1   
 27  15  28  1   
 28  16  17  1   
 29  16  18  1   
 30  16  29  1   
 31  17  30  1   
 32  17  31  1   
 33  17  32  1   
 34  18  33  1   
 35  18  34  1   
 36  18  35  1   
@<TRIPOS>SUBSTRUCTURE
  1 ****   3 GROUP 4 **** **** 0

# MOE 2024.06 (io_trps.svl 2023.06)
