@<TRIPOS>MOLECULE
NONAME
46 48 1 0 0 
SMALL
USER_CHARGES


@<TRIPOS>ATOM
  1 S       -0.5410     0.2390    -1.0460 S.3   1 <1>  -0.4600 
  2 C       -1.5710    -0.7350     0.0740 C.3   1 <1>   0.0700 
  3 C       -0.0720     1.6890    -0.0600 C.3   1 <1>  -0.0100 
  4 C       -1.9670    -1.9990    -0.6950 C.3   1 <1>   0.3430 
  5 N       -2.8060    -2.9370     0.1220 N.4   1 <1>  -0.9590 
  6 C       -2.9330    -4.2630    -0.5860 C.3   1 <1>   0.3430 
  7 C       -4.1730    -2.3700     0.4240 C.3   1 <1>   0.3430 
  8 C       -3.8100    -5.2750     0.1870 C.3   1 <1>   0.2090 
  9 C       -5.0680    -3.3580     1.2080 C.3   1 <1>   0.2090 
 10 N       -5.1600    -4.7020     0.5350 N.pl3 1 <1>  -0.8380 
 11 C       -6.3390    -5.3240     0.2450 C.ar  1 <1>   0.1000 
 12 C       -6.5370    -6.7430     0.3630 C.ar  1 <1>   0.0000 
 13 C       -7.4220    -4.5770    -0.2310 C.ar  1 <1>  -0.1500 
 14 C       -7.7170    -7.3210    -0.1640 C.ar  1 <1>   0.3610 
 15 C       -5.6480    -7.6110     1.0320 C.ar  1 <1>  -0.1500 
 16 C       -8.5810    -5.1620    -0.6760 C.ar  1 <1>   0.2180 
 17 N       -8.7000    -6.4990    -0.6640 N.ar  1 <1>  -0.1790 
 18 C       -7.9070    -8.7150    -0.1400 C.ar  1 <1>  -0.1500 
 19 C       -5.8740    -8.9600     1.0510 C.ar  1 <1>   0.1900 
 20 C       -9.7440    -4.3390    -1.2070 C.3   1 <1>  -0.0970 
 21 C       -6.9890    -9.5400     0.4580 C.ar  1 <1>  -0.1500 
 22 F       -5.0190    -9.7410     1.6510 F     1 <1>  -0.1900 
 23 H       -2.4180    -0.1240     0.3290 H     1 <1>   0.0800 
 24 H       -0.9730    -0.9570     0.9400 H     1 <1>   0.0800 
 25 H        0.5520     2.3140    -0.6750 H     1 <1>   0.0800 
 26 H        0.4680     1.3500     0.8060 H     1 <1>   0.0800 
 27 H       -0.9690     2.2120     0.2210 H     1 <1>   0.0800 
 28 H       -1.0620    -2.4990    -1.0000 H     1 <1>   0.0800 
 29 H       -2.5000    -1.7130    -1.5870 H     1 <1>   0.0800 
 30 H       -2.3230    -3.1110     1.0150 H     1 <1>   0.4500 
 31 H       -1.9560    -4.6920    -0.7360 H     1 <1>   0.0800 
 32 H       -3.3750    -4.1100    -1.5570 H     1 <1>   0.0800 
 33 H       -4.6710    -2.1240    -0.5000 H     1 <1>   0.0800 
 34 H       -4.0760    -1.4620     0.9960 H     1 <1>   0.0800 
 35 H       -3.3000    -5.5680     1.0890 H     1 <1>   0.0800 
 36 H       -3.9300    -6.1510    -0.4260 H     1 <1>   0.0800 
 37 H       -6.0450    -2.9290     1.3420 H     1 <1>   0.0800 
 38 H       -4.6550    -3.4940     2.1940 H     1 <1>   0.0800 
 39 H       -7.3350    -3.5090    -0.2830 H     1 <1>   0.1500 
 40 H       -4.7920    -7.2300     1.5520 H     1 <1>   0.1500 
 41 H       -9.5560    -6.9400    -1.0080 H     1 <1>   0.4570 
 42 H       -8.7860    -9.1480    -0.5850 H     1 <1>   0.1500 
 43 H       -9.5210    -3.2870    -1.1630 H     1 <1>   0.0800 
 44 H      -10.6280    -4.5150    -0.6190 H     1 <1>   0.0800 
 45 H       -9.9500    -4.5930    -2.2320 H     1 <1>   0.0800 
 46 H       -7.1080   -10.6110     0.4920 H     1 <1>   0.1500 
@<TRIPOS>BOND
  1   1   2  1   
  2   1   3  1   
  3   2   4  1   
  4   2  23  1   
  5   2  24  1   
  6   3  25  1   
  7   3  26  1   
  8   3  27  1   
  9   4   5  1   
 10   4  28  1   
 11   4  29  1   
 12   5   6  1   
 13   5   7  1   
 14   5  30  1   
 15   6   8  1   
 16   6  31  1   
 17   6  32  1   
 18   7   9  1   
 19   7  33  1   
 20   7  34  1   
 21   8  10  1   
 22   8  35  1   
 23   8  36  1   
 24   9  10  1   
 25   9  37  1   
 26   9  38  1   
 27  10  11  1   
 28  11  12  ar  
 29  11  13  ar  
 30  12  14  ar  
 31  12  15  ar  
 32  13  16  ar  
 33  13  39  1   
 34  14  17  ar  
 35  14  18  ar  
 36  15  19  ar  
 37  15  40  1   
 38  16  17  ar  
 39  16  20  1   
 40  17  41  1   
 41  18  21  ar  
 42  18  42  1   
 43  19  21  ar  
 44  19  22  1   
 45  20  43  1   
 46  20  44  1   
 47  20  45  1   
 48  21  46  1   
@<TRIPOS>SUBSTRUCTURE
  1 ****  10 GROUP 4 **** **** 0

# MOE 2024.06 (io_trps.svl 2023.06)
