@<TRIPOS>MOLECULE
NONAME
41 42 1 0 0 
SMALL
USER_CHARGES


@<TRIPOS>ATOM
  1 O        0.2980    -1.2550    -1.9580 O.3   1 <1>  -0.3570 
  2 C        0.0970    -2.2520    -1.0350 C.2   1 <1>   0.0910 
  3 C        1.4780    -0.4800    -1.9050 C.3   1 <1>   0.0400 
  4 C        1.1530    -3.0580    -0.4820 C.2   1 <1>   0.5410 
  5 C       -1.1890    -2.4760    -0.6490 C.2   1 <1>  -0.0500 
  6 O        2.3440    -2.9610    -0.7740 O.2   1 <1>  -0.5700 
  7 C        0.7720    -4.0550     0.4530 C.2   1 <1>  -0.1360 
  8 N       -1.5110    -3.4610     0.2660 N.pl3 1 <1>  -0.6000 
  9 C       -0.5260    -4.2600     0.8100 C.2   1 <1>  -0.0380 
 10 C       -0.9280    -5.3700     1.7730 C.3   1 <1>   0.4810 
 11 N       -1.6520    -6.4070     0.9900 N.4   1 <1>  -0.9590 
 12 C       -2.5030    -7.2930     1.8100 C.3   1 <1>   0.3430 
 13 C       -0.7790    -7.1640     0.0670 C.3   1 <1>   0.3430 
 14 C       -3.9490    -6.8310     1.6520 C.3   1 <1>  -0.1600 
 15 C       -1.3660    -7.0560    -1.3400 C.3   1 <1>  -0.1600 
 16 C       -4.6070    -7.2220     0.3140 C.3   1 <1>  -0.1600 
 17 C       -2.7930    -7.6170    -1.5070 C.3   1 <1>  -0.1600 
 18 C       -3.9380    -6.7200    -0.9830 C.3   1 <1>  -0.1600 
 19 H        1.3210     0.4110    -2.4850 H     1 <1>   0.0800 
 20 H        2.2890    -1.0460    -2.3290 H     1 <1>   0.0800 
 21 H        1.6890    -0.2200    -0.8820 H     1 <1>   0.0800 
 22 H       -1.9910    -1.8780    -1.0510 H     1 <1>   0.1500 
 23 H        1.5810    -4.6410     0.8490 H     1 <1>   0.1500 
 24 H       -2.4950    -3.5140     0.5680 H     1 <1>   0.4000 
 25 H       -1.5680    -4.9610     2.5380 H     1 <1>   0.0800 
 26 H       -0.0570    -5.7970     2.2420 H     1 <1>   0.0800 
 27 H       -2.2900    -5.9020     0.3620 H     1 <1>   0.4500 
 28 H       -2.2060    -7.2450     2.8460 H     1 <1>   0.0800 
 29 H       -2.4210    -8.3160     1.4780 H     1 <1>   0.0800 
 30 H       -0.7180    -8.1980     0.3650 H     1 <1>   0.0800 
 31 H        0.2170    -6.7500     0.0650 H     1 <1>   0.0800 
 32 H       -4.0210    -5.7690     1.8070 H     1 <1>   0.0800 
 33 H       -4.5230    -7.2950     2.4360 H     1 <1>   0.0800 
 34 H       -0.7170    -7.6150    -1.9930 H     1 <1>   0.0800 
 35 H       -1.3260    -6.0340    -1.6770 H     1 <1>   0.0800 
 36 H       -5.6090    -6.8260     0.3320 H     1 <1>   0.0800 
 37 H       -4.7150    -8.2930     0.2670 H     1 <1>   0.0800 
 38 H       -2.8560    -8.6080    -1.0890 H     1 <1>   0.0800 
 39 H       -2.9510    -7.7350    -2.5670 H     1 <1>   0.0800 
 40 H       -3.6410    -5.6890    -0.9040 H     1 <1>   0.0800 
 41 H       -4.7060    -6.7410    -1.7390 H     1 <1>   0.0800 
@<TRIPOS>BOND
  1   1   2  1   
  2   1   3  1   
  3   2   4  1   
  4   2   5  2   
  5   3  19  1   
  6   3  20  1   
  7   3  21  1   
  8   4   6  2   
  9   4   7  1   
 10   5   8  1   
 11   5  22  1   
 12   7   9  2   
 13   7  23  1   
 14   8   9  1   
 15   8  24  1   
 16   9  10  1   
 17  10  11  1   
 18  10  25  1   
 19  10  26  1   
 20  11  12  1   
 21  11  13  1   
 22  11  27  1   
 23  12  14  1   
 24  12  28  1   
 25  12  29  1   
 26  13  15  1   
 27  13  30  1   
 28  13  31  1   
 29  14  16  1   
 30  14  32  1   
 31  14  33  1   
 32  15  17  1   
 33  15  34  1   
 34  15  35  1   
 35  16  18  1   
 36  16  36  1   
 37  16  37  1   
 38  17  18  1   
 39  17  38  1   
 40  17  39  1   
 41  18  40  1   
 42  18  41  1   
@<TRIPOS>SUBSTRUCTURE
  1 ****   9 GROUP 4 **** **** 0

# MOE 2024.06 (io_trps.svl 2023.06)
