@<TRIPOS>MOLECULE
NONAME
56 58 1 0 0 
SMALL
USER_CHARGES


@<TRIPOS>ATOM
  1 O       -3.5870     3.0000    -1.1770 O.2   1 <1>  -0.5700 
  2 C       -3.0620     2.0570    -0.6180 C.2   1 <1>   0.5440 
  3 N       -3.4620     0.7790    -0.9530 N.am  1 <1>  -0.6600 
  4 C       -2.0530     2.3140     0.3910 C.ar  1 <1>   0.0860 
  5 C       -2.9440    -0.4390    -0.2290 C.3   1 <1>   0.3640 
  6 C       -4.5900     0.6100    -1.9200 C.3   1 <1>   0.1400 
  7 C       -0.7020     2.1170     0.1290 C.ar  1 <1>  -0.1500 
  8 C       -2.4080     2.7490     1.6670 C.ar  1 <1>  -0.1500 
  9 C       -1.5130    -0.7300    -0.6890 C.ar  1 <1>  -0.1430 
 10 C       -3.8020    -1.7360    -0.3610 C.3   1 <1>   0.2000 
 11 C       -4.9410    -0.8530    -2.2040 C.3   1 <1>   0.1200 
 12 C        0.2620     2.2630     1.1120 C.ar  1 <1>   0.1170 
 13 C       -1.4530     2.9380     2.6510 C.ar  1 <1>  -0.1500 
 14 C       -0.5150    -0.9200     0.2580 C.ar  1 <1>  -0.1500 
 15 C       -1.1770    -0.7760    -2.0360 C.ar  1 <1>  -0.1500 
 16 O       -5.0330    -1.5440    -1.0010 O.3   1 <1>  -0.5600 
 17 C       -4.1110    -2.3650     1.0050 C.3   1 <1>   0.1200 
 18 N        1.5890     1.9390     0.8330 N.am  1 <1>  -0.5470 
 19 C       -0.1210     2.6870     2.3760 C.ar  1 <1>  -0.1500 
 20 C        0.8020    -1.1080    -0.1250 C.ar  1 <1>   0.0830 
 21 C        0.1340    -0.9810    -2.4290 C.ar  1 <1>  -0.1500 
 22 O       -2.9360    -2.6590     1.6930 O.3   1 <1>  -0.6800 
 23 C        2.6300     2.7620     0.5550 C.2   1 <1>   0.5690 
 24 O        1.7240    -1.2280     0.8610 O.3   1 <1>  -0.3630 
 25 C        1.1340    -1.1260    -1.4830 C.ar  1 <1>   0.0830 
 26 O        3.7090     2.3110     0.2700 O.2   1 <1>  -0.5700 
 27 C        2.4370     4.2590     0.5870 C.3   1 <1>  -0.1790 
 28 C        2.3770    -2.4750     0.9630 C.3   1 <1>   0.0400 
 29 O        2.4040    -1.2700    -1.9340 O.3   1 <1>  -0.3630 
 30 C        3.3040    -0.2200    -1.6450 C.3   1 <1>   0.0400 
 31 H       -2.9050    -0.1890     0.8170 H     1 <1>   0.0800 
 32 H       -5.4600     1.1000    -1.5190 H     1 <1>   0.0800 
 33 H       -4.3400     1.1030    -2.8440 H     1 <1>   0.0800 
 34 H       -0.4010     1.8140    -0.8580 H     1 <1>   0.1500 
 35 H       -3.4470     2.9350     1.8820 H     1 <1>   0.1500 
 36 H       -3.2630    -2.4600    -0.9480 H     1 <1>   0.0800 
 37 H       -4.2020    -1.3210    -2.8290 H     1 <1>   0.0800 
 38 H       -5.8970    -0.9120    -2.6940 H     1 <1>   0.0800 
 39 H       -1.7470     3.2730     3.6310 H     1 <1>   0.1500 
 40 H       -0.7470    -0.9010     1.3090 H     1 <1>   0.1500 
 41 H       -1.9330    -0.6350    -2.7890 H     1 <1>   0.1500 
 42 H       -4.6670    -3.2780     0.8840 H     1 <1>   0.0800 
 43 H       -4.6790    -1.6770     1.6060 H     1 <1>   0.0800 
 44 H        1.8060     0.9380     0.7540 H     1 <1>   0.3700 
 45 H        0.6240     2.8100     3.1420 H     1 <1>   0.1500 
 46 H        0.3920    -1.0130    -3.4720 H     1 <1>   0.1500 
 47 H       -2.4650    -3.4100     1.2780 H     1 <1>   0.4000 
 48 H        1.6390     4.5370    -0.0760 H     1 <1>   0.0800 
 49 H        3.3390     4.7490     0.2720 H     1 <1>   0.0800 
 50 H        2.1970     4.5720     1.5850 H     1 <1>   0.0800 
 51 H        3.0060    -2.4540     1.8340 H     1 <1>   0.0800 
 52 H        2.9740    -2.6400     0.0850 H     1 <1>   0.0800 
 53 H        1.6350    -3.2480     1.0620 H     1 <1>   0.0800 
 54 H        4.2030    -0.3790    -2.2120 H     1 <1>   0.0800 
 55 H        3.5330    -0.2230    -0.5950 H     1 <1>   0.0800 
 56 H        2.8550     0.7170    -1.9250 H     1 <1>   0.0800 
@<TRIPOS>BOND
  1   1   2  2   
  2   2   3  am  
  3   2   4  1   
  4   3   5  1   
  5   3   6  1   
  6   4   7  ar  
  7   4   8  ar  
  8   5   9  1   
  9   5  10  1   
 10   5  31  1   
 11   6  11  1   
 12   6  32  1   
 13   6  33  1   
 14   7  12  ar  
 15   7  34  1   
 16   8  13  ar  
 17   8  35  1   
 18   9  14  ar  
 19   9  15  ar  
 20  10  16  1   
 21  10  17  1   
 22  10  36  1   
 23  11  16  1   
 24  11  37  1   
 25  11  38  1   
 26  12  18  1   
 27  12  19  ar  
 28  13  19  ar  
 29  13  39  1   
 30  14  20  ar  
 31  14  40  1   
 32  15  21  ar  
 33  15  41  1   
 34  17  22  1   
 35  17  42  1   
 36  17  43  1   
 37  18  23  am  
 38  18  44  1   
 39  19  45  1   
 40  20  24  1   
 41  20  25  ar  
 42  21  25  ar  
 43  21  46  1   
 44  22  47  1   
 45  23  26  2   
 46  23  27  1   
 47  24  28  1   
 48  25  29  1   
 49  27  48  1   
 50  27  49  1   
 51  27  50  1   
 52  28  51  1   
 53  28  52  1   
 54  28  53  1   
 55  29  30  1   
 56  30  54  1   
 57  30  55  1   
 58  30  56  1   
@<TRIPOS>SUBSTRUCTURE
  1 ****  14 GROUP 4 **** **** 0

# MOE 2024.06 (io_trps.svl 2023.06)
