@<TRIPOS>MOLECULE
NONAME
43 45 1 0 0 
SMALL
USER_CHARGES


@<TRIPOS>ATOM
  1 CL       0.6090     0.1630    -0.1830 Cl    1 <1>  -0.1770 
  2 C        0.5280     1.8890     0.0480 C.ar  1 <1>   0.1770 
  3 C        0.3920     2.7330    -1.0400 C.ar  1 <1>   0.1600 
  4 C        0.6010     2.4150     1.3160 C.ar  1 <1>  -0.1500 
  5 N        0.3270     4.0520    -0.9550 N.ar  1 <1>  -0.6200 
  6 C        0.5280     3.7890     1.4110 C.ar  1 <1>  -0.1500 
  7 C        0.3940     4.5980     0.2760 C.ar  1 <1>   0.3960 
  8 C        0.3170     6.0530     0.4670 C.2   1 <1>   0.5440 
  9 O       -0.2880     6.4710     1.4410 O.2   1 <1>  -0.5700 
 10 N        0.9350     6.9920    -0.3550 N.am  1 <1>  -0.6600 
 11 C        2.0080     6.6470    -1.3360 C.3   1 <1>   0.1400 
 12 C        0.7420     8.4560    -0.1470 C.3   1 <1>   0.1400 
 13 C        3.3350     6.3650    -0.6170 C.3   1 <1>   0.1400 
 14 C        2.0310     9.1720     0.2910 C.3   1 <1>  -0.1600 
 15 N        3.9330     7.5990    -0.0040 N.am  1 <1>  -0.6600 
 16 C        3.0670     8.2880     1.0030 C.3   1 <1>   0.1400 
 17 C        5.1880     8.0200    -0.3920 C.2   1 <1>   0.5690 
 18 O        5.7860     7.4470    -1.2730 O.2   1 <1>  -0.5700 
 19 C        5.8700     9.2220     0.2720 C.3   1 <1>  -0.0190 
 20 C        5.2860    10.5840    -0.1630 C.3   1 <1>  -0.0220 
 21 C        7.4010     9.3340     0.0620 C.3   1 <1>  -0.0220 
 22 C        6.4840    11.4970    -0.1140 C.2   1 <1>  -0.2880 
 23 C        7.6210    10.8260     0.0110 C.2   1 <1>  -0.2880 
 24 H        0.3340     2.2920    -2.0210 H     1 <1>   0.1500 
 25 H        0.7040     1.7800     2.1790 H     1 <1>   0.1500 
 26 H        0.5700     4.2570     2.3790 H     1 <1>   0.1500 
 27 H        2.1490     7.4560    -2.0320 H     1 <1>   0.0800 
 28 H        1.7240     5.7900    -1.9150 H     1 <1>   0.0800 
 29 H       -0.0150     8.6250     0.6000 H     1 <1>   0.0800 
 30 H        0.3790     8.8940    -1.0610 H     1 <1>   0.0800 
 31 H        4.0130     5.9370    -1.3350 H     1 <1>   0.0800 
 32 H        3.1820     5.6260     0.1480 H     1 <1>   0.0800 
 33 H        1.7440     9.9640     0.9570 H     1 <1>   0.0800 
 34 H        2.4850     9.6390    -0.5650 H     1 <1>   0.0800 
 35 H        2.5750     7.5610     1.6270 H     1 <1>   0.0800 
 36 H        3.6610     8.9010     1.6520 H     1 <1>   0.0800 
 37 H        5.7400     9.1360     1.3330 H     1 <1>   0.0800 
 38 H        4.5160    10.9130     0.5110 H     1 <1>   0.0800 
 39 H        4.9040    10.5410    -1.1690 H     1 <1>   0.0800 
 40 H        7.7250     8.9020    -0.8680 H     1 <1>   0.0800 
 41 H        7.9360     8.8790     0.8770 H     1 <1>   0.0800 
 42 H        6.3340    12.5610    -0.1930 H     1 <1>   0.1500 
 43 H        8.6290    11.2030     0.0600 H     1 <1>   0.1500 
@<TRIPOS>BOND
  1   1   2  1   
  2   2   3  ar  
  3   2   4  ar  
  4   3   5  ar  
  5   3  24  1   
  6   4   6  ar  
  7   4  25  1   
  8   5   7  ar  
  9   6   7  ar  
 10   6  26  1   
 11   7   8  1   
 12   8   9  2   
 13   8  10  am  
 14  10  11  1   
 15  10  12  1   
 16  11  13  1   
 17  11  27  1   
 18  11  28  1   
 19  12  14  1   
 20  12  29  1   
 21  12  30  1   
 22  13  15  1   
 23  13  31  1   
 24  13  32  1   
 25  14  16  1   
 26  14  33  1   
 27  14  34  1   
 28  15  16  1   
 29  15  17  am  
 30  16  35  1   
 31  16  36  1   
 32  17  18  2   
 33  17  19  1   
 34  19  20  1   
 35  19  21  1   
 36  19  37  1   
 37  20  22  1   
 38  20  38  1   
 39  20  39  1   
 40  21  23  1   
 41  21  40  1   
 42  21  41  1   
 43  22  23  2   
 44  22  42  1   
 45  23  43  1   
@<TRIPOS>SUBSTRUCTURE
  1 ****  13 GROUP 4 **** **** 0

# MOE 2024.06 (io_trps.svl 2023.06)
