@<TRIPOS>MOLECULE
NONAME
47 50 1 0 0 
SMALL
USER_CHARGES


@<TRIPOS>ATOM
  1 O       -0.8240     0.8330    -1.6340 O.2   1 <1>  -0.5700 
  2 C       -0.7190     2.0190    -1.4190 C.2   1 <1>   0.5690 
  3 N       -1.5020     2.6900    -0.5150 N.am  1 <1>  -0.5090 
  4 C        0.3280     2.7920    -2.2230 C.3   1 <1>   0.1810 
  5 C       -1.4440     4.1820    -0.3890 C.3   1 <1>   0.3640 
  6 C       -2.4610     2.0000     0.3840 C.3   1 <1>   0.0490 
  7 O        0.6440     4.0370    -1.6480 O.3   1 <1>  -0.5600 
  8 C       -2.8410     4.7910    -0.5190 C.ar  1 <1>  -0.1440 
  9 C       -0.4900     4.8450    -1.4070 C.3   1 <1>   0.2610 
 10 C       -2.2990     2.1600     1.8640 C.3   1 <1>  -0.2000 
 11 C       -1.9990     0.8460     1.2170 C.3   1 <1>  -0.2000 
 12 C       -3.6960     4.4150    -1.5470 C.ar  1 <1>  -0.1500 
 13 C       -3.2670     5.7450     0.3950 C.ar  1 <1>  -0.1500 
 14 C       -0.0890     6.2370    -0.9110 C.2   1 <1>   0.5690 
 15 C       -4.9520     4.9830    -1.6560 C.ar  1 <1>  -0.1500 
 16 C       -4.5230     6.3160     0.2870 C.ar  1 <1>  -0.1500 
 17 O       -0.4710     7.2020    -1.5320 O.2   1 <1>  -0.5700 
 18 N        0.6570     6.3880     0.2240 N.am  1 <1>  -0.5100 
 19 C       -5.3750     5.9350    -0.7450 C.ar  1 <1>   0.0820 
 20 C        1.4980     7.5900     0.5540 C.3   1 <1>   0.2250 
 21 C        1.7580     5.4980     0.7350 C.3   1 <1>   0.2250 
 22 O       -6.6190     6.4450    -0.9240 O.3   1 <1>  -0.3630 
 23 C        2.2480     6.7020     1.5810 C.3   1 <1>   0.2580 
 24 C       -7.1190     7.4690    -0.0950 C.3   1 <1>   0.0400 
 25 O        1.6480     6.7370     2.8400 O.3   1 <1>  -0.6580 
 26 H       -0.0310     2.9560    -3.2220 H     1 <1>   0.0800 
 27 H        1.2340     2.2150    -2.2710 H     1 <1>   0.0800 
 28 H       -1.0750     4.3950     0.5980 H     1 <1>   0.0800 
 29 H       -3.4580     1.9630    -0.0240 H     1 <1>   0.1000 
 30 H       -1.0020     4.9710    -2.3450 H     1 <1>   0.0800 
 31 H       -1.4700     2.7160     2.2630 H     1 <1>   0.1000 
 32 H       -3.1820     2.2330     2.4740 H     1 <1>   0.1000 
 33 H       -2.6770     0.0270     1.3730 H     1 <1>   0.1000 
 34 H       -0.9770     0.5230     1.1220 H     1 <1>   0.1000 
 35 H       -3.3940     3.6750    -2.2680 H     1 <1>   0.1500 
 36 H       -2.6230     6.0570     1.1990 H     1 <1>   0.1500 
 37 H       -5.6160     4.6920    -2.4510 H     1 <1>   0.1500 
 38 H       -4.8190     7.0510     1.0100 H     1 <1>   0.1500 
 39 H        2.1010     7.8850    -0.2870 H     1 <1>   0.0000 
 40 H        0.9240     8.3870     0.9920 H     1 <1>   0.0000 
 41 H        1.3860     4.6700     1.3130 H     1 <1>   0.0000 
 42 H        2.4360     5.2230    -0.0530 H     1 <1>   0.0000 
 43 H        3.3120     6.8360     1.6460 H     1 <1>   0.0000 
 44 H       -8.1020     7.7290    -0.4410 H     1 <1>   0.0800 
 45 H       -6.4690     8.3240    -0.1660 H     1 <1>   0.0800 
 46 H       -7.1710     7.1060     0.9160 H     1 <1>   0.0800 
 47 H        0.6780     6.7230     2.7340 H     1 <1>   0.4000 
@<TRIPOS>BOND
  1   1   2  2   
  2   2   3  am  
  3   2   4  1   
  4   3   5  1   
  5   3   6  1   
  6   4   7  1   
  7   4  26  1   
  8   4  27  1   
  9   5   8  1   
 10   5   9  1   
 11   5  28  1   
 12   6  10  1   
 13   6  11  1   
 14   6  29  1   
 15   7   9  1   
 16   8  12  ar  
 17   8  13  ar  
 18   9  14  1   
 19   9  30  1   
 20  10  11  1   
 21  10  31  1   
 22  10  32  1   
 23  11  33  1   
 24  11  34  1   
 25  12  15  ar  
 26  12  35  1   
 27  13  16  ar  
 28  13  36  1   
 29  14  17  2   
 30  14  18  am  
 31  15  19  ar  
 32  15  37  1   
 33  16  19  ar  
 34  16  38  1   
 35  18  20  1   
 36  18  21  1   
 37  19  22  1   
 38  20  23  1   
 39  20  39  1   
 40  20  40  1   
 41  21  23  1   
 42  21  41  1   
 43  21  42  1   
 44  22  24  1   
 45  23  25  1   
 46  23  43  1   
 47  24  44  1   
 48  24  45  1   
 49  24  46  1   
 50  25  47  1   
@<TRIPOS>SUBSTRUCTURE
  1 ****   5 GROUP 4 **** **** 0

# MOE 2024.06 (io_trps.svl 2023.06)
