@<TRIPOS>MOLECULE
NONAME
45 47 1 0 0 
SMALL
USER_CHARGES


@<TRIPOS>ATOM
  1 F       -1.1050     1.0990    -1.3640 F     1 <1>  -0.1900 
  2 C       -0.7550     2.1700    -0.7030 C.ar  1 <1>   0.1900 
  3 C       -1.5300     2.5930     0.3750 C.ar  1 <1>   0.0860 
  4 C        0.3760     2.8430    -1.1320 C.ar  1 <1>  -0.1500 
  5 C       -2.7090     1.8770     0.8020 C.2   1 <1>   0.5440 
  6 C       -1.1180     3.7570     1.0230 C.ar  1 <1>  -0.1500 
  7 C        0.7620     3.9950    -0.4710 C.ar  1 <1>  -0.1500 
  8 O       -2.5890     0.8100     1.3740 O.2   1 <1>  -0.5700 
  9 N       -3.9710     2.3970     0.6020 N.am  1 <1>  -0.6600 
 10 C        0.0070     4.4450     0.6030 C.ar  1 <1>   0.0830 
 11 C       -5.1710     1.7260     1.1830 C.3   1 <1>   0.1400 
 12 C       -4.2100     3.6170    -0.2250 C.3   1 <1>   0.1400 
 13 O        0.3610     5.5620     1.2530 O.3   1 <1>  -0.5320 
 14 C       -6.2520     2.7620     1.4990 C.3   1 <1>  -0.1600 
 15 C       -5.6100     3.5650    -0.8350 C.3   1 <1>  -0.1600 
 16 C       -6.7030     3.5690     0.2540 C.3   1 <1>   0.2800 
 17 O       -6.8150     4.9150     0.6460 O.3   1 <1>  -0.5600 
 18 C       -8.0530     3.0720    -0.3390 C.3   1 <1>  -0.1600 
 19 C       -7.9580     5.2720     1.3690 C.3   1 <1>   0.1200 
 20 C       -8.9960     4.2170    -0.7180 C.3   1 <1>   0.2800 
 21 C       -9.2170     5.1230     0.4980 C.3   1 <1>  -0.1600 
 22 O       -8.3740     4.9740    -1.6750 O.3   1 <1>  -0.6800 
 23 C      -10.3070     3.7270    -1.3270 C.3   1 <1>  -0.2400 
 24 H        0.9380     2.4670    -1.9680 H     1 <1>   0.1500 
 25 H       -1.6810     4.1240     1.8620 H     1 <1>   0.1500 
 26 H        1.6370     4.5320    -0.7900 H     1 <1>   0.1500 
 27 H       -4.8960     1.2080     2.0870 H     1 <1>   0.0800 
 28 H       -5.5420     0.9990     0.4810 H     1 <1>   0.0800 
 29 H       -3.4820     3.6760    -1.0160 H     1 <1>   0.0800 
 30 H       -4.1170     4.4930     0.3960 H     1 <1>   0.0800 
 31 H        1.1800     5.9680     0.9140 H     1 <1>   0.4500 
 32 H       -5.8370     3.4310     2.2320 H     1 <1>   0.0800 
 33 H       -7.0820     2.2620     1.9610 H     1 <1>   0.0800 
 34 H       -5.6710     2.6720    -1.4300 H     1 <1>   0.0800 
 35 H       -5.7470     4.3980    -1.4990 H     1 <1>   0.0800 
 36 H       -8.5630     2.4630     0.3820 H     1 <1>   0.0800 
 37 H       -7.8900     2.4380    -1.1910 H     1 <1>   0.0800 
 38 H       -7.8410     6.2940     1.6870 H     1 <1>   0.0800 
 39 H       -8.0190     4.6470     2.2430 H     1 <1>   0.0800 
 40 H       -9.5630     6.0890     0.1770 H     1 <1>   0.0800 
 41 H       -9.9910     4.7080     1.1180 H     1 <1>   0.0800 
 42 H       -7.5740     5.3490    -1.2490 H     1 <1>   0.4000 
 43 H      -10.8420     3.1170    -0.6220 H     1 <1>   0.0800 
 44 H      -10.1110     3.1400    -2.2060 H     1 <1>   0.0800 
 45 H      -10.9260     4.5640    -1.5950 H     1 <1>   0.0800 
@<TRIPOS>BOND
  1   1   2  1   
  2   2   3  ar  
  3   2   4  ar  
  4   3   5  1   
  5   3   6  ar  
  6   4   7  ar  
  7   4  24  1   
  8   5   8  2   
  9   5   9  am  
 10   6  10  ar  
 11   6  25  1   
 12   7  10  ar  
 13   7  26  1   
 14   9  11  1   
 15   9  12  1   
 16  10  13  1   
 17  11  14  1   
 18  11  27  1   
 19  11  28  1   
 20  12  15  1   
 21  12  29  1   
 22  12  30  1   
 23  13  31  1   
 24  14  16  1   
 25  14  32  1   
 26  14  33  1   
 27  15  16  1   
 28  15  34  1   
 29  15  35  1   
 30  16  17  1   
 31  16  18  1   
 32  17  19  1   
 33  18  20  1   
 34  18  36  1   
 35  18  37  1   
 36  19  21  1   
 37  19  38  1   
 38  19  39  1   
 39  20  21  1   
 40  20  22  1   
 41  20  23  1   
 42  21  40  1   
 43  21  41  1   
 44  22  42  1   
 45  23  43  1   
 46  23  44  1   
 47  23  45  1   
@<TRIPOS>SUBSTRUCTURE
  1 ****  12 GROUP 4 **** **** 0

# MOE 2024.06 (io_trps.svl 2023.06)
