@<TRIPOS>MOLECULE
NONAME
36 38 1 0 0 
SMALL
USER_CHARGES


@<TRIPOS>ATOM
  1 S       -1.3990     2.0870     0.2040 S.3   1 <1>  -0.0800 
  2 C       -1.7510     0.3980    -0.1110 C.2   1 <1>   0.1980 
  3 C       -0.0490     1.5970     1.1840 C.2   1 <1>  -0.1100 
  4 N       -0.9470    -0.4160     0.4510 N.2   1 <1>  -0.5650 
  5 C       -2.9450     0.0860    -1.0000 C.3   1 <1>   0.3200 
  6 C        0.0180     0.2570     1.1850 C.2   1 <1>   0.0770 
  7 N       -4.2290     0.2820    -0.2660 N.am  1 <1>  -0.5090 
  8 C       -4.6610    -0.5780     0.7180 C.2   1 <1>   0.5690 
  9 C       -4.8720     1.6000    -0.4720 C.3   1 <1>   0.0490 
 10 O       -5.4900    -0.2440     1.5350 O.2   1 <1>  -0.5700 
 11 C       -4.0950    -1.9910     0.8600 C.3   1 <1>   0.1310 
 12 C       -6.3300     1.6390    -0.8060 C.3   1 <1>  -0.2000 
 13 C       -5.3170     1.9840    -1.8500 C.3   1 <1>  -0.2000 
 14 S       -4.3690    -3.0110    -0.6380 S.3   1 <1>  -0.4600 
 15 C       -5.9630    -3.8310    -0.3590 C.3   1 <1>   0.1650 
 16 C       -7.0930    -2.8270    -0.5950 C.3   1 <1>  -0.1950 
 17 C       -7.7520    -2.1140     0.5440 C.3   1 <1>  -0.2000 
 18 C       -8.4960    -3.1780    -0.2070 C.3   1 <1>  -0.2000 
 19 H        0.5460     2.3610     1.6500 H     1 <1>   0.1500 
 20 H       -2.8650    -0.9260    -1.3480 H     1 <1>   0.0800 
 21 H       -2.9150     0.7230    -1.8640 H     1 <1>   0.0800 
 22 H        0.7530    -0.3330     1.7060 H     1 <1>   0.1500 
 23 H       -4.4910     2.3580     0.1930 H     1 <1>   0.1000 
 24 H       -4.5670    -2.4980     1.6800 H     1 <1>   0.0800 
 25 H       -3.0360    -1.9560     1.0310 H     1 <1>   0.0800 
 26 H       -6.9280     2.4260    -0.3830 H     1 <1>   0.1000 
 27 H       -6.8600     0.7060    -0.8750 H     1 <1>   0.1000 
 28 H       -5.1910     1.2960    -2.6670 H     1 <1>   0.1000 
 29 H       -5.2400     3.0130    -2.1550 H     1 <1>   0.1000 
 30 H       -5.9690    -4.2240     0.6420 H     1 <1>   0.0800 
 31 H       -6.0200    -4.6370    -1.0690 H     1 <1>   0.0800 
 32 H       -6.9730    -2.2880    -1.5200 H     1 <1>   0.1000 
 33 H       -8.0290    -1.0830     0.4100 H     1 <1>   0.1000 
 34 H       -7.4230    -2.3160     1.5490 H     1 <1>   0.1000 
 35 H       -8.6930    -4.1110     0.2930 H     1 <1>   0.1000 
 36 H       -9.3030    -2.8790    -0.8540 H     1 <1>   0.1000 
@<TRIPOS>BOND
  1   1   2  1   
  2   1   3  1   
  3   2   4  2   
  4   2   5  1   
  5   3   6  2   
  6   3  19  1   
  7   4   6  1   
  8   5   7  1   
  9   5  20  1   
 10   5  21  1   
 11   6  22  1   
 12   7   8  am  
 13   7   9  1   
 14   8  10  2   
 15   8  11  1   
 16   9  12  1   
 17   9  13  1   
 18   9  23  1   
 19  11  14  1   
 20  11  24  1   
 21  11  25  1   
 22  12  13  1   
 23  12  26  1   
 24  12  27  1   
 25  13  28  1   
 26  13  29  1   
 27  14  15  1   
 28  15  16  1   
 29  15  30  1   
 30  15  31  1   
 31  16  17  1   
 32  16  18  1   
 33  16  32  1   
 34  17  18  1   
 35  17  33  1   
 36  17  34  1   
 37  18  35  1   
 38  18  36  1   
@<TRIPOS>SUBSTRUCTURE
  1 ****   7 GROUP 4 **** **** 0

# MOE 2024.06 (io_trps.svl 2023.06)
