@<TRIPOS>MOLECULE
NONAME
46 48 1 0 0 
SMALL
USER_CHARGES


@<TRIPOS>ATOM
  1 O       -0.1020     2.1030    -1.2480 O.2   1 <1>  -0.5700 
  2 C       -0.6140     2.0960    -0.1380 C.2   1 <1>   0.5440 
  3 N        0.1100     2.5370     0.9440 N.am  1 <1>  -0.4200 
  4 C       -1.9650     1.6640     0.0830 C.ar  1 <1>   0.0860 
  5 C       -0.4900     2.6180     2.1770 C.2   1 <1>   0.4500 
  6 C        1.5230     2.9900     0.7810 C.3   1 <1>   0.2010 
  7 C       -2.4660     1.7670     1.3870 C.ar  1 <1>   0.1790 
  8 C       -2.7940     1.1550    -0.9210 C.ar  1 <1>  -0.1500 
  9 N       -1.6930     2.2640     2.4190 N.2   1 <1>  -0.6290 
 10 C        1.6070     4.4150     0.2460 C.2   1 <1>   0.5690 
 11 C       -3.7700     1.3630     1.6520 C.ar  1 <1>  -0.1500 
 12 C       -4.0850     0.7580    -0.6430 C.ar  1 <1>  -0.1500 
 13 O        2.0890     5.2750     0.9440 O.2   1 <1>  -0.5700 
 14 N        1.1420     4.6870    -1.0010 N.am  1 <1>  -0.7300 
 15 C       -4.5760     0.8630     0.6500 C.ar  1 <1>  -0.1500 
 16 C        1.0420     6.0450    -1.5810 C.3   1 <1>   0.1400 
 17 C        2.4070     6.5080    -2.0920 C.3   1 <1>   0.0200 
 18 C        2.3880     8.0080    -2.3090 C.2   1 <1>   0.0070 
 19 N        2.1390     8.5640    -3.4440 N.2   1 <1>  -0.3380 
 20 N        2.6150     8.9180    -1.3540 N.pl3 1 <1>   0.0480 
 21 N        2.1970     9.8830    -3.2560 N.2   1 <1>  -0.3380 
 22 C        2.4790    10.0690    -2.0140 C.2   1 <1>   0.0360 
 23 C        2.9540     8.7440     0.0740 C.3   1 <1>   0.0960 
 24 C        4.4690     8.6580     0.2390 C.3   1 <1>   0.1200 
 25 O        4.7540     8.7170     1.5980 O.3   1 <1>  -0.5600 
 26 C        6.1070     8.5990     1.9000 C.3   1 <1>   0.0400 
 27 H        0.1140     3.0080     2.9780 H     1 <1>   0.0600 
 28 H        2.0350     2.3330     0.1010 H     1 <1>   0.0800 
 29 H        2.0310     2.9440     1.7270 H     1 <1>   0.0800 
 30 H       -2.4100     1.0750    -1.9250 H     1 <1>   0.1500 
 31 H       -4.1400     1.4490     2.6580 H     1 <1>   0.1500 
 32 H       -4.7150     0.3670    -1.4240 H     1 <1>   0.1500 
 33 H        0.6960     3.9210    -1.5310 H     1 <1>   0.3700 
 34 H       -5.5840     0.5530     0.8690 H     1 <1>   0.1500 
 35 H        0.6940     6.7200    -0.8170 H     1 <1>   0.0800 
 36 H        0.3260     6.0520    -2.3850 H     1 <1>   0.0800 
 37 H        2.6260     6.0140    -3.0220 H     1 <1>   0.0800 
 38 H        3.1770     6.2600    -1.3850 H     1 <1>   0.0800 
 39 H        2.5950    11.0320    -1.5500 H     1 <1>   0.1500 
 40 H        2.4920     7.8490     0.4480 H     1 <1>   0.0800 
 41 H        2.5780     9.5890     0.6220 H     1 <1>   0.0800 
 42 H        4.9530     9.4900    -0.2440 H     1 <1>   0.0800 
 43 H        4.8390     7.7260    -0.1530 H     1 <1>   0.0800 
 44 H        6.2180     8.6610     2.9680 H     1 <1>   0.0800 
 45 H        6.6490     9.4040     1.4320 H     1 <1>   0.0800 
 46 H        6.4680     7.6460     1.5530 H     1 <1>   0.0800 
@<TRIPOS>BOND
  1   1   2  2   
  2   2   3  am  
  3   2   4  1   
  4   3   5  1   
  5   3   6  1   
  6   4   7  ar  
  7   4   8  ar  
  8   5   9  2   
  9   5  27  1   
 10   6  10  1   
 11   6  28  1   
 12   6  29  1   
 13   7   9  1   
 14   7  11  ar  
 15   8  12  ar  
 16   8  30  1   
 17  10  13  2   
 18  10  14  am  
 19  11  15  ar  
 20  11  31  1   
 21  12  15  ar  
 22  12  32  1   
 23  14  16  1   
 24  14  33  1   
 25  15  34  1   
 26  16  17  1   
 27  16  35  1   
 28  16  36  1   
 29  17  18  1   
 30  17  37  1   
 31  17  38  1   
 32  18  19  2   
 33  18  20  1   
 34  19  21  1   
 35  20  22  1   
 36  20  23  1   
 37  21  22  2   
 38  22  39  1   
 39  23  24  1   
 40  23  40  1   
 41  23  41  1   
 42  24  25  1   
 43  24  42  1   
 44  24  43  1   
 45  25  26  1   
 46  26  44  1   
 47  26  45  1   
 48  26  46  1   
@<TRIPOS>SUBSTRUCTURE
  1 ****  14 GROUP 4 **** **** 0

# MOE 2024.06 (io_trps.svl 2023.06)
