@<TRIPOS>MOLECULE
NONAME
48 49 1 0 0 
SMALL
USER_CHARGES


@<TRIPOS>ATOM
  1 S       -0.3990     0.0190    -0.0800 S.o2  1 <1>   1.3330 
  2 O       -1.0880     1.2060    -0.5320 O.2   1 <1>  -0.6500 
  3 O       -0.5370    -0.4040     1.2950 O.2   1 <1>  -0.6500 
  4 N       -0.8680    -1.2780    -1.0690 N.am  1 <1>  -0.8490 
  5 C        1.3380     0.2080    -0.4870 C.3   1 <1>  -0.0550 
  6 C       -0.5880    -2.5920    -0.4790 C.3   1 <1>   0.1160 
  7 C       -2.2790    -1.1980    -1.4600 C.3   1 <1>   0.1160 
  8 C        2.0170     1.3900     0.2340 C.3   1 <1>  -0.0800 
  9 C        3.4070     1.6440    -0.3220 C.3   1 <1>   0.2200 
 10 C        2.3160     1.0740     1.7040 C.3   1 <1>   0.1200 
 11 N        3.7960     3.0430    -0.0340 N.am  1 <1>  -0.7300 
 12 C        4.2580     0.6940     0.5130 C.3   1 <1>   0.1200 
 13 O        3.6280     0.5930     1.7560 O.3   1 <1>  -0.5600 
 14 C        4.0960     3.9900    -0.9710 C.2   1 <1>   0.5440 
 15 O        4.0620     3.6680    -2.1430 O.2   1 <1>  -0.5700 
 16 C        4.4600     5.3380    -0.5730 C.ar  1 <1>   0.0860 
 17 C        5.2930     6.1200    -1.3740 C.ar  1 <1>  -0.1500 
 18 C        3.9990     5.9060     0.6180 C.ar  1 <1>  -0.1500 
 19 C        5.6670     7.4010    -1.0110 C.ar  1 <1>  -0.1440 
 20 C        4.3570     7.1850     1.0080 C.ar  1 <1>  -0.1440 
 21 C        5.1970     7.9290     0.1860 C.ar  1 <1>   0.0820 
 22 C        6.5800     8.2130    -1.9200 C.3   1 <1>  -0.0970 
 23 C        3.8220     7.7480     2.3190 C.3   1 <1>  -0.0970 
 24 O        5.5560     9.1700     0.5470 O.3   1 <1>  -0.5330 
 25 H        1.8600    -0.7000    -0.2590 H     1 <1>   0.0800 
 26 H        1.4090     0.3700    -1.5450 H     1 <1>   0.0800 
 27 H       -0.8180    -3.3710    -1.1850 H     1 <1>   0.0800 
 28 H       -1.1790    -2.7390     0.4100 H     1 <1>   0.0800 
 29 H        0.4530    -2.6680    -0.2170 H     1 <1>   0.0800 
 30 H       -2.5380    -2.0260    -2.0970 H     1 <1>   0.0800 
 31 H       -2.4600    -0.2860    -2.0050 H     1 <1>   0.0800 
 32 H       -2.9100    -1.2090    -0.5870 H     1 <1>   0.0800 
 33 H        1.3940     2.2640     0.1350 H     1 <1>   0.0800 
 34 H        3.4880     1.4370    -1.3760 H     1 <1>   0.0800 
 35 H        1.6610     0.3360     2.1320 H     1 <1>   0.0800 
 36 H        2.2770     1.9690     2.3000 H     1 <1>   0.0800 
 37 H        3.9670     3.2380     0.9540 H     1 <1>   0.3700 
 38 H        5.2660     1.0470     0.6440 H     1 <1>   0.0800 
 39 H        4.2720    -0.2880     0.0750 H     1 <1>   0.0800 
 40 H        5.6480     5.7010    -2.3000 H     1 <1>   0.1500 
 41 H        3.3380     5.3320     1.2410 H     1 <1>   0.1500 
 42 H        6.8460     7.6590    -2.8010 H     1 <1>   0.0800 
 43 H        7.4790     8.4740    -1.3910 H     1 <1>   0.0800 
 44 H        6.0810     9.1170    -2.2200 H     1 <1>   0.0800 
 45 H        3.1970     7.0310     2.8210 H     1 <1>   0.0800 
 46 H        3.2350     8.6290     2.1300 H     1 <1>   0.0800 
 47 H        4.6380     7.9970     2.9740 H     1 <1>   0.0800 
 48 H        5.1650     9.4450     1.3920 H     1 <1>   0.4500 
@<TRIPOS>BOND
  1   1   2  2   
  2   1   3  2   
  3   1   4  am  
  4   1   5  1   
  5   4   6  1   
  6   4   7  1   
  7   5   8  1   
  8   5  25  1   
  9   5  26  1   
 10   6  27  1   
 11   6  28  1   
 12   6  29  1   
 13   7  30  1   
 14   7  31  1   
 15   7  32  1   
 16   8   9  1   
 17   8  10  1   
 18   8  33  1   
 19   9  11  1   
 20   9  12  1   
 21   9  34  1   
 22  10  13  1   
 23  10  35  1   
 24  10  36  1   
 25  11  14  am  
 26  11  37  1   
 27  12  13  1   
 28  12  38  1   
 29  12  39  1   
 30  14  15  2   
 31  14  16  1   
 32  16  17  ar  
 33  16  18  ar  
 34  17  19  ar  
 35  17  40  1   
 36  18  20  ar  
 37  18  41  1   
 38  19  21  ar  
 39  19  22  1   
 40  20  21  ar  
 41  20  23  1   
 42  21  24  1   
 43  22  42  1   
 44  22  43  1   
 45  22  44  1   
 46  23  45  1   
 47  23  46  1   
 48  23  47  1   
 49  24  48  1   
@<TRIPOS>SUBSTRUCTURE
  1 ****  11 GROUP 4 **** **** 0

# MOE 2024.06 (io_trps.svl 2023.06)
