@<TRIPOS>MOLECULE
NONAME
51 54 1 0 0 
SMALL
USER_CHARGES


@<TRIPOS>ATOM
  1 CL       0.8410    -2.3370    -1.5780 Cl    1 <1>  -0.1770 
  2 C       -0.8840    -2.5180    -1.3920 C.ar  1 <1>   0.1770 
  3 C       -1.3830    -3.0590    -0.2250 C.ar  1 <1>  -0.1500 
  4 C       -1.7190    -2.1190    -2.4200 C.ar  1 <1>  -0.1500 
  5 C       -2.7570    -3.2210    -0.0570 C.ar  1 <1>   0.0860 
  6 C       -3.0860    -2.2680    -2.2690 C.ar  1 <1>  -0.1500 
  7 C       -3.2930    -3.7890     1.1550 C.2   1 <1>   0.5440 
  8 C       -3.5970    -2.8090    -1.0970 C.ar  1 <1>   0.0830 
  9 O       -3.4760    -3.0750     2.1220 O.2   1 <1>  -0.5700 
 10 N       -3.5960    -5.1250     1.2430 N.am  1 <1>  -0.6600 
 11 O       -4.9300    -2.9550    -0.9810 O.3   1 <1>  -0.3630 
 12 C       -4.3860    -5.7000     2.3660 C.3   1 <1>   0.1400 
 13 C       -3.4240    -6.1130     0.1500 C.3   1 <1>   0.1400 
 14 C       -5.6860    -1.8350    -0.5570 C.3   1 <1>   0.1200 
 15 C       -4.8550    -7.0740     1.8820 C.3   1 <1>   0.2000 
 16 C       -3.8930    -7.4460     0.7410 C.3   1 <1>   0.2200 
 17 C       -6.4400    -2.1450     0.7440 C.3   1 <1>   0.0960 
 18 O       -4.8000    -8.0190     2.9060 O.3   1 <1>  -0.6800 
 19 N       -4.4250    -8.4190    -0.2610 N.am  1 <1>  -0.7300 
 20 N       -7.1880    -3.4190     0.7090 N.pl3 1 <1>   0.3140 
 21 C       -5.5040    -8.4150    -1.0810 C.2   1 <1>   0.5690 
 22 N       -7.4730    -4.0910     1.8290 N.2   1 <1>  -0.4180 
 23 C       -7.6580    -4.1000    -0.3400 C.2   1 <1>  -0.3020 
 24 O       -5.6970    -9.3700    -1.7860 O.2   1 <1>  -0.5700 
 25 C       -6.4820    -7.2570    -1.1680 C.3   1 <1>  -0.0990 
 26 N       -8.0800    -5.1810     1.5130 N.2   1 <1>  -0.2270 
 27 C       -8.1960    -5.2100     0.1830 C.2   1 <1>   0.0460 
 28 C       -7.8480    -7.5940    -0.5370 C.3   1 <1>  -0.1600 
 29 C       -8.8060    -6.3910    -0.5470 C.3   1 <1>   0.0210 
 30 H       -0.7100    -3.3540     0.5610 H     1 <1>   0.1500 
 31 H       -1.3000    -1.7020    -3.3190 H     1 <1>   0.1500 
 32 H       -3.7550    -1.9710    -3.0570 H     1 <1>   0.1500 
 33 H       -3.7520    -5.7840     3.2310 H     1 <1>   0.0800 
 34 H       -5.2240    -5.0670     2.5980 H     1 <1>   0.0800 
 35 H       -4.0200    -5.8170    -0.6940 H     1 <1>   0.0800 
 36 H       -2.3900    -6.1710    -0.1410 H     1 <1>   0.0800 
 37 H       -5.0270    -0.9960    -0.4080 H     1 <1>   0.0800 
 38 H       -6.3800    -1.5920    -1.3420 H     1 <1>   0.0800 
 39 H       -5.8710    -7.0030     1.5400 H     1 <1>   0.0800 
 40 H       -3.0230    -7.8910     1.1900 H     1 <1>   0.0800 
 41 H       -7.1360    -1.3550     0.9550 H     1 <1>   0.0800 
 42 H       -5.7430    -2.1890     1.5600 H     1 <1>   0.0800 
 43 H       -3.9350    -8.0000     3.3550 H     1 <1>   0.4000 
 44 H       -3.9300    -9.3130    -0.2690 H     1 <1>   0.3700 
 45 H       -7.5640    -3.7830    -1.3600 H     1 <1>   0.1500 
 46 H       -6.0630    -6.3960    -0.6930 H     1 <1>   0.0800 
 47 H       -6.6200    -7.0180    -2.2060 H     1 <1>   0.0800 
 48 H       -8.2950    -8.4120    -1.0750 H     1 <1>   0.0800 
 49 H       -7.7030    -7.9160     0.4800 H     1 <1>   0.0800 
 50 H       -9.7330    -6.6580    -0.0720 H     1 <1>   0.0800 
 51 H       -9.0190    -6.1090    -1.5630 H     1 <1>   0.0800 
@<TRIPOS>BOND
  1   1   2  1   
  2   2   3  ar  
  3   2   4  ar  
  4   3   5  ar  
  5   3  30  1   
  6   4   6  ar  
  7   4  31  1   
  8   5   7  1   
  9   5   8  ar  
 10   6   8  ar  
 11   6  32  1   
 12   7   9  2   
 13   7  10  am  
 14   8  11  1   
 15  10  12  1   
 16  10  13  1   
 17  11  14  1   
 18  12  15  1   
 19  12  33  1   
 20  12  34  1   
 21  13  16  1   
 22  13  35  1   
 23  13  36  1   
 24  14  17  1   
 25  14  37  1   
 26  14  38  1   
 27  15  16  1   
 28  15  18  1   
 29  15  39  1   
 30  16  19  1   
 31  16  40  1   
 32  17  20  1   
 33  17  41  1   
 34  17  42  1   
 35  18  43  1   
 36  19  21  am  
 37  19  44  1   
 38  20  22  1   
 39  20  23  1   
 40  21  24  2   
 41  21  25  1   
 42  22  26  2   
 43  23  27  2   
 44  23  45  1   
 45  25  28  1   
 46  25  46  1   
 47  25  47  1   
 48  26  27  1   
 49  27  29  1   
 50  28  29  1   
 51  28  48  1   
 52  28  49  1   
 53  29  50  1   
 54  29  51  1   
@<TRIPOS>SUBSTRUCTURE
  1 ****  10 GROUP 4 **** **** 0

# MOE 2024.06 (io_trps.svl 2023.06)
