@<TRIPOS>MOLECULE
NONAME
51 54 1 0 0 
SMALL
USER_CHARGES


@<TRIPOS>ATOM
  1 O       -1.4080    -0.3390    -3.3160 O.2   1 <1>  -0.5700 
  2 C       -1.2380     0.4980    -2.4620 C.2   1 <1>   0.5690 
  3 N       -1.1210     0.1650    -1.1550 N.am  1 <1>  -0.7300 
  4 C       -1.1810     1.9620    -2.8620 C.3   1 <1>   0.0820 
  5 C       -1.1110    -1.1970    -0.5830 C.3   1 <1>   0.2200 
  6 C       -0.2130     2.7670    -2.0070 C.2   1 <1>   0.0460 
  7 C       -2.3830    -1.4720     0.2040 C.3   1 <1>  -0.0800 
  8 C       -0.0720    -1.2560     0.5300 C.3   1 <1>   0.1200 
  9 N       -0.4550     2.9760    -0.6990 N.2   1 <1>  -0.5650 
 10 C        0.9440     3.3580    -2.3440 C.2   1 <1>  -0.0400 
 11 C       -2.0810    -0.8440     1.5680 C.3   1 <1>   0.1200 
 12 C       -3.6920    -0.9800    -0.4410 C.3   1 <1>  -0.0160 
 13 O       -0.6920    -0.7070     1.6550 O.3   1 <1>  -0.5600 
 14 C        0.5660     3.6710    -0.2990 C.2   1 <1>   0.4250 
 15 O        1.4210     3.9240    -1.2740 O.3   1 <1>  -0.2800 
 16 C        1.7290     3.4680    -3.6350 C.3   1 <1>  -0.0600 
 17 C       -4.8950    -1.3790     0.3990 C.ar  1 <1>  -0.1440 
 18 C        0.8310     4.1430     1.0440 C.ar  1 <1>   0.0530 
 19 C       -5.4990    -0.5010     1.2770 C.ar  1 <1>  -0.1500 
 20 C       -5.4430    -2.6430     0.3280 C.ar  1 <1>  -0.1500 
 21 C        1.7800     5.1340     1.3010 C.ar  1 <1>  -0.1500 
 22 C        0.1460     3.6140     2.1390 C.ar  1 <1>  -0.1500 
 23 C       -6.5880    -0.9210     2.0230 C.ar  1 <1>   0.1600 
 24 C       -6.5350    -2.9620     1.1180 C.ar  1 <1>   0.1600 
 25 C        2.0310     5.5790     2.5860 C.ar  1 <1>  -0.1500 
 26 C        0.3920     4.0540     3.4270 C.ar  1 <1>  -0.1500 
 27 N       -7.1190    -2.1320     1.9670 N.ar  1 <1>  -0.6200 
 28 C        1.3360     5.0390     3.6530 C.ar  1 <1>  -0.1500 
 29 H       -0.9290     0.9230    -0.4830 H     1 <1>   0.3700 
 30 H       -0.8940     2.0240    -3.8940 H     1 <1>   0.0800 
 31 H       -2.1650     2.3800    -2.7660 H     1 <1>   0.0800 
 32 H       -0.9290    -1.9290    -1.3530 H     1 <1>   0.0800 
 33 H       -2.4580    -2.5350     0.3500 H     1 <1>   0.0800 
 34 H        0.8190    -0.6990     0.2990 H     1 <1>   0.0800 
 35 H        0.1810    -2.2760     0.7600 H     1 <1>   0.0800 
 36 H       -2.4280    -1.4600     2.3800 H     1 <1>   0.0800 
 37 H       -2.5060     0.1420     1.6510 H     1 <1>   0.0800 
 38 H       -3.7860    -1.4050    -1.4260 H     1 <1>   0.0800 
 39 H       -3.6770     0.0900    -0.5530 H     1 <1>   0.0800 
 40 H        1.2330     2.9430    -4.4310 H     1 <1>   0.0800 
 41 H        2.7080     3.0460    -3.4990 H     1 <1>   0.0800 
 42 H        1.8310     4.5020    -3.9100 H     1 <1>   0.0800 
 43 H       -5.1350     0.5040     1.3880 H     1 <1>   0.1500 
 44 H       -5.0320    -3.3820    -0.3350 H     1 <1>   0.1500 
 45 H        2.3280     5.5640     0.4810 H     1 <1>   0.1500 
 46 H       -0.5880     2.8430     1.9770 H     1 <1>   0.1500 
 47 H       -7.0460    -0.2230     2.7030 H     1 <1>   0.1500 
 48 H       -6.9490    -3.9530     1.0490 H     1 <1>   0.1500 
 49 H        2.7670     6.3450     2.7580 H     1 <1>   0.1500 
 50 H       -0.1500     3.6270     4.2540 H     1 <1>   0.1500 
 51 H        1.5290     5.3820     4.6550 H     1 <1>   0.1500 
@<TRIPOS>BOND
  1   1   2  2   
  2   2   3  am  
  3   2   4  1   
  4   3   5  1   
  5   3  29  1   
  6   4   6  1   
  7   4  30  1   
  8   4  31  1   
  9   5   7  1   
 10   5   8  1   
 11   5  32  1   
 12   6   9  1   
 13   6  10  2   
 14   7  11  1   
 15   7  12  1   
 16   7  33  1   
 17   8  13  1   
 18   8  34  1   
 19   8  35  1   
 20   9  14  2   
 21  10  15  1   
 22  10  16  1   
 23  11  13  1   
 24  11  36  1   
 25  11  37  1   
 26  12  17  1   
 27  12  38  1   
 28  12  39  1   
 29  14  15  1   
 30  14  18  1   
 31  16  40  1   
 32  16  41  1   
 33  16  42  1   
 34  17  19  ar  
 35  17  20  ar  
 36  18  21  ar  
 37  18  22  ar  
 38  19  23  ar  
 39  19  43  1   
 40  20  24  ar  
 41  20  44  1   
 42  21  25  ar  
 43  21  45  1   
 44  22  26  ar  
 45  22  46  1   
 46  23  27  ar  
 47  23  47  1   
 48  24  27  ar  
 49  24  48  1   
 50  25  28  ar  
 51  25  49  1   
 52  26  28  ar  
 53  26  50  1   
 54  28  51  1   
@<TRIPOS>SUBSTRUCTURE
  1 ****   3 GROUP 4 **** **** 0

# MOE 2024.06 (io_trps.svl 2023.06)
