@<TRIPOS>MOLECULE
NONAME
47 49 1 0 0 
SMALL
USER_CHARGES


@<TRIPOS>ATOM
  1 S        0.4440     0.0440     0.6550 S.o2  1 <1>   1.3330 
  2 O       -0.4880     0.0000     1.7590 O.2   1 <1>  -0.6500 
  3 O        1.8610     0.1560     0.9170 O.2   1 <1>  -0.6500 
  4 N        0.2140    -1.3560    -0.2780 N.am  1 <1>  -0.8490 
  5 C       -0.0730     1.3400    -0.4680 C.3   1 <1>  -0.0550 
  6 C       -0.0810    -2.5310     0.5470 C.3   1 <1>   0.1160 
  7 C        1.3360    -1.6490    -1.1770 C.3   1 <1>   0.1160 
  8 C        0.0120     2.7510     0.1340 C.3   1 <1>  -0.0800 
  9 C       -0.5150     3.8100    -0.8290 C.3   1 <1>   0.2000 
 10 C        1.4360     3.2120     0.4430 C.3   1 <1>   0.2090 
 11 O       -1.8990     3.8760    -0.7370 O.3   1 <1>  -0.6800 
 12 C        0.1650     5.1110    -0.4080 C.3   1 <1>   0.2090 
 13 N        1.4000     4.6860     0.3010 N.pl3 1 <1>  -0.8380 
 14 C        2.5530     5.4610     0.2780 C.ar  1 <1>   0.4100 
 15 N        3.6730     4.7740     0.0240 N.ar  1 <1>  -0.6200 
 16 C        2.5390     6.8530     0.5090 C.ar  1 <1>  -0.1790 
 17 C        4.7810     5.4790     0.0050 C.ar  1 <1>   0.1670 
 18 C        1.3290     7.5780     0.7920 C.2   1 <1>   0.9790 
 19 C        3.7400     7.5500     0.4730 C.ar  1 <1>  -0.1500 
 20 C        4.8780     6.8290     0.2120 C.ar  1 <1>  -0.1440 
 21 C        6.1330     4.8730    -0.2580 C.3   1 <1>  -0.0170 
 22 O        0.6190     8.0130    -0.1380 O.co2 1 <1>  -0.9000 
 23 O        0.9930     7.8430     1.9600 O.co2 1 <1>  -0.9000 
 24 C        6.3020     7.3120     0.1110 C.3   1 <1>  -0.0170 
 25 C        7.1210     6.0090     0.0730 C.3   1 <1>  -0.1600 
 26 H        0.5250     1.3030    -1.3560 H     1 <1>   0.0800 
 27 H       -1.0910     1.1570    -0.7530 H     1 <1>   0.0800 
 28 H       -0.2330    -3.3960    -0.0750 H     1 <1>   0.0800 
 29 H       -0.9810    -2.3650     1.1160 H     1 <1>   0.0800 
 30 H        0.7300    -2.7210     1.2310 H     1 <1>   0.0800 
 31 H        1.0960    -2.4890    -1.8060 H     1 <1>   0.0800 
 32 H        2.2240    -1.8780    -0.6100 H     1 <1>   0.0800 
 33 H        1.5400    -0.8000    -1.8070 H     1 <1>   0.0800 
 34 H       -0.5460     2.7940     1.0540 H     1 <1>   0.0800 
 35 H       -0.2500     3.5810    -1.8470 H     1 <1>   0.0800 
 36 H        2.1320     2.7990    -0.2670 H     1 <1>   0.0800 
 37 H        1.7400     2.9400     1.4400 H     1 <1>   0.0800 
 38 H       -2.1420     4.3430     0.0880 H     1 <1>   0.4000 
 39 H       -0.4560     5.6660     0.2730 H     1 <1>   0.0800 
 40 H        0.4080     5.7190    -1.2630 H     1 <1>   0.0800 
 41 H        3.7570     8.6110     0.6480 H     1 <1>   0.1500 
 42 H        6.2900     4.0120     0.3680 H     1 <1>   0.0800 
 43 H        6.1930     4.5900    -1.2930 H     1 <1>   0.0800 
 44 H        6.4240     7.8700    -0.8000 H     1 <1>   0.0800 
 45 H        6.5660     7.9240     0.9560 H     1 <1>   0.0800 
 46 H        7.5360     5.8310     1.0500 H     1 <1>   0.0800 
 47 H        7.9200     6.0610    -0.6450 H     1 <1>   0.0800 
@<TRIPOS>BOND
  1   1   2  2   
  2   1   3  2   
  3   1   4  am  
  4   1   5  1   
  5   4   6  1   
  6   4   7  1   
  7   5   8  1   
  8   5  26  1   
  9   5  27  1   
 10   6  28  1   
 11   6  29  1   
 12   6  30  1   
 13   7  31  1   
 14   7  32  1   
 15   7  33  1   
 16   8   9  1   
 17   8  10  1   
 18   8  34  1   
 19   9  11  1   
 20   9  12  1   
 21   9  35  1   
 22  10  13  1   
 23  10  36  1   
 24  10  37  1   
 25  11  38  1   
 26  12  13  1   
 27  12  39  1   
 28  12  40  1   
 29  13  14  1   
 30  14  15  ar  
 31  14  16  ar  
 32  15  17  ar  
 33  16  18  1   
 34  16  19  ar  
 35  17  20  ar  
 36  17  21  1   
 37  18  22  ar  
 38  18  23  ar  
 39  19  20  ar  
 40  19  41  1   
 41  20  24  1   
 42  21  25  1   
 43  21  42  1   
 44  21  43  1   
 45  24  25  1   
 46  24  44  1   
 47  24  45  1   
 48  25  46  1   
 49  25  47  1   
@<TRIPOS>SUBSTRUCTURE
  1 ****  10 GROUP 4 **** **** 0

# MOE 2024.06 (io_trps.svl 2023.06)
