@<TRIPOS>MOLECULE
NONAME
48 50 1 0 0 
SMALL
USER_CHARGES


@<TRIPOS>ATOM
  1 O        1.1540     2.9940     2.5500 O.2   1 <1>  -0.5700 
  2 C        1.7490     2.6410     1.5620 C.2   1 <1>   0.6900 
  3 N        1.8130     1.3370     1.1960 N.am  1 <1>  -0.4900 
  4 N        2.3830     3.5690     0.7830 N.am  1 <1>  -0.5390 
  5 C        2.4720     0.9210     0.0810 C.2   1 <1>   0.6160 
  6 C        3.0950     3.2180    -0.3630 C.2   1 <1>  -0.0290 
  7 O        2.4930    -0.2580    -0.1920 O.2   1 <1>  -0.5700 
  8 C        3.1310     1.9090    -0.7110 C.2   1 <1>  -0.1360 
  9 C        3.8010     4.3180    -1.1490 C.3   1 <1>   0.4810 
 10 N        4.8890     4.8950    -0.3010 N.4   1 <1>  -0.9590 
 11 C        5.3380     6.2260    -0.8200 C.3   1 <1>   0.3430 
 12 C        6.0220     3.9210    -0.1570 C.3   1 <1>   0.2630 
 13 C        5.6650     7.1870     0.3300 C.3   1 <1>  -0.0800 
 14 C        5.9570     8.6110    -0.1760 C.3   1 <1>   0.1400 
 15 C        6.8950     6.8010     1.1770 C.3   1 <1>  -0.0990 
 16 N        6.9950     9.1040     0.7420 N.am  1 <1>  -0.6600 
 17 C        7.5160     8.1250     1.5110 C.2   1 <1>   0.5690 
 18 C        7.4370    10.5250     0.8090 C.3   1 <1>   0.2200 
 19 O        8.3700     8.2410     2.3510 O.2   1 <1>  -0.5700 
 20 C        6.2750    11.4530     1.1590 C.3   1 <1>  -0.1600 
 21 C        7.9270    11.0220    -0.5490 C.3   1 <1>  -0.1600 
 22 C        5.7090    11.9930    -0.1610 C.3   1 <1>  -0.1600 
 23 C        6.7110    11.6230    -1.2600 C.3   1 <1>  -0.1600 
 24 H        1.3310     0.6470     1.7650 H     1 <1>   0.3700 
 25 H        2.1760     4.5250     1.0830 H     1 <1>   0.3700 
 26 H        3.6430     1.5320    -1.5780 H     1 <1>   0.1500 
 27 H        3.0820     5.0800    -1.4050 H     1 <1>   0.0800 
 28 H        4.2130     3.9180    -2.0620 H     1 <1>   0.0800 
 29 H        4.4800     5.0310     0.6350 H     1 <1>   0.4500 
 30 H        4.5490     6.6670    -1.4080 H     1 <1>   0.0800 
 31 H        6.2000     6.1080    -1.4590 H     1 <1>   0.0800 
 32 H        6.4980     3.7500    -1.1100 H     1 <1>   0.0800 
 33 H        5.6610     2.9780     0.2220 H     1 <1>   0.0800 
 34 H        6.7610     4.2950     0.5330 H     1 <1>   0.0800 
 35 H        4.8100     7.2670     0.9790 H     1 <1>   0.0800 
 36 H        5.0770     9.2300    -0.1270 H     1 <1>   0.0800 
 37 H        6.3510     8.6090    -1.1780 H     1 <1>   0.0800 
 38 H        7.6200     6.2420     0.6160 H     1 <1>   0.0800 
 39 H        6.6290     6.2780     2.0770 H     1 <1>   0.0800 
 40 H        8.2220    10.6140     1.5440 H     1 <1>   0.0800 
 41 H        6.6700    12.2800     1.7220 H     1 <1>   0.0800 
 42 H        5.5320    10.9620     1.7610 H     1 <1>   0.0800 
 43 H        8.4090    10.2480    -1.1200 H     1 <1>   0.0800 
 44 H        8.6410    11.8080    -0.3750 H     1 <1>   0.0800 
 45 H        5.5910    13.0620    -0.1020 H     1 <1>   0.0800 
 46 H        4.7480    11.5570    -0.3700 H     1 <1>   0.0800 
 47 H        6.2750    10.8970    -1.9220 H     1 <1>   0.0800 
 48 H        6.9930    12.4860    -1.8400 H     1 <1>   0.0800 
@<TRIPOS>BOND
  1   1   2  2   
  2   2   3  am  
  3   2   4  am  
  4   3   5  am  
  5   3  24  1   
  6   4   6  1   
  7   4  25  1   
  8   5   7  2   
  9   5   8  1   
 10   6   8  2   
 11   6   9  1   
 12   8  26  1   
 13   9  10  1   
 14   9  27  1   
 15   9  28  1   
 16  10  11  1   
 17  10  12  1   
 18  10  29  1   
 19  11  13  1   
 20  11  30  1   
 21  11  31  1   
 22  12  32  1   
 23  12  33  1   
 24  12  34  1   
 25  13  14  1   
 26  13  15  1   
 27  13  35  1   
 28  14  16  1   
 29  14  36  1   
 30  14  37  1   
 31  15  17  1   
 32  15  38  1   
 33  15  39  1   
 34  16  17  am  
 35  16  18  1   
 36  17  19  2   
 37  18  20  1   
 38  18  21  1   
 39  18  40  1   
 40  20  22  1   
 41  20  41  1   
 42  20  42  1   
 43  21  23  1   
 44  21  43  1   
 45  21  44  1   
 46  22  23  1   
 47  22  45  1   
 48  22  46  1   
 49  23  47  1   
 50  23  48  1   
@<TRIPOS>SUBSTRUCTURE
  1 ****  11 GROUP 4 **** **** 0

# MOE 2024.06 (io_trps.svl 2023.06)
