@<TRIPOS>MOLECULE
NONAME
61 64 1 0 0 
SMALL
USER_CHARGES


@<TRIPOS>ATOM
  1 O        2.4610    -4.5030     0.2900 O.3   1 <1>  -0.3630 
  2 C        1.2560    -4.9550     0.7400 C.ar  1 <1>   0.0820 
  3 C        2.7230    -3.1300     0.0820 C.3   1 <1>   0.2000 
  4 C        1.1750    -6.0010     1.6750 C.ar  1 <1>   0.0820 
  5 C        0.0800    -4.3930     0.2520 C.ar  1 <1>  -0.1500 
  6 C        4.1260    -3.0330    -0.5100 C.3   1 <1>  -0.2400 
  7 C        2.6350    -2.3860     1.4170 C.3   1 <1>  -0.2400 
  8 O        2.2140    -6.6680     2.2590 O.3   1 <1>  -0.3630 
  9 C       -0.0710    -6.4410     2.0870 C.ar  1 <1>  -0.1500 
 10 C       -1.1560    -4.8410     0.6830 C.ar  1 <1>  -0.1500 
 11 C        3.5600    -6.2720     2.1220 C.3   1 <1>   0.0400 
 12 C       -1.2380    -5.8720     1.6040 C.ar  1 <1>  -0.1440 
 13 C       -2.5720    -6.3990     2.0840 C.3   1 <1>   0.4860 
 14 N       -2.9210    -7.5320     1.2020 N.4   1 <1>  -0.9590 
 15 C       -3.7070    -7.1800    -0.0160 C.3   1 <1>   0.3430 
 16 C       -3.5790    -8.6970     1.8340 C.3   1 <1>   0.3430 
 17 C       -4.5350    -8.4280    -0.3590 C.3   1 <1>   0.2000 
 18 C       -4.1400    -9.5060     0.6620 C.3   1 <1>  -0.0800 
 19 O       -5.8860    -8.1370    -0.2060 O.3   1 <1>  -0.6800 
 20 C       -3.1210   -10.5300     0.0990 C.3   1 <1>  -0.0170 
 21 C       -1.6900   -10.0160    -0.0430 C.ar  1 <1>   0.1670 
 22 N       -1.4830    -9.0340    -0.8670 N.ar  1 <1>  -0.6200 
 23 C       -0.6730   -10.6020     0.7280 C.ar  1 <1>  -0.1500 
 24 C       -0.2100    -8.5750    -1.0120 C.ar  1 <1>   0.3100 
 25 C        0.6050   -10.1430     0.6270 C.ar  1 <1>  -0.1500 
 26 C        0.8700    -9.0940    -0.2680 C.ar  1 <1>   0.0000 
 27 C        0.0390    -7.5380    -1.9240 C.ar  1 <1>  -0.1500 
 28 C        2.1540    -8.5460    -0.4550 C.ar  1 <1>  -0.1500 
 29 C        1.2960    -7.0200    -2.0910 C.ar  1 <1>  -0.1500 
 30 C        2.3630    -7.5290    -1.3450 C.ar  1 <1>  -0.1500 
 31 H        2.0150    -2.7380    -0.6260 H     1 <1>   0.0800 
 32 H        0.1130    -3.6070    -0.4770 H     1 <1>   0.1500 
 33 H        4.8500    -3.4430     0.1720 H     1 <1>   0.0800 
 34 H        4.3760    -2.0050    -0.7000 H     1 <1>   0.0800 
 35 H        4.1690    -3.5700    -1.4400 H     1 <1>   0.0800 
 36 H        3.3230    -2.8070     2.1280 H     1 <1>   0.0800 
 37 H        1.6380    -2.4370     1.8150 H     1 <1>   0.0800 
 38 H        2.8830    -1.3500     1.2740 H     1 <1>   0.0800 
 39 H       -0.1030    -7.2450     2.8000 H     1 <1>   0.1500 
 40 H       -2.0450    -4.3770     0.2890 H     1 <1>   0.1500 
 41 H        4.1610    -6.9040     2.7500 H     1 <1>   0.0800 
 42 H        3.6550    -5.2480     2.4340 H     1 <1>   0.0800 
 43 H        3.8560    -6.3900     1.0950 H     1 <1>   0.0800 
 44 H       -3.3270    -5.6310     2.0420 H     1 <1>   0.0800 
 45 H       -2.4700    -6.7350     3.1020 H     1 <1>   0.0800 
 46 H       -2.0210    -7.8810     0.8120 H     1 <1>   0.4500 
 47 H       -4.3620    -6.3440     0.1650 H     1 <1>   0.0800 
 48 H       -3.0360    -6.9460    -0.8270 H     1 <1>   0.0800 
 49 H       -2.8830    -9.2760     2.4210 H     1 <1>   0.0800 
 50 H       -4.3880    -8.3620     2.4630 H     1 <1>   0.0800 
 51 H       -4.3790    -8.7350    -1.3800 H     1 <1>   0.0800 
 52 H       -5.0080   -10.0610     0.9750 H     1 <1>   0.0800 
 53 H       -6.1550    -8.0210     0.7250 H     1 <1>   0.4000 
 54 H       -3.4550   -10.8740    -0.8650 H     1 <1>   0.0800 
 55 H       -3.1160   -11.3920     0.7430 H     1 <1>   0.0800 
 56 H       -0.9030   -11.4160     1.3920 H     1 <1>   0.1500 
 57 H        1.4120   -10.5620     1.2030 H     1 <1>   0.1500 
 58 H       -0.7860    -7.1590    -2.4960 H     1 <1>   0.1500 
 59 H        2.9710    -8.9370     0.1240 H     1 <1>   0.1500 
 60 H        1.4810    -6.2200    -2.7880 H     1 <1>   0.1500 
 61 H        3.3440    -7.1050    -1.4800 H     1 <1>   0.1500 
@<TRIPOS>BOND
  1   1   2  1   
  2   1   3  1   
  3   2   4  ar  
  4   2   5  ar  
  5   3   6  1   
  6   3   7  1   
  7   3  31  1   
  8   4   8  1   
  9   4   9  ar  
 10   5  10  ar  
 11   5  32  1   
 12   6  33  1   
 13   6  34  1   
 14   6  35  1   
 15   7  36  1   
 16   7  37  1   
 17   7  38  1   
 18   8  11  1   
 19   9  12  ar  
 20   9  39  1   
 21  10  12  ar  
 22  10  40  1   
 23  11  41  1   
 24  11  42  1   
 25  11  43  1   
 26  12  13  1   
 27  13  14  1   
 28  13  44  1   
 29  13  45  1   
 30  14  15  1   
 31  14  16  1   
 32  14  46  1   
 33  15  17  1   
 34  15  47  1   
 35  15  48  1   
 36  16  18  1   
 37  16  49  1   
 38  16  50  1   
 39  17  18  1   
 40  17  19  1   
 41  17  51  1   
 42  18  20  1   
 43  18  52  1   
 44  19  53  1   
 45  20  21  1   
 46  20  54  1   
 47  20  55  1   
 48  21  22  ar  
 49  21  23  ar  
 50  22  24  ar  
 51  23  25  ar  
 52  23  56  1   
 53  24  26  ar  
 54  24  27  ar  
 55  25  26  ar  
 56  25  57  1   
 57  26  28  ar  
 58  27  29  ar  
 59  27  58  1   
 60  28  30  ar  
 61  28  59  1   
 62  29  30  ar  
 63  29  60  1   
 64  30  61  1   
@<TRIPOS>SUBSTRUCTURE
  1 ****   9 GROUP 4 **** **** 0

# MOE 2024.06 (io_trps.svl 2023.06)
