@<TRIPOS>MOLECULE
NONAME
42 43 1 0 0 
SMALL
USER_CHARGES


@<TRIPOS>ATOM
  1 O       -0.8750    -0.0620    -0.6640 O.2   1 <1>  -0.5700 
  2 C       -1.7410     0.7440    -0.3690 C.2   1 <1>   0.7150 
  3 N       -3.0340     0.3020    -0.2040 N.am  1 <1>  -0.6600 
  4 C       -1.3890     2.1320    -0.1960 C.2   1 <1>  -0.2370 
  5 C       -3.4250    -1.0900    -0.6120 C.3   1 <1>   0.1400 
  6 C       -4.0870     1.1150     0.4780 C.3   1 <1>   0.1400 
  7 N       -0.2640     2.5540     0.4680 N.pl3 1 <1>   0.0480 
  8 C       -2.0470     3.2540    -0.6380 C.2   1 <1>  -0.1500 
  9 C       -4.9390    -1.1630    -0.8450 C.3   1 <1>   0.2000 
 10 C       -5.0250     0.2160     1.2930 C.3   1 <1>  -0.1600 
 11 C       -0.2380     3.9090     0.4410 C.2   1 <1>  -0.3020 
 12 C        0.7510     1.6970     1.1100 C.3   1 <1>   0.0160 
 13 C       -1.3230     4.3710    -0.2330 C.2   1 <1>  -0.1500 
 14 O       -5.2690    -2.3810    -1.4110 O.3   1 <1>  -0.6800 
 15 C       -5.7300    -0.9150     0.4750 C.3   1 <1>  -0.1060 
 16 C       -5.7570    -2.1750     1.3780 C.2   1 <1>   0.9060 
 17 C       -7.2050    -0.5300     0.1510 C.3   1 <1>  -0.1600 
 18 O       -6.2440    -2.0800     2.5110 O.co2 1 <1>  -0.9000 
 19 O       -5.3010    -3.2570     0.9750 O.co2 1 <1>  -0.9000 
 20 C       -7.4280     0.7860    -0.6210 C.3   1 <1>  -0.1600 
 21 C       -8.9230     1.0400    -0.8330 C.3   1 <1>  -0.2400 
 22 H       -2.9110    -1.3550    -1.5200 H     1 <1>   0.0800 
 23 H       -3.1430    -1.7810     0.1640 H     1 <1>   0.0800 
 24 H       -3.6280     1.8290     1.1400 H     1 <1>   0.0800 
 25 H       -4.6500     1.6520    -0.2650 H     1 <1>   0.0800 
 26 H       -2.9600     3.2820    -1.2060 H     1 <1>   0.1500 
 27 H       -5.1770    -0.4220    -1.5830 H     1 <1>   0.0800 
 28 H       -4.4230    -0.2310     2.0660 H     1 <1>   0.0800 
 29 H       -5.7580     0.8140     1.8050 H     1 <1>   0.0800 
 30 H        0.5490     4.4820     0.8970 H     1 <1>   0.1500 
 31 H        1.4390     2.3030     1.6690 H     1 <1>   0.0800 
 32 H        1.2830     1.1540     0.3500 H     1 <1>   0.0800 
 33 H        0.2640     1.0010     1.7680 H     1 <1>   0.0800 
 34 H       -1.5880     5.3950    -0.4320 H     1 <1>   0.1500 
 35 H       -5.2900    -3.0240    -0.6350 H     1 <1>   0.4000 
 36 H       -7.6450    -1.3400    -0.4070 H     1 <1>   0.0800 
 37 H       -7.7450    -0.4710     1.0810 H     1 <1>   0.0800 
 38 H       -7.0150     1.6120    -0.0720 H     1 <1>   0.0800 
 39 H       -6.9510     0.7430    -1.5830 H     1 <1>   0.0800 
 40 H       -9.4280     1.1110     0.1140 H     1 <1>   0.0800 
 41 H       -9.3600     0.2360    -1.3990 H     1 <1>   0.0800 
 42 H       -9.0690     1.9590    -1.3720 H     1 <1>   0.0800 
@<TRIPOS>BOND
  1   1   2  2   
  2   2   3  am  
  3   2   4  1   
  4   3   5  1   
  5   3   6  1   
  6   4   7  1   
  7   4   8  2   
  8   5   9  1   
  9   5  22  1   
 10   5  23  1   
 11   6  10  1   
 12   6  24  1   
 13   6  25  1   
 14   7  11  1   
 15   7  12  1   
 16   8  13  1   
 17   8  26  1   
 18   9  14  1   
 19   9  15  1   
 20   9  27  1   
 21  10  15  1   
 22  10  28  1   
 23  10  29  1   
 24  11  13  2   
 25  11  30  1   
 26  12  31  1   
 27  12  32  1   
 28  12  33  1   
 29  13  34  1   
 30  14  35  1   
 31  15  16  1   
 32  15  17  1   
 33  16  18  ar  
 34  16  19  ar  
 35  17  20  1   
 36  17  36  1   
 37  17  37  1   
 38  20  21  1   
 39  20  38  1   
 40  20  39  1   
 41  21  40  1   
 42  21  41  1   
 43  21  42  1   
@<TRIPOS>SUBSTRUCTURE
  1 ****   3 GROUP 4 **** **** 0

# MOE 2024.06 (io_trps.svl 2023.06)
