@<TRIPOS>MOLECULE
NONAME
58 63 1 0 0 
SMALL
USER_CHARGES


@<TRIPOS>ATOM
  1 O       -0.9930     1.2770    -1.7390 O.2   1 <1>  -0.5700 
  2 C       -1.9900     1.5680    -1.0980 C.2   1 <1>   0.5440 
  3 N       -3.1020     0.7480    -1.2170 N.am  1 <1>  -0.6600 
  4 C       -1.9590     2.7330    -0.2100 C.ar  1 <1>   0.3960 
  5 C       -3.2060    -0.3070    -2.2660 C.3   1 <1>   0.1400 
  6 C       -4.3270     0.8780    -0.3800 C.3   1 <1>   0.1400 
  7 N       -2.8490     3.7030    -0.4000 N.ar  1 <1>  -0.6200 
  8 C       -1.0250     2.8300     0.8200 C.ar  1 <1>  -0.1430 
  9 C       -3.4760    -1.6560    -1.5990 C.3   1 <1>  -0.1600 
 10 C       -4.6030    -0.4590     0.3090 C.3   1 <1>  -0.1600 
 11 C       -2.7800     4.7150     0.4290 C.ar  1 <1>   0.7200 
 12 C       -1.0580     3.9630     1.6080 C.ar  1 <1>   0.1660 
 13 C        0.0070     1.7240     1.0620 C.3   1 <1>  -0.0170 
 14 C       -4.7190    -1.6040    -0.7060 C.3   1 <1>   0.4600 
 15 N       -1.9380     4.9120     1.4190 N.ar  1 <1>  -0.6200 
 16 N       -3.6740     5.6830     0.2320 N.pl3 1 <1>  -0.9000 
 17 C       -0.0880     4.1850     2.7610 C.3   1 <1>  -0.0170 
 18 C        0.6660     1.8080     2.4430 C.3   1 <1>  -0.1600 
 19 O       -5.8140    -1.3550    -1.5610 O.3   1 <1>  -0.5600 
 20 C       -4.9240    -2.9420    -0.0050 C.2   1 <1>  -0.3320 
 21 C        1.1200     3.2410     2.7290 C.3   1 <1>  -0.1600 
 22 C       -7.1040    -1.6830    -1.1030 C.3   1 <1>   0.1200 
 23 N       -4.0170    -3.5960     0.7820 N.pl3 1 <1>   0.0330 
 24 C       -6.0560    -3.6700    -0.0760 C.2   1 <1>  -0.1810 
 25 C       -7.2450    -3.1970    -0.8740 C.3   1 <1>   0.0210 
 26 C       -4.5930    -4.7660     1.2120 C.ar  1 <1>  -0.1520 
 27 C       -5.8800    -4.8440     0.6860 C.ar  1 <1>   0.0000 
 28 C       -4.0920    -5.7830     2.0290 C.ar  1 <1>  -0.1500 
 29 C       -6.6810    -5.9520     0.9760 C.ar  1 <1>  -0.1500 
 30 C       -4.8910    -6.8680     2.3080 C.ar  1 <1>  -0.1500 
 31 C       -6.1860    -6.9530     1.7810 C.ar  1 <1>  -0.1500 
 32 H       -2.3020    -0.3640    -2.8480 H     1 <1>   0.0800 
 33 H       -4.0140    -0.0590    -2.9330 H     1 <1>   0.0800 
 34 H       -5.1570     1.1460    -1.0120 H     1 <1>   0.0800 
 35 H       -4.2140     1.6430     0.3660 H     1 <1>   0.0800 
 36 H       -2.6150    -1.9240    -1.0170 H     1 <1>   0.0800 
 37 H       -3.6130    -2.4130    -2.3490 H     1 <1>   0.0800 
 38 H       -5.4970    -0.3940     0.8980 H     1 <1>   0.0800 
 39 H       -3.7940    -0.6660     0.9850 H     1 <1>   0.0800 
 40 H        0.7700     1.8030     0.3050 H     1 <1>   0.0800 
 41 H       -0.4510     0.7550     0.9610 H     1 <1>   0.0800 
 42 H       -3.4350     6.5760     0.6550 H     1 <1>   0.4000 
 43 H       -4.0780     5.7160    -0.7000 H     1 <1>   0.4000 
 44 H       -0.6290     4.0410     3.6800 H     1 <1>   0.0800 
 45 H        0.2590     5.2030     2.7430 H     1 <1>   0.0800 
 46 H        1.5110     1.1420     2.4790 H     1 <1>   0.0800 
 47 H       -0.0370     1.4960     3.1970 H     1 <1>   0.0800 
 48 H        1.6370     3.2850     3.6720 H     1 <1>   0.0800 
 49 H        1.8020     3.5610     1.9600 H     1 <1>   0.0800 
 50 H       -7.8090    -1.3520    -1.8440 H     1 <1>   0.0800 
 51 H       -7.2890    -1.1480    -0.1880 H     1 <1>   0.0800 
 52 H       -3.0660    -3.2880     1.0070 H     1 <1>   0.2700 
 53 H       -7.2750    -3.7090    -1.8180 H     1 <1>   0.0800 
 54 H       -8.1550    -3.4000    -0.3410 H     1 <1>   0.0800 
 55 H       -3.0960    -5.7110     2.4290 H     1 <1>   0.1500 
 56 H       -7.6710    -6.0040     0.5640 H     1 <1>   0.1500 
 57 H       -4.5280    -7.6630     2.9340 H     1 <1>   0.1500 
 58 H       -6.7900    -7.8120     2.0130 H     1 <1>   0.1500 
@<TRIPOS>BOND
  1   1   2  2   
  2   2   3  am  
  3   2   4  1   
  4   3   5  1   
  5   3   6  1   
  6   4   7  ar  
  7   4   8  ar  
  8   5   9  1   
  9   5  32  1   
 10   5  33  1   
 11   6  10  1   
 12   6  34  1   
 13   6  35  1   
 14   7  11  ar  
 15   8  12  ar  
 16   8  13  1   
 17   9  14  1   
 18   9  36  1   
 19   9  37  1   
 20  10  14  1   
 21  10  38  1   
 22  10  39  1   
 23  11  15  ar  
 24  11  16  1   
 25  12  15  ar  
 26  12  17  1   
 27  13  18  1   
 28  13  40  1   
 29  13  41  1   
 30  14  19  1   
 31  14  20  1   
 32  16  42  1   
 33  16  43  1   
 34  17  21  1   
 35  17  44  1   
 36  17  45  1   
 37  18  21  1   
 38  18  46  1   
 39  18  47  1   
 40  19  22  1   
 41  20  23  1   
 42  20  24  2   
 43  21  48  1   
 44  21  49  1   
 45  22  25  1   
 46  22  50  1   
 47  22  51  1   
 48  23  26  1   
 49  23  52  1   
 50  24  25  1   
 51  24  27  1   
 52  25  53  1   
 53  25  54  1   
 54  26  27  ar  
 55  26  28  ar  
 56  27  29  ar  
 57  28  30  ar  
 58  28  55  1   
 59  29  31  ar  
 60  29  56  1   
 61  30  31  ar  
 62  30  57  1   
 63  31  58  1   
@<TRIPOS>SUBSTRUCTURE
  1 ****  10 GROUP 4 **** **** 0

# MOE 2024.06 (io_trps.svl 2023.06)
