@<TRIPOS>MOLECULE
NONAME
65 67 1 0 0 
SMALL
USER_CHARGES


@<TRIPOS>ATOM
  1 O       -3.8720     1.0880    -1.8920 O.2   1 <1>  -0.5700 
  2 C       -3.2230     0.5510    -1.0250 C.2   1 <1>   0.5690 
  3 N       -3.5960    -0.6960    -0.5460 N.am  1 <1>  -0.6600 
  4 C       -2.0310     1.3880    -0.5350 C.3   1 <1>  -0.0190 
  5 C       -2.8700    -1.7020     0.3350 C.3   1 <1>   0.3640 
  6 C       -5.0080    -1.1500    -0.8210 C.3   1 <1>   0.1400 
  7 C       -2.4370     2.7850    -0.0350 C.3   1 <1>  -0.1600 
  8 C       -0.9780     1.5740    -1.6430 C.3   1 <1>  -0.1600 
  9 C       -1.3730    -1.4430     0.4870 C.ar  1 <1>  -0.1440 
 10 C       -3.0860    -3.1570    -0.1640 C.3   1 <1>   0.2000 
 11 C       -5.0680    -2.6110    -1.2820 C.3   1 <1>   0.1200 
 12 C       -1.2110     3.5470     0.4770 C.3   1 <1>   0.3430 
 13 C        0.2500     2.2860    -1.0880 C.3   1 <1>   0.3430 
 14 C       -0.5230    -1.5030    -0.6100 C.ar  1 <1>  -0.1500 
 15 C       -0.8590    -1.0900     1.7280 C.ar  1 <1>  -0.1500 
 16 O       -4.4530    -3.4350    -0.3390 O.3   1 <1>  -0.5600 
 17 C       -2.5050    -4.1960     0.8100 C.3   1 <1>   0.1200 
 18 N       -0.1590     3.6340    -0.5820 N.4   1 <1>  -0.9590 
 19 C        0.8120    -1.1330    -0.4950 C.ar  1 <1>   0.0820 
 20 C        0.4710    -0.7310     1.8550 C.ar  1 <1>  -0.1500 
 21 O       -2.8760    -5.4650     0.3990 O.3   1 <1>  -0.6800 
 22 C        1.0160     4.4120    -0.0670 C.3   1 <1>   0.3430 
 23 O        1.6370    -1.0960    -1.5770 O.3   1 <1>  -0.3630 
 24 C        1.3010    -0.7290     0.7490 C.ar  1 <1>   0.0820 
 25 C        2.0460     4.7410    -1.1540 C.3   1 <1>   0.1200 
 26 C        1.4500    -2.0030    -2.6440 C.3   1 <1>   0.0400 
 27 O        2.5670    -0.2830     0.9160 O.3   1 <1>  -0.3630 
 28 O        2.9670     5.6160    -0.5950 O.3   1 <1>  -0.5600 
 29 C        3.5920    -1.2490     0.8260 C.3   1 <1>   0.0400 
 30 C        4.0000     5.9910    -1.4520 C.3   1 <1>   0.0400 
 31 H       -1.5800     0.9250     0.3070 H     1 <1>   0.0800 
 32 H       -3.3170    -1.6420     1.3120 H     1 <1>   0.0800 
 33 H       -5.5910    -1.0450     0.0770 H     1 <1>   0.0800 
 34 H       -5.4770    -0.5440    -1.5760 H     1 <1>   0.0800 
 35 H       -3.1490     2.6840     0.7650 H     1 <1>   0.0800 
 36 H       -2.9140     3.3440    -0.8220 H     1 <1>   0.0800 
 37 H       -1.3930     2.1390    -2.4600 H     1 <1>   0.0800 
 38 H       -0.6830     0.6270    -2.0490 H     1 <1>   0.0800 
 39 H       -2.6020    -3.2850    -1.1150 H     1 <1>   0.0800 
 40 H       -4.5790    -2.7340    -2.2330 H     1 <1>   0.0800 
 41 H       -6.0920    -2.9270    -1.3760 H     1 <1>   0.0800 
 42 H       -0.8110     3.0350     1.3390 H     1 <1>   0.0800 
 43 H       -1.5080     4.5380     0.7830 H     1 <1>   0.0800 
 44 H        0.9870     2.3840    -1.8690 H     1 <1>   0.0800 
 45 H        0.6800     1.7010    -0.2900 H     1 <1>   0.0800 
 46 H       -0.9220    -1.7950    -1.5640 H     1 <1>   0.1500 
 47 H       -1.4900    -1.0700     2.6010 H     1 <1>   0.1500 
 48 H       -2.8910    -4.0400     1.8030 H     1 <1>   0.0800 
 49 H       -1.4300    -4.1530     0.8380 H     1 <1>   0.0800 
 50 H       -0.5720     4.1480    -1.3720 H     1 <1>   0.4500 
 51 H        0.8700    -0.4420     2.8120 H     1 <1>   0.1500 
 52 H       -3.8210    -5.4310     0.1330 H     1 <1>   0.4000 
 53 H        0.6690     5.3440     0.3490 H     1 <1>   0.0800 
 54 H        1.5060     3.8560     0.7160 H     1 <1>   0.0800 
 55 H        1.5800     5.2340    -1.9900 H     1 <1>   0.0800 
 56 H        2.5690     3.8560    -1.4730 H     1 <1>   0.0800 
 57 H        2.3270    -1.9740    -3.2650 H     1 <1>   0.0800 
 58 H        0.5910    -1.7040    -3.2180 H     1 <1>   0.0800 
 59 H        1.3190    -2.9940    -2.2450 H     1 <1>   0.0800 
 60 H        4.5210    -0.7810     1.0980 H     1 <1>   0.0800 
 61 H        3.6500    -1.6150    -0.1830 H     1 <1>   0.0800 
 62 H        3.3730    -2.0540     1.5050 H     1 <1>   0.0800 
 63 H        4.6480     6.6670    -0.9210 H     1 <1>   0.0800 
 64 H        3.5900     6.4890    -2.3140 H     1 <1>   0.0800 
 65 H        4.5580     5.1180    -1.7470 H     1 <1>   0.0800 
@<TRIPOS>BOND
  1   1   2  2   
  2   2   3  am  
  3   2   4  1   
  4   3   5  1   
  5   3   6  1   
  6   4   7  1   
  7   4   8  1   
  8   4  31  1   
  9   5   9  1   
 10   5  10  1   
 11   5  32  1   
 12   6  11  1   
 13   6  33  1   
 14   6  34  1   
 15   7  12  1   
 16   7  35  1   
 17   7  36  1   
 18   8  13  1   
 19   8  37  1   
 20   8  38  1   
 21   9  14  ar  
 22   9  15  ar  
 23  10  16  1   
 24  10  17  1   
 25  10  39  1   
 26  11  16  1   
 27  11  40  1   
 28  11  41  1   
 29  12  18  1   
 30  12  42  1   
 31  12  43  1   
 32  13  18  1   
 33  13  44  1   
 34  13  45  1   
 35  14  19  ar  
 36  14  46  1   
 37  15  20  ar  
 38  15  47  1   
 39  17  21  1   
 40  17  48  1   
 41  17  49  1   
 42  18  22  1   
 43  18  50  1   
 44  19  23  1   
 45  19  24  ar  
 46  20  24  ar  
 47  20  51  1   
 48  21  52  1   
 49  22  25  1   
 50  22  53  1   
 51  22  54  1   
 52  23  26  1   
 53  24  27  1   
 54  25  28  1   
 55  25  55  1   
 56  25  56  1   
 57  26  57  1   
 58  26  58  1   
 59  26  59  1   
 60  27  29  1   
 61  28  30  1   
 62  29  60  1   
 63  29  61  1   
 64  29  62  1   
 65  30  63  1   
 66  30  64  1   
 67  30  65  1   
@<TRIPOS>SUBSTRUCTURE
  1 ****  14 GROUP 4 **** **** 0

# MOE 2024.06 (io_trps.svl 2023.06)
