@<TRIPOS>MOLECULE
NONAME
52 54 1 0 0 
SMALL
USER_CHARGES


@<TRIPOS>ATOM
  1 O       -3.8400     2.2620    -1.6550 O.2   1 <1>  -0.5700 
  2 C       -3.1470     2.1020    -0.6810 C.2   1 <1>   0.5690 
  3 N       -2.7030     0.8790    -0.3090 N.am  1 <1>  -0.7300 
  4 C       -2.7580     3.3020     0.1580 C.3   1 <1>  -0.0990 
  5 C       -2.9470    -0.3740    -1.0560 C.3   1 <1>   0.2200 
  6 C       -1.2620     3.6330     0.0270 C.3   1 <1>  -0.1600 
  7 C       -3.8960    -1.2530    -0.2600 C.3   1 <1>  -0.0800 
  8 C       -1.6770    -1.2160    -1.0620 C.3   1 <1>   0.1200 
  9 C       -0.8780     4.8710     0.8440 C.3   1 <1>  -0.0160 
 10 C       -2.9450    -1.9680     0.7080 C.3   1 <1>   0.1200 
 11 C       -4.6510    -2.2380    -1.1730 C.3   1 <1>  -0.0160 
 12 O       -1.6600    -1.8930     0.1590 O.3   1 <1>  -0.5600 
 13 C        0.6120     5.1380     0.7150 C.ar  1 <1>  -0.1440 
 14 C       -5.6200    -3.1030    -0.3800 C.ar  1 <1>  -0.1440 
 15 C        1.0960     5.9140    -0.3270 C.ar  1 <1>  -0.1500 
 16 C        1.5010     4.6000     1.6320 C.ar  1 <1>  -0.1500 
 17 C       -5.3610    -4.4300    -0.1020 C.ar  1 <1>  -0.1500 
 18 C       -6.8110    -2.6010     0.1020 C.ar  1 <1>  -0.1500 
 19 C        2.4530     6.1530    -0.4540 C.ar  1 <1>  -0.1500 
 20 C        2.8590     4.8360     1.5070 C.ar  1 <1>  -0.1500 
 21 C       -6.2780    -5.1680     0.6280 C.ar  1 <1>   0.1600 
 22 C       -7.6600    -3.4250     0.8220 C.ar  1 <1>   0.1600 
 23 C        3.3450     5.6110     0.4670 C.ar  1 <1>   0.0820 
 24 N       -7.4210    -4.6970     1.0990 N.ar  1 <1>  -0.6200 
 25 O        4.6880     5.7920     0.4160 O.3   1 <1>  -0.3630 
 26 C        5.2830     6.5730    -0.5960 C.3   1 <1>   0.0400 
 27 H       -2.1000     0.7710     0.5090 H     1 <1>   0.3700 
 28 H       -3.3440     4.1440    -0.1630 H     1 <1>   0.0800 
 29 H       -3.0040     3.0990     1.1840 H     1 <1>   0.0800 
 30 H       -3.2990    -0.1560    -2.0510 H     1 <1>   0.0800 
 31 H       -0.6730     2.7960     0.3590 H     1 <1>   0.0800 
 32 H       -1.0280     3.8080    -1.0100 H     1 <1>   0.0800 
 33 H       -4.6160    -0.6600     0.2760 H     1 <1>   0.0800 
 34 H       -0.7850    -0.6220    -1.1600 H     1 <1>   0.0800 
 35 H       -1.7110    -1.9520    -1.8450 H     1 <1>   0.0800 
 36 H       -1.1280     4.7210     1.8800 H     1 <1>   0.0800 
 37 H       -1.4290     5.7280     0.4950 H     1 <1>   0.0800 
 38 H       -3.1980    -3.0030     0.8620 H     1 <1>   0.0800 
 39 H       -2.9200    -1.4640     1.6580 H     1 <1>   0.0800 
 40 H       -3.9560    -2.8670    -1.7010 H     1 <1>   0.0800 
 41 H       -5.2100    -1.6850    -1.9080 H     1 <1>   0.0800 
 42 H        0.4150     6.3340    -1.0460 H     1 <1>   0.1500 
 43 H        1.1430     3.9940     2.4450 H     1 <1>   0.1500 
 44 H       -4.4570    -4.8990    -0.4440 H     1 <1>   0.1500 
 45 H       -7.0890    -1.5780    -0.0760 H     1 <1>   0.1500 
 46 H        2.7950     6.7570    -1.2720 H     1 <1>   0.1500 
 47 H        3.5510     4.4200     2.2160 H     1 <1>   0.1500 
 48 H       -6.0590    -6.2020     0.8360 H     1 <1>   0.1500 
 49 H       -8.5860    -3.0160     1.1910 H     1 <1>   0.1500 
 50 H        6.3460     6.5790    -0.4310 H     1 <1>   0.0800 
 51 H        4.8980     7.5750    -0.5340 H     1 <1>   0.0800 
 52 H        5.0640     6.1320    -1.5520 H     1 <1>   0.0800 
@<TRIPOS>BOND
  1   1   2  2   
  2   2   3  am  
  3   2   4  1   
  4   3   5  1   
  5   3  27  1   
  6   4   6  1   
  7   4  28  1   
  8   4  29  1   
  9   5   7  1   
 10   5   8  1   
 11   5  30  1   
 12   6   9  1   
 13   6  31  1   
 14   6  32  1   
 15   7  10  1   
 16   7  11  1   
 17   7  33  1   
 18   8  12  1   
 19   8  34  1   
 20   8  35  1   
 21   9  13  1   
 22   9  36  1   
 23   9  37  1   
 24  10  12  1   
 25  10  38  1   
 26  10  39  1   
 27  11  14  1   
 28  11  40  1   
 29  11  41  1   
 30  13  15  ar  
 31  13  16  ar  
 32  14  17  ar  
 33  14  18  ar  
 34  15  19  ar  
 35  15  42  1   
 36  16  20  ar  
 37  16  43  1   
 38  17  21  ar  
 39  17  44  1   
 40  18  22  ar  
 41  18  45  1   
 42  19  23  ar  
 43  19  46  1   
 44  20  23  ar  
 45  20  47  1   
 46  21  24  ar  
 47  21  48  1   
 48  22  24  ar  
 49  22  49  1   
 50  23  25  1   
 51  25  26  1   
 52  26  50  1   
 53  26  51  1   
 54  26  52  1   
@<TRIPOS>SUBSTRUCTURE
  1 ****   3 GROUP 4 **** **** 0

# MOE 2024.06 (io_trps.svl 2023.06)
