@<TRIPOS>MOLECULE
NONAME
46 48 1 0 0 
SMALL
USER_CHARGES


@<TRIPOS>ATOM
  1 O       -2.1550     0.7790    -2.8550 O.2   1 <1>  -0.5700 
  2 C       -1.9580     1.2010    -1.7400 C.2   1 <1>   0.5690 
  3 N       -2.0430     0.4090    -0.6480 N.am  1 <1>  -0.7300 
  4 C       -1.6080     2.6640    -1.5310 C.3   1 <1>   0.0440 
  5 C       -2.1960    -1.0560    -0.6260 C.3   1 <1>   0.2200 
  6 C       -0.2500     2.8320    -0.8460 C.ar  1 <1>  -0.1440 
  7 C       -3.5170    -1.4060     0.0360 C.3   1 <1>  -0.0800 
  8 C       -1.1900    -1.6400     0.3600 C.3   1 <1>   0.1200 
  9 C       -0.0990     2.6730     0.5320 C.ar  1 <1>   0.0820 
 10 C        0.8580     3.1370    -1.6220 C.ar  1 <1>  -0.1500 
 11 C       -3.1570    -1.3360     1.5240 C.3   1 <1>   0.1200 
 12 C       -4.0060    -2.8060    -0.3830 C.3   1 <1>  -0.0160 
 13 O       -1.7750    -1.5330     1.6260 O.3   1 <1>  -0.5600 
 14 O       -1.1990     2.3550     1.2680 O.3   1 <1>  -0.3630 
 15 C        1.1590     2.8300     1.1100 C.ar  1 <1>  -0.1500 
 16 C        2.1040     3.2900    -1.0420 C.ar  1 <1>  -0.1500 
 17 C       -5.3340    -3.1510     0.2730 C.ar  1 <1>  -0.1440 
 18 C       -1.0800     1.8170     2.5680 C.3   1 <1>   0.0400 
 19 C        2.2540     3.1370     0.3240 C.ar  1 <1>  -0.1500 
 20 C       -5.4270    -4.0570     1.3110 C.ar  1 <1>  -0.1500 
 21 C       -6.5180    -2.5740    -0.1390 C.ar  1 <1>  -0.1500 
 22 C       -6.6620    -4.3290     1.8740 C.ar  1 <1>   0.1600 
 23 C       -7.7030    -2.9160     0.4920 C.ar  1 <1>   0.1600 
 24 N       -7.8030    -3.7790     1.4910 N.ar  1 <1>  -0.6200 
 25 H       -1.7950     0.8300     0.2560 H     1 <1>   0.3700 
 26 H       -1.6040     3.1570    -2.4850 H     1 <1>   0.0800 
 27 H       -2.3770     3.1220    -0.9370 H     1 <1>   0.0800 
 28 H       -2.0890    -1.4600    -1.6190 H     1 <1>   0.0800 
 29 H       -4.2760    -0.6860    -0.2110 H     1 <1>   0.0800 
 30 H       -0.2500    -1.1160     0.3480 H     1 <1>   0.0800 
 31 H       -1.0260    -2.6850     0.1630 H     1 <1>   0.0800 
 32 H        0.7580     3.2550    -2.6870 H     1 <1>   0.1500 
 33 H       -3.6610    -2.0770     2.1190 H     1 <1>   0.0800 
 34 H       -3.3740    -0.3580     1.9160 H     1 <1>   0.0800 
 35 H       -3.2730    -3.5510    -0.1260 H     1 <1>   0.0800 
 36 H       -4.1340    -2.8320    -1.4520 H     1 <1>   0.0800 
 37 H        1.3040     2.7220     2.1670 H     1 <1>   0.1500 
 38 H        2.9570     3.5270    -1.6550 H     1 <1>   0.1500 
 39 H       -2.0590     1.5260     2.9030 H     1 <1>   0.0800 
 40 H       -0.6820     2.5700     3.2250 H     1 <1>   0.0800 
 41 H       -0.4360     0.9550     2.5340 H     1 <1>   0.0800 
 42 H        3.2240     3.2580     0.7740 H     1 <1>   0.1500 
 43 H       -4.5510    -4.5530     1.6890 H     1 <1>   0.1500 
 44 H       -6.5310    -1.8620    -0.9440 H     1 <1>   0.1500 
 45 H       -6.7150    -5.0380     2.6830 H     1 <1>   0.1500 
 46 H       -8.6160    -2.4550     0.1580 H     1 <1>   0.1500 
@<TRIPOS>BOND
  1   1   2  2   
  2   2   3  am  
  3   2   4  1   
  4   3   5  1   
  5   3  25  1   
  6   4   6  1   
  7   4  26  1   
  8   4  27  1   
  9   5   7  1   
 10   5   8  1   
 11   5  28  1   
 12   6   9  ar  
 13   6  10  ar  
 14   7  11  1   
 15   7  12  1   
 16   7  29  1   
 17   8  13  1   
 18   8  30  1   
 19   8  31  1   
 20   9  14  1   
 21   9  15  ar  
 22  10  16  ar  
 23  10  32  1   
 24  11  13  1   
 25  11  33  1   
 26  11  34  1   
 27  12  17  1   
 28  12  35  1   
 29  12  36  1   
 30  14  18  1   
 31  15  19  ar  
 32  15  37  1   
 33  16  19  ar  
 34  16  38  1   
 35  17  20  ar  
 36  17  21  ar  
 37  18  39  1   
 38  18  40  1   
 39  18  41  1   
 40  19  42  1   
 41  20  22  ar  
 42  20  43  1   
 43  21  23  ar  
 44  21  44  1   
 45  22  24  ar  
 46  22  45  1   
 47  23  24  ar  
 48  23  46  1   
@<TRIPOS>SUBSTRUCTURE
  1 ****   3 GROUP 4 **** **** 0

# MOE 2024.06 (io_trps.svl 2023.06)
