@<TRIPOS>MOLECULE
NONAME
47 49 1 0 0 
SMALL
USER_CHARGES


@<TRIPOS>ATOM
  1 S       -1.3420     0.1600    -0.1600 S.o2  1 <1>   1.0900 
  2 O       -1.4630    -1.1800     0.3550 O.2   1 <1>  -0.6500 
  3 O       -2.1230     0.6320    -1.2780 O.2   1 <1>  -0.6500 
  4 C        0.3760     0.4940    -0.5180 C.3   1 <1>  -0.0550 
  5 C       -1.5550     1.3220     1.1790 C.3   1 <1>  -0.0550 
  6 C        0.6320     1.9780    -0.8500 C.3   1 <1>  -0.1600 
  7 C       -1.2070     2.7680     0.7670 C.3   1 <1>  -0.1600 
  8 C        0.2490     2.9710     0.2780 C.3   1 <1>   0.4230 
  9 N        0.4230     4.3830    -0.2170 N.4   1 <1>  -0.9590 
 10 C        1.8090     4.6640    -0.7290 C.3   1 <1>   0.3430 
 11 C        0.0290     5.4230     0.7950 C.3   1 <1>   0.3430 
 12 C        1.8770     6.0460    -1.3700 C.3   1 <1>  -0.1600 
 13 C        0.0650     6.8150     0.1760 C.3   1 <1>  -0.1600 
 14 C        1.4490     7.1220    -0.3820 C.3   1 <1>   0.2890 
 15 N        1.3990     8.4010    -1.0840 N.pl3 1 <1>  -0.8690 
 16 C        1.6700     9.5650    -0.4360 C.ar  1 <1>   0.4100 
 17 N        0.6720    10.4120    -0.4010 N.ar  1 <1>  -0.6200 
 18 C        2.8880     9.8480     0.1470 C.ar  1 <1>  -0.1500 
 19 C        0.9110    11.5470     0.2300 C.ar  1 <1>   0.4770 
 20 C        3.0180    11.0540     0.7780 C.ar  1 <1>   0.1600 
 21 N        2.0260    11.9210     0.8330 N.ar  1 <1>  -0.6200 
 22 C       -0.2250    12.5400     0.2790 C.3   1 <1>  -0.0970 
 23 H        0.6760    -0.1070    -1.3570 H     1 <1>   0.0800 
 24 H        0.9820     0.1990     0.3180 H     1 <1>   0.0800 
 25 H       -0.9460     1.0270     2.0120 H     1 <1>   0.0800 
 26 H       -2.5780     1.2890     1.5050 H     1 <1>   0.0800 
 27 H        0.0770     2.2190    -1.7410 H     1 <1>   0.0800 
 28 H        1.6800     2.0540    -1.0730 H     1 <1>   0.0800 
 29 H       -1.3970     3.3740     1.6330 H     1 <1>   0.0800 
 30 H       -1.8910     3.0630    -0.0120 H     1 <1>   0.0800 
 31 H        0.9120     2.8060     1.1130 H     1 <1>   0.0800 
 32 H       -0.2170     4.4900    -1.0180 H     1 <1>   0.4500 
 33 H        2.0920     3.9410    -1.4740 H     1 <1>   0.0800 
 34 H        2.5170     4.6070     0.0830 H     1 <1>   0.0800 
 35 H        0.6980     5.3850     1.6400 H     1 <1>   0.0800 
 36 H       -0.9730     5.2450     1.1490 H     1 <1>   0.0800 
 37 H        1.2500     6.0690    -2.2440 H     1 <1>   0.0800 
 38 H        2.8880     6.2400    -1.6820 H     1 <1>   0.0800 
 39 H       -0.1770     7.5420     0.9320 H     1 <1>   0.0800 
 40 H       -0.6780     6.8830    -0.5990 H     1 <1>   0.0800 
 41 H        2.1630     7.1800     0.4260 H     1 <1>   0.0800 
 42 H        0.5600     8.5200    -1.6580 H     1 <1>   0.4000 
 43 H        3.6970     9.1480     0.0910 H     1 <1>   0.1500 
 44 H        3.9480    11.3270     1.2470 H     1 <1>   0.1500 
 45 H       -0.9910    12.2720    -0.4240 H     1 <1>   0.0800 
 46 H        0.1420    13.5200     0.0380 H     1 <1>   0.0800 
 47 H       -0.6420    12.5530     1.2680 H     1 <1>   0.0800 
@<TRIPOS>BOND
  1   1   2  2   
  2   1   3  2   
  3   1   4  1   
  4   1   5  1   
  5   4   6  1   
  6   4  23  1   
  7   4  24  1   
  8   5   7  1   
  9   5  25  1   
 10   5  26  1   
 11   6   8  1   
 12   6  27  1   
 13   6  28  1   
 14   7   8  1   
 15   7  29  1   
 16   7  30  1   
 17   8   9  1   
 18   8  31  1   
 19   9  10  1   
 20   9  11  1   
 21   9  32  1   
 22  10  12  1   
 23  10  33  1   
 24  10  34  1   
 25  11  13  1   
 26  11  35  1   
 27  11  36  1   
 28  12  14  1   
 29  12  37  1   
 30  12  38  1   
 31  13  14  1   
 32  13  39  1   
 33  13  40  1   
 34  14  15  1   
 35  14  41  1   
 36  15  16  1   
 37  15  42  1   
 38  16  17  ar  
 39  16  18  ar  
 40  17  19  ar  
 41  18  20  ar  
 42  18  43  1   
 43  19  21  ar  
 44  19  22  1   
 45  20  21  ar  
 46  20  44  1   
 47  22  45  1   
 48  22  46  1   
 49  22  47  1   
@<TRIPOS>SUBSTRUCTURE
  1 ****  13 GROUP 4 **** **** 0

# MOE 2024.06 (io_trps.svl 2023.06)
