@<TRIPOS>MOLECULE
NONAME
47 50 1 0 0 
SMALL
USER_CHARGES


@<TRIPOS>ATOM
  1 S        0.2670     0.2020     2.0560 S.o2  1 <1>   1.4470 
  2 O       -0.1880     1.4210     2.6860 O.2   1 <1>  -0.6500 
  3 O        0.9300    -0.8170     2.8370 O.2   1 <1>  -0.6500 
  4 N        1.4100     0.7080     0.9040 N.am  1 <1>  -0.8490 
  5 C       -1.0880    -0.5080     1.0790 C.ar  1 <1>  -0.0090 
  6 C        2.4860     1.4690     1.5910 C.3   1 <1>   0.1960 
  7 C        1.9790    -0.4230     0.1510 C.3   1 <1>   0.1960 
  8 C       -1.2680    -1.8870     0.9990 C.ar  1 <1>  -0.1500 
  9 C       -1.9720     0.3200     0.3770 C.ar  1 <1>  -0.1500 
 10 C        3.4910     2.2290     0.6760 C.3   1 <1>   0.4230 
 11 C        2.7820     0.0400    -1.0840 C.3   1 <1>  -0.0800 
 12 C       -2.3030    -2.3870     0.2330 C.ar  1 <1>   0.0830 
 13 C       -3.0100    -0.1910    -0.3900 C.ar  1 <1>  -0.1500 
 14 N        2.9610     2.5950    -0.6990 N.4   1 <1>  -0.9590 
 15 C        4.8570     1.5140     0.5950 C.3   1 <1>   0.1200 
 16 C        4.2960    -0.1920    -0.9570 C.3   1 <1>   0.1200 
 17 C        2.4160     1.4640    -1.5310 C.3   1 <1>   0.3430 
 18 O       -2.6450    -3.6740     0.0280 O.3   1 <1>  -0.2320 
 19 C       -3.1660    -1.5650    -0.4550 C.ar  1 <1>   0.1170 
 20 C        1.8980     3.6390    -0.5620 C.3   1 <1>   0.2630 
 21 O        4.7430     0.1570     0.3100 O.3   1 <1>  -0.5600 
 22 C       -3.7130    -3.6690    -0.7740 C.2   1 <1>   0.7800 
 23 N       -4.0650    -2.3860    -1.1000 N.am  1 <1>  -0.4770 
 24 O       -4.2640    -4.6890    -1.1400 O.2   1 <1>  -0.5700 
 25 C       -5.2150    -1.9700    -1.9310 C.3   1 <1>   0.0600 
 26 H        2.0330     2.2190     2.2180 H     1 <1>   0.0800 
 27 H        3.0270     0.8140     2.2550 H     1 <1>   0.0800 
 28 H        2.5850    -1.0400     0.7980 H     1 <1>   0.0800 
 29 H        1.1730    -1.0440    -0.2030 H     1 <1>   0.0800 
 30 H       -0.6200    -2.5660     1.5290 H     1 <1>   0.1500 
 31 H       -1.8470     1.3880     0.4440 H     1 <1>   0.1500 
 32 H        3.7040     3.1550     1.1840 H     1 <1>   0.0800 
 33 H        2.4710    -0.5990    -1.8900 H     1 <1>   0.0800 
 34 H       -3.6860     0.4560    -0.9200 H     1 <1>   0.1500 
 35 H        3.7460     3.0050    -1.2200 H     1 <1>   0.4500 
 36 H        5.3380     1.5780     1.5550 H     1 <1>   0.0800 
 37 H        5.5050     1.9750    -0.1300 H     1 <1>   0.0800 
 38 H        4.8600     0.3450    -1.7000 H     1 <1>   0.0800 
 39 H        4.5060    -1.2430    -1.0730 H     1 <1>   0.0800 
 40 H        1.3390     1.5230    -1.5350 H     1 <1>   0.0800 
 41 H        2.7420     1.5980    -2.5500 H     1 <1>   0.0800 
 42 H        1.0590     3.2430    -0.0120 H     1 <1>   0.0800 
 43 H        1.5530     3.9550    -1.5340 H     1 <1>   0.0800 
 44 H        2.2790     4.5000    -0.0370 H     1 <1>   0.0800 
 45 H       -4.8670    -1.3870    -2.7650 H     1 <1>   0.0800 
 46 H       -5.8950    -1.3810    -1.3400 H     1 <1>   0.0800 
 47 H       -5.7330    -2.8380    -2.3010 H     1 <1>   0.0800 
@<TRIPOS>BOND
  1   1   2  2   
  2   1   3  2   
  3   1   4  am  
  4   1   5  1   
  5   4   6  1   
  6   4   7  1   
  7   5   8  ar  
  8   5   9  ar  
  9   6  10  1   
 10   6  26  1   
 11   6  27  1   
 12   7  11  1   
 13   7  28  1   
 14   7  29  1   
 15   8  12  ar  
 16   8  30  1   
 17   9  13  ar  
 18   9  31  1   
 19  10  14  1   
 20  10  15  1   
 21  10  32  1   
 22  11  16  1   
 23  11  17  1   
 24  11  33  1   
 25  12  18  1   
 26  12  19  ar  
 27  13  19  ar  
 28  13  34  1   
 29  14  17  1   
 30  14  20  1   
 31  14  35  1   
 32  15  21  1   
 33  15  36  1   
 34  15  37  1   
 35  16  21  1   
 36  16  38  1   
 37  16  39  1   
 38  17  40  1   
 39  17  41  1   
 40  18  22  1   
 41  19  23  1   
 42  20  42  1   
 43  20  43  1   
 44  20  44  1   
 45  22  23  am  
 46  22  24  2   
 47  23  25  1   
 48  25  45  1   
 49  25  46  1   
 50  25  47  1   
@<TRIPOS>SUBSTRUCTURE
  1 ****   5 GROUP 4 **** **** 0

# MOE 2024.06 (io_trps.svl 2023.06)
