@<TRIPOS>MOLECULE
NONAME
38 39 1 0 0 
SMALL
USER_CHARGES


@<TRIPOS>ATOM
  1 F       -0.5630    -0.0890     0.8790 F     1 <1>  -0.1900 
  2 C       -1.5480    -0.8890     0.5260 C.ar  1 <1>   0.1900 
  3 C       -2.8080    -0.3980     0.1810 C.ar  1 <1>   0.4100 
  4 C       -1.3290    -2.2380     0.5100 C.ar  1 <1>   0.1600 
  5 N       -3.7660    -1.2460    -0.1480 N.ar  1 <1>  -0.6200 
  6 N       -3.1360     0.9570     0.1610 N.pl3 1 <1>  -0.8380 
  7 N       -2.2810    -3.0880     0.1780 N.ar  1 <1>  -0.6200 
  8 C       -3.4460    -2.5280    -0.1370 C.ar  1 <1>   0.7200 
  9 C       -4.5510     1.3960     0.3140 C.3   1 <1>   0.1290 
 10 C       -2.2370     1.9480    -0.4910 C.3   1 <1>   0.1290 
 11 N       -4.4640    -3.3450    -0.4850 N.pl3 1 <1>  -0.8690 
 12 C       -4.6010    -4.6990     0.0740 C.3   1 <1>   0.2090 
 13 C       -6.0240    -5.1900    -0.1740 C.3   1 <1>  -0.1600 
 14 C       -6.2280    -6.6110     0.3690 C.3   1 <1>  -0.0170 
 15 C       -7.6640    -7.0660     0.1710 C.ar  1 <1>   0.1670 
 16 N       -8.5560    -6.5600     1.0080 N.ar  1 <1>  -0.6200 
 17 C       -7.9720    -7.9590    -0.8450 C.ar  1 <1>  -0.1500 
 18 C       -9.8050    -6.9600     0.8260 C.ar  1 <1>   0.1600 
 19 C       -9.2760    -8.3680    -1.0230 C.ar  1 <1>  -0.1500 
 20 C      -10.2120    -7.8470    -0.1570 C.ar  1 <1>  -0.1500 
 21 H       -0.3630    -2.6280     0.7750 H     1 <1>   0.1500 
 22 H       -5.0770     0.7260     0.9730 H     1 <1>   0.0800 
 23 H       -5.0380     1.3930    -0.6450 H     1 <1>   0.0800 
 24 H       -4.5870     2.3860     0.7330 H     1 <1>   0.0800 
 25 H       -1.4270     1.4500    -0.9950 H     1 <1>   0.0800 
 26 H       -1.8330     2.6110     0.2530 H     1 <1>   0.0800 
 27 H       -2.7850     2.5220    -1.2170 H     1 <1>   0.0800 
 28 H       -5.3330    -2.8180    -0.5520 H     1 <1>   0.4000 
 29 H       -4.3920    -4.6760     1.1310 H     1 <1>   0.0800 
 30 H       -3.8880    -5.3510    -0.4050 H     1 <1>   0.0800 
 31 H       -6.2270    -5.1830    -1.2300 H     1 <1>   0.0800 
 32 H       -6.7170    -4.5280     0.3160 H     1 <1>   0.0800 
 33 H       -6.0050    -6.6340     1.4210 H     1 <1>   0.0800 
 34 H       -5.5570    -7.2890    -0.1260 H     1 <1>   0.0800 
 35 H       -7.2000    -8.3320    -1.4940 H     1 <1>   0.1500 
 36 H      -10.5440    -6.5590     1.4970 H     1 <1>   0.1500 
 37 H       -9.5510    -9.0600    -1.8010 H     1 <1>   0.1500 
 38 H      -11.2470    -8.1220    -0.2390 H     1 <1>   0.1500 
@<TRIPOS>BOND
  1   1   2  1   
  2   2   3  ar  
  3   2   4  ar  
  4   3   5  ar  
  5   3   6  1   
  6   4   7  ar  
  7   4  21  1   
  8   5   8  ar  
  9   6   9  1   
 10   6  10  1   
 11   7   8  ar  
 12   8  11  1   
 13   9  22  1   
 14   9  23  1   
 15   9  24  1   
 16  10  25  1   
 17  10  26  1   
 18  10  27  1   
 19  11  12  1   
 20  11  28  1   
 21  12  13  1   
 22  12  29  1   
 23  12  30  1   
 24  13  14  1   
 25  13  31  1   
 26  13  32  1   
 27  14  15  1   
 28  14  33  1   
 29  14  34  1   
 30  15  16  ar  
 31  15  17  ar  
 32  16  18  ar  
 33  17  19  ar  
 34  17  35  1   
 35  18  20  ar  
 36  18  36  1   
 37  19  20  ar  
 38  19  37  1   
 39  20  38  1   
@<TRIPOS>SUBSTRUCTURE
  1 ****  11 GROUP 4 **** **** 0

# MOE 2024.06 (io_trps.svl 2023.06)
