@<TRIPOS>MOLECULE
NONAME
48 50 1 0 0 
SMALL
USER_CHARGES


@<TRIPOS>ATOM
  1 O        0.0220    -0.2510    -0.8250 O.2   1 <1>  -0.5700 
  2 C        0.9880    -0.8170    -0.3480 C.2   1 <1>   0.5440 
  3 N        2.1000    -0.0890     0.0120 N.am  1 <1>  -0.4940 
  4 C        0.9770    -2.2510    -0.1510 C.ar  1 <1>   0.0860 
  5 C        2.3210     1.3070    -0.0580 C.2   1 <1>  -0.0880 
  6 C       -0.2100    -2.9230     0.1450 C.ar  1 <1>  -0.1500 
  7 C        2.1370    -3.0260    -0.2440 C.ar  1 <1>  -0.1500 
  8 N        3.4460     1.8840    -0.5610 N.pl3 1 <1>   0.3140 
  9 C        1.5240     2.3270     0.3440 C.2   1 <1>  -0.1810 
 10 C       -0.2520    -4.2890     0.3580 C.ar  1 <1>  -0.1430 
 11 C        2.1070    -4.3890    -0.0340 C.ar  1 <1>  -0.1500 
 12 N        3.3950     3.2320    -0.4830 N.2   1 <1>  -0.7070 
 13 C        4.5900     1.2030    -1.1990 C.3   1 <1>   0.0960 
 14 C        2.2410     3.4820     0.0530 C.2   1 <1>   0.1390 
 15 C        0.1470     2.2770     0.9780 C.3   1 <1>  -0.0590 
 16 C        0.9200    -5.0430     0.2730 C.ar  1 <1>   0.1000 
 17 C       -1.5780    -4.9580     0.6900 C.3   1 <1>  -0.0970 
 18 C        5.6320     0.7690    -0.1590 C.3   1 <1>  -0.2400 
 19 N        0.9080    -6.4160     0.4720 N.pl3 1 <1>  -0.8380 
 20 C        0.6540    -7.3130    -0.6910 C.3   1 <1>   0.2090 
 21 C        1.7290    -7.0380     1.5520 C.3   1 <1>   0.2090 
 22 C        1.9370    -8.0440    -1.1260 C.3   1 <1>   0.1200 
 23 C        2.9340    -7.8130     0.9830 C.3   1 <1>   0.1200 
 24 O        2.5470    -8.6880    -0.0400 O.3   1 <1>  -0.5600 
 25 H        2.8450    -0.6290     0.4480 H     1 <1>   0.3700 
 26 H       -1.1160    -2.3450     0.2070 H     1 <1>   0.1500 
 27 H        3.0720    -2.5610    -0.4960 H     1 <1>   0.1500 
 28 H        3.0070    -4.9660    -0.1170 H     1 <1>   0.1500 
 29 H        5.0360     1.8880    -1.8980 H     1 <1>   0.0800 
 30 H        4.2220     0.3540    -1.7450 H     1 <1>   0.0800 
 31 H        1.8870     4.4800     0.2480 H     1 <1>   0.1500 
 32 H       -0.0080     1.3270     1.4560 H     1 <1>   0.0800 
 33 H       -0.6030     2.4040     0.2190 H     1 <1>   0.0800 
 34 H        0.0440     3.0550     1.7120 H     1 <1>   0.0800 
 35 H       -2.3600    -4.2330     0.8240 H     1 <1>   0.0800 
 36 H       -1.4800    -5.5280     1.5960 H     1 <1>   0.0800 
 37 H       -1.8570    -5.6240    -0.1060 H     1 <1>   0.0800 
 38 H        6.0030     1.6320     0.3660 H     1 <1>   0.0800 
 39 H        6.4580     0.2870    -0.6500 H     1 <1>   0.0800 
 40 H        5.2010     0.0820     0.5470 H     1 <1>   0.0800 
 41 H        0.2710    -6.7370    -1.5150 H     1 <1>   0.0800 
 42 H       -0.0920    -8.0390    -0.4180 H     1 <1>   0.0800 
 43 H        1.1090    -7.7170     2.1110 H     1 <1>   0.0800 
 44 H        2.0740    -6.2770     2.2290 H     1 <1>   0.0800 
 45 H        2.6370    -7.3470    -1.5510 H     1 <1>   0.0800 
 46 H        1.7040    -8.7920    -1.8620 H     1 <1>   0.0800 
 47 H        3.3930    -8.3990     1.7590 H     1 <1>   0.0800 
 48 H        3.6670    -7.1310     0.5900 H     1 <1>   0.0800 
@<TRIPOS>BOND
  1   1   2  2   
  2   2   3  am  
  3   2   4  1   
  4   3   5  1   
  5   3  25  1   
  6   4   6  ar  
  7   4   7  ar  
  8   5   8  1   
  9   5   9  2   
 10   6  10  ar  
 11   6  26  1   
 12   7  11  ar  
 13   7  27  1   
 14   8  12  1   
 15   8  13  1   
 16   9  14  1   
 17   9  15  1   
 18  10  16  ar  
 19  10  17  1   
 20  11  16  ar  
 21  11  28  1   
 22  12  14  2   
 23  13  18  1   
 24  13  29  1   
 25  13  30  1   
 26  14  31  1   
 27  15  32  1   
 28  15  33  1   
 29  15  34  1   
 30  16  19  1   
 31  17  35  1   
 32  17  36  1   
 33  17  37  1   
 34  18  38  1   
 35  18  39  1   
 36  18  40  1   
 37  19  20  1   
 38  19  21  1   
 39  20  22  1   
 40  20  41  1   
 41  20  42  1   
 42  21  23  1   
 43  21  43  1   
 44  21  44  1   
 45  22  24  1   
 46  22  45  1   
 47  22  46  1   
 48  23  24  1   
 49  23  47  1   
 50  23  48  1   
@<TRIPOS>SUBSTRUCTURE
  1 ****   4 GROUP 4 **** **** 0

# MOE 2024.06 (io_trps.svl 2023.06)
