@<TRIPOS>MOLECULE
NONAME
60 64 1 0 0 
SMALL
USER_CHARGES


@<TRIPOS>ATOM
  1 O       -0.7290    -0.1770     2.3420 O.3   1 <1>  -0.2800 
  2 C        0.0450     0.8220     2.7480 C.2   1 <1>   0.0870 
  3 C       -1.6210    -0.4330     3.2790 C.2   1 <1>  -0.0400 
  4 C        1.0960     1.3230     1.8940 C.ar  1 <1>   0.0530 
  5 C       -0.3610     1.2060     3.9870 C.2   1 <1>  -0.1500 
  6 C       -1.4430     0.3930     4.3320 C.2   1 <1>  -0.1500 
  7 C       -2.6480    -1.5160     3.0100 C.3   1 <1>   0.5230 
  8 C        1.6440     0.5420     0.8760 C.ar  1 <1>  -0.1500 
  9 C        1.6000     2.6130     2.0550 C.ar  1 <1>  -0.1500 
 10 N       -3.1890    -1.2720     1.6470 N.4   1 <1>  -0.9590 
 11 C        2.6450     1.0230     0.0510 C.ar  1 <1>  -0.1500 
 12 C        2.6000     3.1010     1.2360 C.ar  1 <1>  -0.1500 
 13 C       -3.9790     0.0050     1.5910 C.3   1 <1>   0.3430 
 14 C       -3.9550    -2.4220     1.0960 C.3   1 <1>   0.3430 
 15 C        3.1310     2.3150     0.2270 C.ar  1 <1>   0.0830 
 16 C       -4.3430     0.3730     0.1450 C.3   1 <1>   0.1440 
 17 C       -4.3110    -2.1370    -0.3670 C.3   1 <1>  -0.1600 
 18 O        4.1060     2.8680    -0.5320 O.3   1 <1>  -0.3630 
 19 C       -5.2320     1.5920     0.1750 C.ar  1 <1>   0.1670 
 20 C       -5.0700    -0.8070    -0.5380 C.3   1 <1>  -0.1600 
 21 C       -3.1190     0.8660    -0.6750 C.3   1 <1>  -0.1600 
 22 C        4.7370     2.1460    -1.5630 C.3   1 <1>   0.1200 
 23 N       -6.2780     1.7290     0.9560 N.ar  1 <1>  -0.6200 
 24 C       -4.8120     2.5490    -0.6960 C.ar  1 <1>  -0.1430 
 25 C       -3.5770     2.1190    -1.4480 C.3   1 <1>  -0.0170 
 26 C        5.7840     3.0520    -2.2020 C.3   1 <1>  -0.2400 
 27 C       -6.9100     2.8880     0.8120 C.ar  1 <1>   0.4770 
 28 C       -5.5380     3.7130    -0.7590 C.ar  1 <1>   0.1600 
 29 N       -6.5990     3.8900     0.0010 N.ar  1 <1>  -0.6200 
 30 C       -8.1300     3.1020     1.6760 C.3   1 <1>  -0.0970 
 31 H        0.0540     1.9830     4.6060 H     1 <1>   0.1500 
 32 H       -1.9910     0.4580     5.2570 H     1 <1>   0.1500 
 33 H       -3.4320    -1.4880     3.7480 H     1 <1>   0.0800 
 34 H       -2.1610    -2.4760     3.0470 H     1 <1>   0.0800 
 35 H        1.2850    -0.4610     0.7320 H     1 <1>   0.1500 
 36 H        1.2050     3.2470     2.8280 H     1 <1>   0.1500 
 37 H       -2.3500    -1.1200     1.0680 H     1 <1>   0.4500 
 38 H        3.0360     0.3830    -0.7170 H     1 <1>   0.1500 
 39 H        2.9800     4.0980     1.3700 H     1 <1>   0.1500 
 40 H       -3.4140     0.8160     2.0210 H     1 <1>   0.0800 
 41 H       -4.8890    -0.1030     2.1580 H     1 <1>   0.0800 
 42 H       -4.8600    -2.5650     1.6650 H     1 <1>   0.0800 
 43 H       -3.3670    -3.3250     1.1530 H     1 <1>   0.0800 
 44 H       -4.9250    -2.9400    -0.7370 H     1 <1>   0.0800 
 45 H       -3.4120    -2.1320    -0.9580 H     1 <1>   0.0800 
 46 H       -5.2180    -0.5940    -1.5840 H     1 <1>   0.0800 
 47 H       -6.0490    -0.9100    -0.0970 H     1 <1>   0.0800 
 48 H       -2.7330     0.1200    -1.3470 H     1 <1>   0.0800 
 49 H       -2.3280     1.1620    -0.0070 H     1 <1>   0.0800 
 50 H        3.9910     1.8590    -2.2840 H     1 <1>   0.0800 
 51 H        5.1990     1.2730    -1.1340 H     1 <1>   0.0800 
 52 H       -3.8410     1.8700    -2.4620 H     1 <1>   0.0800 
 53 H       -2.8220     2.8860    -1.4460 H     1 <1>   0.0800 
 54 H        5.3140     3.9280    -2.6110 H     1 <1>   0.0800 
 55 H        6.2850     2.5280    -2.9950 H     1 <1>   0.0800 
 56 H        6.5140     3.3450    -1.4690 H     1 <1>   0.0800 
 57 H       -5.2520     4.5040    -1.4310 H     1 <1>   0.1500 
 58 H       -8.4400     2.1790     2.1290 H     1 <1>   0.0800 
 59 H       -8.9350     3.4820     1.0740 H     1 <1>   0.0800 
 60 H       -7.9000     3.8150     2.4450 H     1 <1>   0.0800 
@<TRIPOS>BOND
  1   1   2  1   
  2   1   3  1   
  3   2   4  1   
  4   2   5  2   
  5   3   6  2   
  6   3   7  1   
  7   4   8  ar  
  8   4   9  ar  
  9   5   6  1   
 10   5  31  1   
 11   6  32  1   
 12   7  10  1   
 13   7  33  1   
 14   7  34  1   
 15   8  11  ar  
 16   8  35  1   
 17   9  12  ar  
 18   9  36  1   
 19  10  13  1   
 20  10  14  1   
 21  10  37  1   
 22  11  15  ar  
 23  11  38  1   
 24  12  15  ar  
 25  12  39  1   
 26  13  16  1   
 27  13  40  1   
 28  13  41  1   
 29  14  17  1   
 30  14  42  1   
 31  14  43  1   
 32  15  18  1   
 33  16  19  1   
 34  16  20  1   
 35  16  21  1   
 36  17  20  1   
 37  17  44  1   
 38  17  45  1   
 39  18  22  1   
 40  19  23  ar  
 41  19  24  ar  
 42  20  46  1   
 43  20  47  1   
 44  21  25  1   
 45  21  48  1   
 46  21  49  1   
 47  22  26  1   
 48  22  50  1   
 49  22  51  1   
 50  23  27  ar  
 51  24  25  1   
 52  24  28  ar  
 53  25  52  1   
 54  25  53  1   
 55  26  54  1   
 56  26  55  1   
 57  26  56  1   
 58  27  29  ar  
 59  27  30  1   
 60  28  29  ar  
 61  28  57  1   
 62  30  58  1   
 63  30  59  1   
 64  30  60  1   
@<TRIPOS>SUBSTRUCTURE
  1 ****  21 GROUP 4 **** **** 0

# MOE 2024.06 (io_trps.svl 2023.06)
