@<TRIPOS>MOLECULE
NONAME
53 57 1 0 0 
SMALL
USER_CHARGES


@<TRIPOS>ATOM
  1 O        1.6510     0.7120     1.8960 O.2   1 <1>  -0.5700 
  2 C        1.9020     1.0780     0.7620 C.2   1 <1>   0.5440 
  3 N        1.6360     2.3840     0.4040 N.am  1 <1>  -0.6600 
  4 C        2.5460     0.1440    -0.1340 C.ar  1 <1>   0.0860 
  5 C        0.6610     3.2290     1.1800 C.3   1 <1>   0.2200 
  6 C        2.4100     3.0610    -0.6810 C.3   1 <1>   0.1400 
  7 C        1.9700    -0.2020    -1.3830 C.ar  1 <1>   0.3100 
  8 C        3.7470    -0.4280     0.2420 C.ar  1 <1>  -0.1500 
  9 C        0.4880     4.6780     0.6250 C.3   1 <1>   0.1380 
 10 C       -0.6860     2.5250     1.4390 C.3   1 <1>  -0.1600 
 11 C        2.8900     4.4670    -0.2740 C.3   1 <1>  -0.1600 
 12 N        0.7670     0.3180    -1.7700 N.ar  1 <1>  -0.6200 
 13 C        2.6690    -1.1090    -2.2260 C.ar  1 <1>   0.3100 
 14 C        4.4240    -1.3210    -0.5840 C.ar  1 <1>  -0.1500 
 15 C       -0.1380     4.8180    -0.7990 C.2   1 <1>  -0.2760 
 16 C       -0.4030     5.4450     1.6500 C.3   1 <1>   0.1200 
 17 C        1.9170     5.2680     0.6180 C.3   1 <1>  -0.1600 
 18 C       -1.8030     3.5390     1.6980 C.3   1 <1>   0.1200 
 19 C        0.3520    -0.0720    -2.9330 C.ar  1 <1>   0.1600 
 20 N        2.2020    -1.4850    -3.4460 N.ar  1 <1>  -0.6200 
 21 C        3.8890    -1.6490    -1.7990 C.ar  1 <1>  -0.1500 
 22 C       -0.6430     3.8300    -1.5510 C.2   1 <1>  -0.2880 
 23 C       -0.1440     6.2270    -1.4060 C.3   1 <1>  -0.0220 
 24 O       -1.2640     4.6190     2.3930 O.3   1 <1>  -0.5600 
 25 C        1.0610    -0.9600    -3.7620 C.ar  1 <1>   0.1600 
 26 C       -1.2220     4.0090    -2.9470 C.3   1 <1>   0.2580 
 27 C       -1.1200     6.3240    -2.5860 C.3   1 <1>   0.1200 
 28 O       -0.8940     5.2650    -3.4630 O.3   1 <1>  -0.5600 
 29 H        1.0990     3.3470     2.1570 H     1 <1>   0.0800 
 30 H        3.2680     2.4740    -0.9530 H     1 <1>   0.0800 
 31 H        1.7890     3.1300    -1.5550 H     1 <1>   0.0800 
 32 H        4.1710    -0.1780     1.2010 H     1 <1>   0.1500 
 33 H       -0.5870     1.9100     2.3150 H     1 <1>   0.0800 
 34 H       -0.9620     1.8770     0.6300 H     1 <1>   0.0800 
 35 H        3.8320     4.3730     0.2370 H     1 <1>   0.0800 
 36 H        3.0770     5.0200    -1.1770 H     1 <1>   0.0800 
 37 H        5.3590    -1.7450    -0.2570 H     1 <1>   0.1500 
 38 H       -1.0200     6.1770     1.1660 H     1 <1>   0.0800 
 39 H        0.2120     5.9570     2.3680 H     1 <1>   0.0800 
 40 H        1.9140     6.3020     0.3250 H     1 <1>   0.0800 
 41 H        2.2990     5.2380     1.6240 H     1 <1>   0.0800 
 42 H       -2.5790     3.1030     2.3020 H     1 <1>   0.0800 
 43 H       -2.2340     3.9010     0.7800 H     1 <1>   0.0800 
 44 H       -0.5900     0.3010    -3.2930 H     1 <1>   0.1500 
 45 H        4.3910    -2.3360    -2.4580 H     1 <1>   0.1500 
 46 H       -0.6760     2.8000    -1.2530 H     1 <1>   0.1500 
 47 H        0.8410     6.4670    -1.7640 H     1 <1>   0.0800 
 48 H       -0.4210     6.9750    -0.6890 H     1 <1>   0.0800 
 49 H        0.6260    -1.2150    -4.7120 H     1 <1>   0.1500 
 50 H       -2.2930     3.9130    -2.9320 H     1 <1>   0.0800 
 51 H       -0.8110     3.2740    -3.6170 H     1 <1>   0.0800 
 52 H       -0.9690     7.2410    -3.1280 H     1 <1>   0.0800 
 53 H       -2.1410     6.2760    -2.2470 H     1 <1>   0.0800 
@<TRIPOS>BOND
  1   1   2  2   
  2   2   3  am  
  3   2   4  1   
  4   3   5  1   
  5   3   6  1   
  6   4   7  ar  
  7   4   8  ar  
  8   5   9  1   
  9   5  10  1   
 10   5  29  1   
 11   6  11  1   
 12   6  30  1   
 13   6  31  1   
 14   7  12  ar  
 15   7  13  ar  
 16   8  14  ar  
 17   8  32  1   
 18   9  15  1   
 19   9  16  1   
 20   9  17  1   
 21  10  18  1   
 22  10  33  1   
 23  10  34  1   
 24  11  17  1   
 25  11  35  1   
 26  11  36  1   
 27  12  19  ar  
 28  13  20  ar  
 29  13  21  ar  
 30  14  21  ar  
 31  14  37  1   
 32  15  22  2   
 33  15  23  1   
 34  16  24  1   
 35  16  38  1   
 36  16  39  1   
 37  17  40  1   
 38  17  41  1   
 39  18  24  1   
 40  18  42  1   
 41  18  43  1   
 42  19  25  ar  
 43  19  44  1   
 44  20  25  ar  
 45  21  45  1   
 46  22  26  1   
 47  22  46  1   
 48  23  27  1   
 49  23  47  1   
 50  23  48  1   
 51  25  49  1   
 52  26  28  1   
 53  26  50  1   
 54  26  51  1   
 55  27  28  1   
 56  27  52  1   
 57  27  53  1   
@<TRIPOS>SUBSTRUCTURE
  1 ****   3 GROUP 4 **** **** 0

# MOE 2024.06 (io_trps.svl 2023.06)
