@<TRIPOS>MOLECULE
NONAME
48 50 1 0 0 
SMALL
USER_CHARGES


@<TRIPOS>ATOM
  1 N       -0.0700    -0.4310     0.1900 N.ar  1 <1>  -0.6200 
  2 C        0.9760     0.3370    -0.0850 C.ar  1 <1>   0.7710 
  3 C        0.1430    -1.6790     0.5300 C.ar  1 <1>   0.4100 
  4 N        2.2310    -0.1410    -0.0060 N.ar  1 <1>  -0.1790 
  5 N        0.7870     1.6350    -0.4480 N.pl3 1 <1>  -0.8380 
  6 N       -0.9610    -2.3890     0.7910 N.pl3 1 <1>  -0.8690 
  7 C        1.4380    -2.2190     0.6190 C.ar  1 <1>  -0.1500 
  8 C        2.4990    -1.4220     0.3430 C.ar  1 <1>   0.2170 
  9 C       -0.5640     2.2850    -0.3680 C.3   1 <1>   0.2090 
 10 C        1.8190     2.5980    -0.9430 C.3   1 <1>   0.2090 
 11 C       -1.1720    -3.8150     1.1450 C.3   1 <1>   0.3530 
 12 C        3.9490    -1.8850     0.4110 C.3   1 <1>  -0.0170 
 13 C       -0.4990     3.4500     0.6260 C.3   1 <1>  -0.1600 
 14 C        1.9440     3.7550     0.0520 C.3   1 <1>  -0.1600 
 15 C       -2.5500    -4.2690     0.6750 C.ar  1 <1>   0.1670 
 16 C        4.6390    -1.8280    -0.9590 C.3   1 <1>  -0.2400 
 17 C        0.5960     4.4610     0.2550 C.3   1 <1>  -0.1600 
 18 N       -3.5970    -3.5770     1.1060 N.ar  1 <1>  -0.6200 
 19 C       -2.6580    -5.3690    -0.1730 C.ar  1 <1>   0.1600 
 20 C       -4.7370    -4.0560     0.6350 C.ar  1 <1>   0.1600 
 21 N       -3.7980    -5.8490    -0.6370 N.ar  1 <1>  -0.6200 
 22 C       -4.8400    -5.1580    -0.2100 C.ar  1 <1>   0.1670 
 23 C       -6.1930    -5.6340    -0.6980 C.3   1 <1>  -0.0970 
 24 H        2.9630     0.5260    -0.2070 H     1 <1>   0.4570 
 25 H       -1.8620    -1.8920     0.7410 H     1 <1>   0.4000 
 26 H        1.5570    -3.2460     0.9060 H     1 <1>   0.1500 
 27 H       -1.3310     1.5990    -0.0510 H     1 <1>   0.0800 
 28 H       -0.8420     2.6520    -1.3420 H     1 <1>   0.0800 
 29 H        1.5060     2.9850    -1.9000 H     1 <1>   0.0800 
 30 H        2.7770     2.1320    -1.0830 H     1 <1>   0.0800 
 31 H       -1.1230    -3.9210     2.2150 H     1 <1>   0.0800 
 32 H       -0.4060    -4.4240     0.7000 H     1 <1>   0.0800 
 33 H        3.9820    -2.9000     0.7710 H     1 <1>   0.0800 
 34 H        4.4910    -1.2790     1.1170 H     1 <1>   0.0800 
 35 H       -0.3160     3.0560     1.6100 H     1 <1>   0.0800 
 36 H       -1.4530     3.9470     0.6490 H     1 <1>   0.0800 
 37 H        2.6640     4.4660    -0.3130 H     1 <1>   0.0800 
 38 H        2.3010     3.3800     0.9950 H     1 <1>   0.0800 
 39 H        4.1060    -2.4310    -1.6750 H     1 <1>   0.0800 
 40 H        5.6410    -2.2150    -0.8780 H     1 <1>   0.0800 
 41 H        4.7010    -0.8210    -1.3300 H     1 <1>   0.0800 
 42 H        0.6840     5.2040     1.0300 H     1 <1>   0.0800 
 43 H        0.3170     4.9670    -0.6540 H     1 <1>   0.0800 
 44 H       -1.7640    -5.8790    -0.4850 H     1 <1>   0.1500 
 45 H       -5.6360    -3.5480     0.9360 H     1 <1>   0.1500 
 46 H       -6.9850    -5.0220    -0.3090 H     1 <1>   0.0800 
 47 H       -6.3500    -6.6500    -0.3850 H     1 <1>   0.0800 
 48 H       -6.2190    -5.5970    -1.7720 H     1 <1>   0.0800 
@<TRIPOS>BOND
  1   1   2  ar  
  2   1   3  ar  
  3   2   4  ar  
  4   2   5  1   
  5   3   6  1   
  6   3   7  ar  
  7   4   8  ar  
  8   4  24  1   
  9   5   9  1   
 10   5  10  1   
 11   6  11  1   
 12   6  25  1   
 13   7   8  ar  
 14   7  26  1   
 15   8  12  1   
 16   9  13  1   
 17   9  27  1   
 18   9  28  1   
 19  10  14  1   
 20  10  29  1   
 21  10  30  1   
 22  11  15  1   
 23  11  31  1   
 24  11  32  1   
 25  12  16  1   
 26  12  33  1   
 27  12  34  1   
 28  13  17  1   
 29  13  35  1   
 30  13  36  1   
 31  14  17  1   
 32  14  37  1   
 33  14  38  1   
 34  15  18  ar  
 35  15  19  ar  
 36  16  39  1   
 37  16  40  1   
 38  16  41  1   
 39  17  42  1   
 40  17  43  1   
 41  18  20  ar  
 42  19  21  ar  
 43  19  44  1   
 44  20  22  ar  
 45  20  45  1   
 46  21  22  ar  
 47  22  23  1   
 48  23  46  1   
 49  23  47  1   
 50  23  48  1   
@<TRIPOS>SUBSTRUCTURE
  1 ****   3 GROUP 4 **** **** 0

# MOE 2024.06 (io_trps.svl 2023.06)
