@<TRIPOS>MOLECULE
NONAME
42 45 1 0 0 
SMALL
USER_CHARGES


@<TRIPOS>ATOM
  1 S        1.6370     0.0470     0.2780 S.3   1 <1>  -0.0800 
  2 C        0.2230    -0.5660    -0.5510 C.2   1 <1>   0.4620 
  3 C        1.8400    -1.5100     1.0180 C.2   1 <1>  -0.1100 
  4 N       -0.0530    -1.7850    -0.2940 N.2   1 <1>  -0.5650 
  5 N       -0.4560     0.2590    -1.3810 N.pl3 1 <1>  -0.8840 
  6 C        0.8610    -2.3500     0.6140 C.2   1 <1>   0.1410 
  7 C        0.7580    -3.7430     1.0430 C.2   1 <1>   0.7160 
  8 O        1.7800    -4.3700     1.2540 O.2   1 <1>  -0.5700 
  9 N       -0.4460    -4.3990     1.2220 N.am  1 <1>  -0.6600 
 10 C       -0.5730    -5.8740     1.0140 C.3   1 <1>   0.1400 
 11 C       -1.7790    -3.7320     1.3010 C.3   1 <1>   0.1400 
 12 C       -1.5060    -6.1720    -0.1790 C.3   1 <1>   0.3430 
 13 C       -2.6210    -4.1030     0.0680 C.3   1 <1>   0.2950 
 14 O       -2.7310    -5.4960    -0.0330 O.3   1 <1>  -0.5600 
 15 C       -1.7600    -7.6720    -0.2980 C.ar  1 <1>  -0.1430 
 16 C       -4.0370    -3.5290     0.1610 C.3   1 <1>  -0.1950 
 17 C       -0.9340    -8.4460    -1.1020 C.ar  1 <1>  -0.1500 
 18 C       -2.7950    -8.2870     0.3920 C.ar  1 <1>  -0.1500 
 19 C       -4.8530    -3.2770    -1.0680 C.3   1 <1>  -0.2000 
 20 C       -4.3210    -2.1220    -0.2650 C.3   1 <1>  -0.2000 
 21 C       -1.1380    -9.8110    -1.2110 C.ar  1 <1>  -0.1500 
 22 C       -3.0010    -9.6520     0.2840 C.ar  1 <1>  -0.1500 
 23 C       -2.1710   -10.4150    -0.5170 C.ar  1 <1>  -0.1500 
 24 H        2.6740    -1.6560     1.6810 H     1 <1>   0.1500 
 25 H       -0.1030     1.1850    -1.6230 H     1 <1>   0.4000 
 26 H       -1.2040    -0.1180    -1.9650 H     1 <1>   0.4000 
 27 H        0.3890    -6.3170     0.8270 H     1 <1>   0.0800 
 28 H       -0.9760    -6.3270     1.9030 H     1 <1>   0.0800 
 29 H       -2.2880    -4.0680     2.1870 H     1 <1>   0.0800 
 30 H       -1.6810    -2.6650     1.3740 H     1 <1>   0.0800 
 31 H       -1.0480    -5.8190    -1.0870 H     1 <1>   0.0800 
 32 H       -2.1410    -3.7350    -0.8240 H     1 <1>   0.0800 
 33 H       -4.5600    -3.8890     1.0300 H     1 <1>   0.1000 
 34 H       -0.1260    -7.9910    -1.6470 H     1 <1>   0.1500 
 35 H       -3.4490    -7.7010     1.0150 H     1 <1>   0.1500 
 36 H       -4.4170    -3.4950    -2.0280 H     1 <1>   0.1000 
 37 H       -5.9050    -3.4990    -1.0350 H     1 <1>   0.1000 
 38 H       -5.0130    -1.5350     0.3130 H     1 <1>   0.1000 
 39 H       -3.5230    -1.5290    -0.6810 H     1 <1>   0.1000 
 40 H       -0.4920   -10.4030    -1.8360 H     1 <1>   0.1500 
 41 H       -3.8070   -10.1170     0.8230 H     1 <1>   0.1500 
 42 H       -2.3300   -11.4760    -0.6020 H     1 <1>   0.1500 
@<TRIPOS>BOND
  1   1   2  1   
  2   1   3  1   
  3   2   4  2   
  4   2   5  1   
  5   3   6  2   
  6   3  24  1   
  7   4   6  1   
  8   5  25  1   
  9   5  26  1   
 10   6   7  1   
 11   7   8  2   
 12   7   9  am  
 13   9  10  1   
 14   9  11  1   
 15  10  12  1   
 16  10  27  1   
 17  10  28  1   
 18  11  13  1   
 19  11  29  1   
 20  11  30  1   
 21  12  14  1   
 22  12  15  1   
 23  12  31  1   
 24  13  14  1   
 25  13  16  1   
 26  13  32  1   
 27  15  17  ar  
 28  15  18  ar  
 29  16  19  1   
 30  16  20  1   
 31  16  33  1   
 32  17  21  ar  
 33  17  34  1   
 34  18  22  ar  
 35  18  35  1   
 36  19  20  1   
 37  19  36  1   
 38  19  37  1   
 39  20  38  1   
 40  20  39  1   
 41  21  23  ar  
 42  21  40  1   
 43  22  23  ar  
 44  22  41  1   
 45  23  42  1   
@<TRIPOS>SUBSTRUCTURE
  1 ****   9 GROUP 4 **** **** 0

# MOE 2024.06 (io_trps.svl 2023.06)
