@<TRIPOS>MOLECULE
NONAME
42 44 1 0 0 
SMALL
USER_CHARGES


@<TRIPOS>ATOM
  1 O       -2.4860    -1.2520     2.2900 O.2   1 <1>  -0.5700 
  2 C       -2.4470    -1.4550     1.0850 C.2   1 <1>   0.5410 
  3 C       -1.7410    -0.6390     0.1240 C.2   1 <1>   0.0910 
  4 C       -3.1420    -2.5660     0.5320 C.2   1 <1>  -0.1360 
  5 O       -1.0120     0.4710     0.4680 O.3   1 <1>  -0.3570 
  6 C       -1.7980    -0.9600    -1.1910 C.2   1 <1>  -0.0730 
  7 C       -3.1460    -2.8150    -0.8010 C.2   1 <1>  -0.0620 
  8 C       -0.2880     0.4810     1.6810 C.3   1 <1>   0.0400 
  9 O       -2.4800    -2.0210    -1.6440 O.3   1 <1>  -0.1530 
 10 C       -3.8560    -3.9730    -1.4930 C.3   1 <1>   0.2480 
 11 N       -4.8750    -4.6040    -0.6260 N.3   1 <1>  -0.8100 
 12 C       -5.1760    -5.9790    -1.0900 C.3   1 <1>   0.1100 
 13 C       -6.0710    -3.7500    -0.5250 C.3   1 <1>   0.0300 
 14 C       -5.8680    -6.8540    -0.0290 C.3   1 <1>   0.2000 
 15 O       -5.4490    -8.1920    -0.2500 O.3   1 <1>  -0.3630 
 16 C       -7.4060    -6.7930    -0.0860 C.3   1 <1>   0.1200 
 17 C       -6.1420    -9.1730     0.3810 C.ar  1 <1>   0.0830 
 18 O       -7.9800    -7.7040     0.8340 O.3   1 <1>  -0.3630 
 19 C       -7.4000    -8.9260     0.9340 C.ar  1 <1>   0.0830 
 20 C       -5.5810   -10.4350     0.4760 C.ar  1 <1>  -0.1500 
 21 C       -8.0770    -9.9380     1.5910 C.ar  1 <1>  -0.1500 
 22 C       -6.2650   -11.4470     1.1300 C.ar  1 <1>  -0.1500 
 23 C       -7.5090   -11.1980     1.6890 C.ar  1 <1>  -0.1500 
 24 H       -3.6610    -3.1930     1.2330 H     1 <1>   0.1500 
 25 H       -1.3030    -0.3930    -1.9590 H     1 <1>   0.1500 
 26 H        0.4460     1.2650     1.6270 H     1 <1>   0.0800 
 27 H        0.1970    -0.4700     1.8150 H     1 <1>   0.0800 
 28 H       -0.9660     0.6790     2.4930 H     1 <1>   0.0800 
 29 H       -3.1040    -4.6940    -1.7640 H     1 <1>   0.0800 
 30 H       -4.3220    -3.6240    -2.3990 H     1 <1>   0.0800 
 31 H       -4.2420    -6.4630    -1.3240 H     1 <1>   0.0800 
 32 H       -5.7640    -5.9470    -1.9910 H     1 <1>   0.0800 
 33 H       -5.7900    -2.7240    -0.3560 H     1 <1>   0.0800 
 34 H       -6.6720    -4.0560     0.3120 H     1 <1>   0.0800 
 35 H       -6.6540    -3.8020    -1.4280 H     1 <1>   0.0800 
 36 H       -5.5190    -6.5710     0.9480 H     1 <1>   0.0800 
 37 H       -7.7530    -7.0550    -1.0690 H     1 <1>   0.0800 
 38 H       -7.7730    -5.8180     0.1640 H     1 <1>   0.0800 
 39 H       -4.6150   -10.6170     0.0420 H     1 <1>   0.1500 
 40 H       -9.0420    -9.7360     2.0190 H     1 <1>   0.1500 
 41 H       -5.8280   -12.4280     1.2060 H     1 <1>   0.1500 
 42 H       -8.0360   -11.9850     2.1990 H     1 <1>   0.1500 
@<TRIPOS>BOND
  1   1   2  2   
  2   2   3  1   
  3   2   4  1   
  4   3   5  1   
  5   3   6  2   
  6   4   7  2   
  7   4  24  1   
  8   5   8  1   
  9   6   9  1   
 10   6  25  1   
 11   7   9  1   
 12   7  10  1   
 13   8  26  1   
 14   8  27  1   
 15   8  28  1   
 16  10  11  1   
 17  10  29  1   
 18  10  30  1   
 19  11  12  1   
 20  11  13  1   
 21  12  14  1   
 22  12  31  1   
 23  12  32  1   
 24  13  33  1   
 25  13  34  1   
 26  13  35  1   
 27  14  15  1   
 28  14  16  1   
 29  14  36  1   
 30  15  17  1   
 31  16  18  1   
 32  16  37  1   
 33  16  38  1   
 34  17  19  ar  
 35  17  20  ar  
 36  18  19  1   
 37  19  21  ar  
 38  20  22  ar  
 39  20  39  1   
 40  21  23  ar  
 41  21  40  1   
 42  22  23  ar  
 43  22  41  1   
 44  23  42  1   
@<TRIPOS>SUBSTRUCTURE
  1 ****  11 GROUP 4 **** **** 0

# MOE 2024.06 (io_trps.svl 2023.06)
