@<TRIPOS>MOLECULE
NONAME
56 58 1 0 0 
SMALL
USER_CHARGES


@<TRIPOS>ATOM
  1 O       -0.6080     0.2380     0.3780 O.2   1 <1>  -0.5700 
  2 C       -1.4820     0.9500    -0.0590 C.2   1 <1>   0.5690 
  3 N       -2.5970     0.4000    -0.6420 N.am  1 <1>  -0.6600 
  4 C       -1.3410     2.4590     0.0740 C.3   1 <1>  -0.0990 
  5 C       -2.6830    -1.0690    -0.8660 C.3   1 <1>   0.1400 
  6 C       -3.8820     1.1190    -0.8670 C.3   1 <1>   0.1400 
  7 C        0.0670     2.9210     0.4760 C.3   1 <1>  -0.0160 
  8 C       -3.7190    -1.6710     0.1080 C.3   1 <1>   0.4230 
  9 C       -4.9240     0.5460     0.1030 C.3   1 <1>  -0.1600 
 10 C        0.1140     4.4380     0.5640 C.ar  1 <1>  -0.1440 
 11 N       -3.7630    -3.1940     0.1010 N.4   1 <1>  -0.9590 
 12 C       -5.1170    -0.9940    -0.0290 C.3   1 <1>   0.0000 
 13 C        0.4830     5.1950    -0.5370 C.ar  1 <1>  -0.1500 
 14 C       -0.2210     5.0780     1.7470 C.ar  1 <1>  -0.1500 
 15 C       -5.0060    -3.7740     0.7060 C.3   1 <1>   0.3430 
 16 C       -3.4880    -3.8430    -1.2240 C.3   1 <1>   0.2630 
 17 C       -6.0380    -1.4830     1.1280 C.3   1 <1>  -0.1600 
 18 C       -5.7490    -1.3430    -1.4080 C.3   1 <1>   0.1200 
 19 C        0.5180     6.5770    -0.4610 C.ar  1 <1>  -0.1500 
 20 C       -0.1880     6.4590     1.8260 C.ar  1 <1>  -0.1500 
 21 C       -5.6040    -2.8270     1.7450 C.3   1 <1>  -0.1600 
 22 O       -6.8860    -0.5920    -1.6550 O.3   1 <1>  -0.6800 
 23 C        0.1800     7.2180     0.7270 C.ar  1 <1>   0.0820 
 24 O        0.1880     8.5660     0.8890 O.3   1 <1>  -0.3620 
 25 C        0.5740     9.4270    -0.1580 C.3   1 <1>   0.0400 
 26 H       -1.5890     2.9120    -0.8680 H     1 <1>   0.0800 
 27 H       -2.0410     2.8040     0.8120 H     1 <1>   0.0800 
 28 H       -2.9590    -1.2410    -1.8900 H     1 <1>   0.0800 
 29 H       -1.7240    -1.5270    -0.6980 H     1 <1>   0.0800 
 30 H       -3.7770     2.1760    -0.6950 H     1 <1>   0.0800 
 31 H       -4.2000     0.9870    -1.8880 H     1 <1>   0.0800 
 32 H        0.7850     2.5740    -0.2470 H     1 <1>   0.0800 
 33 H        0.3350     2.4960     1.4280 H     1 <1>   0.0800 
 34 H       -3.3680    -1.3880     1.0880 H     1 <1>   0.0800 
 35 H       -4.6000     0.7900     1.1000 H     1 <1>   0.0800 
 36 H       -5.8570     1.0610    -0.0490 H     1 <1>   0.0800 
 37 H       -2.9910    -3.4700     0.7270 H     1 <1>   0.4500 
 38 H        0.7470     4.7100    -1.4610 H     1 <1>   0.1500 
 39 H       -0.5080     4.5060     2.6110 H     1 <1>   0.1500 
 40 H       -5.7420    -3.9430    -0.0640 H     1 <1>   0.0800 
 41 H       -4.7820    -4.7250     1.1630 H     1 <1>   0.0800 
 42 H       -4.2360    -3.5610    -1.9460 H     1 <1>   0.0800 
 43 H       -3.4980    -4.9160    -1.1220 H     1 <1>   0.0800 
 44 H       -2.5190    -3.5500    -1.5960 H     1 <1>   0.0800 
 45 H       -6.0610    -0.7580     1.9260 H     1 <1>   0.0800 
 46 H       -7.0530    -1.5700     0.7800 H     1 <1>   0.0800 
 47 H       -6.0300    -2.3790    -1.4660 H     1 <1>   0.0800 
 48 H       -5.0700    -1.1310    -2.2150 H     1 <1>   0.0800 
 49 H        0.8080     7.1330    -1.3310 H     1 <1>   0.1500 
 50 H       -0.4460     6.9580     2.7420 H     1 <1>   0.1500 
 51 H       -6.4590    -3.2960     2.2020 H     1 <1>   0.0800 
 52 H       -4.8830    -2.6610     2.5270 H     1 <1>   0.0800 
 53 H       -7.6060    -0.7890    -1.0230 H     1 <1>   0.4000 
 54 H        0.5110    10.4380     0.2010 H     1 <1>   0.0800 
 55 H       -0.0980     9.2920    -0.9870 H     1 <1>   0.0800 
 56 H        1.5870     9.2010    -0.4400 H     1 <1>   0.0800 
@<TRIPOS>BOND
  1   1   2  2   
  2   2   3  am  
  3   2   4  1   
  4   3   5  1   
  5   3   6  1   
  6   4   7  1   
  7   4  26  1   
  8   4  27  1   
  9   5   8  1   
 10   5  28  1   
 11   5  29  1   
 12   6   9  1   
 13   6  30  1   
 14   6  31  1   
 15   7  10  1   
 16   7  32  1   
 17   7  33  1   
 18   8  11  1   
 19   8  12  1   
 20   8  34  1   
 21   9  12  1   
 22   9  35  1   
 23   9  36  1   
 24  10  13  ar  
 25  10  14  ar  
 26  11  15  1   
 27  11  16  1   
 28  11  37  1   
 29  12  17  1   
 30  12  18  1   
 31  13  19  ar  
 32  13  38  1   
 33  14  20  ar  
 34  14  39  1   
 35  15  21  1   
 36  15  40  1   
 37  15  41  1   
 38  16  42  1   
 39  16  43  1   
 40  16  44  1   
 41  17  21  1   
 42  17  45  1   
 43  17  46  1   
 44  18  22  1   
 45  18  47  1   
 46  18  48  1   
 47  19  23  ar  
 48  19  49  1   
 49  20  23  ar  
 50  20  50  1   
 51  21  51  1   
 52  21  52  1   
 53  22  53  1   
 54  23  24  1   
 55  24  25  1   
 56  25  54  1   
 57  25  55  1   
 58  25  56  1   
@<TRIPOS>SUBSTRUCTURE
  1 ****   2 GROUP 4 **** **** 0

# MOE 2024.06 (io_trps.svl 2023.06)
