@<TRIPOS>MOLECULE
NONAME
49 51 1 0 0 
SMALL
USER_CHARGES


@<TRIPOS>ATOM
  1 O       -0.1160     1.5010     2.0930 O.2   1 <1>  -0.5700 
  2 C       -0.2160     2.5780     1.5550 C.2   1 <1>   0.5690 
  3 N       -1.3500     3.3400     1.6390 N.am  1 <1>  -0.6600 
  4 C        0.9660     3.0850     0.7310 C.3   1 <1>   0.1810 
  5 C       -1.4650     4.6520     0.9200 C.3   1 <1>   0.3640 
  6 C       -2.5190     2.9430     2.4770 C.3   1 <1>   0.0600 
  7 O        0.9830     4.4870     0.6260 O.3   1 <1>  -0.5600 
  8 C       -2.7390     4.6940     0.0580 C.ar  1 <1>  -0.1430 
  9 C       -0.2100     5.0510     0.0960 C.3   1 <1>   0.2610 
 10 C       -3.1000     3.7240    -0.8840 C.ar  1 <1>  -0.1430 
 11 C       -3.5800     5.7850     0.2460 C.ar  1 <1>  -0.1500 
 12 C       -0.0820     6.5780     0.0550 C.2   1 <1>   0.5690 
 13 C       -4.2820     3.8700    -1.5970 C.ar  1 <1>  -0.1500 
 14 C       -2.2690     2.4800    -1.1820 C.3   1 <1>  -0.0960 
 15 C       -4.7530     5.9220    -0.4710 C.ar  1 <1>  -0.1500 
 16 O       -0.8820     7.2370    -0.5650 O.2   1 <1>  -0.5700 
 17 N        0.9480     7.1690     0.7120 N.am  1 <1>  -0.7300 
 18 C       -5.1060     4.9600    -1.3950 C.ar  1 <1>  -0.1500 
 19 C        1.2900     8.6000     0.6660 C.3   1 <1>   0.3210 
 20 C        2.6480     8.7450     0.0160 C.2   1 <1>  -0.1810 
 21 C        3.8390     9.0650     0.5480 C.2   1 <1>  -0.0400 
 22 C        2.9400     8.5650    -1.3370 C.2   1 <1>   0.1080 
 23 O        4.7220     9.0650    -0.4150 O.3   1 <1>  -0.0190 
 24 C        4.2870     9.3940     1.9570 C.3   1 <1>  -0.0600 
 25 N        4.1890     8.7630    -1.5620 N.2   1 <1>  -0.4100 
 26 C        1.9470     8.1840    -2.4140 C.3   1 <1>  -0.0590 
 27 H        0.9310     2.6650    -0.2570 H     1 <1>   0.0800 
 28 H        1.8820     2.7820     1.2040 H     1 <1>   0.0800 
 29 H       -1.5680     5.3980     1.6890 H     1 <1>   0.0800 
 30 H       -2.7680     3.7370     3.1590 H     1 <1>   0.0800 
 31 H       -2.2960     2.0580     3.0470 H     1 <1>   0.0800 
 32 H       -3.3690     2.7400     1.8490 H     1 <1>   0.0800 
 33 H       -0.3130     4.7070    -0.9150 H     1 <1>   0.0800 
 34 H       -3.3250     6.5550     0.9530 H     1 <1>   0.1500 
 35 H       -4.5760     3.1310    -2.3210 H     1 <1>   0.1500 
 36 H       -2.6200     1.9860    -2.0700 H     1 <1>   0.0800 
 37 H       -2.3440     1.7830    -0.3670 H     1 <1>   0.0800 
 38 H       -1.2390     2.7310    -1.3390 H     1 <1>   0.0800 
 39 H       -5.3870     6.7760    -0.3120 H     1 <1>   0.1500 
 40 H        1.6720     6.5520     1.0930 H     1 <1>   0.3700 
 41 H       -6.0190     5.0600    -1.9570 H     1 <1>   0.1500 
 42 H        0.5520     9.1480     0.1040 H     1 <1>   0.0800 
 43 H        1.3110     8.9910     1.6670 H     1 <1>   0.0800 
 44 H        3.4600     9.3460     2.6410 H     1 <1>   0.0800 
 45 H        4.7050    10.3840     1.9820 H     1 <1>   0.0800 
 46 H        5.0390     8.6930     2.2700 H     1 <1>   0.0800 
 47 H        1.0400     8.7500    -2.3040 H     1 <1>   0.0800 
 48 H        1.7190     7.1370    -2.3430 H     1 <1>   0.0800 
 49 H        2.3640     8.3830    -3.3850 H     1 <1>   0.0800 
@<TRIPOS>BOND
  1   1   2  2   
  2   2   3  am  
  3   2   4  1   
  4   3   5  1   
  5   3   6  1   
  6   4   7  1   
  7   4  27  1   
  8   4  28  1   
  9   5   8  1   
 10   5   9  1   
 11   5  29  1   
 12   6  30  1   
 13   6  31  1   
 14   6  32  1   
 15   7   9  1   
 16   8  10  ar  
 17   8  11  ar  
 18   9  12  1   
 19   9  33  1   
 20  10  13  ar  
 21  10  14  1   
 22  11  15  ar  
 23  11  34  1   
 24  12  16  2   
 25  12  17  am  
 26  13  18  ar  
 27  13  35  1   
 28  14  36  1   
 29  14  37  1   
 30  14  38  1   
 31  15  18  ar  
 32  15  39  1   
 33  17  19  1   
 34  17  40  1   
 35  18  41  1   
 36  19  20  1   
 37  19  42  1   
 38  19  43  1   
 39  20  21  2   
 40  20  22  1   
 41  21  23  1   
 42  21  24  1   
 43  22  25  2   
 44  22  26  1   
 45  23  25  1   
 46  24  44  1   
 47  24  45  1   
 48  24  46  1   
 49  26  47  1   
 50  26  48  1   
 51  26  49  1   
@<TRIPOS>SUBSTRUCTURE
  1 ****   9 GROUP 4 **** **** 0

# MOE 2024.06 (io_trps.svl 2023.06)
