@<TRIPOS>MOLECULE
NONAME
50 52 1 0 0 
SMALL
USER_CHARGES


@<TRIPOS>ATOM
  1 S       -2.2110     1.6720     1.8050 S.3   1 <1>  -0.0800 
  2 C       -2.5430     0.1450     0.9820 C.2   1 <1>  -0.0450 
  3 C       -0.8860     2.0550     0.7260 C.2   1 <1>  -0.1400 
  4 C       -3.6240    -0.6780     1.4660 C.2   1 <1>   0.7150 
  5 C       -1.6530     0.0020    -0.0350 C.2   1 <1>  -0.1500 
  6 C       -0.7250     1.0750    -0.1810 C.2   1 <1>  -0.1500 
  7 C       -0.1530     3.3590     0.9600 C.3   1 <1>  -0.0600 
  8 O       -3.8270    -0.7720     2.6640 O.2   1 <1>  -0.5700 
  9 N       -4.4520    -1.3710     0.6030 N.am  1 <1>  -0.6600 
 10 C       -5.3340    -2.4650     1.1160 C.3   1 <1>   0.1400 
 11 C       -4.7880    -0.8500    -0.7540 C.3   1 <1>   0.1400 
 12 C       -6.8000    -2.0280     1.2210 C.3   1 <1>   0.1400 
 13 C       -5.9490     0.1480    -0.6530 C.3   1 <1>  -0.1600 
 14 N       -7.4070    -1.8570    -0.1340 N.am  1 <1>  -0.6600 
 15 C       -7.3500    -0.4820    -0.7100 C.3   1 <1>   0.1400 
 16 C       -8.0200    -2.8990    -0.8120 C.2   1 <1>   0.5440 
 17 O       -8.5150    -2.6820    -1.9030 O.2   1 <1>  -0.5700 
 18 C       -8.0300    -4.2540    -0.2920 C.ar  1 <1>   0.0860 
 19 C       -8.9030    -4.6160     0.7440 C.ar  1 <1>   0.0830 
 20 C       -7.1730    -5.2330    -0.8130 C.ar  1 <1>  -0.1430 
 21 O       -9.7380    -3.6640     1.2290 O.3   1 <1>  -0.3630 
 22 C       -8.8960    -5.9130     1.2510 C.ar  1 <1>  -0.1500 
 23 C       -7.1770    -6.5180    -0.2980 C.ar  1 <1>  -0.1500 
 24 C       -6.2310    -4.9080    -1.9670 C.3   1 <1>  -0.0970 
 25 C      -10.7940    -3.9560     2.1180 C.3   1 <1>   0.0400 
 26 C       -8.0340    -6.8580     0.7330 C.ar  1 <1>  -0.1500 
 27 H       -1.6170    -0.8460    -0.6950 H     1 <1>   0.1500 
 28 H        0.0210     1.0620    -0.9560 H     1 <1>   0.1500 
 29 H       -0.8360     4.1840     0.8700 H     1 <1>   0.0800 
 30 H        0.6340     3.4780     0.2380 H     1 <1>   0.0800 
 31 H        0.2740     3.3650     1.9470 H     1 <1>   0.0800 
 32 H       -5.0000    -2.7740     2.0920 H     1 <1>   0.0800 
 33 H       -5.2560    -3.3220     0.4720 H     1 <1>   0.0800 
 34 H       -5.0440    -1.6630    -1.4120 H     1 <1>   0.0800 
 35 H       -3.9380    -0.3480    -1.1770 H     1 <1>   0.0800 
 36 H       -6.8640    -1.1080     1.7760 H     1 <1>   0.0800 
 37 H       -7.3450    -2.7690     1.7750 H     1 <1>   0.0800 
 38 H       -5.8780     0.8370    -1.4740 H     1 <1>   0.0800 
 39 H       -5.8510     0.7310     0.2450 H     1 <1>   0.0800 
 40 H       -7.6580    -0.5120    -1.7410 H     1 <1>   0.0800 
 41 H       -8.0510     0.1450    -0.1880 H     1 <1>   0.0800 
 42 H       -9.5520    -6.2050     2.0480 H     1 <1>   0.1500 
 43 H       -6.5180    -7.2690    -0.6980 H     1 <1>   0.1500 
 44 H       -5.6100    -4.0660    -1.7220 H     1 <1>   0.0800 
 45 H       -6.8050    -4.6660    -2.8450 H     1 <1>   0.0800 
 46 H       -5.5940    -5.7420    -2.1990 H     1 <1>   0.0800 
 47 H      -11.3560    -3.0530     2.2740 H     1 <1>   0.0800 
 48 H      -10.3830    -4.2970     3.0510 H     1 <1>   0.0800 
 49 H      -11.4250    -4.7060     1.6750 H     1 <1>   0.0800 
 50 H       -8.0290    -7.8600     1.1260 H     1 <1>   0.1500 
@<TRIPOS>BOND
  1   1   2  1   
  2   1   3  1   
  3   2   4  1   
  4   2   5  2   
  5   3   6  2   
  6   3   7  1   
  7   4   8  2   
  8   4   9  am  
  9   5   6  1   
 10   5  27  1   
 11   6  28  1   
 12   7  29  1   
 13   7  30  1   
 14   7  31  1   
 15   9  10  1   
 16   9  11  1   
 17  10  12  1   
 18  10  32  1   
 19  10  33  1   
 20  11  13  1   
 21  11  34  1   
 22  11  35  1   
 23  12  14  1   
 24  12  36  1   
 25  12  37  1   
 26  13  15  1   
 27  13  38  1   
 28  13  39  1   
 29  14  15  1   
 30  14  16  am  
 31  15  40  1   
 32  15  41  1   
 33  16  17  2   
 34  16  18  1   
 35  18  19  ar  
 36  18  20  ar  
 37  19  21  1   
 38  19  22  ar  
 39  20  23  ar  
 40  20  24  1   
 41  21  25  1   
 42  22  26  ar  
 43  22  42  1   
 44  23  26  ar  
 45  23  43  1   
 46  24  44  1   
 47  24  45  1   
 48  24  46  1   
 49  25  47  1   
 50  25  48  1   
 51  25  49  1   
 52  26  50  1   
@<TRIPOS>SUBSTRUCTURE
  1 ****  10 GROUP 4 **** **** 0

# MOE 2024.06 (io_trps.svl 2023.06)
