@<TRIPOS>MOLECULE
NONAME
38 40 1 0 0 
SMALL
USER_CHARGES


@<TRIPOS>ATOM
  1 O       -1.2850    -1.0590     0.5500 O.3   1 <1>  -0.5600 
  2 C       -1.4730     0.0300     1.3960 C.3   1 <1>   0.1200 
  3 C       -1.2290    -0.8060    -0.8140 C.3   1 <1>   0.1200 
  4 C       -2.8710     0.6750     1.2680 C.3   1 <1>   0.4230 
  5 C       -2.6310    -0.5360    -1.3800 C.3   1 <1>  -0.0800 
  6 N       -2.9590     1.5990     0.0630 N.4   1 <1>  -0.9590 
  7 C       -4.0170    -0.3700     1.3890 C.3   1 <1>   0.2090 
  8 C       -3.7110    -1.4920    -0.8310 C.3   1 <1>   0.2090 
  9 C       -3.0540     0.9390    -1.2900 C.3   1 <1>   0.3430 
 10 C       -4.1420     2.5000     0.2220 C.3   1 <1>   0.2630 
 11 N       -4.6510    -0.7780     0.0830 N.pl3 1 <1>  -0.8380 
 12 C       -5.9880    -1.1460     0.0760 C.ar  1 <1>   0.4100 
 13 N       -6.5290    -1.4770     1.2420 N.ar  1 <1>  -0.6200 
 14 C       -6.7170    -1.1550    -1.1130 C.ar  1 <1>  -0.1500 
 15 C       -7.7990    -1.8460     1.2210 C.ar  1 <1>   0.1600 
 16 C       -8.0380    -1.5360    -1.1170 C.ar  1 <1>  -0.1500 
 17 C       -8.6060    -1.9010     0.0940 C.ar  1 <1>   0.0730 
 18 C       -9.9700    -2.3170     0.1940 C.1   1 <1>   0.4840 
 19 N      -11.0580    -2.6470     0.2790 N.1   1 <1>  -0.5570 
 20 H       -1.3590    -0.3470     2.3980 H     1 <1>   0.0800 
 21 H       -0.6900     0.7480     1.2250 H     1 <1>   0.0800 
 22 H       -0.5440     0.0030    -1.0040 H     1 <1>   0.0800 
 23 H       -0.8280    -1.6970    -1.2700 H     1 <1>   0.0800 
 24 H       -2.9570     1.2970     2.1420 H     1 <1>   0.0800 
 25 H       -2.5580    -0.7500    -2.4310 H     1 <1>   0.0800 
 26 H       -2.1090     2.1750     0.0640 H     1 <1>   0.4500 
 27 H       -4.7690     0.0660     2.0230 H     1 <1>   0.0800 
 28 H       -3.6600    -1.2490     1.8980 H     1 <1>   0.0800 
 29 H       -3.2610    -2.3200    -0.3080 H     1 <1>   0.0800 
 30 H       -4.2590    -1.9120    -1.6560 H     1 <1>   0.0800 
 31 H       -4.0770     0.9900    -1.6270 H     1 <1>   0.0800 
 32 H       -2.4640     1.5070    -1.9910 H     1 <1>   0.0800 
 33 H       -5.0510     1.9170     0.2180 H     1 <1>   0.0800 
 34 H       -4.1860     3.2110    -0.5880 H     1 <1>   0.0800 
 35 H       -4.0840     3.0410     1.1520 H     1 <1>   0.0800 
 36 H       -6.2410    -0.8590    -2.0270 H     1 <1>   0.1500 
 37 H       -8.2320    -2.1250     2.1690 H     1 <1>   0.1500 
 38 H       -8.6160    -1.5530    -2.0270 H     1 <1>   0.1500 
@<TRIPOS>BOND
  1   1   2  1   
  2   1   3  1   
  3   2   4  1   
  4   2  20  1   
  5   2  21  1   
  6   3   5  1   
  7   3  22  1   
  8   3  23  1   
  9   4   6  1   
 10   4   7  1   
 11   4  24  1   
 12   5   8  1   
 13   5   9  1   
 14   5  25  1   
 15   6   9  1   
 16   6  10  1   
 17   6  26  1   
 18   7  11  1   
 19   7  27  1   
 20   7  28  1   
 21   8  11  1   
 22   8  29  1   
 23   8  30  1   
 24   9  31  1   
 25   9  32  1   
 26  10  33  1   
 27  10  34  1   
 28  10  35  1   
 29  11  12  1   
 30  12  13  ar  
 31  12  14  ar  
 32  13  15  ar  
 33  14  16  ar  
 34  14  36  1   
 35  15  17  ar  
 36  15  37  1   
 37  16  17  ar  
 38  16  38  1   
 39  17  18  1   
 40  18  19  3   
@<TRIPOS>SUBSTRUCTURE
  1 ****  11 GROUP 4 **** **** 0

# MOE 2024.06 (io_trps.svl 2023.06)
