@<TRIPOS>MOLECULE
NONAME
56 58 1 0 0 
SMALL
USER_CHARGES


@<TRIPOS>ATOM
  1 O        3.3770    -0.3780    -1.3310 O.2   1 <1>  -0.5700 
  2 C        2.5560    -0.9020    -0.6150 C.2   1 <1>   0.5690 
  3 N        1.8280    -0.2620     0.3380 N.am  1 <1>  -0.4930 
  4 C        2.2740    -2.3970    -0.7790 C.3   1 <1>   0.1710 
  5 C        1.7090     1.1030     0.7010 C.2   1 <1>   0.0630 
  6 N        0.9030    -2.7930    -0.3310 N.3   1 <1>  -0.8100 
  7 C        2.6530     2.1360     0.6990 C.2   1 <1>   0.1080 
  8 C        0.5760     1.6750     1.1650 C.2   1 <1>  -0.3320 
  9 C        0.8210    -4.2400    -0.0960 C.3   1 <1>   0.1100 
 10 C       -0.1150    -2.3460    -1.3000 C.3   1 <1>   0.1100 
 11 N        2.1520     3.2570     1.1170 N.2   1 <1>  -0.7070 
 12 C        4.1060     2.0340     0.2920 C.3   1 <1>  -0.0590 
 13 N        0.8680     2.9790     1.4010 N.pl3 1 <1>   0.3140 
 14 C       -0.7910     1.0470     1.3990 C.3   1 <1>  -0.0600 
 15 C       -0.5460    -4.5920     0.4960 C.3   1 <1>  -0.1600 
 16 C       -1.5110    -2.6300    -0.7470 C.3   1 <1>  -0.1600 
 17 C       -0.0380     4.0310     1.9070 C.3   1 <1>   0.0960 
 18 C       -1.6740    -4.1140    -0.4240 C.3   1 <1>   0.2000 
 19 C       -0.8000     4.7070     0.7600 C.3   1 <1>  -0.2400 
 20 O       -2.8980    -4.2600     0.2200 O.3   1 <1>  -0.5600 
 21 C       -3.4670    -5.5410     0.1420 C.3   1 <1>   0.2630 
 22 C       -4.8170    -5.6240     0.8520 C.ar  1 <1>   0.1670 
 23 N       -5.4210    -6.8050     0.7750 N.ar  1 <1>  -0.6200 
 24 C       -5.3530    -4.5330     1.5250 C.ar  1 <1>  -0.1500 
 25 C       -6.5920    -6.8970     1.3860 C.ar  1 <1>   0.1600 
 26 C       -6.5740    -4.6450     2.1570 C.ar  1 <1>  -0.1500 
 27 C       -7.2030    -5.8670     2.0780 C.ar  1 <1>  -0.1500 
 28 H        1.1180    -0.8790     0.7430 H     1 <1>   0.3700 
 29 H        3.0070    -2.9180    -0.1900 H     1 <1>   0.0800 
 30 H        2.4210    -2.6700    -1.8090 H     1 <1>   0.0800 
 31 H        1.5880    -4.5370     0.6000 H     1 <1>   0.0800 
 32 H        0.9740    -4.7730    -1.0200 H     1 <1>   0.0800 
 33 H        0.0200    -2.8580    -2.2390 H     1 <1>   0.0800 
 34 H       -0.0200    -1.2870    -1.4780 H     1 <1>   0.0800 
 35 H        4.5150     1.0950     0.6150 H     1 <1>   0.0800 
 36 H        4.6680     2.8320     0.7400 H     1 <1>   0.0800 
 37 H        4.1850     2.1080    -0.7760 H     1 <1>   0.0800 
 38 H       -0.7790     0.0030     1.1450 H     1 <1>   0.0800 
 39 H       -1.5310     1.5340     0.7890 H     1 <1>   0.0800 
 40 H       -1.0700     1.1400     2.4330 H     1 <1>   0.0800 
 41 H       -0.6380    -4.1190     1.4570 H     1 <1>   0.0800 
 42 H       -0.6000    -5.6560     0.6290 H     1 <1>   0.0800 
 43 H       -2.2490    -2.3390    -1.4720 H     1 <1>   0.0800 
 44 H       -1.6590    -2.0490     0.1440 H     1 <1>   0.0800 
 45 H        0.5590     4.7590     2.4270 H     1 <1>   0.0800 
 46 H       -0.7230     3.5920     2.6070 H     1 <1>   0.0800 
 47 H       -1.6830    -4.6780    -1.3420 H     1 <1>   0.0800 
 48 H       -0.1010     5.1540     0.0730 H     1 <1>   0.0800 
 49 H       -1.4390     5.4780     1.1490 H     1 <1>   0.0800 
 50 H       -1.4030     3.9900     0.2340 H     1 <1>   0.0800 
 51 H       -2.7960    -6.2480     0.5920 H     1 <1>   0.0800 
 52 H       -3.6050    -5.7890    -0.8960 H     1 <1>   0.0800 
 53 H       -4.8220    -3.5990     1.5580 H     1 <1>   0.1500 
 54 H       -7.0930    -7.8480     1.3310 H     1 <1>   0.1500 
 55 H       -7.0110    -3.8150     2.6850 H     1 <1>   0.1500 
 56 H       -8.1570    -6.0230     2.5480 H     1 <1>   0.1500 
@<TRIPOS>BOND
  1   1   2  2   
  2   2   3  am  
  3   2   4  1   
  4   3   5  1   
  5   3  28  1   
  6   4   6  1   
  7   4  29  1   
  8   4  30  1   
  9   5   7  1   
 10   5   8  2   
 11   6   9  1   
 12   6  10  1   
 13   7  11  2   
 14   7  12  1   
 15   8  13  1   
 16   8  14  1   
 17   9  15  1   
 18   9  31  1   
 19   9  32  1   
 20  10  16  1   
 21  10  33  1   
 22  10  34  1   
 23  11  13  1   
 24  12  35  1   
 25  12  36  1   
 26  12  37  1   
 27  13  17  1   
 28  14  38  1   
 29  14  39  1   
 30  14  40  1   
 31  15  18  1   
 32  15  41  1   
 33  15  42  1   
 34  16  18  1   
 35  16  43  1   
 36  16  44  1   
 37  17  19  1   
 38  17  45  1   
 39  17  46  1   
 40  18  20  1   
 41  18  47  1   
 42  19  48  1   
 43  19  49  1   
 44  19  50  1   
 45  20  21  1   
 46  21  22  1   
 47  21  51  1   
 48  21  52  1   
 49  22  23  ar  
 50  22  24  ar  
 51  23  25  ar  
 52  24  26  ar  
 53  24  53  1   
 54  25  27  ar  
 55  25  54  1   
 56  26  27  ar  
 57  26  55  1   
 58  27  56  1   
@<TRIPOS>SUBSTRUCTURE
  1 ****  16 GROUP 4 **** **** 0

# MOE 2024.06 (io_trps.svl 2023.06)
