@<TRIPOS>MOLECULE
NONAME
49 51 1 0 0 
SMALL
USER_CHARGES


@<TRIPOS>ATOM
  1 O       -0.0320     2.7320    -0.7510 O.2   1 <1>  -0.5700 
  2 C       -1.0010     2.1930    -0.2420 C.2   1 <1>   0.5440 
  3 N       -1.2700     2.3510     1.1040 N.am  1 <1>  -0.4200 
  4 C       -1.8930     1.3910    -1.0330 C.ar  1 <1>   0.0860 
  5 C       -2.4090     1.7660     1.6140 C.2   1 <1>   0.4500 
  6 C       -0.3900     3.0930     2.0880 C.3   1 <1>   0.2810 
  7 C       -3.0060     0.8400    -0.3910 C.ar  1 <1>   0.1790 
  8 C       -1.7090     1.1380    -2.3960 C.ar  1 <1>  -0.1500 
  9 N       -3.2370     1.0580     0.9500 N.2   1 <1>  -0.6290 
 10 C       -0.1700     4.5960     1.8190 C.2   1 <1>   0.5690 
 11 C        0.9020     2.3260     2.4950 C.3   1 <1>  -0.0800 
 12 C       -3.9000     0.0580    -1.1140 C.ar  1 <1>  -0.1500 
 13 C       -2.6030     0.3590    -3.1020 C.ar  1 <1>  -0.1500 
 14 O       -0.4080     5.3520     2.7340 O.2   1 <1>  -0.5700 
 15 N        0.2820     5.0470     0.6150 N.am  1 <1>  -0.4930 
 16 C        1.9960     2.2050     1.4210 C.3   1 <1>  -0.2400 
 17 C        0.5860     0.9250     3.0480 C.3   1 <1>  -0.2400 
 18 C       -3.7050    -0.1840    -2.4580 C.ar  1 <1>  -0.1500 
 19 C        0.5780     6.3660     0.1950 C.2   1 <1>   0.0630 
 20 C        0.5040     7.5670     0.9010 C.2   1 <1>   0.1390 
 21 C        1.0130     6.7210    -1.0310 C.2   1 <1>  -0.3020 
 22 N        0.8640     8.5870     0.1790 N.2   1 <1>  -0.7070 
 23 N        1.1800     8.0630    -1.0250 N.pl3 1 <1>   0.3140 
 24 C        1.6560     8.8830    -2.1760 C.3   1 <1>   0.1760 
 25 C        2.9910     9.5630    -1.8390 C.3   1 <1>  -0.2400 
 26 C        0.5990     9.9210    -2.5780 C.3   1 <1>  -0.2400 
 27 H       -2.6020     1.9240     2.6620 H     1 <1>   0.0600 
 28 H       -0.9530     3.1150     3.0050 H     1 <1>   0.0800 
 29 H       -0.8540     1.5590    -2.8970 H     1 <1>   0.1500 
 30 H        1.3360     2.8900     3.3050 H     1 <1>   0.0800 
 31 H       -4.7500    -0.3570    -0.6030 H     1 <1>   0.1500 
 32 H       -2.4510     0.1710    -4.1520 H     1 <1>   0.1500 
 33 H        0.4020     4.3250    -0.1090 H     1 <1>   0.3700 
 34 H        1.6960     1.5360     0.6350 H     1 <1>   0.0800 
 35 H        2.8960     1.8110     1.8590 H     1 <1>   0.0800 
 36 H        2.2320     3.1630     0.9950 H     1 <1>   0.0800 
 37 H        0.1910     0.2870     2.2770 H     1 <1>   0.0800 
 38 H       -0.1300     0.9850     3.8490 H     1 <1>   0.0800 
 39 H        1.4800     0.4690     3.4360 H     1 <1>   0.0800 
 40 H       -4.4040    -0.7920    -3.0080 H     1 <1>   0.1500 
 41 H        0.1870     7.6460     1.9260 H     1 <1>   0.1500 
 42 H        1.2090     6.1060    -1.8880 H     1 <1>   0.1500 
 43 H        1.8120     8.2160    -3.0050 H     1 <1>   0.0800 
 44 H        2.8640    10.2420    -1.0140 H     1 <1>   0.0800 
 45 H        3.3510    10.1160    -2.6870 H     1 <1>   0.0800 
 46 H        3.7260     8.8240    -1.5740 H     1 <1>   0.0800 
 47 H        0.4260    10.6090    -1.7690 H     1 <1>   0.0800 
 48 H       -0.3260     9.4310    -2.8240 H     1 <1>   0.0800 
 49 H        0.9310    10.4770    -3.4360 H     1 <1>   0.0800 
@<TRIPOS>BOND
  1   1   2  2   
  2   2   3  am  
  3   2   4  1   
  4   3   5  1   
  5   3   6  1   
  6   4   7  ar  
  7   4   8  ar  
  8   5   9  2   
  9   5  27  1   
 10   6  10  1   
 11   6  11  1   
 12   6  28  1   
 13   7   9  1   
 14   7  12  ar  
 15   8  13  ar  
 16   8  29  1   
 17  10  14  2   
 18  10  15  am  
 19  11  16  1   
 20  11  17  1   
 21  11  30  1   
 22  12  18  ar  
 23  12  31  1   
 24  13  18  ar  
 25  13  32  1   
 26  15  19  1   
 27  15  33  1   
 28  16  34  1   
 29  16  35  1   
 30  16  36  1   
 31  17  37  1   
 32  17  38  1   
 33  17  39  1   
 34  18  40  1   
 35  19  20  1   
 36  19  21  2   
 37  20  22  2   
 38  20  41  1   
 39  21  23  1   
 40  21  42  1   
 41  22  23  1   
 42  23  24  1   
 43  24  25  1   
 44  24  26  1   
 45  24  43  1   
 46  25  44  1   
 47  25  45  1   
 48  25  46  1   
 49  26  47  1   
 50  26  48  1   
 51  26  49  1   
@<TRIPOS>SUBSTRUCTURE
  1 ****  15 GROUP 4 **** **** 0

# MOE 2024.06 (io_trps.svl 2023.06)
