@<TRIPOS>MOLECULE
NONAME
63 66 1 0 0 
SMALL
USER_CHARGES


@<TRIPOS>ATOM
  1 O       -2.3720     2.5570     1.3670 O.2   1 <1>  -0.5700 
  2 C       -2.5580     2.1210     0.2510 C.2   1 <1>   0.5690 
  3 N       -3.6130     1.2770    -0.0130 N.am  1 <1>  -0.6600 
  4 C       -1.5450     2.5240    -0.8640 C.3   1 <1>   0.4840 
  5 C       -4.6230     0.9480     1.0400 C.3   1 <1>   0.1400 
  6 C       -3.9390     0.6620    -1.3350 C.3   1 <1>   0.1400 
  7 N       -0.1420     2.8650    -0.4060 N.4   1 <1>  -0.9590 
  8 C       -2.0720     3.6760    -1.7280 C.3   1 <1>  -0.2400 
  9 C       -4.7110    -0.5700     1.2120 C.3   1 <1>  -0.1600 
 10 C       -4.0070    -0.8600    -1.1820 C.3   1 <1>  -0.1600 
 11 C        0.4700     1.6970     0.2830 C.3   1 <1>   0.3430 
 12 C       -0.0970     4.0360     0.5170 C.3   1 <1>   0.3430 
 13 C       -5.0300    -1.2780    -0.1150 C.3   1 <1>   0.4240 
 14 C        1.9980     1.7290     0.1790 C.3   1 <1>  -0.1600 
 15 C        1.0810     4.9450     0.1660 C.3   1 <1>  -0.1600 
 16 O       -6.2620    -0.7870    -0.5850 O.3   1 <1>  -0.5600 
 17 C       -5.0420    -2.8130     0.0490 C.ar  1 <1>  -0.1430 
 18 C        2.6890     2.9990     0.7080 C.3   1 <1>  -0.1600 
 19 C        2.4120     4.2410    -0.1540 C.3   1 <1>  -0.1600 
 20 C       -7.4220    -1.3840    -0.0920 C.3   1 <1>   0.1200 
 21 C       -6.2010    -3.5490    -0.1760 C.ar  1 <1>  -0.1430 
 22 C       -3.8900    -3.4920     0.4330 C.ar  1 <1>  -0.1500 
 23 C       -7.4740    -2.8300    -0.5750 C.3   1 <1>  -0.0170 
 24 C       -6.2030    -4.9280    -0.0350 C.ar  1 <1>  -0.1500 
 25 C       -3.8920    -4.8670     0.5770 C.ar  1 <1>  -0.1500 
 26 C       -5.0440    -5.5960     0.3430 C.ar  1 <1>   0.0830 
 27 O       -4.9610    -6.9410     0.5040 O.3   1 <1>  -0.3630 
 28 C       -6.0720    -7.7770     0.2700 C.3   1 <1>   0.0400 
 29 H       -1.4610     1.6660    -1.5070 H     1 <1>   0.0800 
 30 H       -5.5820     1.3380     0.7430 H     1 <1>   0.0800 
 31 H       -4.3630     1.4000     1.9830 H     1 <1>   0.0800 
 32 H       -3.2110     0.9100    -2.0840 H     1 <1>   0.0800 
 33 H       -4.8940     1.0340    -1.6690 H     1 <1>   0.0800 
 34 H        0.4330     3.0980    -1.2220 H     1 <1>   0.4500 
 35 H       -2.2870     4.5450    -1.1330 H     1 <1>   0.0800 
 36 H       -2.9920     3.3790    -2.1990 H     1 <1>   0.0800 
 37 H       -1.3700     3.9290    -2.5010 H     1 <1>   0.0800 
 38 H       -5.4560    -0.8130     1.9460 H     1 <1>   0.0800 
 39 H       -3.7710    -0.9210     1.5950 H     1 <1>   0.0800 
 40 H       -3.0320    -1.2270    -0.9240 H     1 <1>   0.0800 
 41 H       -4.2850    -1.3090    -2.1180 H     1 <1>   0.0800 
 42 H        0.1190     0.7820    -0.1670 H     1 <1>   0.0800 
 43 H        0.1710     1.6880     1.3200 H     1 <1>   0.0800 
 44 H        0.0030     3.6900     1.5340 H     1 <1>   0.0800 
 45 H       -1.0110     4.6030     0.4650 H     1 <1>   0.0800 
 46 H        2.2860     1.5600    -0.8440 H     1 <1>   0.0800 
 47 H        2.3730     0.8920     0.7420 H     1 <1>   0.0800 
 48 H        1.2340     5.6000     1.0070 H     1 <1>   0.0800 
 49 H        0.8070     5.5750    -0.6630 H     1 <1>   0.0800 
 50 H        3.7510     2.8200     0.6920 H     1 <1>   0.0800 
 51 H        2.4210     3.1830     1.7360 H     1 <1>   0.0800 
 52 H        3.2060     4.9520     0.0050 H     1 <1>   0.0800 
 53 H        2.4500     3.9720    -1.1960 H     1 <1>   0.0800 
 54 H       -8.2640    -0.8310    -0.4690 H     1 <1>   0.0800 
 55 H       -7.4190    -1.3340     0.9820 H     1 <1>   0.0800 
 56 H       -2.9770    -2.9600     0.6260 H     1 <1>   0.1500 
 57 H       -7.5810    -2.8470    -1.6450 H     1 <1>   0.0800 
 58 H       -8.3290    -3.3160    -0.1410 H     1 <1>   0.0800 
 59 H       -7.1110    -5.4670    -0.2210 H     1 <1>   0.1500 
 60 H       -2.9990    -5.3870     0.8730 H     1 <1>   0.1500 
 61 H       -5.7690    -8.7920     0.4490 H     1 <1>   0.0800 
 62 H       -6.3840    -7.6640    -0.7540 H     1 <1>   0.0800 
 63 H       -6.8620    -7.5060     0.9470 H     1 <1>   0.0800 
@<TRIPOS>BOND
  1   1   2  2   
  2   2   3  am  
  3   2   4  1   
  4   3   5  1   
  5   3   6  1   
  6   4   7  1   
  7   4   8  1   
  8   4  29  1   
  9   5   9  1   
 10   5  30  1   
 11   5  31  1   
 12   6  10  1   
 13   6  32  1   
 14   6  33  1   
 15   7  11  1   
 16   7  12  1   
 17   7  34  1   
 18   8  35  1   
 19   8  36  1   
 20   8  37  1   
 21   9  13  1   
 22   9  38  1   
 23   9  39  1   
 24  10  13  1   
 25  10  40  1   
 26  10  41  1   
 27  11  14  1   
 28  11  42  1   
 29  11  43  1   
 30  12  15  1   
 31  12  44  1   
 32  12  45  1   
 33  13  16  1   
 34  13  17  1   
 35  14  18  1   
 36  14  46  1   
 37  14  47  1   
 38  15  19  1   
 39  15  48  1   
 40  15  49  1   
 41  16  20  1   
 42  17  21  ar  
 43  17  22  ar  
 44  18  19  1   
 45  18  50  1   
 46  18  51  1   
 47  19  52  1   
 48  19  53  1   
 49  20  23  1   
 50  20  54  1   
 51  20  55  1   
 52  21  23  1   
 53  21  24  ar  
 54  22  25  ar  
 55  22  56  1   
 56  23  57  1   
 57  23  58  1   
 58  24  26  ar  
 59  24  59  1   
 60  25  26  ar  
 61  25  60  1   
 62  26  27  1   
 63  27  28  1   
 64  28  61  1   
 65  28  62  1   
 66  28  63  1   
@<TRIPOS>SUBSTRUCTURE
  1 ****  10 GROUP 4 **** **** 0

# MOE 2024.06 (io_trps.svl 2023.06)
