@<TRIPOS>MOLECULE
NONAME
49 51 1 0 0 
SMALL
USER_CHARGES


@<TRIPOS>ATOM
  1 S        0.1670     0.2590     2.2710 S.o2  1 <1>   1.4470 
  2 O       -0.3540     1.5370     2.7010 O.2   1 <1>  -0.6500 
  3 O        0.8620    -0.5980     3.2040 O.2   1 <1>  -0.6500 
  4 N        1.3040     0.6340     1.0650 N.am  1 <1>  -0.8490 
  5 C       -1.1250    -0.6560     1.3900 C.ar  1 <1>  -0.0090 
  6 C        2.3360     1.5400     1.6300 C.3   1 <1>   0.1960 
  7 C        1.9300    -0.5700     0.4940 C.3   1 <1>   0.1960 
  8 C       -1.2760    -2.0290     1.5530 C.ar  1 <1>  -0.1500 
  9 C       -1.9850    -0.0060     0.5110 C.ar  1 <1>  -0.1500 
 10 C        3.3020     2.2050     0.6070 C.3   1 <1>   0.4230 
 11 C        2.7170    -0.2610    -0.7980 C.3   1 <1>  -0.0800 
 12 C       -2.2460    -2.7350     0.8640 C.ar  1 <1>  -0.1500 
 13 C       -2.9570    -0.7020    -0.1830 C.ar  1 <1>  -0.1500 
 14 N        2.7560     2.3300    -0.8050 N.4   1 <1>  -0.9590 
 15 C        4.7040     1.5580     0.6270 C.3   1 <1>   0.1200 
 16 C        4.2380    -0.3950    -0.6400 C.3   1 <1>   0.1200 
 17 C        2.2820     1.0570    -1.4580 C.3   1 <1>   0.3430 
 18 C       -3.0960    -2.0690    -0.0120 C.ar  1 <1>   0.0830 
 19 C        1.6290     3.3150    -0.8170 C.3   1 <1>   0.2630 
 20 O        4.6620     0.1680     0.5560 O.3   1 <1>  -0.5600 
 21 O       -4.0760    -2.6740    -0.7200 O.3   1 <1>  -0.3630 
 22 C       -4.4080    -4.0420    -0.5060 C.3   1 <1>   0.1810 
 23 C       -5.6200    -4.4520    -1.3330 C.2   1 <1>   0.5690 
 24 O       -5.9780    -5.6020    -1.3260 O.2   1 <1>  -0.5700 
 25 N       -6.2910    -3.5390    -2.0640 N.am  1 <1>  -0.8000 
 26 H        1.8440     2.3490     2.1420 H     1 <1>   0.0800 
 27 H        2.9060     1.0160     2.3820 H     1 <1>   0.0800 
 28 H        2.5600    -1.0520     1.2260 H     1 <1>   0.0800 
 29 H        1.1560    -1.2750     0.2380 H     1 <1>   0.0800 
 30 H       -0.6270    -2.5560     2.2340 H     1 <1>   0.1500 
 31 H       -1.8970     1.0590     0.3760 H     1 <1>   0.1500 
 32 H        3.4640     3.2060     0.9670 H     1 <1>   0.0800 
 33 H        2.4430    -1.0310    -1.4970 H     1 <1>   0.0800 
 34 H       -2.3230    -3.7950     1.0240 H     1 <1>   0.1500 
 35 H       -3.6190    -0.1880    -0.8570 H     1 <1>   0.1500 
 36 H        3.5150     2.7060    -1.3860 H     1 <1>   0.4500 
 37 H        5.1800     1.7940     1.5630 H     1 <1>   0.0800 
 38 H        5.3280     1.9340    -0.1650 H     1 <1>   0.0800 
 39 H        4.7800     0.0480    -1.4590 H     1 <1>   0.0800 
 40 H        4.5010    -1.4390    -0.5910 H     1 <1>   0.0800 
 41 H        1.2030     1.0570    -1.4760 H     1 <1>   0.0800 
 42 H        2.6120     1.0520    -2.4840 H     1 <1>   0.0800 
 43 H        0.8130     2.9500    -0.2120 H     1 <1>   0.0800 
 44 H        1.2700     3.4650    -1.8230 H     1 <1>   0.0800 
 45 H        1.9520     4.2650    -0.4220 H     1 <1>   0.0800 
 46 H       -3.5660    -4.6460    -0.7880 H     1 <1>   0.0800 
 47 H       -4.6310    -4.1800     0.5360 H     1 <1>   0.0800 
 48 H       -7.1000    -3.8150    -2.6210 H     1 <1>   0.3700 
 49 H       -6.0030    -2.5600    -2.0970 H     1 <1>   0.3700 
@<TRIPOS>BOND
  1   1   2  2   
  2   1   3  2   
  3   1   4  am  
  4   1   5  1   
  5   4   6  1   
  6   4   7  1   
  7   5   8  ar  
  8   5   9  ar  
  9   6  10  1   
 10   6  26  1   
 11   6  27  1   
 12   7  11  1   
 13   7  28  1   
 14   7  29  1   
 15   8  12  ar  
 16   8  30  1   
 17   9  13  ar  
 18   9  31  1   
 19  10  14  1   
 20  10  15  1   
 21  10  32  1   
 22  11  16  1   
 23  11  17  1   
 24  11  33  1   
 25  12  18  ar  
 26  12  34  1   
 27  13  18  ar  
 28  13  35  1   
 29  14  17  1   
 30  14  19  1   
 31  14  36  1   
 32  15  20  1   
 33  15  37  1   
 34  15  38  1   
 35  16  20  1   
 36  16  39  1   
 37  16  40  1   
 38  17  41  1   
 39  17  42  1   
 40  18  21  1   
 41  19  43  1   
 42  19  44  1   
 43  19  45  1   
 44  21  22  1   
 45  22  23  1   
 46  22  46  1   
 47  22  47  1   
 48  23  24  2   
 49  23  25  am  
 50  25  48  1   
 51  25  49  1   
@<TRIPOS>SUBSTRUCTURE
  1 ****   5 GROUP 4 **** **** 0

# MOE 2024.06 (io_trps.svl 2023.06)
