@<TRIPOS>MOLECULE
NONAME
52 54 1 0 0 
SMALL
USER_CHARGES


@<TRIPOS>ATOM
  1 O       -1.5980    -0.7000    -0.2400 O.co2 1 <1>  -0.9000 
  2 C       -0.8150    -1.1050     0.6390 C.2   1 <1>   1.0330 
  3 O       -0.8180    -0.5410     1.7470 O.co2 1 <1>  -0.9000 
  4 C        0.0790    -2.1820     0.3700 C.2   1 <1>  -0.2330 
  5 C       -0.2400    -3.5420     0.3560 C.2   1 <1>   0.3720 
  6 C        1.4040    -2.1530     0.0700 C.2   1 <1>   0.0870 
  7 N        0.8030    -4.2530     0.0780 N.2   1 <1>  -0.4100 
  8 N       -1.5010    -4.1240     0.6070 N.pl3 1 <1>  -0.8210 
  9 O        1.7790    -3.4010    -0.0930 O.3   1 <1>  -0.0190 
 10 C        2.3690    -1.0900    -0.0930 C.ar  1 <1>   0.0530 
 11 C       -1.5350    -5.5820     0.8070 C.3   1 <1>   0.2090 
 12 C       -2.6760    -3.4720    -0.0770 C.3   1 <1>   0.2090 
 13 C        2.2200     0.1560     0.5190 C.ar  1 <1>  -0.1500 
 14 C        3.5090    -1.2750    -0.8780 C.ar  1 <1>  -0.1500 
 15 C       -1.6230    -6.2930    -0.5490 C.3   1 <1>  -0.0800 
 16 C       -3.9050    -4.3660    -0.3460 C.3   1 <1>   0.1200 
 17 C        3.1490     1.1660     0.3560 C.ar  1 <1>  -0.1500 
 18 C        4.4460    -0.2720    -1.0460 C.ar  1 <1>  -0.1500 
 19 C       -3.0820    -6.5330    -0.9480 C.3   1 <1>   0.1200 
 20 C       -0.7410    -7.5420    -0.5690 C.3   1 <1>   0.3430 
 21 O       -3.6790    -5.3410    -1.3350 O.3   1 <1>  -0.5600 
 22 C        4.2760     0.9580    -0.4330 C.ar  1 <1>   0.0830 
 23 N       -1.1290    -8.5710     0.4530 N.4   1 <1>  -0.9590 
 24 O        5.2340     1.8920    -0.6460 O.3   1 <1>  -0.3620 
 25 C        0.0970    -9.2690     0.9530 C.3   1 <1>   0.2630 
 26 C       -2.1040    -9.5700    -0.0890 C.3   1 <1>   0.2630 
 27 C        5.1280     3.1850    -0.0940 C.3   1 <1>   0.0400 
 28 H       -2.3680    -5.8330     1.4400 H     1 <1>   0.0800 
 29 H       -0.6410    -5.8710     1.3340 H     1 <1>   0.0800 
 30 H       -2.3560    -3.0370    -1.0100 H     1 <1>   0.0800 
 31 H       -3.0040    -2.6590     0.5480 H     1 <1>   0.0800 
 32 H        1.3620     0.3420     1.1410 H     1 <1>   0.1500 
 33 H        3.6600    -2.2200    -1.3680 H     1 <1>   0.1500 
 34 H       -1.1940    -5.6530    -1.3020 H     1 <1>   0.0800 
 35 H       -4.6920    -3.7340    -0.7180 H     1 <1>   0.0800 
 36 H       -4.2560    -4.8300     0.5580 H     1 <1>   0.0800 
 37 H        2.9740     2.1010     0.8510 H     1 <1>   0.1500 
 38 H        5.3150    -0.4350    -1.6560 H     1 <1>   0.1500 
 39 H       -3.6610    -6.9650    -0.1500 H     1 <1>   0.0800 
 40 H       -3.1270    -7.1830    -1.8050 H     1 <1>   0.0800 
 41 H        0.2690    -7.2150    -0.3770 H     1 <1>   0.0800 
 42 H       -0.7550    -7.9770    -1.5550 H     1 <1>   0.0800 
 43 H       -1.5560    -8.0830     1.2540 H     1 <1>   0.4500 
 44 H        0.5860    -9.7930     0.1470 H     1 <1>   0.0800 
 45 H       -0.1620    -9.9820     1.7200 H     1 <1>   0.0800 
 46 H        0.7900    -8.5550     1.3690 H     1 <1>   0.0800 
 47 H       -1.6770   -10.0920    -0.9300 H     1 <1>   0.0800 
 48 H       -3.0090    -9.0820    -0.4120 H     1 <1>   0.0800 
 49 H       -2.3600   -10.2930     0.6690 H     1 <1>   0.0800 
 50 H        5.9860     3.7530    -0.4060 H     1 <1>   0.0800 
 51 H        5.1120     3.1050     0.9790 H     1 <1>   0.0800 
 52 H        4.2290     3.6470    -0.4600 H     1 <1>   0.0800 
@<TRIPOS>BOND
  1   1   2  ar  
  2   2   3  ar  
  3   2   4  1   
  4   4   5  1   
  5   4   6  2   
  6   5   7  2   
  7   5   8  1   
  8   6   9  1   
  9   6  10  1   
 10   7   9  1   
 11   8  11  1   
 12   8  12  1   
 13  10  13  ar  
 14  10  14  ar  
 15  11  15  1   
 16  11  28  1   
 17  11  29  1   
 18  12  16  1   
 19  12  30  1   
 20  12  31  1   
 21  13  17  ar  
 22  13  32  1   
 23  14  18  ar  
 24  14  33  1   
 25  15  19  1   
 26  15  20  1   
 27  15  34  1   
 28  16  21  1   
 29  16  35  1   
 30  16  36  1   
 31  17  22  ar  
 32  17  37  1   
 33  18  22  ar  
 34  18  38  1   
 35  19  21  1   
 36  19  39  1   
 37  19  40  1   
 38  20  23  1   
 39  20  41  1   
 40  20  42  1   
 41  22  24  1   
 42  23  25  1   
 43  23  26  1   
 44  23  43  1   
 45  24  27  1   
 46  25  44  1   
 47  25  45  1   
 48  25  46  1   
 49  26  47  1   
 50  26  48  1   
 51  26  49  1   
 52  27  50  1   
 53  27  51  1   
 54  27  52  1   
@<TRIPOS>SUBSTRUCTURE
  1 ****   5 GROUP 4 **** **** 0

# MOE 2024.06 (io_trps.svl 2023.06)
