@<TRIPOS>MOLECULE
NONAME
62 65 1 0 0 
SMALL
USER_CHARGES


@<TRIPOS>ATOM
  1 O        2.2040     0.1350     2.3870 O.2   1 <1>  -0.5700 
  2 C        2.1540    -0.9780     1.9240 C.2   1 <1>   0.5690 
  3 N        2.3910    -1.1750     0.5870 N.am  1 <1>  -0.6600 
  4 C        1.8720    -2.0960     2.9180 C.3   1 <1>  -0.0990 
  5 C        2.2940    -2.5110    -0.0800 C.3   1 <1>   0.1400 
  6 C        2.8580     0.0180    -0.2320 C.3   1 <1>   0.2010 
  7 C        1.4480    -3.4660     2.3800 C.3   1 <1>   0.1200 
  8 C        3.1340    -3.6240     0.6160 C.3   1 <1>   0.2800 
  9 C        3.0040    -0.1830    -1.7510 C.2   1 <1>   0.5690 
 10 O        2.4970    -4.1480     1.7440 O.3   1 <1>  -0.5600 
 11 C        3.3360    -4.8020    -0.3450 C.3   1 <1>  -0.1600 
 12 C        4.5320    -3.1810     1.0740 C.3   1 <1>  -0.1600 
 13 O        4.0370    -0.6850    -2.1510 O.2   1 <1>  -0.5700 
 14 N        1.9830     0.1410    -2.6130 N.am  1 <1>  -0.6600 
 15 C        4.1800    -4.4040    -1.5600 C.3   1 <1>   0.3430 
 16 C        5.3620    -2.7000    -0.1040 C.3   1 <1>   0.3430 
 17 C        0.6280     0.5860    -2.1740 C.3   1 <1>   0.0600 
 18 C        2.1650     0.1310    -4.0930 C.3   1 <1>   0.0600 
 19 N        5.4600    -3.7540    -1.1580 N.4   1 <1>  -0.9590 
 20 C        6.1680    -3.1920    -2.3450 C.3   1 <1>   0.5240 
 21 C        7.6340    -3.0250    -1.9820 C.2   1 <1>   0.0460 
 22 N        8.2890    -3.9920    -1.3070 N.2   1 <1>  -0.5650 
 23 C        8.4630    -1.9990    -2.2120 C.2   1 <1>  -0.0100 
 24 C        9.4910    -3.5100    -1.1650 C.2   1 <1>   0.4250 
 25 O        9.6180    -2.3080    -1.7000 O.3   1 <1>  -0.2800 
 26 C       10.6200    -4.1380    -0.5090 C.ar  1 <1>   0.0530 
 27 C       11.8380    -3.4720    -0.3460 C.ar  1 <1>  -0.1500 
 28 C       10.5340    -5.4390    -0.0100 C.ar  1 <1>  -0.1500 
 29 C       12.9110    -4.0730     0.2850 C.ar  1 <1>  -0.1500 
 30 C       11.6040    -6.0460     0.6210 C.ar  1 <1>  -0.1500 
 31 C       12.7960    -5.3630     0.7710 C.ar  1 <1>  -0.1500 
 32 H        1.0790    -1.7450     3.5530 H     1 <1>   0.0800 
 33 H        2.7330    -2.2200     3.5480 H     1 <1>   0.0800 
 34 H        2.6240    -2.4310    -1.0910 H     1 <1>   0.0800 
 35 H        1.2630    -2.8050    -0.1510 H     1 <1>   0.0800 
 36 H        3.8180     0.3200     0.1440 H     1 <1>   0.0800 
 37 H        2.1950     0.8450    -0.0520 H     1 <1>   0.0800 
 38 H        0.6020    -3.3930     1.7190 H     1 <1>   0.0800 
 39 H        1.1490    -4.0830     3.2100 H     1 <1>   0.0800 
 40 H        2.3790    -5.1580    -0.6840 H     1 <1>   0.0800 
 41 H        3.8220    -5.6130     0.1690 H     1 <1>   0.0800 
 42 H        5.0400    -4.0000     1.5520 H     1 <1>   0.0800 
 43 H        4.4690    -2.3840     1.7890 H     1 <1>   0.0800 
 44 H        3.6150    -3.7230    -2.1760 H     1 <1>   0.0800 
 45 H        4.3880    -5.2820    -2.1510 H     1 <1>   0.0800 
 46 H        6.3500    -2.4360     0.2400 H     1 <1>   0.0800 
 47 H        4.9070    -1.8140    -0.5080 H     1 <1>   0.0800 
 48 H        0.3930     0.2040    -1.1960 H     1 <1>   0.0800 
 49 H       -0.1180     0.2250    -2.8610 H     1 <1>   0.0800 
 50 H        0.5880     1.6620    -2.1530 H     1 <1>   0.0800 
 51 H        3.1880    -0.0760    -4.3550 H     1 <1>   0.0800 
 52 H        1.9010     1.0930    -4.4980 H     1 <1>   0.0800 
 53 H        1.5350    -0.6210    -4.5330 H     1 <1>   0.0800 
 54 H        6.1160    -4.4680    -0.7970 H     1 <1>   0.4500 
 55 H        5.7380    -2.2490    -2.6400 H     1 <1>   0.0800 
 56 H        6.0980    -3.8810    -3.1710 H     1 <1>   0.0800 
 57 H        8.3370    -1.0500    -2.7050 H     1 <1>   0.1500 
 58 H       11.9490    -2.4680    -0.7170 H     1 <1>   0.1500 
 59 H        9.6140    -5.9860    -0.1200 H     1 <1>   0.1500 
 60 H       13.8390    -3.5390     0.3980 H     1 <1>   0.1500 
 61 H       11.5120    -7.0510     0.9970 H     1 <1>   0.1500 
 62 H       13.6310    -5.8330     1.2620 H     1 <1>   0.1500 
@<TRIPOS>BOND
  1   1   2  2   
  2   2   3  am  
  3   2   4  1   
  4   3   5  1   
  5   3   6  1   
  6   4   7  1   
  7   4  32  1   
  8   4  33  1   
  9   5   8  1   
 10   5  34  1   
 11   5  35  1   
 12   6   9  1   
 13   6  36  1   
 14   6  37  1   
 15   7  10  1   
 16   7  38  1   
 17   7  39  1   
 18   8  10  1   
 19   8  11  1   
 20   8  12  1   
 21   9  13  2   
 22   9  14  am  
 23  11  15  1   
 24  11  40  1   
 25  11  41  1   
 26  12  16  1   
 27  12  42  1   
 28  12  43  1   
 29  14  17  1   
 30  14  18  1   
 31  15  19  1   
 32  15  44  1   
 33  15  45  1   
 34  16  19  1   
 35  16  46  1   
 36  16  47  1   
 37  17  48  1   
 38  17  49  1   
 39  17  50  1   
 40  18  51  1   
 41  18  52  1   
 42  18  53  1   
 43  19  20  1   
 44  19  54  1   
 45  20  21  1   
 46  20  55  1   
 47  20  56  1   
 48  21  22  1   
 49  21  23  2   
 50  22  24  2   
 51  23  25  1   
 52  23  57  1   
 53  24  25  1   
 54  24  26  1   
 55  26  27  ar  
 56  26  28  ar  
 57  27  29  ar  
 58  27  58  1   
 59  28  30  ar  
 60  28  59  1   
 61  29  31  ar  
 62  29  60  1   
 63  30  31  ar  
 64  30  61  1   
 65  31  62  1   
@<TRIPOS>SUBSTRUCTURE
  1 ****  16 GROUP 4 **** **** 0

# MOE 2024.06 (io_trps.svl 2023.06)
