@<TRIPOS>MOLECULE
NONAME
51 53 1 0 0 
SMALL
USER_CHARGES


@<TRIPOS>ATOM
  1 O        1.5690     0.0560     3.1190 O.2   1 <1>  -0.5700 
  2 C        1.9030    -0.7900     2.3220 C.2   1 <1>   0.5690 
  3 N        3.0240    -0.6300     1.5530 N.am  1 <1>  -0.6600 
  4 C        1.0150    -2.0150     2.1670 C.3   1 <1>   0.0440 
  5 C        3.5410    -1.5980     0.5450 C.3   1 <1>   0.1400 
  6 C        3.5750     0.7240     1.2750 C.3   1 <1>   0.1400 
  7 C        0.1560    -1.8980     0.9060 C.ar  1 <1>  -0.1440 
  8 C        4.5690    -0.8220    -0.2850 C.3   1 <1>   0.2000 
  9 C        4.1780     0.6570    -0.1400 C.3   1 <1>   0.1900 
 10 C        0.2360    -2.8120    -0.1440 C.ar  1 <1>   0.0820 
 11 C       -0.7160    -0.8240     0.8070 C.ar  1 <1>  -0.1500 
 12 O        5.8220    -1.0190     0.2950 O.3   1 <1>  -0.6800 
 13 N        3.2650     1.1240    -1.2300 N.3   1 <1>  -0.8100 
 14 O        1.0930    -3.8610    -0.0140 O.3   1 <1>  -0.3630 
 15 C       -0.5410    -2.6200    -1.2830 C.ar  1 <1>  -0.1500 
 16 C       -1.4880    -0.6380    -0.3250 C.ar  1 <1>  -0.1500 
 17 C        1.8940     0.5510    -1.2440 C.3   1 <1>   0.1100 
 18 C        3.1830     2.5990    -1.2740 C.3   1 <1>   0.1100 
 19 C        1.1380    -4.9000    -0.9690 C.3   1 <1>   0.0400 
 20 C       -1.3950    -1.5360    -1.3820 C.ar  1 <1>   0.0830 
 21 C        1.0590     1.1110    -2.4090 C.3   1 <1>   0.1200 
 22 C        2.3100     3.0780    -2.4480 C.3   1 <1>   0.1200 
 23 O       -2.0950    -1.4130    -2.5370 O.3   1 <1>  -0.3630 
 24 O        1.0350     2.5090    -2.3760 O.3   1 <1>  -0.5600 
 25 C       -2.9650    -0.3240    -2.7530 C.3   1 <1>   0.0400 
 26 H        1.6280    -2.8950     2.1640 H     1 <1>   0.0800 
 27 H        0.3680    -2.0820     3.0220 H     1 <1>   0.0800 
 28 H        3.9810    -2.4590     1.0180 H     1 <1>   0.0800 
 29 H        2.7420    -1.9230    -0.0910 H     1 <1>   0.0800 
 30 H        2.8160     1.4820     1.3550 H     1 <1>   0.0800 
 31 H        4.3500     0.9290     1.9920 H     1 <1>   0.0800 
 32 H        4.6190    -1.1390    -1.3120 H     1 <1>   0.0800 
 33 H        5.0710     1.2560    -0.1870 H     1 <1>   0.0800 
 34 H       -0.7910    -0.1160     1.6170 H     1 <1>   0.1500 
 35 H        5.7540    -0.8880     1.2610 H     1 <1>   0.4000 
 36 H       -0.5030    -3.2950    -2.1150 H     1 <1>   0.1500 
 37 H       -2.1460     0.2100    -0.3630 H     1 <1>   0.1500 
 38 H        1.9400    -0.5130    -1.3650 H     1 <1>   0.0800 
 39 H        1.3840     0.7670    -0.3210 H     1 <1>   0.0800 
 40 H        2.7630     2.9760    -0.3570 H     1 <1>   0.0800 
 41 H        4.1710     3.0100    -1.3870 H     1 <1>   0.0800 
 42 H        1.8390    -5.6390    -0.6260 H     1 <1>   0.0800 
 43 H        1.4640    -4.4960    -1.9110 H     1 <1>   0.0800 
 44 H        0.1590    -5.3370    -1.0550 H     1 <1>   0.0800 
 45 H        0.0460     0.7610    -2.3400 H     1 <1>   0.0800 
 46 H        1.4710     0.7940    -3.3510 H     1 <1>   0.0800 
 47 H        2.7590     2.8050    -3.3870 H     1 <1>   0.0800 
 48 H        2.1950     4.1470    -2.4140 H     1 <1>   0.0800 
 49 H       -3.3940    -0.4280    -3.7340 H     1 <1>   0.0800 
 50 H       -2.4030     0.5920    -2.6970 H     1 <1>   0.0800 
 51 H       -3.7430    -0.3450    -2.0110 H     1 <1>   0.0800 
@<TRIPOS>BOND
  1   1   2  2   
  2   2   3  am  
  3   2   4  1   
  4   3   5  1   
  5   3   6  1   
  6   4   7  1   
  7   4  26  1   
  8   4  27  1   
  9   5   8  1   
 10   5  28  1   
 11   5  29  1   
 12   6   9  1   
 13   6  30  1   
 14   6  31  1   
 15   7  10  ar  
 16   7  11  ar  
 17   8   9  1   
 18   8  12  1   
 19   8  32  1   
 20   9  13  1   
 21   9  33  1   
 22  10  14  1   
 23  10  15  ar  
 24  11  16  ar  
 25  11  34  1   
 26  12  35  1   
 27  13  17  1   
 28  13  18  1   
 29  14  19  1   
 30  15  20  ar  
 31  15  36  1   
 32  16  20  ar  
 33  16  37  1   
 34  17  21  1   
 35  17  38  1   
 36  17  39  1   
 37  18  22  1   
 38  18  40  1   
 39  18  41  1   
 40  19  42  1   
 41  19  43  1   
 42  19  44  1   
 43  20  23  1   
 44  21  24  1   
 45  21  45  1   
 46  21  46  1   
 47  22  24  1   
 48  22  47  1   
 49  22  48  1   
 50  23  25  1   
 51  25  49  1   
 52  25  50  1   
 53  25  51  1   
@<TRIPOS>SUBSTRUCTURE
  1 ****  17 GROUP 4 **** **** 0

# MOE 2024.06 (io_trps.svl 2023.06)
