@<TRIPOS>MOLECULE
NONAME
47 50 1 0 0 
SMALL
USER_CHARGES


@<TRIPOS>ATOM
  1 O        1.9910     0.1700     1.2440 O.2   1 <1>  -0.5700 
  2 C        2.6380    -0.8370     1.0150 C.2   1 <1>   0.5440 
  3 N        4.0050    -0.6970     1.0030 N.am  1 <1>  -0.6600 
  4 C        1.9840    -2.0950     0.7000 C.ar  1 <1>   0.0860 
  5 C        4.6780     0.2530     1.9650 C.3   1 <1>   0.1400 
  6 C        4.8010    -1.1360    -0.1850 C.3   1 <1>   0.1400 
  7 C        0.7060    -2.1150     0.1300 C.ar  1 <1>  -0.1500 
  8 C        2.6070    -3.3270     0.9540 C.ar  1 <1>  -0.1500 
  9 C        4.9920     1.6380     1.3420 C.3   1 <1>   0.4230 
 10 C        5.3280     0.0190    -1.0750 C.3   1 <1>  -0.0800 
 11 C        0.1030    -3.3180    -0.1810 C.ar  1 <1>  -0.1440 
 12 C        1.9990    -4.5300     0.6390 C.ar  1 <1>  -0.1500 
 13 N        4.0470     1.8560     0.1890 N.4   1 <1>  -0.9590 
 14 C        6.5040     1.7750     1.0210 C.3   1 <1>   0.1200 
 15 C        6.8080     0.3420    -0.8200 C.3   1 <1>   0.1200 
 16 C        4.4950     1.3150    -1.1300 C.3   1 <1>   0.3430 
 17 C        0.7430    -4.5020     0.0670 C.ar  1 <1>   0.0830 
 18 C       -1.2360    -3.6180    -0.7870 C.3   1 <1>  -0.0170 
 19 C        3.6760     3.3260     0.0560 C.3   1 <1>   0.2370 
 20 O        7.0480     0.5840     0.5220 O.3   1 <1>  -0.5600 
 21 O        0.0240    -5.5710    -0.2940 O.3   1 <1>  -0.3620 
 22 C       -1.2260    -5.1570    -0.8280 C.3   1 <1>   0.1200 
 23 C        4.8590     4.2590    -0.2060 C.2   1 <1>   0.9060 
 24 O        5.4290     4.7490     0.7730 O.co2 1 <1>  -0.9000 
 25 O        5.2920     4.3380    -1.3590 O.co2 1 <1>  -0.9000 
 26 H        4.0250     0.4110     2.8060 H     1 <1>   0.0800 
 27 H        5.5730    -0.2000     2.3550 H     1 <1>   0.0800 
 28 H        5.6270    -1.7390     0.1550 H     1 <1>   0.0800 
 29 H        4.1820    -1.7700    -0.7970 H     1 <1>   0.0800 
 30 H        0.1920    -1.1890    -0.0620 H     1 <1>   0.1500 
 31 H        3.5810    -3.3390     1.4100 H     1 <1>   0.1500 
 32 H        4.7790     2.3870     2.0870 H     1 <1>   0.0800 
 33 H        5.3180    -0.3590    -2.0810 H     1 <1>   0.0800 
 34 H        2.4760    -5.4750     0.8320 H     1 <1>   0.1500 
 35 H        3.2020     1.3160     0.4670 H     1 <1>   0.4500 
 36 H        7.0250     1.9840     1.9390 H     1 <1>   0.0800 
 37 H        6.7160     2.5830     0.3440 H     1 <1>   0.0800 
 38 H        7.1360     1.1950    -1.3930 H     1 <1>   0.0800 
 39 H        7.4190    -0.5010    -1.0960 H     1 <1>   0.0800 
 40 H        3.6220     1.1390    -1.7350 H     1 <1>   0.0800 
 41 H        5.0830     2.0660    -1.6350 H     1 <1>   0.0800 
 42 H       -1.3200    -3.2070    -1.7770 H     1 <1>   0.0800 
 43 H       -2.0370    -3.2550    -0.1690 H     1 <1>   0.0800 
 44 H        2.9820     3.4550    -0.7530 H     1 <1>   0.0800 
 45 H        3.2060     3.6630     0.9610 H     1 <1>   0.0800 
 46 H       -1.3000    -5.5290    -1.8350 H     1 <1>   0.0800 
 47 H       -2.0060    -5.5750    -0.2160 H     1 <1>   0.0800 
@<TRIPOS>BOND
  1   1   2  2   
  2   2   3  am  
  3   2   4  1   
  4   3   5  1   
  5   3   6  1   
  6   4   7  ar  
  7   4   8  ar  
  8   5   9  1   
  9   5  26  1   
 10   5  27  1   
 11   6  10  1   
 12   6  28  1   
 13   6  29  1   
 14   7  11  ar  
 15   7  30  1   
 16   8  12  ar  
 17   8  31  1   
 18   9  13  1   
 19   9  14  1   
 20   9  32  1   
 21  10  15  1   
 22  10  16  1   
 23  10  33  1   
 24  11  17  ar  
 25  11  18  1   
 26  12  17  ar  
 27  12  34  1   
 28  13  16  1   
 29  13  19  1   
 30  13  35  1   
 31  14  20  1   
 32  14  36  1   
 33  14  37  1   
 34  15  20  1   
 35  15  38  1   
 36  15  39  1   
 37  16  40  1   
 38  16  41  1   
 39  17  21  1   
 40  18  22  1   
 41  18  42  1   
 42  18  43  1   
 43  19  23  1   
 44  19  44  1   
 45  19  45  1   
 46  21  22  1   
 47  22  46  1   
 48  22  47  1   
 49  23  24  ar  
 50  23  25  ar  
@<TRIPOS>SUBSTRUCTURE
  1 ****   3 GROUP 4 **** **** 0

# MOE 2024.06 (io_trps.svl 2023.06)
