@<TRIPOS>MOLECULE
NONAME
61 64 1 0 0 
SMALL
USER_CHARGES


@<TRIPOS>ATOM
  1 S       -1.8590     0.6490    -1.1010 S.3   1 <1>  -0.0800 
  2 C       -0.1760     1.0820    -0.9070 C.2   1 <1>   0.1980 
  3 C       -2.2950     2.2870    -0.7540 C.2   1 <1>  -0.1100 
  4 N        0.0140     2.3070    -0.6120 N.2   1 <1>  -0.5650 
  5 C        0.8730    -0.0110    -1.1030 C.3   1 <1>   0.1000 
  6 C       -1.1940     3.0330    -0.5130 C.2   1 <1>   0.1410 
  7 C        0.8370    -0.5790    -2.5280 C.3   1 <1>  -0.2400 
  8 C        0.7140    -1.1360    -0.0710 C.3   1 <1>  -0.2400 
  9 C       -1.2450     4.4650    -0.2080 C.2   1 <1>   0.7160 
 10 O       -2.2190     5.0950    -0.5740 O.2   1 <1>  -0.5700 
 11 N       -0.2500     5.1620     0.4730 N.am  1 <1>  -0.6600 
 12 C        0.8200     4.4860     1.2640 C.3   1 <1>   0.1400 
 13 C       -0.3190     6.6470     0.6120 C.3   1 <1>   0.1400 
 14 C        2.0990     4.3070     0.4220 C.3   1 <1>   0.3430 
 15 C        1.0470     7.3140     0.4160 C.3   1 <1>  -0.1600 
 16 N        2.8000     5.5900     0.0640 N.4   1 <1>  -0.9590 
 17 C        1.9300     6.6040    -0.6110 C.3   1 <1>   0.3430 
 18 C        3.9870     5.2950    -0.7730 C.3   1 <1>   0.4810 
 19 C        4.8380     6.5440    -0.8320 C.2   1 <1>  -0.2540 
 20 C        5.0520     7.3040    -1.9160 C.2   1 <1>  -0.2880 
 21 C        5.5080     6.9710     0.4790 C.3   1 <1>   0.1160 
 22 C        5.9550     8.5350    -1.8040 C.3   1 <1>  -0.0220 
 23 C        7.0230     7.3490     0.2890 C.3   1 <1>   0.0000 
 24 C        5.2640     8.5060     0.6520 C.3   1 <1>   0.0000 
 25 C        6.4610     8.6770    -0.3420 C.3   1 <1>   0.0000 
 26 C        7.8200     7.5440     1.6020 C.3   1 <1>  -0.2400 
 27 C        7.8550     6.4330    -0.6360 C.3   1 <1>  -0.2400 
 28 H       -3.3380     2.5500    -0.7650 H     1 <1>   0.1500 
 29 H        1.8380     0.4400    -0.9530 H     1 <1>   0.0800 
 30 H       -0.0940    -1.0840    -2.7160 H     1 <1>   0.0800 
 31 H        1.6400    -1.2800    -2.6710 H     1 <1>   0.0800 
 32 H        0.9450     0.2160    -3.2450 H     1 <1>   0.0800 
 33 H       -0.2210    -1.6510    -0.2070 H     1 <1>   0.0800 
 34 H        0.7400    -0.7310     0.9250 H     1 <1>   0.0800 
 35 H        1.5130    -1.8490    -0.1700 H     1 <1>   0.0800 
 36 H        1.0370     5.0480     2.1550 H     1 <1>   0.0800 
 37 H        0.4710     3.5200     1.5840 H     1 <1>   0.0800 
 38 H       -0.9940     7.0480    -0.1260 H     1 <1>   0.0800 
 39 H       -0.7200     6.8980     1.5800 H     1 <1>   0.0800 
 40 H        1.8380     3.7820    -0.4810 H     1 <1>   0.0800 
 41 H        2.7780     3.6790     0.9740 H     1 <1>   0.0800 
 42 H        1.5570     7.4110     1.3580 H     1 <1>   0.0800 
 43 H        0.8620     8.3140     0.0660 H     1 <1>   0.0800 
 44 H        3.1610     6.0280     0.9180 H     1 <1>   0.4500 
 45 H        2.5510     7.3470    -1.0850 H     1 <1>   0.0800 
 46 H        1.3230     6.1400    -1.3730 H     1 <1>   0.0800 
 47 H        4.5640     4.4900    -0.3460 H     1 <1>   0.0800 
 48 H        3.6790     5.0100    -1.7660 H     1 <1>   0.0800 
 49 H        4.6500     7.1320    -2.9020 H     1 <1>   0.1500 
 50 H        5.2800     6.3800     1.3480 H     1 <1>   0.0000 
 51 H        5.4050     9.4180    -2.0780 H     1 <1>   0.0800 
 52 H        6.7940     8.4440    -2.4720 H     1 <1>   0.0800 
 53 H        4.3180     8.8480     0.2700 H     1 <1>   0.0000 
 54 H        5.4450     8.8790     1.6430 H     1 <1>   0.0000 
 55 H        7.0620     9.5500    -0.1610 H     1 <1>   0.0000 
 56 H        8.7770     7.9840     1.3820 H     1 <1>   0.0800 
 57 H        7.9920     6.5920     2.0720 H     1 <1>   0.0800 
 58 H        7.3320     8.1770     2.3170 H     1 <1>   0.0800 
 59 H        8.8010     6.8980    -0.8510 H     1 <1>   0.0800 
 60 H        7.3800     6.2180    -1.5730 H     1 <1>   0.0800 
 61 H        8.0480     5.4950    -0.1460 H     1 <1>   0.0800 
@<TRIPOS>BOND
  1   1   2  1   
  2   1   3  1   
  3   2   4  2   
  4   2   5  1   
  5   3   6  2   
  6   3  28  1   
  7   4   6  1   
  8   5   7  1   
  9   5   8  1   
 10   5  29  1   
 11   6   9  1   
 12   7  30  1   
 13   7  31  1   
 14   7  32  1   
 15   8  33  1   
 16   8  34  1   
 17   8  35  1   
 18   9  10  2   
 19   9  11  am  
 20  11  12  1   
 21  11  13  1   
 22  12  14  1   
 23  12  36  1   
 24  12  37  1   
 25  13  15  1   
 26  13  38  1   
 27  13  39  1   
 28  14  16  1   
 29  14  40  1   
 30  14  41  1   
 31  15  17  1   
 32  15  42  1   
 33  15  43  1   
 34  16  17  1   
 35  16  18  1   
 36  16  44  1   
 37  17  45  1   
 38  17  46  1   
 39  18  19  1   
 40  18  47  1   
 41  18  48  1   
 42  19  20  2   
 43  19  21  1   
 44  20  22  1   
 45  20  49  1   
 46  21  23  1   
 47  21  24  1   
 48  21  50  1   
 49  22  25  1   
 50  22  51  1   
 51  22  52  1   
 52  23  25  1   
 53  23  26  1   
 54  23  27  1   
 55  24  25  1   
 56  24  53  1   
 57  24  54  1   
 58  25  55  1   
 59  26  56  1   
 60  26  57  1   
 61  26  58  1   
 62  27  59  1   
 63  27  60  1   
 64  27  61  1   
@<TRIPOS>SUBSTRUCTURE
  1 ****  14 GROUP 4 **** **** 0

# MOE 2024.06 (io_trps.svl 2023.06)
