@<TRIPOS>MOLECULE
NONAME
38 40 1 0 0 
SMALL
USER_CHARGES


@<TRIPOS>ATOM
  1 S        0.1470     0.2710     0.4760 S.3   1 <1>  -0.0800 
  2 C       -1.3910     1.0800     0.1380 C.2   1 <1>  -0.0450 
  3 C       -0.5950    -1.3080     0.4860 C.2   1 <1>  -0.1100 
  4 C       -2.3670     0.1320     0.0510 C.2   1 <1>  -0.1810 
  5 C       -1.3890     2.5170    -0.0050 C.2   1 <1>   0.7150 
  6 C       -1.9160    -1.2110     0.2550 C.2   1 <1>  -0.1810 
  7 C       -3.8270     0.4300    -0.2770 C.3   1 <1>   0.0210 
  8 O       -2.4040     3.1200    -0.2960 O.2   1 <1>  -0.5700 
  9 N       -0.2160     3.2010     0.1920 N.am  1 <1>  -0.4940 
 10 C       -2.8690    -2.3960     0.2300 C.3   1 <1>   0.0210 
 11 C       -4.7610    -0.7510     0.0200 C.3   1 <1>  -0.1600 
 12 C        0.0700     4.5680     0.1200 C.2   1 <1>   0.2040 
 13 C       -4.1710    -2.0650    -0.5070 C.3   1 <1>  -0.1600 
 14 O       -0.8410     5.4660    -0.1710 O.3   1 <1>  -0.0190 
 15 C        1.2350     5.2180     0.3160 C.2   1 <1>  -0.1810 
 16 N       -0.3450     6.6780    -0.1810 N.2   1 <1>  -0.4100 
 17 C        0.9010     6.5560     0.1080 C.2   1 <1>   0.1080 
 18 C        2.6040     4.6670     0.6770 C.3   1 <1>  -0.0590 
 19 C        1.8490     7.7390     0.2000 C.3   1 <1>   0.0210 
 20 C        2.5790     7.9710    -1.1260 C.3   1 <1>  -0.2400 
 21 H        0.0390    -2.1570     0.6740 H     1 <1>   0.1500 
 22 H       -3.8900     0.6690    -1.3250 H     1 <1>   0.0800 
 23 H       -4.1610     1.2920     0.2730 H     1 <1>   0.0800 
 24 H        0.5680     2.6010     0.4260 H     1 <1>   0.3700 
 25 H       -3.1020    -2.6620     1.2460 H     1 <1>   0.0800 
 26 H       -2.3910    -3.2410    -0.2320 H     1 <1>   0.0800 
 27 H       -5.7190    -0.5690    -0.4340 H     1 <1>   0.0800 
 28 H       -4.9070    -0.8260     1.0840 H     1 <1>   0.0800 
 29 H       -4.8760    -2.8660    -0.3680 H     1 <1>   0.0800 
 30 H       -3.9720    -1.9730    -1.5620 H     1 <1>   0.0800 
 31 H        2.5730     3.5970     0.7670 H     1 <1>   0.0800 
 32 H        2.9300     5.0800     1.6140 H     1 <1>   0.0800 
 33 H        3.3170     4.9260    -0.0860 H     1 <1>   0.0800 
 34 H        2.5610     7.5710     0.9880 H     1 <1>   0.0800 
 35 H        1.2810     8.6180     0.4530 H     1 <1>   0.0800 
 36 H        3.1630     7.1080    -1.3910 H     1 <1>   0.0800 
 37 H        3.2320     8.8220    -1.0470 H     1 <1>   0.0800 
 38 H        1.8640     8.1560    -1.9090 H     1 <1>   0.0800 
@<TRIPOS>BOND
  1   1   2  1   
  2   1   3  1   
  3   2   4  2   
  4   2   5  1   
  5   3   6  2   
  6   3  21  1   
  7   4   6  1   
  8   4   7  1   
  9   5   8  2   
 10   5   9  am  
 11   6  10  1   
 12   7  11  1   
 13   7  22  1   
 14   7  23  1   
 15   9  12  1   
 16   9  24  1   
 17  10  13  1   
 18  10  25  1   
 19  10  26  1   
 20  11  13  1   
 21  11  27  1   
 22  11  28  1   
 23  12  14  1   
 24  12  15  2   
 25  13  29  1   
 26  13  30  1   
 27  14  16  1   
 28  15  17  1   
 29  15  18  1   
 30  16  17  2   
 31  17  19  1   
 32  18  31  1   
 33  18  32  1   
 34  18  33  1   
 35  19  20  1   
 36  19  34  1   
 37  19  35  1   
 38  20  36  1   
 39  20  37  1   
 40  20  38  1   
@<TRIPOS>SUBSTRUCTURE
  1 ****   5 GROUP 4 **** **** 0

# MOE 2024.06 (io_trps.svl 2023.06)
