@<TRIPOS>MOLECULE
NONAME
49 50 1 0 0 
SMALL
USER_CHARGES


@<TRIPOS>ATOM
  1 S        2.0210     1.2370     1.1680 S.o2  1 <1>   1.3330 
  2 O        2.8270     1.0850     2.3590 O.2   1 <1>  -0.6500 
  3 O        1.3630     0.0790     0.6070 O.2   1 <1>  -0.6500 
  4 N        0.8390     2.4090     1.4980 N.am  1 <1>  -0.8490 
  5 C        3.0030     1.9920    -0.1240 C.3   1 <1>  -0.0550 
  6 C        1.3550     3.5640     2.2430 C.3   1 <1>   0.1160 
  7 C       -0.3140     1.8380     2.1960 C.3   1 <1>   0.1160 
  8 C        4.1110     1.0740    -0.6870 C.3   1 <1>  -0.0800 
  9 C        4.9410     1.6840    -1.8140 C.3   1 <1>   0.2200 
 10 C        5.1670     0.6700     0.3530 C.3   1 <1>   0.1200 
 11 N        5.1410     3.1270    -1.5680 N.am  1 <1>  -0.7300 
 12 C        6.2660     0.9570    -1.6330 C.3   1 <1>   0.1200 
 13 O        6.4170     0.8130    -0.2550 O.3   1 <1>  -0.5600 
 14 C        4.5290     4.1320    -2.2380 C.2   1 <1>   0.5690 
 15 O        4.0230     3.9610    -3.3210 O.2   1 <1>  -0.5700 
 16 C        4.4440     5.4930    -1.5630 C.3   1 <1>   0.1810 
 17 O        3.5490     5.4210    -0.4590 O.3   1 <1>  -0.3630 
 18 C        3.9420     5.9400     0.7300 C.ar  1 <1>   0.0820 
 19 C        5.0070     5.4110     1.4690 C.ar  1 <1>   0.0820 
 20 C        3.2130     7.0090     1.2210 C.ar  1 <1>  -0.1500 
 21 O        5.6860     4.3390     0.9690 O.3   1 <1>  -0.3620 
 22 C        5.3260     5.9910     2.6950 C.ar  1 <1>  -0.1500 
 23 C        3.5390     7.5750     2.4400 C.ar  1 <1>  -0.1500 
 24 C        6.7400     3.7280     1.6860 C.3   1 <1>   0.0400 
 25 C        4.5960     7.0660     3.1740 C.ar  1 <1>  -0.1500 
 26 H        2.3550     2.2820    -0.9280 H     1 <1>   0.0800 
 27 H        3.4460     2.8830     0.2730 H     1 <1>   0.0800 
 28 H        0.5780     4.2990     2.3700 H     1 <1>   0.0800 
 29 H        2.1640     4.0260     1.7050 H     1 <1>   0.0800 
 30 H        1.7140     3.2600     3.2130 H     1 <1>   0.0800 
 31 H       -1.0600     2.5960     2.3650 H     1 <1>   0.0800 
 32 H       -0.0100     1.4200     3.1420 H     1 <1>   0.0800 
 33 H       -0.7560     1.0580     1.5990 H     1 <1>   0.0800 
 34 H        3.6540     0.1720    -1.0550 H     1 <1>   0.0800 
 35 H        4.5130     1.5200    -2.7890 H     1 <1>   0.0800 
 36 H        5.0470    -0.3550     0.6610 H     1 <1>   0.0800 
 37 H        5.1510     1.3090     1.2180 H     1 <1>   0.0800 
 38 H        5.5320     3.3360    -0.6400 H     1 <1>   0.3700 
 39 H        7.0990     1.5060    -2.0370 H     1 <1>   0.0800 
 40 H        6.2240    -0.0260    -2.0670 H     1 <1>   0.0800 
 41 H        4.0590     6.2210    -2.2530 H     1 <1>   0.0800 
 42 H        5.4160     5.8000    -1.2240 H     1 <1>   0.0800 
 43 H        2.3900     7.3950     0.6460 H     1 <1>   0.1500 
 44 H        6.1360     5.6230     3.2960 H     1 <1>   0.1500 
 45 H        2.9720     8.4090     2.8170 H     1 <1>   0.1500 
 46 H        7.1300     2.9200     1.0940 H     1 <1>   0.0800 
 47 H        6.3550     3.3440     2.6150 H     1 <1>   0.0800 
 48 H        7.5150     4.4540     1.8590 H     1 <1>   0.0800 
 49 H        4.8500     7.5080     4.1230 H     1 <1>   0.1500 
@<TRIPOS>BOND
  1   1   2  2   
  2   1   3  2   
  3   1   4  am  
  4   1   5  1   
  5   4   6  1   
  6   4   7  1   
  7   5   8  1   
  8   5  26  1   
  9   5  27  1   
 10   6  28  1   
 11   6  29  1   
 12   6  30  1   
 13   7  31  1   
 14   7  32  1   
 15   7  33  1   
 16   8   9  1   
 17   8  10  1   
 18   8  34  1   
 19   9  11  1   
 20   9  12  1   
 21   9  35  1   
 22  10  13  1   
 23  10  36  1   
 24  10  37  1   
 25  11  14  am  
 26  11  38  1   
 27  12  13  1   
 28  12  39  1   
 29  12  40  1   
 30  14  15  2   
 31  14  16  1   
 32  16  17  1   
 33  16  41  1   
 34  16  42  1   
 35  17  18  1   
 36  18  19  ar  
 37  18  20  ar  
 38  19  21  1   
 39  19  22  ar  
 40  20  23  ar  
 41  20  43  1   
 42  21  24  1   
 43  22  25  ar  
 44  22  44  1   
 45  23  25  ar  
 46  23  45  1   
 47  24  46  1   
 48  24  47  1   
 49  24  48  1   
 50  25  49  1   
@<TRIPOS>SUBSTRUCTURE
  1 ****   5 GROUP 4 **** **** 0

# MOE 2024.06 (io_trps.svl 2023.06)
