@<TRIPOS>MOLECULE
NONAME
50 52 1 0 0 
SMALL
USER_CHARGES


@<TRIPOS>ATOM
  1 CL       0.4080     0.1640     1.0990 Cl    1 <1>  -0.1770 
  2 C        2.1130     0.0540     0.7110 C.ar  1 <1>   0.1770 
  3 C        2.7010    -1.1850     0.4850 C.ar  1 <1>   0.0830 
  4 C        2.8380     1.2260     0.6410 C.ar  1 <1>  -0.1500 
  5 O        1.9220    -2.3000     0.5710 O.3   1 <1>  -0.3630 
  6 C        4.0590    -1.2220     0.1800 C.ar  1 <1>  -0.1500 
  7 C        4.1950     1.1950     0.3340 C.ar  1 <1>   0.1170 
  8 C        2.4710    -3.5900     0.4110 C.3   1 <1>   0.0400 
  9 C        4.7870    -0.0450     0.1080 C.ar  1 <1>  -0.1500 
 10 N        4.9440     2.3870     0.2460 N.am  1 <1>  -0.4770 
 11 C        6.2510     2.5940     0.5820 C.2   1 <1>   0.5690 
 12 C        4.3460     3.6330    -0.2800 C.3   1 <1>   0.1400 
 13 O        7.0240     1.7900     1.0380 O.2   1 <1>  -0.5700 
 14 C        6.6720     4.0100     0.3030 C.3   1 <1>  -0.0990 
 15 C        5.5490     4.5320    -0.6070 C.3   1 <1>  -0.0190 
 16 C        5.2630     6.0200    -0.4590 C.2   1 <1>   0.5690 
 17 O        4.1170     6.3810    -0.3380 O.2   1 <1>  -0.5700 
 18 N        6.3270     6.8810    -0.4850 N.am  1 <1>  -0.4940 
 19 C        6.3410     8.2930    -0.3460 C.2   1 <1>  -0.0880 
 20 N        7.4580     9.0710    -0.3600 N.pl3 1 <1>   0.3140 
 21 C        5.3020     9.1430    -0.1720 C.2   1 <1>  -0.1500 
 22 N        7.1580    10.3780    -0.2010 N.2   1 <1>  -0.7070 
 23 C        8.8580     8.6330    -0.5320 C.3   1 <1>   0.0960 
 24 C        5.8690    10.4070    -0.0900 C.2   1 <1>   0.1080 
 25 C        9.4090     8.0150     0.7630 C.3   1 <1>  -0.1600 
 26 C        5.1040    11.6940     0.1060 C.3   1 <1>  -0.0590 
 27 C       10.8450     7.5130     0.5740 C.3   1 <1>  -0.2400 
 28 H        2.3380     2.1550     0.8350 H     1 <1>   0.1500 
 29 H        4.5680    -2.1490    -0.0020 H     1 <1>   0.1500 
 30 H        1.6800    -4.3060     0.5440 H     1 <1>   0.0800 
 31 H        3.2300    -3.7420     1.1570 H     1 <1>   0.0800 
 32 H        2.8780    -3.6760    -0.5810 H     1 <1>   0.0800 
 33 H        5.8350    -0.0940    -0.1290 H     1 <1>   0.1500 
 34 H        3.7300     4.0720     0.4870 H     1 <1>   0.0800 
 35 H        3.7510     3.4390    -1.1560 H     1 <1>   0.0800 
 36 H        7.6330     4.0330    -0.1780 H     1 <1>   0.0800 
 37 H        6.7060     4.5410     1.2370 H     1 <1>   0.0800 
 38 H        5.8170     4.3480    -1.6320 H     1 <1>   0.0800 
 39 H        7.2400     6.4450    -0.6070 H     1 <1>   0.3700 
 40 H        4.2540     8.9110    -0.1080 H     1 <1>   0.1500 
 41 H        9.4450     9.4920    -0.8040 H     1 <1>   0.0800 
 42 H        8.8980     7.9260    -1.3390 H     1 <1>   0.0800 
 43 H        8.7870     7.1950     1.0750 H     1 <1>   0.0800 
 44 H        9.3950     8.7630     1.5390 H     1 <1>   0.0800 
 45 H        4.0500    11.4980     0.1740 H     1 <1>   0.0800 
 46 H        5.2890    12.3500    -0.7250 H     1 <1>   0.0800 
 47 H        5.4340    12.1730     1.0090 H     1 <1>   0.0800 
 48 H       10.8880     6.7530    -0.1860 H     1 <1>   0.0800 
 49 H       11.2110     7.0950     1.4960 H     1 <1>   0.0800 
 50 H       11.4930     8.3250     0.2910 H     1 <1>   0.0800 
@<TRIPOS>BOND
  1   1   2  1   
  2   2   3  ar  
  3   2   4  ar  
  4   3   5  1   
  5   3   6  ar  
  6   4   7  ar  
  7   4  28  1   
  8   5   8  1   
  9   6   9  ar  
 10   6  29  1   
 11   7   9  ar  
 12   7  10  1   
 13   8  30  1   
 14   8  31  1   
 15   8  32  1   
 16   9  33  1   
 17  10  11  am  
 18  10  12  1   
 19  11  13  2   
 20  11  14  1   
 21  12  15  1   
 22  12  34  1   
 23  12  35  1   
 24  14  15  1   
 25  14  36  1   
 26  14  37  1   
 27  15  16  1   
 28  15  38  1   
 29  16  17  2   
 30  16  18  am  
 31  18  19  1   
 32  18  39  1   
 33  19  20  1   
 34  19  21  2   
 35  20  22  1   
 36  20  23  1   
 37  21  24  1   
 38  21  40  1   
 39  22  24  2   
 40  23  25  1   
 41  23  41  1   
 42  23  42  1   
 43  24  26  1   
 44  25  27  1   
 45  25  43  1   
 46  25  44  1   
 47  26  45  1   
 48  26  46  1   
 49  26  47  1   
 50  27  48  1   
 51  27  49  1   
 52  27  50  1   
@<TRIPOS>SUBSTRUCTURE
  1 ****  15 GROUP 4 **** **** 0

# MOE 2024.06 (io_trps.svl 2023.06)
