@<TRIPOS>MOLECULE
NONAME
62 65 1 0 0 
SMALL
USER_CHARGES


@<TRIPOS>ATOM
  1 O        0.1700    -0.3980     0.3750 O.2   1 <1>  -0.5700 
  2 C        1.1280    -1.1180     0.5860 C.2   1 <1>   0.5440 
  3 N        2.3510    -0.5430     0.8610 N.am  1 <1>  -0.6600 
  4 C        0.9470    -2.5550     0.5300 C.ar  1 <1>   0.0860 
  5 C        2.4340     0.9270     1.1210 C.3   1 <1>   0.1400 
  6 C        3.6420    -1.2820     0.7140 C.3   1 <1>   0.1400 
  7 C        0.2890    -3.1680    -0.5180 C.ar  1 <1>  -0.1500 
  8 C        1.4010    -3.4150     1.5210 C.ar  1 <1>  -0.1500 
  9 C        3.7290     1.2750     1.8620 C.3   1 <1>  -0.1600 
 10 C        4.7320    -0.3560     0.1630 C.3   1 <1>  -0.1600 
 11 C        0.1230    -4.5450    -0.5580 C.ar  1 <1>   0.4100 
 12 C        1.1960    -4.7740     1.4020 C.ar  1 <1>   0.1600 
 13 C        4.9840     0.8580     1.0750 C.3   1 <1>  -0.1600 
 14 N        0.5760    -5.3570     0.3910 N.ar  1 <1>  -0.6200 
 15 N       -0.5410    -5.0940    -1.6380 N.pl3 1 <1>  -0.8690 
 16 C       -1.0430    -6.4710    -1.8060 C.3   1 <1>   0.2890 
 17 C       -2.0190    -6.8320    -0.6780 C.3   1 <1>  -0.1600 
 18 C        0.1320    -7.4460    -1.9500 C.3   1 <1>  -0.1600 
 19 C       -2.3780    -8.3110    -0.6980 C.3   1 <1>   0.3430 
 20 C       -0.3310    -8.8950    -1.9090 C.3   1 <1>   0.3430 
 21 N       -1.1220    -9.1140    -0.6690 N.4   1 <1>  -0.9590 
 22 C       -1.3680   -10.5730    -0.4520 C.3   1 <1>   0.3430 
 23 C       -1.8510   -10.8700     0.9690 C.3   1 <1>  -0.0170 
 24 C       -1.9810   -12.3720     1.1250 C.ar  1 <1>  -0.1440 
 25 C       -0.9040   -13.1240     1.5710 C.ar  1 <1>  -0.1500 
 26 C       -3.1730   -13.0080     0.8110 C.ar  1 <1>  -0.1500 
 27 C       -1.0170   -14.4980     1.6940 C.ar  1 <1>  -0.1500 
 28 C       -3.2840   -14.3820     0.9350 C.ar  1 <1>  -0.1500 
 29 C       -2.2060   -15.1270     1.3750 C.ar  1 <1>  -0.1500 
 30 H        1.5860     1.2350     1.7090 H     1 <1>   0.0800 
 31 H        2.3970     1.4490     0.1800 H     1 <1>   0.0800 
 32 H        3.5160    -2.1150     0.0440 H     1 <1>   0.0800 
 33 H        3.9430    -1.6580     1.6760 H     1 <1>   0.0800 
 34 H       -0.1010    -2.5610    -1.3120 H     1 <1>   0.1500 
 35 H        1.9060    -3.0150     2.3810 H     1 <1>   0.1500 
 36 H        3.7140     0.7730     2.8140 H     1 <1>   0.0800 
 37 H        3.7600     2.3330     2.0570 H     1 <1>   0.0800 
 38 H        4.4230    -0.0180    -0.8100 H     1 <1>   0.0800 
 39 H        5.6470    -0.9080     0.0360 H     1 <1>   0.0800 
 40 H        1.5630    -5.4170     2.1850 H     1 <1>   0.1500 
 41 H        5.7690     0.6300     1.7750 H     1 <1>   0.0800 
 42 H        5.3190     1.6800     0.4670 H     1 <1>   0.0800 
 43 H       -0.9510    -4.4130    -2.2820 H     1 <1>   0.4000 
 44 H       -1.5970    -6.5020    -2.7310 H     1 <1>   0.0800 
 45 H       -2.9150    -6.2490    -0.7880 H     1 <1>   0.0800 
 46 H       -1.6040    -6.6070     0.2850 H     1 <1>   0.0800 
 47 H        0.8530    -7.3050    -1.1690 H     1 <1>   0.0800 
 48 H        0.6290    -7.2590    -2.8850 H     1 <1>   0.0800 
 49 H       -2.9420    -8.5410    -1.5870 H     1 <1>   0.0800 
 50 H       -2.9880    -8.5350     0.1610 H     1 <1>   0.0800 
 51 H        0.5320    -9.5420    -1.9200 H     1 <1>   0.0800 
 52 H       -0.9330    -9.1150    -2.7760 H     1 <1>   0.0800 
 53 H       -0.5490    -8.7540     0.1110 H     1 <1>   0.4500 
 54 H       -0.4510   -11.1180    -0.6120 H     1 <1>   0.0800 
 55 H       -2.0940   -10.9370    -1.1600 H     1 <1>   0.0800 
 56 H       -2.8060   -10.4140     1.1550 H     1 <1>   0.0800 
 57 H       -1.1440   -10.4970     1.6890 H     1 <1>   0.0800 
 58 H        0.0290   -12.6540     1.8290 H     1 <1>   0.1500 
 59 H       -4.0260   -12.4470     0.4710 H     1 <1>   0.1500 
 60 H       -0.1800   -15.0800     2.0420 H     1 <1>   0.1500 
 61 H       -4.2110   -14.8730     0.6910 H     1 <1>   0.1500 
 62 H       -2.2940   -16.1960     1.4730 H     1 <1>   0.1500 
@<TRIPOS>BOND
  1   1   2  2   
  2   2   3  am  
  3   2   4  1   
  4   3   5  1   
  5   3   6  1   
  6   4   7  ar  
  7   4   8  ar  
  8   5   9  1   
  9   5  30  1   
 10   5  31  1   
 11   6  10  1   
 12   6  32  1   
 13   6  33  1   
 14   7  11  ar  
 15   7  34  1   
 16   8  12  ar  
 17   8  35  1   
 18   9  13  1   
 19   9  36  1   
 20   9  37  1   
 21  10  13  1   
 22  10  38  1   
 23  10  39  1   
 24  11  14  ar  
 25  11  15  1   
 26  12  14  ar  
 27  12  40  1   
 28  13  41  1   
 29  13  42  1   
 30  15  16  1   
 31  15  43  1   
 32  16  17  1   
 33  16  18  1   
 34  16  44  1   
 35  17  19  1   
 36  17  45  1   
 37  17  46  1   
 38  18  20  1   
 39  18  47  1   
 40  18  48  1   
 41  19  21  1   
 42  19  49  1   
 43  19  50  1   
 44  20  21  1   
 45  20  51  1   
 46  20  52  1   
 47  21  22  1   
 48  21  53  1   
 49  22  23  1   
 50  22  54  1   
 51  22  55  1   
 52  23  24  1   
 53  23  56  1   
 54  23  57  1   
 55  24  25  ar  
 56  24  26  ar  
 57  25  27  ar  
 58  25  58  1   
 59  26  28  ar  
 60  26  59  1   
 61  27  29  ar  
 62  27  60  1   
 63  28  29  ar  
 64  28  61  1   
 65  29  62  1   
@<TRIPOS>SUBSTRUCTURE
  1 ****  14 GROUP 4 **** **** 0

# MOE 2024.06 (io_trps.svl 2023.06)
