@<TRIPOS>MOLECULE
NONAME
55 57 1 0 0 
SMALL
USER_CHARGES


@<TRIPOS>ATOM
  1 S       -0.4490     0.0180    -1.7570 S.o2  1 <1>   1.4470 
  2 O        0.2140     0.8560    -2.7340 O.2   1 <1>  -0.6500 
  3 O       -1.4240    -0.9360    -2.2440 O.2   1 <1>  -0.6500 
  4 N       -1.3560     1.0530    -0.7620 N.am  1 <1>  -0.8490 
  5 C        0.8030    -0.7290    -0.6360 C.ar  1 <1>  -0.0090 
  6 C       -2.2040     1.9390    -1.5570 C.3   1 <1>   0.1960 
  7 C       -2.1320     0.3110     0.2330 C.3   1 <1>   0.1960 
  8 C        1.5890     0.0760     0.2040 C.ar  1 <1>  -0.1440 
  9 C        1.0240    -2.1150    -0.5830 C.ar  1 <1>  -0.1440 
 10 C       -2.9230     2.9480    -0.6560 C.3   1 <1>  -0.1600 
 11 C       -2.8090     1.2860     1.1960 C.3   1 <1>  -0.1600 
 12 C        2.5040    -0.4860     1.0790 C.ar  1 <1>  -0.1500 
 13 C        1.5040     1.6010     0.2120 C.3   1 <1>  -0.0970 
 14 C        1.9470    -2.6560     0.2990 C.ar  1 <1>  -0.1500 
 15 C        0.2930    -3.1090    -1.4790 C.3   1 <1>  -0.0970 
 16 C       -3.7340     2.2640     0.4610 C.3   1 <1>   0.2800 
 17 C        2.6860    -1.8510     1.1390 C.ar  1 <1>  -0.1440 
 18 O       -4.0820     3.2220     1.4190 O.3   1 <1>  -0.5600 
 19 C       -5.0130     1.5440    -0.0600 C.3   1 <1>  -0.1600 
 20 C        3.6910    -2.4560     2.1030 C.3   1 <1>  -0.0970 
 21 C       -4.9410     4.2770     1.0510 C.3   1 <1>   0.1200 
 22 C       -6.3200     2.2800     0.2790 C.3   1 <1>   0.2800 
 23 C       -6.0880     3.8020     0.1440 C.3   1 <1>   0.2000 
 24 O       -7.2740     1.9040    -0.6500 O.3   1 <1>  -0.6800 
 25 C       -6.8770     1.8510     1.6460 C.3   1 <1>  -0.2400 
 26 O       -7.2490     4.5150     0.4240 O.3   1 <1>  -0.6800 
 27 H       -1.5950     2.4840    -2.2600 H     1 <1>   0.0800 
 28 H       -2.9140     1.3560    -2.1210 H     1 <1>   0.0800 
 29 H       -2.8680    -0.3070    -0.2540 H     1 <1>   0.0800 
 30 H       -1.4760    -0.3310     0.7980 H     1 <1>   0.0800 
 31 H       -3.5580     3.5560    -1.2710 H     1 <1>   0.0800 
 32 H       -2.1770     3.5840    -0.2130 H     1 <1>   0.0800 
 33 H       -2.0410     1.8380     1.7090 H     1 <1>   0.0800 
 34 H       -3.3660     0.7360     1.9320 H     1 <1>   0.0800 
 35 H        3.0900     0.1460     1.7240 H     1 <1>   0.1500 
 36 H        2.3770     2.0320     0.6660 H     1 <1>   0.0800 
 37 H        0.6440     1.9220     0.7720 H     1 <1>   0.0800 
 38 H        1.4400     1.9940    -0.7860 H     1 <1>   0.0800 
 39 H        2.1000    -3.7200     0.3350 H     1 <1>   0.1500 
 40 H        0.7250    -4.0910    -1.4110 H     1 <1>   0.0800 
 41 H        0.3530    -2.8030    -2.5090 H     1 <1>   0.0800 
 42 H       -0.7410    -3.1810    -1.1910 H     1 <1>   0.0800 
 43 H       -4.9390     1.4430    -1.1270 H     1 <1>   0.0800 
 44 H       -5.0630     0.5470     0.3360 H     1 <1>   0.0800 
 45 H        3.7940    -1.8380     2.9770 H     1 <1>   0.0800 
 46 H        4.6490    -2.5390     1.6220 H     1 <1>   0.0800 
 47 H        3.3720    -3.4340     2.4150 H     1 <1>   0.0800 
 48 H       -5.3400     4.6850     1.9630 H     1 <1>   0.0800 
 49 H       -4.3590     5.0330     0.5560 H     1 <1>   0.0800 
 50 H       -5.8280     4.0210    -0.8760 H     1 <1>   0.0800 
 51 H       -7.5100     0.9680    -0.5110 H     1 <1>   0.4000 
 52 H       -6.1880     2.1090     2.4290 H     1 <1>   0.0800 
 53 H       -7.0360     0.7890     1.6820 H     1 <1>   0.0800 
 54 H       -7.8060     2.3530     1.8500 H     1 <1>   0.0800 
 55 H       -7.9880     4.0610    -0.0330 H     1 <1>   0.4000 
@<TRIPOS>BOND
  1   1   2  2   
  2   1   3  2   
  3   1   4  am  
  4   1   5  1   
  5   4   6  1   
  6   4   7  1   
  7   5   8  ar  
  8   5   9  ar  
  9   6  10  1   
 10   6  27  1   
 11   6  28  1   
 12   7  11  1   
 13   7  29  1   
 14   7  30  1   
 15   8  12  ar  
 16   8  13  1   
 17   9  14  ar  
 18   9  15  1   
 19  10  16  1   
 20  10  31  1   
 21  10  32  1   
 22  11  16  1   
 23  11  33  1   
 24  11  34  1   
 25  12  17  ar  
 26  12  35  1   
 27  13  36  1   
 28  13  37  1   
 29  13  38  1   
 30  14  17  ar  
 31  14  39  1   
 32  15  40  1   
 33  15  41  1   
 34  15  42  1   
 35  16  18  1   
 36  16  19  1   
 37  17  20  1   
 38  18  21  1   
 39  19  22  1   
 40  19  43  1   
 41  19  44  1   
 42  20  45  1   
 43  20  46  1   
 44  20  47  1   
 45  21  23  1   
 46  21  48  1   
 47  21  49  1   
 48  22  23  1   
 49  22  24  1   
 50  22  25  1   
 51  23  26  1   
 52  23  50  1   
 53  24  51  1   
 54  25  52  1   
 55  25  53  1   
 56  25  54  1   
 57  26  55  1   
@<TRIPOS>SUBSTRUCTURE
  1 ****   7 GROUP 4 **** **** 0

# MOE 2024.06 (io_trps.svl 2023.06)
