@<TRIPOS>MOLECULE
NONAME
45 48 1 0 0 
SMALL
USER_CHARGES


@<TRIPOS>ATOM
  1 O       -0.8380     1.4890     1.6700 O.co2 1 <1>  -0.9000 
  2 C       -1.1120     2.5330     1.0440 C.2   1 <1>   1.0330 
  3 O       -2.3140     2.8350     0.9080 O.co2 1 <1>  -0.9000 
  4 C       -0.0180     3.3370     0.4940 C.2   1 <1>  -0.0060 
  5 N       -0.0840     4.5240    -0.2020 N.2   1 <1>  -0.5650 
  6 C        1.2890     3.0180     0.5900 C.2   1 <1>  -0.0100 
  7 C        1.1410     4.8110    -0.4500 C.2   1 <1>   0.2980 
  8 O        2.0040     3.9290    -0.0020 O.3   1 <1>  -0.2800 
  9 C        1.6270     6.0300    -1.2290 C.3   1 <1>   0.2900 
 10 N        2.4780     6.9640    -0.4410 N.3   1 <1>  -0.8100 
 11 C        2.2460     8.3920    -0.8180 C.3   1 <1>   0.3700 
 12 C        3.8860     6.4920    -0.4530 C.3   1 <1>   0.1100 
 13 C        3.5250     9.2150    -0.6850 C.2   1 <1>  -0.3320 
 14 C        1.1410     9.0360     0.0720 C.3   1 <1>  -0.0800 
 15 C        4.8200     7.3800     0.3780 C.3   1 <1>   0.0210 
 16 N        3.6750    10.5140    -1.0820 N.pl3 1 <1>   0.0330 
 17 C        4.6790     8.7860    -0.1390 C.2   1 <1>  -0.1810 
 18 C        1.4680     8.9660     1.5750 C.3   1 <1>  -0.2400 
 19 C       -0.2710     8.4720    -0.1580 C.3   1 <1>  -0.2400 
 20 C        4.9530    10.9120    -0.7710 C.ar  1 <1>  -0.1520 
 21 C        5.6120     9.8420    -0.1710 C.ar  1 <1>   0.0000 
 22 C        5.6010    12.1350    -0.9650 C.ar  1 <1>  -0.1500 
 23 C        6.9390     9.9930     0.2460 C.ar  1 <1>  -0.1500 
 24 C        6.9060    12.2690    -0.5510 C.ar  1 <1>  -0.1500 
 25 C        7.5750    11.1980     0.0550 C.ar  1 <1>  -0.1500 
 26 H        1.7520     2.1690     1.0600 H     1 <1>   0.1500 
 27 H        0.7500     6.5360    -1.5840 H     1 <1>   0.0800 
 28 H        2.1630     5.6910    -2.0970 H     1 <1>   0.0800 
 29 H        1.9440     8.4390    -1.8510 H     1 <1>   0.0800 
 30 H        4.2460     6.4770    -1.4680 H     1 <1>   0.0800 
 31 H        3.9360     5.4910    -0.0630 H     1 <1>   0.0800 
 32 H        1.0950    10.0760    -0.1940 H     1 <1>   0.0800 
 33 H        5.8330     7.0430     0.2680 H     1 <1>   0.0800 
 34 H        4.5440     7.3370     1.4160 H     1 <1>   0.0800 
 35 H        2.9640    11.1090    -1.5150 H     1 <1>   0.2700 
 36 H        1.5080     7.9400     1.9000 H     1 <1>   0.0800 
 37 H        0.7180     9.4780     2.1500 H     1 <1>   0.0800 
 38 H        2.4220     9.4210     1.7770 H     1 <1>   0.0800 
 39 H       -0.3410     7.4600     0.2050 H     1 <1>   0.0800 
 40 H       -0.5250     8.4880    -1.2020 H     1 <1>   0.0800 
 41 H       -0.9970     9.0600     0.3740 H     1 <1>   0.0800 
 42 H        5.0800    12.9520    -1.4290 H     1 <1>   0.1500 
 43 H        7.4370     9.1630     0.7100 H     1 <1>   0.1500 
 44 H        7.4270    13.2000    -0.6880 H     1 <1>   0.1500 
 45 H        8.5950    11.3280     0.3700 H     1 <1>   0.1500 
@<TRIPOS>BOND
  1   1   2  ar  
  2   2   3  ar  
  3   2   4  1   
  4   4   5  1   
  5   4   6  2   
  6   5   7  2   
  7   6   8  1   
  8   6  26  1   
  9   7   8  1   
 10   7   9  1   
 11   9  10  1   
 12   9  27  1   
 13   9  28  1   
 14  10  11  1   
 15  10  12  1   
 16  11  13  1   
 17  11  14  1   
 18  11  29  1   
 19  12  15  1   
 20  12  30  1   
 21  12  31  1   
 22  13  16  1   
 23  13  17  2   
 24  14  18  1   
 25  14  19  1   
 26  14  32  1   
 27  15  17  1   
 28  15  33  1   
 29  15  34  1   
 30  16  20  1   
 31  16  35  1   
 32  17  21  1   
 33  18  36  1   
 34  18  37  1   
 35  18  38  1   
 36  19  39  1   
 37  19  40  1   
 38  19  41  1   
 39  20  21  ar  
 40  20  22  ar  
 41  21  23  ar  
 42  22  24  ar  
 43  22  42  1   
 44  23  25  ar  
 45  23  43  1   
 46  24  25  ar  
 47  24  44  1   
 48  25  45  1   
@<TRIPOS>SUBSTRUCTURE
  1 ****  10 GROUP 4 **** **** 0

# MOE 2024.06 (io_trps.svl 2023.06)
