@<TRIPOS>MOLECULE
NONAME
53 56 1 0 0 
SMALL
USER_CHARGES


@<TRIPOS>ATOM
  1 O       -2.5600     0.5350    -1.8670 O.2   1 <1>  -0.5700 
  2 C       -2.4310     1.0340    -0.7660 C.2   1 <1>   0.5440 
  3 N       -2.6690     0.2170     0.3170 N.am  1 <1>  -0.6600 
  4 C       -2.1270     2.4470    -0.6150 C.ar  1 <1>   0.0860 
  5 C       -3.7290     0.5790     1.3040 C.3   1 <1>   0.1400 
  6 C       -2.4800    -1.2550     0.1690 C.3   1 <1>   0.1400 
  7 C       -2.5020     3.3710    -1.5910 C.ar  1 <1>  -0.1500 
  8 C       -1.4560     2.9430     0.5040 C.ar  1 <1>  -0.1500 
  9 C       -5.0760    -0.1080     0.9600 C.3   1 <1>   0.4230 
 10 C       -3.8100    -1.9140    -0.2380 C.3   1 <1>   0.3430 
 11 C       -2.2400     4.7200    -1.4500 C.ar  1 <1>  -0.1500 
 12 C       -1.1920     4.2920     0.6510 C.ar  1 <1>  -0.1500 
 13 N       -4.9210    -1.6070     0.7460 N.4   1 <1>  -0.9590 
 14 C       -5.7400     0.5600    -0.2680 C.3   1 <1>   0.1200 
 15 C       -1.5840     5.2030    -0.3240 C.ar  1 <1>  -0.0230 
 16 C       -6.2510    -2.1910     0.3430 C.3   1 <1>   0.4230 
 17 O       -6.9630    -0.0560    -0.5460 O.3   1 <1>  -0.5600 
 18 N       -1.3190     6.5870    -0.1770 N.pl3 1 <1>   0.3260 
 19 C       -6.8740    -1.4200    -0.8470 C.3   1 <1>   0.1200 
 20 C       -6.1240    -3.7000     0.0760 C.3   1 <1>  -0.1600 
 21 C       -0.1720     7.1960     0.2290 C.2   1 <1>   0.0360 
 22 C       -2.1610     7.6230    -0.3960 C.2   1 <1>  -0.3020 
 23 C       -7.4880    -4.4060     0.0440 C.3   1 <1>  -0.1600 
 24 N       -0.2310     8.4870     0.2800 N.2   1 <1>  -0.5650 
 25 C       -1.4890     8.7590    -0.1150 C.2   1 <1>   0.0770 
 26 C       -7.3160    -5.9160    -0.1400 C.3   1 <1>  -0.2400 
 27 H       -3.4120     0.2780     2.2870 H     1 <1>   0.0800 
 28 H       -3.8690     1.6460     1.3250 H     1 <1>   0.0800 
 29 H       -1.7390    -1.4530    -0.5890 H     1 <1>   0.0800 
 30 H       -2.1210    -1.6730     1.0930 H     1 <1>   0.0800 
 31 H       -3.0040     3.0200    -2.4780 H     1 <1>   0.1500 
 32 H       -1.1310     2.2590     1.2690 H     1 <1>   0.1500 
 33 H       -5.7410     0.0560     1.7920 H     1 <1>   0.0800 
 34 H       -3.6610    -2.9790    -0.3090 H     1 <1>   0.0800 
 35 H       -4.0750    -1.5510    -1.2180 H     1 <1>   0.0800 
 36 H       -2.5430     5.4040    -2.2260 H     1 <1>   0.1500 
 37 H       -0.6770     4.6400     1.5320 H     1 <1>   0.1500 
 38 H       -4.6630    -2.0240     1.6460 H     1 <1>   0.4500 
 39 H       -5.1170     0.4980    -1.1430 H     1 <1>   0.0800 
 40 H       -5.9400     1.5970    -0.0660 H     1 <1>   0.0800 
 41 H       -6.9300    -2.0730     1.1720 H     1 <1>   0.0800 
 42 H       -7.8740    -1.7680    -1.0370 H     1 <1>   0.0800 
 43 H       -6.2950    -1.5410    -1.7460 H     1 <1>   0.0800 
 44 H       -5.6290    -3.8730    -0.8630 H     1 <1>   0.0800 
 45 H       -5.5390    -4.1480     0.8610 H     1 <1>   0.0800 
 46 H        0.7020     6.6220     0.4770 H     1 <1>   0.1500 
 47 H       -3.1730     7.4880    -0.7300 H     1 <1>   0.1500 
 48 H       -8.0200    -4.2280     0.9650 H     1 <1>   0.0800 
 49 H       -8.0910    -4.0320    -0.7660 H     1 <1>   0.0800 
 50 H       -1.8450     9.7750    -0.1750 H     1 <1>   0.1500 
 51 H       -6.7490    -6.3390     0.6710 H     1 <1>   0.0800 
 52 H       -6.8120    -6.1330    -1.0660 H     1 <1>   0.0800 
 53 H       -8.2800    -6.3960    -0.1620 H     1 <1>   0.0800 
@<TRIPOS>BOND
  1   1   2  2   
  2   2   3  am  
  3   2   4  1   
  4   3   5  1   
  5   3   6  1   
  6   4   7  ar  
  7   4   8  ar  
  8   5   9  1   
  9   5  27  1   
 10   5  28  1   
 11   6  10  1   
 12   6  29  1   
 13   6  30  1   
 14   7  11  ar  
 15   7  31  1   
 16   8  12  ar  
 17   8  32  1   
 18   9  13  1   
 19   9  14  1   
 20   9  33  1   
 21  10  13  1   
 22  10  34  1   
 23  10  35  1   
 24  11  15  ar  
 25  11  36  1   
 26  12  15  ar  
 27  12  37  1   
 28  13  16  1   
 29  13  38  1   
 30  14  17  1   
 31  14  39  1   
 32  14  40  1   
 33  15  18  1   
 34  16  19  1   
 35  16  20  1   
 36  16  41  1   
 37  17  19  1   
 38  18  21  1   
 39  18  22  1   
 40  19  42  1   
 41  19  43  1   
 42  20  23  1   
 43  20  44  1   
 44  20  45  1   
 45  21  24  2   
 46  21  46  1   
 47  22  25  2   
 48  22  47  1   
 49  23  26  1   
 50  23  48  1   
 51  23  49  1   
 52  24  25  1   
 53  25  50  1   
 54  26  51  1   
 55  26  52  1   
 56  26  53  1   
@<TRIPOS>SUBSTRUCTURE
  1 ****   2 GROUP 4 **** **** 0

# MOE 2024.06 (io_trps.svl 2023.06)
