@<TRIPOS>MOLECULE
NONAME
53 55 1 0 0 
SMALL
USER_CHARGES


@<TRIPOS>ATOM
  1 CL      -0.2100     0.6530     1.3000 Cl    1 <1>  -0.1770 
  2 C       -1.8530     0.8310     0.7440 C.ar  1 <1>   0.1770 
  3 C       -2.4130    -0.1490    -0.0520 C.ar  1 <1>  -0.1500 
  4 C       -2.5760     1.9510     1.1030 C.ar  1 <1>  -0.1500 
  5 C       -3.7170    -0.0040    -0.4910 C.ar  1 <1>  -0.1500 
  6 C       -3.8800     2.0850     0.6610 C.ar  1 <1>  -0.1500 
  7 C       -4.4840     1.1100    -0.1390 C.ar  1 <1>   0.0530 
  8 C       -5.8490     1.2600    -0.5770 C.2   1 <1>   0.0870 
  9 O       -6.3890     2.4470    -0.6990 O.3   1 <1>  -0.0190 
 10 C       -6.8150     0.3640    -0.9040 C.2   1 <1>  -0.0860 
 11 N       -7.6370     2.4050    -1.0920 N.2   1 <1>  -0.4100 
 12 C       -7.9090     1.1590    -1.2420 C.2   1 <1>   0.3720 
 13 C       -6.8590    -1.0590    -0.8790 C.2   1 <1>   0.7160 
 14 N       -9.1420     0.6630    -1.6770 N.pl3 1 <1>  -0.8520 
 15 O       -6.4220    -1.6970    -1.8150 O.2   1 <1>  -0.5700 
 16 N       -7.4850    -1.7310     0.1510 N.am  1 <1>  -0.6600 
 17 C      -10.2720     1.6430    -1.6770 C.3   1 <1>   0.2090 
 18 C       -8.2670    -2.9540    -0.1680 C.3   1 <1>   0.1400 
 19 C       -7.9980    -1.0420     1.3710 C.3   1 <1>   0.1400 
 20 C      -11.6500     0.9770    -1.8430 C.3   1 <1>   0.1200 
 21 C       -9.7180    -2.5380    -0.4950 C.3   1 <1>   0.4230 
 22 C       -9.4800    -0.6460     1.1930 C.3   1 <1>   0.3430 
 23 O      -11.9430     0.1010    -0.7810 O.3   1 <1>  -0.5600 
 24 N      -10.3390    -1.7280     0.5980 N.4   1 <1>  -0.9060 
 25 C      -10.5900    -3.7700    -0.7750 C.3   1 <1>  -0.1600 
 26 C      -13.3120    -0.1620    -0.6710 C.3   1 <1>   0.0400 
 27 C      -12.0430    -3.4380    -1.1510 C.3   1 <1>  -0.2400 
 28 H       -1.8310    -1.0110    -0.3260 H     1 <1>   0.1500 
 29 H       -2.1190     2.7040     1.7200 H     1 <1>   0.1500 
 30 H       -4.1340    -0.7680    -1.1230 H     1 <1>   0.1500 
 31 H       -4.4400     2.9610     0.9430 H     1 <1>   0.1500 
 32 H       -9.0270     0.2950    -2.6300 H     1 <1>   0.4000 
 33 H      -10.1240     2.3430    -2.4830 H     1 <1>   0.0800 
 34 H      -10.2700     2.2060    -0.7580 H     1 <1>   0.0800 
 35 H       -8.2450    -3.6300     0.6680 H     1 <1>   0.0800 
 36 H       -7.8390    -3.4670    -1.0130 H     1 <1>   0.0800 
 37 H       -7.4120    -0.1640     1.5840 H     1 <1>   0.0800 
 38 H       -7.9010    -1.7030     2.2150 H     1 <1>   0.0800 
 39 H      -11.6920     0.4270    -2.7670 H     1 <1>   0.0800 
 40 H      -12.3960     1.7540    -1.8690 H     1 <1>   0.0800 
 41 H       -9.6850    -1.9350    -1.3890 H     1 <1>   0.0800 
 42 H       -9.5190     0.2170     0.5520 H     1 <1>   0.0800 
 43 H       -9.8850    -0.3410     2.1440 H     1 <1>   0.0800 
 44 H      -10.7140    -2.3470     1.3190 H     1 <1>   0.4500 
 45 H      -11.1360    -1.2280     0.1530 H     1 <1>   0.4500 
 46 H      -10.5790    -4.4320     0.0740 H     1 <1>   0.0800 
 47 H      -10.1500    -4.3080    -1.5980 H     1 <1>   0.0800 
 48 H      -13.4740    -0.8320     0.1540 H     1 <1>   0.0800 
 49 H      -13.6650    -0.6160    -1.5830 H     1 <1>   0.0800 
 50 H      -13.8400     0.7590    -0.4860 H     1 <1>   0.0800 
 51 H      -12.5820    -3.0330    -0.3150 H     1 <1>   0.0800 
 52 H      -12.5490    -4.3360    -1.4630 H     1 <1>   0.0800 
 53 H      -12.0740    -2.7370    -1.9680 H     1 <1>   0.0800 
@<TRIPOS>BOND
  1   1   2  1   
  2   2   3  ar  
  3   2   4  ar  
  4   3   5  ar  
  5   3  28  1   
  6   4   6  ar  
  7   4  29  1   
  8   5   7  ar  
  9   5  30  1   
 10   6   7  ar  
 11   6  31  1   
 12   7   8  1   
 13   8   9  1   
 14   8  10  2   
 15   9  11  1   
 16  10  12  1   
 17  10  13  1   
 18  11  12  2   
 19  12  14  1   
 20  13  15  2   
 21  13  16  am  
 22  14  17  1   
 23  14  32  1   
 24  16  18  1   
 25  16  19  1   
 26  17  20  1   
 27  17  33  1   
 28  17  34  1   
 29  18  21  1   
 30  18  35  1   
 31  18  36  1   
 32  19  22  1   
 33  19  37  1   
 34  19  38  1   
 35  20  23  1   
 36  20  39  1   
 37  20  40  1   
 38  21  24  1   
 39  21  25  1   
 40  21  41  1   
 41  22  24  1   
 42  22  42  1   
 43  22  43  1   
 44  23  26  1   
 45  24  44  1   
 46  24  45  1   
 47  25  27  1   
 48  25  46  1   
 49  25  47  1   
 50  26  48  1   
 51  26  49  1   
 52  26  50  1   
 53  27  51  1   
 54  27  52  1   
 55  27  53  1   
@<TRIPOS>SUBSTRUCTURE
  1 ****  10 GROUP 4 **** **** 0

# MOE 2024.06 (io_trps.svl 2023.06)
