@<TRIPOS>MOLECULE
NONAME
64 66 1 0 0 
SMALL
USER_CHARGES


@<TRIPOS>ATOM
  1 O        2.7620    -2.1910     1.4410 O.2   1 <1>  -0.5700 
  2 C        2.9830    -1.8270     0.3100 C.2   1 <1>   0.5690 
  3 N        2.8730    -0.5150    -0.0710 N.am  1 <1>  -0.6600 
  4 C        3.3300    -2.9330    -0.6760 C.3   1 <1>  -0.0990 
  5 C        3.0900    -0.0110    -1.4630 C.3   1 <1>   0.1400 
  6 C        2.5400     0.5320     0.9410 C.3   1 <1>   0.1400 
  7 C        2.0740    -3.6140    -1.2690 C.3   1 <1>  -0.1600 
  8 C        4.5620     0.3640    -1.6980 C.3   1 <1>   0.1100 
  9 C        3.3130     1.8430     0.7550 C.3   1 <1>  -0.1600 
 10 C        0.8990    -3.8530    -0.2880 C.3   1 <1>   0.4230 
 11 N        4.9700     1.6320    -1.0630 N.3   1 <1>  -0.8100 
 12 C        4.7920     1.6680     0.3990 C.3   1 <1>   0.1100 
 13 N        1.0350    -5.1240     0.5000 N.4   1 <1>  -0.9590 
 14 C       -0.4150    -3.9120    -1.0860 C.3   1 <1>  -0.1600 
 15 C        6.3560     1.9940    -1.4970 C.3   1 <1>   0.1710 
 16 C       -0.1050    -5.2870     1.4500 C.3   1 <1>   0.3430 
 17 C        2.3000    -5.2280     1.2890 C.3   1 <1>   0.2630 
 18 C       -1.6370    -4.1420    -0.1910 C.3   1 <1>  -0.1600 
 19 C        6.8930     3.3770    -1.0760 C.2   1 <1>   0.5690 
 20 C       -1.4230    -5.3780     0.6850 C.3   1 <1>  -0.1600 
 21 O        6.6780     4.3020    -1.8260 O.2   1 <1>  -0.5700 
 22 N        7.6290     3.5600     0.0760 N.am  1 <1>  -0.6600 
 23 C        8.1360     4.9140     0.4620 C.3   1 <1>   0.1400 
 24 C        8.0380     2.5040     1.0530 C.3   1 <1>   0.1400 
 25 C        9.6390     4.8600     0.7800 C.3   1 <1>   0.1200 
 26 C        9.5490     2.5800     1.3290 C.3   1 <1>   0.1200 
 27 O        9.9110     3.8700     1.7320 O.3   1 <1>  -0.5600 
 28 H        3.9400    -3.6500    -0.1610 H     1 <1>   0.0800 
 29 H        3.9450    -2.5530    -1.4690 H     1 <1>   0.0800 
 30 H        2.4670     0.8460    -1.6530 H     1 <1>   0.0800 
 31 H        2.8040    -0.7660    -2.1700 H     1 <1>   0.0800 
 32 H        2.7600     0.1570     1.9260 H     1 <1>   0.0800 
 33 H        1.4840     0.7350     0.9010 H     1 <1>   0.0800 
 34 H        2.3420    -4.5310    -1.7630 H     1 <1>   0.0800 
 35 H        1.7210    -2.9470    -2.0360 H     1 <1>   0.0800 
 36 H        4.6990     0.4660    -2.7610 H     1 <1>   0.0800 
 37 H        5.1970    -0.4360    -1.3590 H     1 <1>   0.0800 
 38 H        3.2550     2.3780     1.6850 H     1 <1>   0.0800 
 39 H        2.8350     2.4640     0.0180 H     1 <1>   0.0800 
 40 H        0.8310    -3.0210     0.3950 H     1 <1>   0.0800 
 41 H        5.2040     0.7860     0.8600 H     1 <1>   0.0800 
 42 H        5.3020     2.5270     0.7940 H     1 <1>   0.0800 
 43 H        0.9920    -5.9000    -0.1710 H     1 <1>   0.4500 
 44 H       -0.3550    -4.6910    -1.8260 H     1 <1>   0.0800 
 45 H       -0.5540    -2.9820    -1.6100 H     1 <1>   0.0800 
 46 H        6.3720     1.9940    -2.5730 H     1 <1>   0.0800 
 47 H        7.0420     1.2310    -1.1850 H     1 <1>   0.0800 
 48 H       -0.1360    -4.4450     2.1230 H     1 <1>   0.0800 
 49 H        0.0280    -6.1830     2.0360 H     1 <1>   0.0800 
 50 H        2.4100    -4.3730     1.9370 H     1 <1>   0.0800 
 51 H        3.1500    -5.2830     0.6330 H     1 <1>   0.0800 
 52 H        2.2890    -6.1170     1.8970 H     1 <1>   0.0800 
 53 H       -2.5200    -4.2690    -0.7970 H     1 <1>   0.0800 
 54 H       -1.7900    -3.2790     0.4360 H     1 <1>   0.0800 
 55 H       -2.2330    -5.4610     1.3880 H     1 <1>   0.0800 
 56 H       -1.4290    -6.2690     0.0800 H     1 <1>   0.0800 
 57 H        7.6020     5.2570     1.3310 H     1 <1>   0.0800 
 58 H        7.9690     5.6260    -0.3280 H     1 <1>   0.0800 
 59 H        7.7950     1.5220     0.6970 H     1 <1>   0.0800 
 60 H        7.5090     2.6590     1.9770 H     1 <1>   0.0800 
 61 H        9.9670     5.8020     1.1820 H     1 <1>   0.0800 
 62 H       10.2050     4.6490    -0.1110 H     1 <1>   0.0800 
 63 H       10.1110     2.3230     0.4480 H     1 <1>   0.0800 
 64 H        9.8170     1.9030     2.1210 H     1 <1>   0.0800 
@<TRIPOS>BOND
  1   1   2  2   
  2   2   3  am  
  3   2   4  1   
  4   3   5  1   
  5   3   6  1   
  6   4   7  1   
  7   4  28  1   
  8   4  29  1   
  9   5   8  1   
 10   5  30  1   
 11   5  31  1   
 12   6   9  1   
 13   6  32  1   
 14   6  33  1   
 15   7  10  1   
 16   7  34  1   
 17   7  35  1   
 18   8  11  1   
 19   8  36  1   
 20   8  37  1   
 21   9  12  1   
 22   9  38  1   
 23   9  39  1   
 24  10  13  1   
 25  10  14  1   
 26  10  40  1   
 27  11  12  1   
 28  11  15  1   
 29  12  41  1   
 30  12  42  1   
 31  13  16  1   
 32  13  17  1   
 33  13  43  1   
 34  14  18  1   
 35  14  44  1   
 36  14  45  1   
 37  15  19  1   
 38  15  46  1   
 39  15  47  1   
 40  16  20  1   
 41  16  48  1   
 42  16  49  1   
 43  17  50  1   
 44  17  51  1   
 45  17  52  1   
 46  18  20  1   
 47  18  53  1   
 48  18  54  1   
 49  19  21  2   
 50  19  22  am  
 51  20  55  1   
 52  20  56  1   
 53  22  23  1   
 54  22  24  1   
 55  23  25  1   
 56  23  57  1   
 57  23  58  1   
 58  24  26  1   
 59  24  59  1   
 60  24  60  1   
 61  25  27  1   
 62  25  61  1   
 63  25  62  1   
 64  26  27  1   
 65  26  63  1   
 66  26  64  1   
@<TRIPOS>SUBSTRUCTURE
  1 ****   3 GROUP 4 **** **** 0

# MOE 2024.06 (io_trps.svl 2023.06)
