@<TRIPOS>MOLECULE
NONAME
39 41 1 0 0 
SMALL
USER_CHARGES


@<TRIPOS>ATOM
  1 O       -0.7620     0.3890     0.5070 O.2   1 <1>  -0.5700 
  2 C       -1.7090     1.0560     0.1190 C.2   1 <1>   0.7160 
  3 N       -2.8780     0.3770    -0.2030 N.am  1 <1>  -0.6600 
  4 C       -1.5390     2.5050     0.0340 C.2   1 <1>   0.2030 
  5 C       -4.2030     1.0620    -0.2650 C.3   1 <1>   0.2200 
  6 C       -2.8460    -1.1020    -0.4250 C.3   1 <1>   0.0600 
  7 N       -2.2400     3.3730    -0.6410 N.2   1 <1>  -0.4100 
  8 C       -0.5300     3.1990     0.6880 C.2   1 <1>  -0.1500 
  9 C       -5.3450     0.3320     0.4410 C.3   1 <1>  -0.1600 
 10 C       -4.7030     1.2420    -1.6950 C.3   1 <1>  -0.1600 
 11 O       -1.7700     4.5840    -0.4670 O.3   1 <1>  -0.0190 
 12 C       -0.7350     4.4700     0.3340 C.2   1 <1>  -0.0400 
 13 C       -6.6110     0.9480    -0.1660 C.3   1 <1>  -0.0800 
 14 C       -6.2060     1.5090    -1.5430 C.3   1 <1>  -0.0800 
 15 C        0.0300     5.7200     0.7150 C.3   1 <1>  -0.0600 
 16 C       -7.1570     2.1360     0.6400 C.3   1 <1>  -0.1600 
 17 C       -6.5550     3.0050    -1.5240 C.3   1 <1>  -0.1600 
 18 C       -7.5810     3.1490    -0.4110 C.3   1 <1>   0.2000 
 19 O       -7.5380     4.4220     0.1110 O.3   1 <1>  -0.6800 
 20 H       -4.1350     2.0320     0.1960 H     1 <1>   0.0800 
 21 H       -3.5310    -1.3820    -1.2050 H     1 <1>   0.0800 
 22 H       -3.1120    -1.6100     0.4850 H     1 <1>   0.0800 
 23 H       -1.8590    -1.4170    -0.7180 H     1 <1>   0.0800 
 24 H        0.2220     2.7620     1.3200 H     1 <1>   0.1500 
 25 H       -5.3420    -0.7150     0.2010 H     1 <1>   0.0800 
 26 H       -5.2980     0.4530     1.5080 H     1 <1>   0.0800 
 27 H       -4.1900     2.0420    -2.1990 H     1 <1>   0.0800 
 28 H       -4.5660     0.3330    -2.2500 H     1 <1>   0.0800 
 29 H       -7.3820     0.2040    -0.2800 H     1 <1>   0.0800 
 30 H       -6.7600     1.0160    -2.3250 H     1 <1>   0.0800 
 31 H        0.8450     5.4730     1.3710 H     1 <1>   0.0800 
 32 H       -0.6250     6.4100     1.2160 H     1 <1>   0.0800 
 33 H        0.4230     6.1890    -0.1690 H     1 <1>   0.0800 
 34 H       -6.3810     2.5570     1.2550 H     1 <1>   0.0800 
 35 H       -7.9880     1.8440     1.2570 H     1 <1>   0.0800 
 36 H       -6.9570     3.3250    -2.4690 H     1 <1>   0.0800 
 37 H       -5.6800     3.5870    -1.2900 H     1 <1>   0.0800 
 38 H       -8.5770     2.9460    -0.7690 H     1 <1>   0.0800 
 39 H       -6.6250     4.6390     0.3740 H     1 <1>   0.4000 
@<TRIPOS>BOND
  1   1   2  2   
  2   2   3  am  
  3   2   4  1   
  4   3   5  1   
  5   3   6  1   
  6   4   7  2   
  7   4   8  1   
  8   5   9  1   
  9   5  10  1   
 10   5  20  1   
 11   6  21  1   
 12   6  22  1   
 13   6  23  1   
 14   7  11  1   
 15   8  12  2   
 16   8  24  1   
 17   9  13  1   
 18   9  25  1   
 19   9  26  1   
 20  10  14  1   
 21  10  27  1   
 22  10  28  1   
 23  11  12  1   
 24  12  15  1   
 25  13  14  1   
 26  13  16  1   
 27  13  29  1   
 28  14  17  1   
 29  14  30  1   
 30  15  31  1   
 31  15  32  1   
 32  15  33  1   
 33  16  18  1   
 34  16  34  1   
 35  16  35  1   
 36  17  18  1   
 37  17  36  1   
 38  17  37  1   
 39  18  19  1   
 40  18  38  1   
 41  19  39  1   
@<TRIPOS>SUBSTRUCTURE
  1 ****   5 GROUP 4 **** **** 0

# MOE 2024.06 (io_trps.svl 2023.06)
