@<TRIPOS>MOLECULE
NONAME
48 51 1 0 0 
SMALL
USER_CHARGES


@<TRIPOS>ATOM
  1 O       -1.9500    -1.5880     1.1850 O.2   1 <1>  -0.5700 
  2 C       -1.0680    -2.1690     0.6030 C.2   1 <1>   0.5690 
  3 N       -0.9350    -1.9970    -0.7360 N.am  1 <1>  -0.7300 
  4 C       -0.1150    -3.0810     1.3790 C.3   1 <1>   0.2010 
  5 C        0.0730    -2.5740    -1.6480 C.3   1 <1>   0.1400 
  6 N       -0.1190    -4.4880     0.8460 N.am  1 <1>  -0.6600 
  7 C        0.0630    -4.1060    -1.6130 C.3   1 <1>  -0.1600 
  8 C       -0.9620    -5.4200     1.4040 C.2   1 <1>   0.5690 
  9 C        0.7170    -4.7070    -0.3610 C.3   1 <1>   0.1400 
 10 O       -1.4300    -5.2470     2.5070 O.2   1 <1>  -0.5700 
 11 C       -1.4130    -6.6610     0.6160 C.3   1 <1>   0.2610 
 12 O       -0.7910    -7.8410     1.0720 O.3   1 <1>  -0.5600 
 13 C       -2.9550    -6.7550     0.6590 C.3   1 <1>   0.3640 
 14 C       -1.1250    -8.9750     0.3120 C.3   1 <1>   0.1810 
 15 N       -3.4880    -8.1120     0.3000 N.am  1 <1>  -0.5090 
 16 C       -3.4770    -5.6700    -0.2780 C.ar  1 <1>  -0.1430 
 17 C       -2.6350    -9.1840     0.1820 C.2   1 <1>   0.5690 
 18 C       -4.9300    -8.3260     0.6040 C.3   1 <1>   0.0490 
 19 C       -3.5240    -5.8630    -1.6530 C.ar  1 <1>   0.1600 
 20 C       -3.8590    -4.4430     0.2290 C.ar  1 <1>  -0.1500 
 21 O       -3.0160   -10.3140    -0.0220 O.2   1 <1>  -0.5700 
 22 C       -5.7640    -9.1270    -0.3460 C.3   1 <1>  -0.2000 
 23 C       -6.0120    -7.6630    -0.1940 C.3   1 <1>  -0.2000 
 24 N       -3.8940    -4.9510    -2.5360 N.ar  1 <1>  -0.6200 
 25 C       -4.2570    -3.4840    -0.6760 C.ar  1 <1>  -0.1500 
 26 C       -4.2570    -3.7840    -2.0260 C.ar  1 <1>   0.1600 
 27 H       -1.6360    -1.3880    -1.1650 H     1 <1>   0.3700 
 28 H       -0.4110    -3.0750     2.4130 H     1 <1>   0.0800 
 29 H        0.8770    -2.6760     1.3270 H     1 <1>   0.0800 
 30 H       -0.1540    -2.2480    -2.6500 H     1 <1>   0.0800 
 31 H        1.0490    -2.1970    -1.3920 H     1 <1>   0.0800 
 32 H        0.6270    -4.4480    -2.4620 H     1 <1>   0.0800 
 33 H       -0.9410    -4.4700    -1.7350 H     1 <1>   0.0800 
 34 H        1.6870    -4.2650    -0.2060 H     1 <1>   0.0800 
 35 H        0.8760    -5.7620    -0.5040 H     1 <1>   0.0800 
 36 H       -1.1240    -6.5390    -0.4090 H     1 <1>   0.0800 
 37 H       -3.2900    -6.5410     1.6590 H     1 <1>   0.0800 
 38 H       -0.6870    -8.8780    -0.6650 H     1 <1>   0.0800 
 39 H       -0.6920    -9.8300     0.8000 H     1 <1>   0.0800 
 40 H       -5.0990    -8.4780     1.6580 H     1 <1>   0.1000 
 41 H       -3.2390    -6.8220    -2.0530 H     1 <1>   0.1500 
 42 H       -3.8350    -4.2240     1.2850 H     1 <1>   0.1500 
 43 H       -5.3080    -9.4870    -1.2520 H     1 <1>   0.1000 
 44 H       -6.4810    -9.8180     0.0580 H     1 <1>   0.1000 
 45 H       -6.9090    -7.3530     0.3130 H     1 <1>   0.1000 
 46 H       -5.7960    -7.0470    -1.0460 H     1 <1>   0.1000 
 47 H       -4.5560    -2.5090    -0.3330 H     1 <1>   0.1500 
 48 H       -4.5710    -3.0250    -2.7220 H     1 <1>   0.1500 
@<TRIPOS>BOND
  1   1   2  2   
  2   2   3  am  
  3   2   4  1   
  4   3   5  1   
  5   3  27  1   
  6   4   6  1   
  7   4  28  1   
  8   4  29  1   
  9   5   7  1   
 10   5  30  1   
 11   5  31  1   
 12   6   8  am  
 13   6   9  1   
 14   7   9  1   
 15   7  32  1   
 16   7  33  1   
 17   8  10  2   
 18   8  11  1   
 19   9  34  1   
 20   9  35  1   
 21  11  12  1   
 22  11  13  1   
 23  11  36  1   
 24  12  14  1   
 25  13  15  1   
 26  13  16  1   
 27  13  37  1   
 28  14  17  1   
 29  14  38  1   
 30  14  39  1   
 31  15  17  am  
 32  15  18  1   
 33  16  19  ar  
 34  16  20  ar  
 35  17  21  2   
 36  18  22  1   
 37  18  23  1   
 38  18  40  1   
 39  19  24  ar  
 40  19  41  1   
 41  20  25  ar  
 42  20  42  1   
 43  22  23  1   
 44  22  43  1   
 45  22  44  1   
 46  23  45  1   
 47  23  46  1   
 48  24  26  ar  
 49  25  26  ar  
 50  25  47  1   
 51  26  48  1   
@<TRIPOS>SUBSTRUCTURE
  1 ****  16 GROUP 4 **** **** 0

# MOE 2024.06 (io_trps.svl 2023.06)
