@<TRIPOS>MOLECULE
NONAME
41 43 1 0 0 
SMALL
USER_CHARGES


@<TRIPOS>ATOM
  1 O       -0.1850     0.1690    -0.3330 O.2   1 <1>  -0.5700 
  2 C       -1.1930     0.7770    -0.0290 C.2   1 <1>   0.5440 
  3 N       -2.3690     0.0750     0.1150 N.am  1 <1>  -0.6600 
  4 C       -1.1340     2.2080     0.1570 C.ar  1 <1>   0.0860 
  5 C       -3.7300     0.6670     0.0270 C.3   1 <1>   0.1400 
  6 C       -2.4320    -1.3980    -0.0670 C.3   1 <1>   0.1400 
  7 C       -1.6980     2.8160     1.2750 C.ar  1 <1>   0.1600 
  8 C       -0.5090     3.0420    -0.7620 C.ar  1 <1>  -0.1500 
  9 C       -4.6400    -0.4950    -0.3720 C.3   1 <1>   0.2000 
 10 C       -3.9120    -1.7580     0.0800 C.3   1 <1>  -0.0800 
 11 N       -1.7250     4.1130     1.5250 N.ar  1 <1>  -0.6200 
 12 C       -0.5140     4.3970    -0.5200 C.ar  1 <1>  -0.1500 
 13 O       -5.8780    -0.4130     0.2470 O.3   1 <1>  -0.6800 
 14 C       -4.3430    -3.0040    -0.7140 C.3   1 <1>  -0.0170 
 15 C       -1.1340     4.8900     0.6280 C.ar  1 <1>   0.3930 
 16 C       -3.6660    -4.2650    -0.2010 C.ar  1 <1>   0.1670 
 17 O       -1.1780     6.2030     0.9180 O.3   1 <1>  -0.3630 
 18 N       -2.4380    -4.4960    -0.6360 N.ar  1 <1>  -0.6200 
 19 C       -4.3400    -5.1070     0.6830 C.ar  1 <1>   0.1600 
 20 C       -0.5620     7.1950     0.1280 C.3   1 <1>   0.0400 
 21 C       -1.9330    -5.6100    -0.1330 C.ar  1 <1>   0.1600 
 22 N       -3.8350    -6.2200     1.1900 N.ar  1 <1>  -0.6200 
 23 C       -2.6080    -6.4430     0.7510 C.ar  1 <1>   0.1600 
 24 H       -4.0120     1.0570     0.9890 H     1 <1>   0.0800 
 25 H       -3.7600     1.4470    -0.7150 H     1 <1>   0.0800 
 26 H       -2.0700    -1.6480    -1.0510 H     1 <1>   0.0800 
 27 H       -1.8250    -1.9010     0.6670 H     1 <1>   0.0800 
 28 H       -2.1560     2.1780     2.0110 H     1 <1>   0.1500 
 29 H       -0.0370     2.6240    -1.6350 H     1 <1>   0.1500 
 30 H       -4.7910    -0.4900    -1.4380 H     1 <1>   0.0800 
 31 H       -4.0960    -1.9210     1.1280 H     1 <1>   0.0800 
 32 H       -0.0380     5.0550    -1.2190 H     1 <1>   0.1500 
 33 H       -5.7770    -0.4040     1.2180 H     1 <1>   0.4000 
 34 H       -4.1050    -2.8780    -1.7560 H     1 <1>   0.0800 
 35 H       -5.4110    -3.1170    -0.6400 H     1 <1>   0.0800 
 36 H       -5.3390    -4.8490     0.9870 H     1 <1>   0.1500 
 37 H       -0.7330     8.1470     0.5970 H     1 <1>   0.0800 
 38 H       -1.0030     7.1870    -0.8520 H     1 <1>   0.0800 
 39 H        0.4950     6.9970     0.0800 H     1 <1>   0.0800 
 40 H       -0.9350    -5.8760    -0.4340 H     1 <1>   0.1500 
 41 H       -2.1120    -7.3290     1.1070 H     1 <1>   0.1500 
@<TRIPOS>BOND
  1   1   2  2   
  2   2   3  am  
  3   2   4  1   
  4   3   5  1   
  5   3   6  1   
  6   4   7  ar  
  7   4   8  ar  
  8   5   9  1   
  9   5  24  1   
 10   5  25  1   
 11   6  10  1   
 12   6  26  1   
 13   6  27  1   
 14   7  11  ar  
 15   7  28  1   
 16   8  12  ar  
 17   8  29  1   
 18   9  10  1   
 19   9  13  1   
 20   9  30  1   
 21  10  14  1   
 22  10  31  1   
 23  11  15  ar  
 24  12  15  ar  
 25  12  32  1   
 26  13  33  1   
 27  14  16  1   
 28  14  34  1   
 29  14  35  1   
 30  15  17  1   
 31  16  18  ar  
 32  16  19  ar  
 33  17  20  1   
 34  18  21  ar  
 35  19  22  ar  
 36  19  36  1   
 37  20  37  1   
 38  20  38  1   
 39  20  39  1   
 40  21  23  ar  
 41  21  40  1   
 42  22  23  ar  
 43  23  41  1   
@<TRIPOS>SUBSTRUCTURE
  1 ****   3 GROUP 4 **** **** 0

# MOE 2024.06 (io_trps.svl 2023.06)
