@<TRIPOS>MOLECULE
NONAME
52 54 1 0 0 
SMALL
USER_CHARGES


@<TRIPOS>ATOM
  1 O       -0.4430     0.2260    -0.1840 O.2   1 <1>  -0.5700 
  2 C       -1.4660     0.8270     0.0490 C.2   1 <1>   0.5690 
  3 N       -2.6200     0.1630     0.3800 N.am  1 <1>  -0.6600 
  4 C       -1.4600     2.3440    -0.0410 C.3   1 <1>  -0.0990 
  5 C       -2.6540    -1.3280     0.5130 C.3   1 <1>   0.1400 
  6 C       -3.9680     0.7880     0.5600 C.3   1 <1>   0.1400 
  7 C       -0.0600     2.9260    -0.2470 C.3   1 <1>   0.1100 
  8 C       -3.7770    -1.9330    -0.3450 C.3   1 <1>   0.3440 
  9 C       -5.0320     0.0690    -0.3020 C.3   1 <1>   0.2000 
 10 N       -0.1410     4.3830    -0.3730 N.3   1 <1>  -0.6400 
 11 O       -4.9980    -1.3080    -0.0430 O.3   1 <1>  -0.5600 
 12 C       -3.8940    -3.4350    -0.1010 C.ar  1 <1>  -0.1440 
 13 C       -6.4720     0.5710    -0.0380 C.3   1 <1>  -0.0800 
 14 O       -0.4160     4.9170     0.8510 O.3   1 <1>  -0.1800 
 15 C        1.1380     4.9610    -0.7480 C.3   1 <1>   0.1100 
 16 C       -4.7160    -3.9490     0.8930 C.ar  1 <1>  -0.1500 
 17 C       -3.1510    -4.3120    -0.8800 C.ar  1 <1>  -0.1500 
 18 C       -7.5010    -0.1970    -0.8860 C.3   1 <1>  -0.2400 
 19 C       -6.6280     2.0750    -0.3230 C.3   1 <1>  -0.2400 
 20 C       -0.0540     6.2560     0.8500 C.3   1 <1>   0.1200 
 21 C        1.0510     6.3670    -0.1930 C.3   1 <1>  -0.1600 
 22 C       -4.7940    -5.3140     1.1050 C.ar  1 <1>  -0.1500 
 23 C       -3.2290    -5.6780    -0.6690 C.ar  1 <1>  -0.1500 
 24 C       -4.0500    -6.1800     0.3240 C.ar  1 <1>  -0.1500 
 25 H       -2.0790     2.6400    -0.8670 H     1 <1>   0.0800 
 26 H       -1.8690     2.7390     0.8690 H     1 <1>   0.0800 
 27 H       -1.7160    -1.7600     0.2140 H     1 <1>   0.0800 
 28 H       -2.8200    -1.5890     1.5430 H     1 <1>   0.0800 
 29 H       -4.2500     0.7230     1.5960 H     1 <1>   0.0800 
 30 H       -3.9410     1.8260     0.2890 H     1 <1>   0.0800 
 31 H        0.3620     2.5160    -1.1490 H     1 <1>   0.0800 
 32 H        0.5760     2.6610     0.5810 H     1 <1>   0.0800 
 33 H       -3.5670    -1.7600    -1.3860 H     1 <1>   0.0800 
 34 H       -4.8010     0.2150    -1.3430 H     1 <1>   0.0800 
 35 H       -6.6990     0.4030     1.0020 H     1 <1>   0.0800 
 36 H        1.9420     4.4280    -0.2670 H     1 <1>   0.0800 
 37 H        1.2700     4.9470    -1.8160 H     1 <1>   0.0800 
 38 H       -5.3010    -3.2840     1.5040 H     1 <1>   0.1500 
 39 H       -2.5070    -3.9360    -1.6560 H     1 <1>   0.1500 
 40 H       -7.2960    -0.0740    -1.9340 H     1 <1>   0.0800 
 41 H       -8.4970     0.1570    -0.6840 H     1 <1>   0.0800 
 42 H       -7.4710    -1.2480    -0.6540 H     1 <1>   0.0800 
 43 H       -6.3420     2.3010    -1.3350 H     1 <1>   0.0800 
 44 H       -6.0270     2.6630     0.3480 H     1 <1>   0.0800 
 45 H       -7.6520     2.3740    -0.1850 H     1 <1>   0.0800 
 46 H       -0.9190     6.8300     0.5680 H     1 <1>   0.0800 
 47 H        0.2770     6.5210     1.8370 H     1 <1>   0.0800 
 48 H        0.7670     7.0620    -0.9620 H     1 <1>   0.0800 
 49 H        1.9830     6.6790     0.2410 H     1 <1>   0.0800 
 50 H       -5.4360    -5.7010     1.8770 H     1 <1>   0.1500 
 51 H       -2.6490    -6.3500    -1.2780 H     1 <1>   0.1500 
 52 H       -4.1110    -7.2420     0.4880 H     1 <1>   0.1500 
@<TRIPOS>BOND
  1   1   2  2   
  2   2   3  am  
  3   2   4  1   
  4   3   5  1   
  5   3   6  1   
  6   4   7  1   
  7   4  25  1   
  8   4  26  1   
  9   5   8  1   
 10   5  27  1   
 11   5  28  1   
 12   6   9  1   
 13   6  29  1   
 14   6  30  1   
 15   7  10  1   
 16   7  31  1   
 17   7  32  1   
 18   8  11  1   
 19   8  12  1   
 20   8  33  1   
 21   9  11  1   
 22   9  13  1   
 23   9  34  1   
 24  10  14  1   
 25  10  15  1   
 26  12  16  ar  
 27  12  17  ar  
 28  13  18  1   
 29  13  19  1   
 30  13  35  1   
 31  14  20  1   
 32  15  21  1   
 33  15  36  1   
 34  15  37  1   
 35  16  22  ar  
 36  16  38  1   
 37  17  23  ar  
 38  17  39  1   
 39  18  40  1   
 40  18  41  1   
 41  18  42  1   
 42  19  43  1   
 43  19  44  1   
 44  19  45  1   
 45  20  21  1   
 46  20  46  1   
 47  20  47  1   
 48  21  48  1   
 49  21  49  1   
 50  22  24  ar  
 51  22  50  1   
 52  23  24  ar  
 53  23  51  1   
 54  24  52  1   
@<TRIPOS>SUBSTRUCTURE
  1 ****   3 GROUP 4 **** **** 0

# MOE 2024.06 (io_trps.svl 2023.06)
