@<TRIPOS>MOLECULE
NONAME
51 54 1 0 0 
SMALL
USER_CHARGES


@<TRIPOS>ATOM
  1 S       -0.8470    -0.9100     0.1850 S.3   1 <1>  -0.0800 
  2 C       -1.6710    -1.1190    -1.3530 C.2   1 <1>  -0.1400 
  3 C       -0.9320     0.8370     0.0500 C.2   1 <1>  -0.1400 
  4 C       -1.9660     0.0770    -1.8950 C.2   1 <1>  -0.1500 
  5 C       -1.9240    -2.5400    -1.8040 C.3   1 <1>   0.5230 
  6 C       -1.5470     1.1870    -1.0960 C.2   1 <1>  -0.1500 
  7 C       -0.3240     1.6360     1.1920 C.3   1 <1>   0.0200 
  8 N       -2.7530    -3.2090    -0.7710 N.4   1 <1>  -0.9590 
  9 C       -0.4660     3.1460     0.9820 C.3   1 <1>  -0.2400 
 10 C       -4.0940    -2.5350    -0.6100 C.3   1 <1>   0.3430 
 11 C       -2.9050    -4.6810    -1.0310 C.3   1 <1>   0.3430 
 12 C       -4.9790    -3.2450     0.4350 C.3   1 <1>   0.1900 
 13 C       -3.8130    -5.3550     0.0150 C.3   1 <1>   0.1100 
 14 N       -5.1260    -4.6800     0.0920 N.3   1 <1>  -0.8100 
 15 C       -6.3600    -2.5670     0.5210 C.3   1 <1>   0.1200 
 16 C       -6.0490    -5.3490     1.0490 C.3   1 <1>   0.3330 
 17 O       -7.1490    -3.2200     1.4690 O.3   1 <1>  -0.5600 
 18 C       -6.3210    -6.7840     0.6060 C.ar  1 <1>  -0.1440 
 19 C       -7.3780    -4.5730     1.1710 C.3   1 <1>   0.1200 
 20 C       -6.1310    -7.8340     1.4940 C.ar  1 <1>  -0.1500 
 21 C       -6.7530    -7.0610    -0.6840 C.ar  1 <1>  -0.1500 
 22 C       -6.3650    -9.1390     1.0970 C.ar  1 <1>  -0.1500 
 23 C       -6.9890    -8.3660    -1.0820 C.ar  1 <1>  -0.1500 
 24 C       -6.7940    -9.4060    -0.1910 C.ar  1 <1>  -0.1500 
 25 H       -2.4660     0.2500    -2.8340 H     1 <1>   0.1500 
 26 H       -0.9800    -3.0500    -1.9150 H     1 <1>   0.0800 
 27 H       -2.4330    -2.5400    -2.7540 H     1 <1>   0.0800 
 28 H       -1.7260     2.1970    -1.4250 H     1 <1>   0.1500 
 29 H       -0.8080     1.3590     2.1120 H     1 <1>   0.0800 
 30 H        0.7190     1.3860     1.2760 H     1 <1>   0.0800 
 31 H       -2.2510    -3.0850     0.1170 H     1 <1>   0.4500 
 32 H       -1.5050     3.4180     0.9150 H     1 <1>   0.0800 
 33 H        0.0350     3.4460     0.0790 H     1 <1>   0.0800 
 34 H       -0.0260     3.6740     1.8090 H     1 <1>   0.0800 
 35 H       -3.9530    -1.5080    -0.3100 H     1 <1>   0.0800 
 36 H       -4.6160    -2.5370    -1.5520 H     1 <1>   0.0800 
 37 H       -3.3450    -4.8350    -2.0030 H     1 <1>   0.0800 
 38 H       -1.9400    -5.1600    -1.0220 H     1 <1>   0.0800 
 39 H       -4.5110    -3.1490     1.4000 H     1 <1>   0.0800 
 40 H       -3.3330    -5.3460     0.9790 H     1 <1>   0.0800 
 41 H       -3.9490    -6.3840    -0.2740 H     1 <1>   0.0800 
 42 H       -6.8690    -2.5950    -0.4270 H     1 <1>   0.0800 
 43 H       -6.2620    -1.5420     0.8360 H     1 <1>   0.0800 
 44 H       -5.5920    -5.3660     2.0240 H     1 <1>   0.0800 
 45 H       -7.9740    -4.9890     1.9640 H     1 <1>   0.0800 
 46 H       -7.9380    -4.6330     0.2550 H     1 <1>   0.0800 
 47 H       -5.8000    -7.6470     2.5010 H     1 <1>   0.1500 
 48 H       -6.9050    -6.2580    -1.3840 H     1 <1>   0.1500 
 49 H       -6.2160    -9.9490     1.7900 H     1 <1>   0.1500 
 50 H       -7.3260    -8.5720    -2.0830 H     1 <1>   0.1500 
 51 H       -6.9770   -10.4200    -0.4990 H     1 <1>   0.1500 
@<TRIPOS>BOND
  1   1   2  1   
  2   1   3  1   
  3   2   4  2   
  4   2   5  1   
  5   3   6  2   
  6   3   7  1   
  7   4   6  1   
  8   4  25  1   
  9   5   8  1   
 10   5  26  1   
 11   5  27  1   
 12   6  28  1   
 13   7   9  1   
 14   7  29  1   
 15   7  30  1   
 16   8  10  1   
 17   8  11  1   
 18   8  31  1   
 19   9  32  1   
 20   9  33  1   
 21   9  34  1   
 22  10  12  1   
 23  10  35  1   
 24  10  36  1   
 25  11  13  1   
 26  11  37  1   
 27  11  38  1   
 28  12  14  1   
 29  12  15  1   
 30  12  39  1   
 31  13  14  1   
 32  13  40  1   
 33  13  41  1   
 34  14  16  1   
 35  15  17  1   
 36  15  42  1   
 37  15  43  1   
 38  16  18  1   
 39  16  19  1   
 40  16  44  1   
 41  17  19  1   
 42  18  20  ar  
 43  18  21  ar  
 44  19  45  1   
 45  19  46  1   
 46  20  22  ar  
 47  20  47  1   
 48  21  23  ar  
 49  21  48  1   
 50  22  24  ar  
 51  22  49  1   
 52  23  24  ar  
 53  23  50  1   
 54  24  51  1   
@<TRIPOS>SUBSTRUCTURE
  1 ****  12 GROUP 4 **** **** 0

# MOE 2024.06 (io_trps.svl 2023.06)
