@<TRIPOS>MOLECULE
NONAME
46 47 1 0 0 
SMALL
USER_CHARGES


@<TRIPOS>ATOM
  1 CL       0.6190    -0.1140     0.5540 Cl    1 <1>  -0.1770 
  2 C        0.3500    -1.7930     0.1580 C.ar  1 <1>   0.1770 
  3 C        1.3500    -2.7330     0.3610 C.ar  1 <1>  -0.1440 
  4 C       -0.8780    -2.1540    -0.3620 C.ar  1 <1>  -0.1500 
  5 C        1.0890    -4.0550     0.0360 C.ar  1 <1>  -0.1500 
  6 C        2.7060    -2.3310     0.9210 C.3   1 <1>  -0.0960 
  7 C       -1.1190    -3.4790    -0.6800 C.ar  1 <1>  -0.1500 
  8 C       -0.1440    -4.4580    -0.4780 C.ar  1 <1>   0.0860 
  9 C       -0.3980    -5.8500    -0.7970 C.2   1 <1>   0.5440 
 10 O        0.3790    -6.4430    -1.5200 O.2   1 <1>  -0.5700 
 11 N       -1.4900    -6.5290    -0.2960 N.am  1 <1>  -0.6600 
 12 C       -1.9220    -7.8340    -0.8900 C.3   1 <1>   0.1400 
 13 C       -2.2140    -6.1190     0.9390 C.3   1 <1>   0.1400 
 14 C       -3.4460    -7.8570    -1.1030 C.3   1 <1>   0.2000 
 15 C       -3.7250    -6.1140     0.6740 C.3   1 <1>  -0.1600 
 16 O       -3.8190    -9.1080    -1.5870 O.3   1 <1>  -0.6800 
 17 C       -4.2570    -7.4840     0.1730 C.3   1 <1>   0.0000 
 18 C       -4.0490    -8.5790     1.2580 C.3   1 <1>   0.1200 
 19 C       -5.7830    -7.3890    -0.1290 C.3   1 <1>  -0.1600 
 20 O       -4.6760    -8.2500     2.4530 O.3   1 <1>  -0.6800 
 21 C       -6.2110    -6.4450    -1.2690 C.3   1 <1>  -0.1600 
 22 C       -7.7350    -6.4310    -1.4150 C.3   1 <1>  -0.2400 
 23 H       -1.6310    -1.4020    -0.5170 H     1 <1>   0.1500 
 24 H        1.8490    -4.8060     0.1740 H     1 <1>   0.1500 
 25 H        3.3580    -3.1820     1.0070 H     1 <1>   0.0800 
 26 H        2.5870    -1.8930     1.8960 H     1 <1>   0.0800 
 27 H        3.1720    -1.6100     0.2730 H     1 <1>   0.0800 
 28 H       -2.0690    -3.7660    -1.0950 H     1 <1>   0.1500 
 29 H       -1.4440    -7.9780    -1.8440 H     1 <1>   0.0800 
 30 H       -1.6140    -8.6290    -0.2370 H     1 <1>   0.0800 
 31 H       -1.9710    -6.8050     1.7310 H     1 <1>   0.0800 
 32 H       -1.9030    -5.1400     1.2590 H     1 <1>   0.0800 
 33 H       -3.6610    -7.1520    -1.8860 H     1 <1>   0.0800 
 34 H       -4.2410    -5.8150     1.5680 H     1 <1>   0.0800 
 35 H       -3.9140    -5.3550    -0.0610 H     1 <1>   0.0800 
 36 H       -3.6390    -9.8090    -0.9340 H     1 <1>   0.4000 
 37 H       -3.0080    -8.7370     1.4750 H     1 <1>   0.0800 
 38 H       -4.4700    -9.5150     0.9330 H     1 <1>   0.0800 
 39 H       -6.1440    -8.3750    -0.3670 H     1 <1>   0.0800 
 40 H       -6.2950    -7.0830     0.7680 H     1 <1>   0.0800 
 41 H       -4.3760    -7.3810     2.7780 H     1 <1>   0.4000 
 42 H       -5.8790    -5.4400    -1.0790 H     1 <1>   0.0800 
 43 H       -5.7870    -6.7730    -2.2020 H     1 <1>   0.0800 
 44 H       -8.1980    -6.0850    -0.5080 H     1 <1>   0.0800 
 45 H       -8.1000    -7.4190    -1.6350 H     1 <1>   0.0800 
 46 H       -8.0220    -5.7750    -2.2180 H     1 <1>   0.0800 
@<TRIPOS>BOND
  1   1   2  1   
  2   2   3  ar  
  3   2   4  ar  
  4   3   5  ar  
  5   3   6  1   
  6   4   7  ar  
  7   4  23  1   
  8   5   8  ar  
  9   5  24  1   
 10   6  25  1   
 11   6  26  1   
 12   6  27  1   
 13   7   8  ar  
 14   7  28  1   
 15   8   9  1   
 16   9  10  2   
 17   9  11  am  
 18  11  12  1   
 19  11  13  1   
 20  12  14  1   
 21  12  29  1   
 22  12  30  1   
 23  13  15  1   
 24  13  31  1   
 25  13  32  1   
 26  14  16  1   
 27  14  17  1   
 28  14  33  1   
 29  15  17  1   
 30  15  34  1   
 31  15  35  1   
 32  16  36  1   
 33  17  18  1   
 34  17  19  1   
 35  18  20  1   
 36  18  37  1   
 37  18  38  1   
 38  19  21  1   
 39  19  39  1   
 40  19  40  1   
 41  20  41  1   
 42  21  22  1   
 43  21  42  1   
 44  21  43  1   
 45  22  44  1   
 46  22  45  1   
 47  22  46  1   
@<TRIPOS>SUBSTRUCTURE
  1 ****  11 GROUP 4 **** **** 0

# MOE 2024.06 (io_trps.svl 2023.06)
