@<TRIPOS>MOLECULE
NONAME
53 55 1 0 0 
SMALL
USER_CHARGES


@<TRIPOS>ATOM
  1 O       -0.6660     0.3400    -1.4610 O.2   1 <1>  -0.5700 
  2 C       -1.2430     1.1520    -0.7630 C.2   1 <1>   0.6160 
  3 N       -2.5330     0.8810    -0.3530 N.am  1 <1>  -0.6600 
  4 C       -0.5640     2.3700    -0.4030 C.2   1 <1>  -0.1360 
  5 C       -3.3170    -0.2330    -0.9740 C.3   1 <1>   0.1400 
  6 C       -3.1900     1.5550     0.8030 C.3   1 <1>   0.1400 
  7 C        0.7540     2.6410    -0.5540 C.2   1 <1>  -0.1780 
  8 C       -4.6730     0.2400    -1.5200 C.3   1 <1>   0.1400 
  9 C       -4.1770     2.6080     0.2870 C.3   1 <1>  -0.1600 
 10 C        1.4780     3.8430    -0.2170 C.ar  1 <1>   0.0280 
 11 N       -5.6070     0.6300    -0.4170 N.am  1 <1>  -0.6600 
 12 C       -5.5830     2.0740    -0.0330 C.3   1 <1>   0.1400 
 13 C        2.8690     3.8570    -0.2990 C.ar  1 <1>  -0.1500 
 14 C        0.8480     5.0180     0.1950 C.ar  1 <1>  -0.1500 
 15 C       -6.4490    -0.2490     0.2200 C.2   1 <1>   0.5690 
 16 C        3.6020     4.9860     0.0180 C.ar  1 <1>  -0.1500 
 17 C        1.5750     6.1510     0.5140 C.ar  1 <1>  -0.1500 
 18 O       -7.1580     0.0990     1.1360 O.2   1 <1>  -0.5700 
 19 C       -6.5030    -1.7070    -0.2040 C.3   1 <1>  -0.0990 
 20 C        2.9550     6.1380     0.4270 C.ar  1 <1>  -0.1500 
 21 C       -7.5380    -2.5180     0.5890 C.3   1 <1>   0.0960 
 22 N       -7.4830    -3.9460     0.2200 N.pl3 1 <1>   0.3140 
 23 N       -7.5010    -4.3640    -1.0610 N.2   1 <1>  -0.7070 
 24 C       -7.4030    -4.9890     1.0710 C.2   1 <1>  -0.3020 
 25 C       -7.4360    -5.6580    -0.9890 C.2   1 <1>   0.1390 
 26 C       -7.3720    -6.1110     0.3240 C.2   1 <1>  -0.1810 
 27 C       -7.2880    -7.5510     0.7840 C.3   1 <1>  -0.0590 
 28 H       -1.2050     3.1150     0.0160 H     1 <1>   0.1500 
 29 H       -2.7640    -0.6590    -1.7930 H     1 <1>   0.0800 
 30 H       -3.4630    -1.0120    -0.2480 H     1 <1>   0.0800 
 31 H       -3.6980     0.8280     1.4160 H     1 <1>   0.0800 
 32 H       -2.4460     2.0220     1.4230 H     1 <1>   0.0800 
 33 H        1.3730     1.8700    -0.9810 H     1 <1>   0.1500 
 34 H       -5.1070    -0.5490    -2.1070 H     1 <1>   0.0800 
 35 H       -4.5180     1.0740    -2.1830 H     1 <1>   0.0800 
 36 H       -4.2880     3.3680     1.0380 H     1 <1>   0.0800 
 37 H       -3.7690     3.0900    -0.5830 H     1 <1>   0.0800 
 38 H       -6.0160     2.6550    -0.8290 H     1 <1>   0.0800 
 39 H       -6.2010     2.2250     0.8360 H     1 <1>   0.0800 
 40 H        3.3870     2.9690    -0.6150 H     1 <1>   0.1500 
 41 H       -0.2210     5.0590     0.2660 H     1 <1>   0.1500 
 42 H        4.6750     4.9690    -0.0540 H     1 <1>   0.1500 
 43 H        1.0680     7.0460     0.8300 H     1 <1>   0.1500 
 44 H       -6.7620    -1.7510    -1.2450 H     1 <1>   0.0800 
 45 H       -5.5330    -2.1450    -0.0600 H     1 <1>   0.0800 
 46 H        3.5220     7.0180     0.6740 H     1 <1>   0.1500 
 47 H       -8.5280    -2.1530     0.3840 H     1 <1>   0.0800 
 48 H       -7.3500    -2.4290     1.6430 H     1 <1>   0.0800 
 49 H       -7.3760    -4.8750     2.1390 H     1 <1>   0.1500 
 50 H       -7.4340    -6.2980    -1.8550 H     1 <1>   0.1500 
 51 H       -6.4030    -8.0120     0.3870 H     1 <1>   0.0800 
 52 H       -8.1510    -8.0950     0.4430 H     1 <1>   0.0800 
 53 H       -7.2520    -7.5960     1.8580 H     1 <1>   0.0800 
@<TRIPOS>BOND
  1   1   2  2   
  2   2   3  am  
  3   2   4  1   
  4   3   5  1   
  5   3   6  1   
  6   4   7  2   
  7   4  28  1   
  8   5   8  1   
  9   5  29  1   
 10   5  30  1   
 11   6   9  1   
 12   6  31  1   
 13   6  32  1   
 14   7  10  1   
 15   7  33  1   
 16   8  11  1   
 17   8  34  1   
 18   8  35  1   
 19   9  12  1   
 20   9  36  1   
 21   9  37  1   
 22  10  13  ar  
 23  10  14  ar  
 24  11  12  1   
 25  11  15  am  
 26  12  38  1   
 27  12  39  1   
 28  13  16  ar  
 29  13  40  1   
 30  14  17  ar  
 31  14  41  1   
 32  15  18  2   
 33  15  19  1   
 34  16  20  ar  
 35  16  42  1   
 36  17  20  ar  
 37  17  43  1   
 38  19  21  1   
 39  19  44  1   
 40  19  45  1   
 41  20  46  1   
 42  21  22  1   
 43  21  47  1   
 44  21  48  1   
 45  22  23  1   
 46  22  24  1   
 47  23  25  2   
 48  24  26  2   
 49  24  49  1   
 50  25  26  1   
 51  25  50  1   
 52  26  27  1   
 53  27  51  1   
 54  27  52  1   
 55  27  53  1   
@<TRIPOS>SUBSTRUCTURE
  1 ****   5 GROUP 4 **** **** 0

# MOE 2024.06 (io_trps.svl 2023.06)
