@<TRIPOS>MOLECULE
NONAME
40 42 1 0 0 
SMALL
USER_CHARGES


@<TRIPOS>ATOM
  1 CL      -0.2780    -0.2110     0.3350 Cl    1 <1>  -0.1770 
  2 C        1.2260    -1.1170     0.3090 C.ar  1 <1>   0.1770 
  3 C        1.2300    -2.4940     0.1210 C.ar  1 <1>   0.4100 
  4 C        2.4250    -0.4800     0.4710 C.ar  1 <1>   0.1600 
  5 N        2.3710    -3.1600     0.0980 N.ar  1 <1>  -0.6200 
  6 N        0.0630    -3.2060    -0.0480 N.pl3 1 <1>  -0.8690 
  7 N        3.5720    -1.1390     0.4510 N.ar  1 <1>  -0.6200 
  8 C        3.4700    -2.4460     0.2650 C.ar  1 <1>   0.4770 
  9 C       -0.0150    -4.6480    -0.3780 C.3   1 <1>   0.2090 
 10 C        4.7640    -3.2220     0.2390 C.3   1 <1>  -0.0970 
 11 C       -1.3280    -5.2290     0.1570 C.3   1 <1>  -0.0800 
 12 C       -1.4720    -6.7150    -0.1670 C.3   1 <1>   0.2090 
 13 C       -2.5840    -4.5910    -0.4380 C.3   1 <1>  -0.1600 
 14 N       -2.9220    -6.9430    -0.4010 N.pl3 1 <1>  -0.8380 
 15 C       -3.6530    -5.6590    -0.2740 C.3   1 <1>   0.2090 
 16 C       -3.4890    -8.1750    -0.0450 C.ar  1 <1>   0.1000 
 17 C       -2.8200    -9.3540    -0.3770 C.ar  1 <1>  -0.1500 
 18 C       -4.7140    -8.2750     0.6210 C.ar  1 <1>  -0.1500 
 19 C       -3.3360   -10.5940    -0.0440 C.ar  1 <1>  -0.1500 
 20 C       -5.2460    -9.5070     0.9610 C.ar  1 <1>  -0.1500 
 21 C       -4.5430   -10.6460     0.6240 C.ar  1 <1>   0.1900 
 22 F       -5.0390   -11.8140     0.9450 F     1 <1>  -0.1900 
 23 H        2.4530     0.5860     0.6190 H     1 <1>   0.1500 
 24 H       -0.8040    -2.6750    -0.1630 H     1 <1>   0.4000 
 25 H        0.8160    -5.1700     0.0660 H     1 <1>   0.0800 
 26 H        0.0390    -4.7680    -1.4460 H     1 <1>   0.0800 
 27 H        4.8440    -3.7540    -0.6910 H     1 <1>   0.0800 
 28 H        4.7750    -3.9250     1.0500 H     1 <1>   0.0800 
 29 H        5.6050    -2.5600     0.3370 H     1 <1>   0.0800 
 30 H       -1.3450    -5.1260     1.2280 H     1 <1>   0.0800 
 31 H       -1.1120    -7.3250     0.6440 H     1 <1>   0.0800 
 32 H       -0.9380    -6.9640    -1.0690 H     1 <1>   0.0800 
 33 H       -2.4490    -4.3980    -1.4880 H     1 <1>   0.0800 
 34 H       -2.8580    -3.6790     0.0600 H     1 <1>   0.0800 
 35 H       -4.4190    -5.5790    -1.0260 H     1 <1>   0.0800 
 36 H       -4.0880    -5.5820     0.7070 H     1 <1>   0.0800 
 37 H       -1.8910    -9.2970    -0.9110 H     1 <1>   0.1500 
 38 H       -5.2630    -7.3920     0.8800 H     1 <1>   0.1500 
 39 H       -2.8190   -11.5020    -0.2970 H     1 <1>   0.1500 
 40 H       -6.1850    -9.5870     1.4760 H     1 <1>   0.1500 
@<TRIPOS>BOND
  1   1   2  1   
  2   2   3  ar  
  3   2   4  ar  
  4   3   5  ar  
  5   3   6  1   
  6   4   7  ar  
  7   4  23  1   
  8   5   8  ar  
  9   6   9  1   
 10   6  24  1   
 11   7   8  ar  
 12   8  10  1   
 13   9  11  1   
 14   9  25  1   
 15   9  26  1   
 16  10  27  1   
 17  10  28  1   
 18  10  29  1   
 19  11  12  1   
 20  11  13  1   
 21  11  30  1   
 22  12  14  1   
 23  12  31  1   
 24  12  32  1   
 25  13  15  1   
 26  13  33  1   
 27  13  34  1   
 28  14  15  1   
 29  14  16  1   
 30  15  35  1   
 31  15  36  1   
 32  16  17  ar  
 33  16  18  ar  
 34  17  19  ar  
 35  17  37  1   
 36  18  20  ar  
 37  18  38  1   
 38  19  21  ar  
 39  19  39  1   
 40  20  21  ar  
 41  20  40  1   
 42  21  22  1   
@<TRIPOS>SUBSTRUCTURE
  1 ****  11 GROUP 4 **** **** 0

# MOE 2024.06 (io_trps.svl 2023.06)
