@<TRIPOS>MOLECULE
NONAME
45 47 1 0 0 
SMALL
USER_CHARGES


@<TRIPOS>ATOM
  1 O       -2.2910     0.1010     1.8590 O.2   1 <1>  -0.5700 
  2 C       -2.8120     0.5150     0.8400 C.2   1 <1>   0.5440 
  3 N       -2.7010     1.8600     0.5350 N.am  1 <1>  -0.6600 
  4 C       -3.5360    -0.4140     0.0050 C.ar  1 <1>   0.0860 
  5 C       -1.7290     2.7330     1.2490 C.3   1 <1>   0.0600 
  6 C       -3.6610     2.5940    -0.3350 C.3   1 <1>   0.0600 
  7 C       -4.3550    -1.3820     0.5810 C.ar  1 <1>   0.1600 
  8 C       -3.4540    -0.4160    -1.3840 C.ar  1 <1>  -0.1500 
  9 N       -5.0780    -2.2820    -0.0680 N.ar  1 <1>  -0.6200 
 10 C       -4.1880    -1.3490    -2.0750 C.ar  1 <1>  -0.1500 
 11 C       -4.9820    -2.2660    -1.3930 C.ar  1 <1>   0.4100 
 12 N       -5.7050    -3.1840    -2.1150 N.pl3 1 <1>  -0.8690 
 13 C       -6.1520    -4.5390    -1.6800 C.3   1 <1>   0.4570 
 14 C       -7.4070    -4.4670    -0.7960 C.2   1 <1>   0.1820 
 15 C       -5.0000    -5.3170    -1.0220 C.3   1 <1>  -0.1600 
 16 N       -7.5100    -3.6530     0.2980 N.pl3 1 <1>  -0.7000 
 17 C       -8.5800    -5.1260    -0.9010 C.2   1 <1>   0.2000 
 18 C       -5.3230    -6.8040    -0.8030 C.3   1 <1>  -0.2400 
 19 C       -8.7030    -3.8030     0.8390 C.cat 1 <1>   0.9620 
 20 N       -9.4040    -4.7170     0.1330 N.pl3 1 <1>  -0.6290 
 21 N       -9.1650    -3.1580     1.9140 N.2   1 <1>  -0.6120 
 22 C      -10.6790    -5.0350     0.5100 C.2   1 <1>   0.2290 
 23 C      -10.3740    -3.4610     2.2700 C.2   1 <1>   0.3760 
 24 C      -11.1810    -4.4000     1.5990 C.2   1 <1>  -0.1360 
 25 H       -0.9500     2.1410     1.7000 H     1 <1>   0.0800 
 26 H       -2.2360     3.2820     2.0230 H     1 <1>   0.0800 
 27 H       -1.2760     3.4220     0.5580 H     1 <1>   0.0800 
 28 H       -4.5190     1.9870    -0.5610 H     1 <1>   0.0800 
 29 H       -3.1750     2.8780    -1.2520 H     1 <1>   0.0800 
 30 H       -4.0020     3.4830     0.1690 H     1 <1>   0.0800 
 31 H       -4.4040    -1.3970     1.6580 H     1 <1>   0.1500 
 32 H       -2.8230     0.2930    -1.8910 H     1 <1>   0.1500 
 33 H       -4.1490    -1.3780    -3.1470 H     1 <1>   0.1500 
 34 H       -5.5800    -3.1220    -3.1260 H     1 <1>   0.4000 
 35 H       -6.4230    -5.0780    -2.5720 H     1 <1>   0.0800 
 36 H       -4.7580    -4.8790    -0.0700 H     1 <1>   0.0800 
 37 H       -4.1290    -5.2450    -1.6500 H     1 <1>   0.0800 
 38 H       -6.7770    -2.9820     0.5740 H     1 <1>   0.4500 
 39 H       -8.8850    -5.8540    -1.6350 H     1 <1>   0.1500 
 40 H       -6.1440    -6.9270    -0.1190 H     1 <1>   0.0800 
 41 H       -4.4650    -7.3010    -0.3820 H     1 <1>   0.0800 
 42 H       -5.5630    -7.2870    -1.7350 H     1 <1>   0.0800 
 43 H      -11.2300    -5.7660    -0.0610 H     1 <1>   0.1500 
 44 H      -10.7930    -2.9680     3.1310 H     1 <1>   0.0600 
 45 H      -12.1740    -4.5900     1.9640 H     1 <1>   0.1500 
@<TRIPOS>BOND
  1   1   2  2   
  2   2   3  am  
  3   2   4  1   
  4   3   5  1   
  5   3   6  1   
  6   4   7  ar  
  7   4   8  ar  
  8   5  25  1   
  9   5  26  1   
 10   5  27  1   
 11   6  28  1   
 12   6  29  1   
 13   6  30  1   
 14   7   9  ar  
 15   7  31  1   
 16   8  10  ar  
 17   8  32  1   
 18   9  11  ar  
 19  10  11  ar  
 20  10  33  1   
 21  11  12  1   
 22  12  13  1   
 23  12  34  1   
 24  13  14  1   
 25  13  15  1   
 26  13  35  1   
 27  14  16  1   
 28  14  17  2   
 29  15  18  1   
 30  15  36  1   
 31  15  37  1   
 32  16  19  ar  
 33  16  38  1   
 34  17  20  1   
 35  17  39  1   
 36  18  40  1   
 37  18  41  1   
 38  18  42  1   
 39  19  20  ar  
 40  19  21  1   
 41  20  22  1   
 42  21  23  2   
 43  22  24  2   
 44  22  43  1   
 45  23  24  1   
 46  23  44  1   
 47  24  45  1   
@<TRIPOS>SUBSTRUCTURE
  1 ****   9 GROUP 4 **** **** 0

# MOE 2024.06 (io_trps.svl 2023.06)
