@<TRIPOS>MOLECULE
NONAME
55 56 1 0 0 
SMALL
USER_CHARGES


@<TRIPOS>ATOM
  1 O       -2.5670     0.0300    -1.4450 O.2   1 <1>  -0.5700 
  2 C       -3.1740     0.5850    -0.5540 C.2   1 <1>   0.5690 
  3 N       -4.3110     0.0110    -0.0410 N.am  1 <1>  -0.6600 
  4 C       -2.6080     1.9000     0.0000 C.3   1 <1>  -0.0190 
  5 C       -5.0300    -1.0510    -0.8060 C.3   1 <1>   0.2840 
  6 C       -5.0600     0.5030     1.1560 C.3   1 <1>   0.0600 
  7 C       -1.9430     2.7610    -1.0950 C.3   1 <1>  -0.1600 
  8 C       -1.6110     1.6310     1.1560 C.3   1 <1>  -0.1600 
  9 C       -5.1520    -2.3540    -0.0160 C.ar  1 <1>  -0.1430 
 10 C       -1.4790     4.1370    -0.5680 C.3   1 <1>   0.2000 
 11 C       -0.6550     2.8060     1.4440 C.3   1 <1>  -0.1600 
 12 C       -4.0650    -3.0560     0.5120 C.ar  1 <1>  -0.1440 
 13 C       -6.4320    -2.8620     0.1650 C.ar  1 <1>  -0.1500 
 14 O       -0.2850     4.4760    -1.2280 O.3   1 <1>  -0.5600 
 15 C       -1.2290     4.1400     0.9620 C.3   1 <1>   0.2000 
 16 C       -4.2870    -4.2410     1.2030 C.ar  1 <1>  -0.1500 
 17 C       -2.6170    -2.5960     0.3870 C.3   1 <1>   0.4860 
 18 C       -6.6410    -4.0420     0.8520 C.ar  1 <1>  -0.1500 
 19 C       -0.4440     5.0110    -2.5050 C.3   1 <1>   0.0400 
 20 O       -0.3210     5.1310     1.2720 O.3   1 <1>  -0.6800 
 21 C       -5.5660    -4.7330     1.3730 C.ar  1 <1>  -0.1500 
 22 N       -2.1190    -2.6680    -1.0180 N.4   1 <1>  -0.9590 
 23 C       -2.5720    -3.8850    -1.7590 C.3   1 <1>   0.2630 
 24 C       -0.6400    -2.5010    -1.0760 C.3   1 <1>   0.2630 
 25 H       -3.4280     2.4800     0.3810 H     1 <1>   0.0800 
 26 H       -6.0100    -0.6790    -1.0490 H     1 <1>   0.0800 
 27 H       -4.5410    -1.2520    -1.7430 H     1 <1>   0.0800 
 28 H       -5.4570    -0.3280     1.7130 H     1 <1>   0.0800 
 29 H       -5.8770     1.1290     0.8410 H     1 <1>   0.0800 
 30 H       -4.4220     1.0650     1.8130 H     1 <1>   0.0800 
 31 H       -2.6350     2.9100    -1.9050 H     1 <1>   0.0800 
 32 H       -1.0910     2.2250    -1.4790 H     1 <1>   0.0800 
 33 H       -2.1660     1.4040     2.0490 H     1 <1>   0.0800 
 34 H       -1.0130     0.7670     0.9220 H     1 <1>   0.0800 
 35 H       -2.2200     4.8890    -0.7820 H     1 <1>   0.0800 
 36 H        0.2750     2.6340     0.9270 H     1 <1>   0.0800 
 37 H       -0.4480     2.8570     2.4990 H     1 <1>   0.0800 
 38 H       -7.2900    -2.3430    -0.2310 H     1 <1>   0.1500 
 39 H       -2.1410     4.3530     1.4920 H     1 <1>   0.0800 
 40 H       -3.4670    -4.7980     1.6230 H     1 <1>   0.1500 
 41 H       -2.0040    -3.2230     1.0130 H     1 <1>   0.0800 
 42 H       -2.5320    -1.5870     0.7530 H     1 <1>   0.0800 
 43 H       -7.6410    -4.4220     0.9840 H     1 <1>   0.1500 
 44 H        0.5330     5.2300    -2.8990 H     1 <1>   0.0800 
 45 H       -1.0190     5.9180    -2.4420 H     1 <1>   0.0800 
 46 H       -0.9350     4.2930    -3.1390 H     1 <1>   0.0800 
 47 H        0.2800     5.1990     0.4960 H     1 <1>   0.4000 
 48 H       -5.7290    -5.6520     1.9110 H     1 <1>   0.1500 
 49 H       -2.5130    -1.8170    -1.4750 H     1 <1>   0.4500 
 50 H       -2.1970    -4.7750    -1.2810 H     1 <1>   0.0800 
 51 H       -2.2130    -3.8590    -2.7750 H     1 <1>   0.0800 
 52 H       -3.6490    -3.9340    -1.7780 H     1 <1>   0.0800 
 53 H       -0.1470    -3.3180    -0.5740 H     1 <1>   0.0800 
 54 H       -0.3530    -1.5740    -0.6040 H     1 <1>   0.0800 
 55 H       -0.3090    -2.4740    -2.1010 H     1 <1>   0.0800 
@<TRIPOS>BOND
  1   1   2  2   
  2   2   3  am  
  3   2   4  1   
  4   3   5  1   
  5   3   6  1   
  6   4   7  1   
  7   4   8  1   
  8   4  25  1   
  9   5   9  1   
 10   5  26  1   
 11   5  27  1   
 12   6  28  1   
 13   6  29  1   
 14   6  30  1   
 15   7  10  1   
 16   7  31  1   
 17   7  32  1   
 18   8  11  1   
 19   8  33  1   
 20   8  34  1   
 21   9  12  ar  
 22   9  13  ar  
 23  10  14  1   
 24  10  15  1   
 25  10  35  1   
 26  11  15  1   
 27  11  36  1   
 28  11  37  1   
 29  12  16  ar  
 30  12  17  1   
 31  13  18  ar  
 32  13  38  1   
 33  14  19  1   
 34  15  20  1   
 35  15  39  1   
 36  16  21  ar  
 37  16  40  1   
 38  17  22  1   
 39  17  41  1   
 40  17  42  1   
 41  18  21  ar  
 42  18  43  1   
 43  19  44  1   
 44  19  45  1   
 45  19  46  1   
 46  20  47  1   
 47  21  48  1   
 48  22  23  1   
 49  22  24  1   
 50  22  49  1   
 51  23  50  1   
 52  23  51  1   
 53  23  52  1   
 54  24  53  1   
 55  24  54  1   
 56  24  55  1   
@<TRIPOS>SUBSTRUCTURE
  1 ****   2 GROUP 4 **** **** 0

# MOE 2024.06 (io_trps.svl 2023.06)
