@<TRIPOS>MOLECULE
NONAME
56 59 1 0 0 
SMALL
USER_CHARGES


@<TRIPOS>ATOM
  1 O       -0.7370     0.7840    -0.0830 O.3   1 <1>  -0.3630 
  2 C       -1.5930     1.4400    -0.9010 C.ar  1 <1>   0.0830 
  3 C        0.5640     1.2710     0.1680 C.3   1 <1>   0.2640 
  4 C       -2.8180     0.8330    -1.1190 C.ar  1 <1>  -0.1500 
  5 C       -1.3120     2.6580    -1.5120 C.ar  1 <1>  -0.1500 
  6 C        1.2770     0.2980     1.0940 C.ar  1 <1>  -0.1440 
  7 C       -3.7710     1.4300    -1.9300 C.ar  1 <1>  -0.1440 
  8 C       -2.2560     3.2520    -2.3300 C.ar  1 <1>  -0.1500 
  9 C        1.4180     0.5850     2.4440 C.ar  1 <1>  -0.1500 
 10 C        1.7940    -0.8870     0.5930 C.ar  1 <1>  -0.1500 
 11 C       -3.4810     2.6420    -2.5400 C.ar  1 <1>  -0.1500 
 12 C       -5.1170     0.7630    -2.1370 C.3   1 <1>   0.4860 
 13 C        2.0750    -0.3000     3.2810 C.ar  1 <1>  -0.1500 
 14 C        2.4510    -1.7720     1.4300 C.ar  1 <1>  -0.1500 
 15 N       -5.8780     0.8290    -0.8620 N.4   1 <1>  -0.9590 
 16 C        2.5930    -1.4790     2.7750 C.ar  1 <1>  -0.1500 
 17 C       -7.1150    -0.0230    -0.9210 C.3   1 <1>   0.3430 
 18 C       -6.1640     2.2260    -0.4390 C.3   1 <1>   0.3430 
 19 C       -8.1750     0.3260     0.1560 C.3   1 <1>   0.0000 
 20 C       -6.6640     2.2200     1.0110 C.3   1 <1>  -0.1600 
 21 C       -8.9530    -0.9340     0.5760 C.3   1 <1>   0.2000 
 22 C       -7.5000     0.9790     1.3870 C.3   1 <1>  -0.1600 
 23 C       -9.2880     1.2370    -0.4070 C.3   1 <1>  -0.1600 
 24 O       -9.1620    -1.7290    -0.5410 O.3   1 <1>  -0.6800 
 25 C      -10.3110    -0.4380     1.0720 C.3   1 <1>  -0.1600 
 26 C      -10.5560     0.9150     0.3910 C.3   1 <1>  -0.1600 
 27 H        1.0870     1.3460    -0.7690 H     1 <1>   0.0800 
 28 H        0.4840     2.2410     0.6240 H     1 <1>   0.0800 
 29 H       -2.9980    -0.1140    -0.6420 H     1 <1>   0.1500 
 30 H       -0.3710     3.1560    -1.3660 H     1 <1>   0.1500 
 31 H       -2.0340     4.1930    -2.8060 H     1 <1>   0.1500 
 32 H        1.0170     1.4960     2.8510 H     1 <1>   0.1500 
 33 H        1.6850    -1.1250    -0.4500 H     1 <1>   0.1500 
 34 H       -4.1970     3.1250    -3.1850 H     1 <1>   0.1500 
 35 H       -4.9630    -0.2640    -2.4240 H     1 <1>   0.0800 
 36 H       -5.6610     1.2610    -2.9230 H     1 <1>   0.0800 
 37 H        2.1820    -0.0720     4.3270 H     1 <1>   0.1500 
 38 H        2.8510    -2.6900     1.0340 H     1 <1>   0.1500 
 39 H       -5.2630     0.4430    -0.1370 H     1 <1>   0.4500 
 40 H        3.1030    -2.1680     3.4250 H     1 <1>   0.1500 
 41 H       -7.5800     0.0610    -1.8890 H     1 <1>   0.0800 
 42 H       -6.8300    -1.0550    -0.7960 H     1 <1>   0.0800 
 43 H       -5.2790     2.8380    -0.5100 H     1 <1>   0.0800 
 44 H       -6.9210     2.6460    -1.0810 H     1 <1>   0.0800 
 45 H       -5.8210     2.2960     1.6770 H     1 <1>   0.0800 
 46 H       -7.2530     3.1080     1.1600 H     1 <1>   0.0800 
 47 H       -8.4380    -1.5250     1.3170 H     1 <1>   0.0800 
 48 H       -8.2330     1.2530     2.1280 H     1 <1>   0.0800 
 49 H       -6.8480     0.2530     1.8450 H     1 <1>   0.0800 
 50 H       -9.0590     2.2860    -0.3600 H     1 <1>   0.0800 
 51 H       -9.4760     0.9800    -1.4360 H     1 <1>   0.0800 
 52 H       -9.8370    -2.4110    -0.3450 H     1 <1>   0.4000 
 53 H      -11.1030    -1.1390     0.8730 H     1 <1>   0.0800 
 54 H      -10.2590    -0.2840     2.1350 H     1 <1>   0.0800 
 55 H      -11.4110     0.8680    -0.2620 H     1 <1>   0.0800 
 56 H      -10.7350     1.6720     1.1360 H     1 <1>   0.0800 
@<TRIPOS>BOND
  1   1   2  1   
  2   1   3  1   
  3   2   4  ar  
  4   2   5  ar  
  5   3   6  1   
  6   3  27  1   
  7   3  28  1   
  8   4   7  ar  
  9   4  29  1   
 10   5   8  ar  
 11   5  30  1   
 12   6   9  ar  
 13   6  10  ar  
 14   7  11  ar  
 15   7  12  1   
 16   8  11  ar  
 17   8  31  1   
 18   9  13  ar  
 19   9  32  1   
 20  10  14  ar  
 21  10  33  1   
 22  11  34  1   
 23  12  15  1   
 24  12  35  1   
 25  12  36  1   
 26  13  16  ar  
 27  13  37  1   
 28  14  16  ar  
 29  14  38  1   
 30  15  17  1   
 31  15  18  1   
 32  15  39  1   
 33  16  40  1   
 34  17  19  1   
 35  17  41  1   
 36  17  42  1   
 37  18  20  1   
 38  18  43  1   
 39  18  44  1   
 40  19  21  1   
 41  19  22  1   
 42  19  23  1   
 43  20  22  1   
 44  20  45  1   
 45  20  46  1   
 46  21  24  1   
 47  21  25  1   
 48  21  47  1   
 49  22  48  1   
 50  22  49  1   
 51  23  26  1   
 52  23  50  1   
 53  23  51  1   
 54  24  52  1   
 55  25  26  1   
 56  25  53  1   
 57  25  54  1   
 58  26  55  1   
 59  26  56  1   
@<TRIPOS>SUBSTRUCTURE
  1 ****   4 GROUP 4 **** **** 0

# MOE 2024.06 (io_trps.svl 2023.06)
