@<TRIPOS>MOLECULE
NONAME
46 47 1 0 0 
SMALL
USER_CHARGES


@<TRIPOS>ATOM
  1 O       -0.9810     0.3870     2.4020 O.2   1 <1>  -0.5700 
  2 C       -1.3540     0.7420     1.3110 C.2   1 <1>   0.5690 
  3 N       -1.8310    -0.1360     0.3910 N.am  1 <1>  -0.7300 
  4 C       -1.3020     2.2280     0.9620 C.3   1 <1>  -0.0190 
  5 C       -1.9910    -1.5880     0.6010 C.3   1 <1>   0.1400 
  6 C       -2.6990     2.7880     0.6270 C.3   1 <1>  -0.1600 
  7 C       -0.2870     2.5250    -0.1690 C.3   1 <1>  -0.1600 
  8 C       -3.4520    -1.9610     0.3580 C.3   1 <1>  -0.1600 
  9 C       -2.6810     4.3180     0.4290 C.3   1 <1>   0.2000 
 10 C       -0.5640     3.8420    -0.9210 C.3   1 <1>  -0.1600 
 11 C       -3.6970    -3.4520     0.6070 C.3   1 <1>   0.0210 
 12 O       -3.6510     4.6380    -0.5370 O.3   1 <1>  -0.5600 
 13 C       -1.3000     4.8520    -0.0360 C.3   1 <1>   0.2000 
 14 C       -5.1440    -3.8000     0.3190 C.2   1 <1>  -0.1810 
 15 C       -4.9570     4.7260    -0.0570 C.3   1 <1>   0.0400 
 16 O       -1.4830     6.0070    -0.7680 O.3   1 <1>  -0.6800 
 17 C       -6.2550    -3.4300     1.0700 C.2   1 <1>   0.1390 
 18 C       -5.6510    -4.5210    -0.7020 C.2   1 <1>  -0.3020 
 19 N       -7.3620    -3.8780     0.5630 N.2   1 <1>  -0.7070 
 20 N       -6.9880    -4.5550    -0.5350 N.pl3 1 <1>   0.3140 
 21 C       -7.9710    -5.2230    -1.3930 C.3   1 <1>   0.0160 
 22 H       -2.1360     0.2170    -0.5180 H     1 <1>   0.3700 
 23 H       -0.9610     2.7370     1.8480 H     1 <1>   0.0800 
 24 H       -1.3480    -2.1190    -0.0800 H     1 <1>   0.0800 
 25 H       -1.7070    -1.8450     1.6090 H     1 <1>   0.0800 
 26 H       -3.3800     2.5430     1.4230 H     1 <1>   0.0800 
 27 H       -3.0500     2.3180    -0.2750 H     1 <1>   0.0800 
 28 H        0.6970     2.5640     0.2670 H     1 <1>   0.0800 
 29 H       -0.2800     1.7240    -0.8880 H     1 <1>   0.0800 
 30 H       -4.0780    -1.3870     1.0190 H     1 <1>   0.0800 
 31 H       -3.7200    -1.7280    -0.6580 H     1 <1>   0.0800 
 32 H       -2.9290     4.8150     1.3520 H     1 <1>   0.0800 
 33 H       -1.1790     3.6330    -1.7800 H     1 <1>   0.0800 
 34 H        0.3640     4.2640    -1.2640 H     1 <1>   0.0800 
 35 H       -3.4700    -3.7000     1.6290 H     1 <1>   0.0800 
 36 H       -3.0600    -4.0390    -0.0320 H     1 <1>   0.0800 
 37 H       -0.6860     5.0940     0.8150 H     1 <1>   0.0800 
 38 H       -5.6000     4.9780    -0.8820 H     1 <1>   0.0800 
 39 H       -5.0100     5.5000     0.6900 H     1 <1>   0.0800 
 40 H       -5.2550     3.7780     0.3560 H     1 <1>   0.0800 
 41 H       -2.3630     5.9120    -1.2000 H     1 <1>   0.4000 
 42 H       -6.2140    -2.8400     1.9700 H     1 <1>   0.1500 
 43 H       -5.1490    -5.0020    -1.5210 H     1 <1>   0.1500 
 44 H       -7.4910    -5.5760    -2.2860 H     1 <1>   0.0800 
 45 H       -8.7430    -4.5210    -1.6470 H     1 <1>   0.0800 
 46 H       -8.3980    -6.0480    -0.8550 H     1 <1>   0.0800 
@<TRIPOS>BOND
  1   1   2  2   
  2   2   3  am  
  3   2   4  1   
  4   3   5  1   
  5   3  22  1   
  6   4   6  1   
  7   4   7  1   
  8   4  23  1   
  9   5   8  1   
 10   5  24  1   
 11   5  25  1   
 12   6   9  1   
 13   6  26  1   
 14   6  27  1   
 15   7  10  1   
 16   7  28  1   
 17   7  29  1   
 18   8  11  1   
 19   8  30  1   
 20   8  31  1   
 21   9  12  1   
 22   9  13  1   
 23   9  32  1   
 24  10  13  1   
 25  10  33  1   
 26  10  34  1   
 27  11  14  1   
 28  11  35  1   
 29  11  36  1   
 30  12  15  1   
 31  13  16  1   
 32  13  37  1   
 33  14  17  1   
 34  14  18  2   
 35  15  38  1   
 36  15  39  1   
 37  15  40  1   
 38  16  41  1   
 39  17  19  2   
 40  17  42  1   
 41  18  20  1   
 42  18  43  1   
 43  19  20  1   
 44  20  21  1   
 45  21  44  1   
 46  21  45  1   
 47  21  46  1   
@<TRIPOS>SUBSTRUCTURE
  1 ****   3 GROUP 4 **** **** 0

# MOE 2024.06 (io_trps.svl 2023.06)
