@<TRIPOS>MOLECULE
NONAME
48 50 1 0 0 
SMALL
USER_CHARGES


@<TRIPOS>ATOM
  1 O        0.2830    -4.2270     1.3500 O.co2 1 <1>  -0.9000 
  2 C       -0.1870    -3.5160     0.4470 C.2   1 <1>   1.0330 
  3 O       -1.3930    -3.2320     0.5590 O.co2 1 <1>  -0.9000 
  4 C        0.5540    -3.2280    -0.7290 C.2   1 <1>  -0.2330 
  5 C        0.3460    -3.8270    -1.9730 C.2   1 <1>   0.3720 
  6 C        1.5730    -2.3580    -0.9510 C.2   1 <1>   0.0870 
  7 N        1.1500    -3.3460    -2.8520 N.2   1 <1>  -0.4100 
  8 N       -0.6040    -4.8020    -2.3120 N.pl3 1 <1>  -0.8210 
  9 O        1.8840    -2.4660    -2.2210 O.3   1 <1>  -0.0190 
 10 C        2.2840    -1.4260    -0.1100 C.ar  1 <1>   0.0530 
 11 C       -0.7550    -5.9820    -1.4260 C.3   1 <1>   0.2090 
 12 C       -1.9300    -4.2480    -2.6640 C.3   1 <1>   0.2090 
 13 C        2.8720    -0.2810    -0.6500 C.ar  1 <1>  -0.1500 
 14 C        2.4210    -1.6210     1.2660 C.ar  1 <1>  -0.1500 
 15 C       -2.2590    -6.1970    -1.2460 C.3   1 <1>  -0.0800 
 16 C       -2.9330    -4.9070    -1.7260 C.3   1 <1>  -0.1600 
 17 C        3.5550     0.6230     0.1400 C.ar  1 <1>  -0.1500 
 18 C        3.1000    -0.7210     2.0650 C.ar  1 <1>  -0.1500 
 19 C       -2.6590    -6.6790     0.1610 C.3   1 <1>   0.3430 
 20 C        3.6750     0.4150     1.5040 C.ar  1 <1>   0.0830 
 21 N       -2.4450    -5.6640     1.2290 N.4   1 <1>  -0.9590 
 22 O        4.3570     1.3470     2.2120 O.3   1 <1>  -0.3630 
 23 C       -1.5630    -6.1380     2.3310 C.3   1 <1>   0.2630 
 24 C       -3.6890    -5.0460     1.7510 C.3   1 <1>   0.2630 
 25 C        4.5170     1.2340     3.6080 C.3   1 <1>   0.0400 
 26 H       -0.2530    -5.8340    -0.4880 H     1 <1>   0.0800 
 27 H       -0.3080    -6.8360    -1.9040 H     1 <1>   0.0800 
 28 H       -2.1450    -4.5000    -3.6880 H     1 <1>   0.0800 
 29 H       -1.9460    -3.1750    -2.5540 H     1 <1>   0.0800 
 30 H        2.7880    -0.1000    -1.7070 H     1 <1>   0.1500 
 31 H        1.9940    -2.4980     1.7200 H     1 <1>   0.1500 
 32 H       -2.5310    -6.9750    -1.9370 H     1 <1>   0.0800 
 33 H       -3.8630    -5.0970    -2.2310 H     1 <1>   0.0800 
 34 H       -3.1220    -4.2250    -0.9200 H     1 <1>   0.0800 
 35 H        4.0000     1.5000    -0.2950 H     1 <1>   0.1500 
 36 H        3.1710    -0.9230     3.1160 H     1 <1>   0.1500 
 37 H       -2.0850    -7.5610     0.3910 H     1 <1>   0.0800 
 38 H       -3.6980    -6.9620     0.1480 H     1 <1>   0.0800 
 39 H       -1.9140    -4.8400     0.8280 H     1 <1>   0.4500 
 40 H       -2.0240    -6.9450     2.8740 H     1 <1>   0.0800 
 41 H       -1.3590    -5.3210     3.0050 H     1 <1>   0.0800 
 42 H       -0.6180    -6.4640     1.9290 H     1 <1>   0.0800 
 43 H       -4.2850    -5.7750     2.2730 H     1 <1>   0.0800 
 44 H       -4.2630    -4.6310     0.9390 H     1 <1>   0.0800 
 45 H       -3.4360    -4.2440     2.4260 H     1 <1>   0.0800 
 46 H        5.0800     2.0830     3.9500 H     1 <1>   0.0800 
 47 H        5.0530     0.3270     3.8260 H     1 <1>   0.0800 
 48 H        3.5460     1.2290     4.0710 H     1 <1>   0.0800 
@<TRIPOS>BOND
  1   1   2  ar  
  2   2   3  ar  
  3   2   4  1   
  4   4   5  1   
  5   4   6  2   
  6   5   7  2   
  7   5   8  1   
  8   6   9  1   
  9   6  10  1   
 10   7   9  1   
 11   8  11  1   
 12   8  12  1   
 13  10  13  ar  
 14  10  14  ar  
 15  11  15  1   
 16  11  26  1   
 17  11  27  1   
 18  12  16  1   
 19  12  28  1   
 20  12  29  1   
 21  13  17  ar  
 22  13  30  1   
 23  14  18  ar  
 24  14  31  1   
 25  15  16  1   
 26  15  19  1   
 27  15  32  1   
 28  16  33  1   
 29  16  34  1   
 30  17  20  ar  
 31  17  35  1   
 32  18  20  ar  
 33  18  36  1   
 34  19  21  1   
 35  19  37  1   
 36  19  38  1   
 37  20  22  1   
 38  21  23  1   
 39  21  24  1   
 40  21  39  1   
 41  22  25  1   
 42  23  40  1   
 43  23  41  1   
 44  23  42  1   
 45  24  43  1   
 46  24  44  1   
 47  24  45  1   
 48  25  46  1   
 49  25  47  1   
 50  25  48  1   
@<TRIPOS>SUBSTRUCTURE
  1 ****   4 GROUP 4 **** **** 0

# MOE 2024.06 (io_trps.svl 2023.06)
