@<TRIPOS>MOLECULE
NONAME
46 47 1 0 0 
SMALL
USER_CHARGES


@<TRIPOS>ATOM
  1 O        1.6410     0.2600     0.2620 O.3   1 <1>  -0.2800 
  2 C        1.3140    -0.7180    -0.5210 C.2   1 <1>   0.2980 
  3 C        1.5220     1.3110    -0.4870 C.2   1 <1>   0.2980 
  4 N        1.0020    -0.3110    -1.6940 N.2   1 <1>  -0.3380 
  5 C        1.3370    -2.1490     0.0160 C.3   1 <1>   0.1000 
  6 N        1.1360     1.0160    -1.6710 N.2   1 <1>  -0.3380 
  7 C        1.7950     2.7040     0.0760 C.3   1 <1>   0.2900 
  8 C        1.1650    -3.1950    -1.0960 C.3   1 <1>  -0.2400 
  9 C        0.2520    -2.3450     1.0850 C.3   1 <1>  -0.2400 
 10 N        3.2400     3.0710     0.1520 N.3   1 <1>  -0.8100 
 11 C        3.4980     4.5360     0.2560 C.3   1 <1>   0.1900 
 12 C        3.9420     2.2730     1.1780 C.3   1 <1>   0.2530 
 13 C        2.8230     5.2300     1.4690 C.3   1 <1>   0.1200 
 14 C        3.1940     5.2090    -1.0980 C.3   1 <1>  -0.1600 
 15 C        5.4460     2.4970     1.1440 C.ar  1 <1>  -0.1440 
 16 O        1.4410     5.3410     1.3310 O.3   1 <1>  -0.6800 
 17 C        3.7420     6.6400    -1.1940 C.3   1 <1>  -0.2400 
 18 C        6.1410     2.3760    -0.0510 C.ar  1 <1>   0.1600 
 19 C        6.1440     2.8230     2.2900 C.ar  1 <1>  -0.1500 
 20 N        7.4470     2.5510    -0.1900 N.ar  1 <1>  -0.6200 
 21 C        7.5040     3.0090     2.1630 C.ar  1 <1>  -0.1500 
 22 C        8.0960     2.8620     0.9200 C.ar  1 <1>   0.1600 
 23 H        2.2990    -2.3040     0.4740 H     1 <1>   0.0800 
 24 H        1.3460     2.7750     1.0510 H     1 <1>   0.0800 
 25 H        1.2810     3.3950    -0.5650 H     1 <1>   0.0800 
 26 H        0.2100    -3.0780    -1.5780 H     1 <1>   0.0800 
 27 H        1.2320    -4.1900    -0.6940 H     1 <1>   0.0800 
 28 H        1.9360    -3.0730    -1.8370 H     1 <1>   0.0800 
 29 H       -0.7220    -2.1800     0.6600 H     1 <1>   0.0800 
 30 H        0.3960    -1.6480     1.8910 H     1 <1>   0.0800 
 31 H        0.2920    -3.3420     1.4850 H     1 <1>   0.0800 
 32 H        4.5570     4.6670     0.3970 H     1 <1>   0.0800 
 33 H        3.7750     1.2260     1.0010 H     1 <1>   0.0800 
 34 H        3.5530     2.5080     2.1540 H     1 <1>   0.0800 
 35 H        3.2170     6.2240     1.5870 H     1 <1>   0.0800 
 36 H        3.0260     4.6870     2.3730 H     1 <1>   0.0800 
 37 H        2.1370     5.2320    -1.2880 H     1 <1>   0.0800 
 38 H        3.6550     4.6220    -1.8740 H     1 <1>   0.0800 
 39 H        1.2270     5.8970     0.5560 H     1 <1>   0.4000 
 40 H        3.2590     7.2910    -0.4880 H     1 <1>   0.0800 
 41 H        3.5690     7.0290    -2.1820 H     1 <1>   0.0800 
 42 H        4.8020     6.6490    -1.0100 H     1 <1>   0.0800 
 43 H        5.5860     2.1260    -0.9410 H     1 <1>   0.1500 
 44 H        5.6560     2.9290     3.2430 H     1 <1>   0.1500 
 45 H        8.1040     3.2630     3.0170 H     1 <1>   0.1500 
 46 H        9.1590     3.0090     0.8340 H     1 <1>   0.1500 
@<TRIPOS>BOND
  1   1   2  1   
  2   1   3  1   
  3   2   4  2   
  4   2   5  1   
  5   3   6  2   
  6   3   7  1   
  7   4   6  1   
  8   5   8  1   
  9   5   9  1   
 10   5  23  1   
 11   7  10  1   
 12   7  24  1   
 13   7  25  1   
 14   8  26  1   
 15   8  27  1   
 16   8  28  1   
 17   9  29  1   
 18   9  30  1   
 19   9  31  1   
 20  10  11  1   
 21  10  12  1   
 22  11  13  1   
 23  11  14  1   
 24  11  32  1   
 25  12  15  1   
 26  12  33  1   
 27  12  34  1   
 28  13  16  1   
 29  13  35  1   
 30  13  36  1   
 31  14  17  1   
 32  14  37  1   
 33  14  38  1   
 34  15  18  ar  
 35  15  19  ar  
 36  16  39  1   
 37  17  40  1   
 38  17  41  1   
 39  17  42  1   
 40  18  20  ar  
 41  18  43  1   
 42  19  21  ar  
 43  19  44  1   
 44  20  22  ar  
 45  21  22  ar  
 46  21  45  1   
 47  22  46  1   
@<TRIPOS>SUBSTRUCTURE
  1 ****  10 GROUP 4 **** **** 0

# MOE 2024.06 (io_trps.svl 2023.06)
