@<TRIPOS>MOLECULE
NONAME
48 50 1 0 0 
SMALL
USER_CHARGES


@<TRIPOS>ATOM
  1 F        0.7070     3.3810     2.3670 F     1 <1>  -0.1900 
  2 C        0.1620     3.1610     1.2010 C.ar  1 <1>   0.1900 
  3 C        0.8050     2.3180     0.3180 C.ar  1 <1>  -0.1500 
  4 C       -1.0370     3.7860     0.8980 C.ar  1 <1>  -0.1500 
  5 C        0.1940     2.1150    -0.9030 C.ar  1 <1>   0.1900 
  6 C       -1.6290     3.5670    -0.3400 C.ar  1 <1>  -0.1440 
  7 F        0.7700     1.3250    -1.7690 F     1 <1>  -0.1900 
  8 C       -1.0050     2.7190    -1.2480 C.ar  1 <1>  -0.1500 
  9 C       -2.9490     4.2500    -0.6950 C.3   1 <1>   0.0440 
 10 C       -4.2010     3.5350    -0.1900 C.2   1 <1>   0.5690 
 11 O       -4.0730     2.4600     0.3490 O.2   1 <1>  -0.5700 
 12 N       -5.4430     4.1080    -0.3540 N.am  1 <1>  -0.6600 
 13 C       -6.6610     3.4600     0.2120 C.3   1 <1>   0.1400 
 14 C       -5.7180     5.3760    -1.0890 C.3   1 <1>   0.1400 
 15 C       -7.4230     4.4550     1.0940 C.3   1 <1>  -0.1600 
 16 C       -6.4380     6.3550    -0.1590 C.3   1 <1>  -0.1600 
 17 C       -7.7680     5.7670     0.3620 C.3   1 <1>   0.2800 
 18 O       -8.2200     6.6380     1.3710 O.3   1 <1>  -0.5600 
 19 C       -8.8630     5.5470    -0.7530 C.3   1 <1>   0.2000 
 20 C       -9.0950     7.6580     1.0140 C.3   1 <1>   0.1200 
 21 O       -8.6700     6.4200    -1.8400 O.3   1 <1>  -0.6800 
 22 C      -10.3060     5.7320    -0.2030 C.3   1 <1>   0.2800 
 23 C      -10.4380     7.0740     0.5480 C.3   1 <1>  -0.1600 
 24 O      -10.5740     4.7170     0.6930 O.3   1 <1>  -0.6800 
 25 C      -11.3880     5.5880    -1.2810 C.3   1 <1>  -0.2400 
 26 H        1.7340     1.8420     0.5680 H     1 <1>   0.1500 
 27 H       -1.4980     4.4250     1.6290 H     1 <1>   0.1500 
 28 H       -1.4380     2.5170    -2.2110 H     1 <1>   0.1500 
 29 H       -3.0220     4.3380    -1.7630 H     1 <1>   0.0800 
 30 H       -2.9380     5.2410    -0.2820 H     1 <1>   0.0800 
 31 H       -7.2820     3.1120    -0.5950 H     1 <1>   0.0800 
 32 H       -6.3950     2.6020     0.8070 H     1 <1>   0.0800 
 33 H       -4.8130     5.8300    -1.4470 H     1 <1>   0.0800 
 34 H       -6.3330     5.1570    -1.9460 H     1 <1>   0.0800 
 35 H       -6.8070     4.6770     1.9480 H     1 <1>   0.0800 
 36 H       -8.3130     3.9810     1.4600 H     1 <1>   0.0800 
 37 H       -6.6060     7.2780    -0.6810 H     1 <1>   0.0800 
 38 H       -5.7930     6.5680     0.6740 H     1 <1>   0.0800 
 39 H       -8.7750     4.5580    -1.1630 H     1 <1>   0.0800 
 40 H       -9.2390     8.2830     1.8790 H     1 <1>   0.0800 
 41 H       -8.6300     8.2470     0.2430 H     1 <1>   0.0800 
 42 H       -8.8040     7.3400    -1.5480 H     1 <1>   0.4000 
 43 H      -10.8880     7.8060    -0.0970 H     1 <1>   0.0800 
 44 H      -11.0910     6.9670     1.3950 H     1 <1>   0.0800 
 45 H      -11.4490     4.8570     1.0970 H     1 <1>   0.4000 
 46 H      -11.2800     6.3510    -2.0300 H     1 <1>   0.0800 
 47 H      -12.3700     5.6770    -0.8530 H     1 <1>   0.0800 
 48 H      -11.2970     4.6330    -1.7690 H     1 <1>   0.0800 
@<TRIPOS>BOND
  1   1   2  1   
  2   2   3  ar  
  3   2   4  ar  
  4   3   5  ar  
  5   3  26  1   
  6   4   6  ar  
  7   4  27  1   
  8   5   7  1   
  9   5   8  ar  
 10   6   8  ar  
 11   6   9  1   
 12   8  28  1   
 13   9  10  1   
 14   9  29  1   
 15   9  30  1   
 16  10  11  2   
 17  10  12  am  
 18  12  13  1   
 19  12  14  1   
 20  13  15  1   
 21  13  31  1   
 22  13  32  1   
 23  14  16  1   
 24  14  33  1   
 25  14  34  1   
 26  15  17  1   
 27  15  35  1   
 28  15  36  1   
 29  16  17  1   
 30  16  37  1   
 31  16  38  1   
 32  17  18  1   
 33  17  19  1   
 34  18  20  1   
 35  19  21  1   
 36  19  22  1   
 37  19  39  1   
 38  20  23  1   
 39  20  40  1   
 40  20  41  1   
 41  21  42  1   
 42  22  23  1   
 43  22  24  1   
 44  22  25  1   
 45  23  43  1   
 46  23  44  1   
 47  24  45  1   
 48  25  46  1   
 49  25  47  1   
 50  25  48  1   
@<TRIPOS>SUBSTRUCTURE
  1 ****  12 GROUP 4 **** **** 0

# MOE 2024.06 (io_trps.svl 2023.06)
