@<TRIPOS>MOLECULE
NONAME
44 47 1 0 0 
SMALL
USER_CHARGES


@<TRIPOS>ATOM
  1 O        2.9290    -0.5890    -2.0890 O.2   1 <1>  -0.5700 
  2 C        2.1090    -0.9620    -1.2680 C.2   1 <1>   0.7160 
  3 N        1.7090    -0.1360    -0.2520 N.am  1 <1>  -0.4940 
  4 C        1.5410    -2.2700    -1.3470 C.2   1 <1>  -0.0860 
  5 C        1.9700     1.2280     0.0180 C.2   1 <1>  -0.0880 
  6 C        0.5740    -2.8440    -0.5630 C.2   1 <1>  -0.0260 
  7 C        1.8610    -3.2650    -2.2670 C.2   1 <1>   0.1390 
  8 N        3.1750     1.8760     0.0050 N.pl3 1 <1>   0.3140 
  9 C        1.0400     2.1470     0.3700 C.2   1 <1>  -0.1810 
 10 N       -0.1250    -2.3330     0.5080 N.2   1 <1>  -0.5760 
 11 N        0.3880    -4.1140    -1.0500 N.pl3 1 <1>   0.6010 
 12 N        1.1880    -4.3660    -2.1040 N.2   1 <1>  -0.7070 
 13 N        3.0130     3.1890     0.3290 N.2   1 <1>  -0.7070 
 14 C        4.5300     1.2830    -0.2490 C.3   1 <1>   0.1760 
 15 C        1.7440     3.3310     0.5420 C.2   1 <1>   0.1390 
 16 C       -0.4590     1.9790     0.5440 C.3   1 <1>  -0.0590 
 17 C       -0.9880    -3.1330     1.0560 C.2   1 <1>   0.3760 
 18 C       -0.5330    -4.9430    -0.4540 C.2   1 <1>  -0.1810 
 19 C        4.8520     0.0940     0.6730 C.3   1 <1>  -0.1600 
 20 C        5.7000     2.2520    -0.0370 C.3   1 <1>  -0.1600 
 21 C       -1.2350    -4.4650     0.6090 C.2   1 <1>  -0.1240 
 22 C        6.3510     0.1710     0.9950 C.3   1 <1>  -0.1600 
 23 C        6.9030     1.3420     0.1830 C.3   1 <1>  -0.1600 
 24 C       -2.2720    -5.3090     1.3310 C.3   1 <1>  -0.1020 
 25 H        0.9510    -0.5620     0.2960 H     1 <1>   0.3700 
 26 H        2.5990    -3.1360    -3.0430 H     1 <1>   0.1500 
 27 H        4.5660     0.9580    -1.2710 H     1 <1>   0.0800 
 28 H        1.2980     4.2700     0.8210 H     1 <1>   0.1500 
 29 H       -0.7630     0.9810     0.2850 H     1 <1>   0.0800 
 30 H       -0.9780     2.6720    -0.0920 H     1 <1>   0.0800 
 31 H       -0.7310     2.1700     1.5660 H     1 <1>   0.0800 
 32 H       -1.5570    -2.7780     1.8980 H     1 <1>   0.0600 
 33 H       -0.6330    -5.9240    -0.8770 H     1 <1>   0.1500 
 34 H        4.6230    -0.8320     0.1760 H     1 <1>   0.0800 
 35 H        4.2850     0.1600     1.5850 H     1 <1>   0.0800 
 36 H        5.5430     2.8380     0.8530 H     1 <1>   0.0800 
 37 H        5.8340     2.9050    -0.8810 H     1 <1>   0.0800 
 38 H        6.8590    -0.7460     0.7510 H     1 <1>   0.0800 
 39 H        6.4800     0.3710     2.0460 H     1 <1>   0.0800 
 40 H        7.7050     1.8480     0.6940 H     1 <1>   0.0800 
 41 H        7.2600     0.9840    -0.7680 H     1 <1>   0.0800 
 42 H       -3.2370    -4.8360     1.2790 H     1 <1>   0.0800 
 43 H       -1.9990    -5.4290     2.3650 H     1 <1>   0.0800 
 44 H       -2.3480    -6.2850     0.8840 H     1 <1>   0.0800 
@<TRIPOS>BOND
  1   1   2  2   
  2   2   3  am  
  3   2   4  1   
  4   3   5  1   
  5   3  25  1   
  6   4   6  2   
  7   4   7  1   
  8   5   8  1   
  9   5   9  2   
 10   6  10  1   
 11   6  11  1   
 12   7  12  2   
 13   7  26  1   
 14   8  13  1   
 15   8  14  1   
 16   9  15  1   
 17   9  16  1   
 18  10  17  2   
 19  11  12  1   
 20  11  18  1   
 21  13  15  2   
 22  14  19  1   
 23  14  20  1   
 24  14  27  1   
 25  15  28  1   
 26  16  29  1   
 27  16  30  1   
 28  16  31  1   
 29  17  21  1   
 30  17  32  1   
 31  18  21  2   
 32  18  33  1   
 33  19  22  1   
 34  19  34  1   
 35  19  35  1   
 36  20  23  1   
 37  20  36  1   
 38  20  37  1   
 39  21  24  1   
 40  22  23  1   
 41  22  38  1   
 42  22  39  1   
 43  23  40  1   
 44  23  41  1   
 45  24  42  1   
 46  24  43  1   
 47  24  44  1   
@<TRIPOS>SUBSTRUCTURE
  1 ****   3 GROUP 4 **** **** 0

# MOE 2024.06 (io_trps.svl 2023.06)
