@<TRIPOS>MOLECULE
NONAME
36 37 1 0 0 
SMALL
USER_CHARGES


@<TRIPOS>ATOM
  1 S        0.6910     0.7540    -1.2470 S.3   1 <1>  -0.4600 
  2 C        1.7670     1.1060     0.1960 C.3   1 <1>   0.1310 
  3 C        0.5170    -1.0530    -1.2360 C.3   1 <1>   0.1650 
  4 C        2.1490     2.5790     0.2830 C.2   1 <1>   0.5690 
  5 C       -0.2460    -1.4680     0.0260 C.3   1 <1>  -0.1950 
  6 O        3.0230     2.9070     1.0520 O.2   1 <1>  -0.5700 
  7 N        1.5120     3.4900    -0.4980 N.am  1 <1>  -0.7300 
  8 C       -1.1420    -2.6660     0.0040 C.3   1 <1>  -0.2000 
  9 C       -1.7270    -1.2880     0.1280 C.3   1 <1>  -0.2000 
 10 C        1.7590     4.9500    -0.4690 C.3   1 <1>   0.1400 
 11 C        2.9740     5.3020    -1.3280 C.3   1 <1>   0.0200 
 12 C        3.5530     6.6320    -0.8860 C.2   1 <1>   0.0060 
 13 N        3.3250     7.7440    -1.5070 N.2   1 <1>  -0.5650 
 14 N        4.3510     6.7660     0.2030 N.pl3 1 <1>   0.0480 
 15 C        4.0090     8.6550    -0.7920 C.2   1 <1>   0.0770 
 16 C        4.6380     8.0790     0.2540 C.2   1 <1>  -0.3020 
 17 C        4.8060     5.7290     1.1500 C.3   1 <1>   0.0160 
 18 H        2.6500     0.5040     0.0930 H     1 <1>   0.0800 
 19 H        1.2280     0.8200     1.0780 H     1 <1>   0.0800 
 20 H        1.5020    -1.4840    -1.2680 H     1 <1>   0.0800 
 21 H       -0.0270    -1.3170    -2.1260 H     1 <1>   0.0800 
 22 H        0.3340    -1.3310     0.9220 H     1 <1>   0.1000 
 23 H        0.8230     3.1420    -1.1750 H     1 <1>   0.3700 
 24 H       -1.1660    -3.3130     0.8650 H     1 <1>   0.1000 
 25 H       -1.2940    -3.2020    -0.9170 H     1 <1>   0.1000 
 26 H       -2.2580    -0.8700    -0.7110 H     1 <1>   0.1000 
 27 H       -2.1450    -0.9820     1.0710 H     1 <1>   0.1000 
 28 H        1.9390     5.2460     0.5500 H     1 <1>   0.0800 
 29 H        0.8920     5.4830    -0.8200 H     1 <1>   0.0800 
 30 H        2.6790     5.3650    -2.3600 H     1 <1>   0.0800 
 31 H        3.7310     4.5440    -1.2380 H     1 <1>   0.0800 
 32 H        4.0110     9.6950    -1.0730 H     1 <1>   0.1500 
 33 H        5.2580     8.5230     1.0100 H     1 <1>   0.1500 
 34 H        5.2000     4.8900     0.6060 H     1 <1>   0.0800 
 35 H        3.9770     5.4040     1.7510 H     1 <1>   0.0800 
 36 H        5.5730     6.1320     1.7860 H     1 <1>   0.0800 
@<TRIPOS>BOND
  1   1   2  1   
  2   1   3  1   
  3   2   4  1   
  4   2  18  1   
  5   2  19  1   
  6   3   5  1   
  7   3  20  1   
  8   3  21  1   
  9   4   6  2   
 10   4   7  am  
 11   5   8  1   
 12   5   9  1   
 13   5  22  1   
 14   7  10  1   
 15   7  23  1   
 16   8   9  1   
 17   8  24  1   
 18   8  25  1   
 19   9  26  1   
 20   9  27  1   
 21  10  11  1   
 22  10  28  1   
 23  10  29  1   
 24  11  12  1   
 25  11  30  1   
 26  11  31  1   
 27  12  13  2   
 28  12  14  1   
 29  13  15  1   
 30  14  16  1   
 31  14  17  1   
 32  15  16  2   
 33  15  32  1   
 34  16  33  1   
 35  17  34  1   
 36  17  35  1   
 37  17  36  1   
@<TRIPOS>SUBSTRUCTURE
  1 ****   7 GROUP 4 **** **** 0

# MOE 2024.06 (io_trps.svl 2023.06)
