@<TRIPOS>MOLECULE
NONAME
38 39 1 0 0 
SMALL
USER_CHARGES


@<TRIPOS>ATOM
  1 F       -0.5110     0.6370    -1.8890 F     1 <1>  -0.1900 
  2 C       -1.3610     1.2460    -1.1070 C.ar  1 <1>   0.1900 
  3 C       -1.3990     2.6270    -1.1140 C.ar  1 <1>  -0.1500 
  4 C       -2.1880     0.4860    -0.3020 C.ar  1 <1>  -0.1500 
  5 C       -2.3000     3.2770    -0.2830 C.ar  1 <1>  -0.1440 
  6 C       -3.0850     1.1400     0.5250 C.ar  1 <1>  -0.1500 
  7 C       -3.1380     2.5260     0.5320 C.ar  1 <1>  -0.1500 
  8 C       -2.3670     4.7950    -0.2560 C.3   1 <1>  -0.0160 
  9 C       -1.5170     5.3440     0.8940 C.3   1 <1>  -0.0990 
 10 C       -1.5280     6.8580     0.9020 C.2   1 <1>   0.5690 
 11 O       -2.5080     7.4160     1.3310 O.2   1 <1>  -0.5700 
 12 N       -0.4370     7.5090     0.4140 N.am  1 <1>  -0.4930 
 13 C       -0.2100     8.9030     0.2930 C.2   1 <1>   0.0630 
 14 C        0.8950     9.4960    -0.2120 C.2   1 <1>  -0.3320 
 15 C       -1.0460     9.9600     0.6540 C.2   1 <1>   0.1390 
 16 N        0.6850    10.8370    -0.1340 N.pl3 1 <1>   0.3140 
 17 C        2.1610     8.8640    -0.7750 C.3   1 <1>  -0.0600 
 18 N       -0.5170    11.1190     0.3990 N.2   1 <1>  -0.7070 
 19 C        1.5950    11.9240    -0.5560 C.3   1 <1>   0.0960 
 20 C        2.5600    12.3110     0.5720 C.3   1 <1>  -0.2400 
 21 H       -0.7360     3.1710    -1.7610 H     1 <1>   0.1500 
 22 H       -2.1280    -0.5870    -0.3250 H     1 <1>   0.1500 
 23 H       -3.7420     0.5730     1.1620 H     1 <1>   0.1500 
 24 H       -3.8410     3.0220     1.1800 H     1 <1>   0.1500 
 25 H       -3.3890     5.1110    -0.1320 H     1 <1>   0.0800 
 26 H       -2.0170     5.1920    -1.1930 H     1 <1>   0.0800 
 27 H       -0.5080     4.9840     0.8080 H     1 <1>   0.0800 
 28 H       -1.9130     4.9960     1.8310 H     1 <1>   0.0800 
 29 H        0.3340     6.9340     0.0860 H     1 <1>   0.3700 
 30 H       -2.0210     9.8370     1.0940 H     1 <1>   0.1500 
 31 H        2.1080     7.7920    -0.7290 H     1 <1>   0.0800 
 32 H        3.0180     9.1840    -0.2080 H     1 <1>   0.0800 
 33 H        2.2940     9.1530    -1.8020 H     1 <1>   0.0800 
 34 H        0.9930    12.7730    -0.8270 H     1 <1>   0.0800 
 35 H        2.1390    11.6040    -1.4250 H     1 <1>   0.0800 
 36 H        2.0020    12.6420     1.4310 H     1 <1>   0.0800 
 37 H        3.1970    13.1140     0.2480 H     1 <1>   0.0800 
 38 H        3.1730    11.4730     0.8490 H     1 <1>   0.0800 
@<TRIPOS>BOND
  1   1   2  1   
  2   2   3  ar  
  3   2   4  ar  
  4   3   5  ar  
  5   3  21  1   
  6   4   6  ar  
  7   4  22  1   
  8   5   7  ar  
  9   5   8  1   
 10   6   7  ar  
 11   6  23  1   
 12   7  24  1   
 13   8   9  1   
 14   8  25  1   
 15   8  26  1   
 16   9  10  1   
 17   9  27  1   
 18   9  28  1   
 19  10  11  2   
 20  10  12  am  
 21  12  13  1   
 22  12  29  1   
 23  13  14  2   
 24  13  15  1   
 25  14  16  1   
 26  14  17  1   
 27  15  18  2   
 28  15  30  1   
 29  16  18  1   
 30  16  19  1   
 31  17  31  1   
 32  17  32  1   
 33  17  33  1   
 34  19  20  1   
 35  19  34  1   
 36  19  35  1   
 37  20  36  1   
 38  20  37  1   
 39  20  38  1   
@<TRIPOS>SUBSTRUCTURE
  1 ****  10 GROUP 4 **** **** 0

# MOE 2024.06 (io_trps.svl 2023.06)
