@<TRIPOS>MOLECULE
NONAME
50 51 1 0 0 
SMALL
USER_CHARGES


@<TRIPOS>ATOM
  1 S        0.5960     0.1240     0.6830 S.o2  1 <1>   1.3330 
  2 O        0.5510     0.7070     2.0050 O.2   1 <1>  -0.6500 
  3 O        0.6860    -1.3120     0.5420 O.2   1 <1>  -0.6500 
  4 N       -0.7800     0.6380    -0.1670 N.am  1 <1>  -0.8490 
  5 C        1.9450     0.8840    -0.2160 C.3   1 <1>  -0.0550 
  6 C       -1.9820     0.6260     0.6730 C.3   1 <1>   0.1160 
  7 C       -1.0260    -0.1240    -1.3960 C.3   1 <1>   0.1160 
  8 C        3.3180     0.6730     0.4450 C.3   1 <1>  -0.0800 
  9 C        4.4460     1.2790    -0.3610 C.3   1 <1>   0.2200 
 10 C        3.7600    -0.7830     0.5580 C.3   1 <1>   0.1200 
 11 N        4.5780     2.7240    -0.0810 N.am  1 <1>  -0.7300 
 12 C        5.6510     0.4630     0.0890 C.3   1 <1>   0.1200 
 13 O        5.1560    -0.7780     0.5000 O.3   1 <1>  -0.5600 
 14 C        4.0460     3.7230    -0.8440 C.2   1 <1>   0.6160 
 15 O        3.3470     3.3900    -1.7850 O.2   1 <1>  -0.5700 
 16 C        4.2740     5.1170    -0.5390 C.2   1 <1>   0.0290 
 17 C        5.5900     5.5050    -0.1070 C.2   1 <1>   0.6160 
 18 C        3.3030     6.0920    -0.6460 C.2   1 <1>  -0.1380 
 19 O        6.4710     4.6770     0.1160 O.2   1 <1>  -0.5700 
 20 N        5.8830     6.8540     0.0970 N.am  1 <1>  -0.4690 
 21 C        3.6330     7.4370    -0.3890 C.2   1 <1>  -0.1500 
 22 C        1.8540     5.8060    -1.0290 C.3   1 <1>  -0.1020 
 23 C        4.8920     7.8060    -0.0280 C.2   1 <1>  -0.0290 
 24 C        7.2760     7.2460     0.4820 C.3   1 <1>   0.0600 
 25 C        5.2070     9.2710     0.2450 C.3   1 <1>  -0.1020 
 26 H        1.9700     0.5000    -1.2170 H     1 <1>   0.0800 
 27 H        1.7580     1.9380    -0.2800 H     1 <1>   0.0800 
 28 H       -2.8320     0.9750     0.1130 H     1 <1>   0.0800 
 29 H       -1.8470     1.2800     1.5180 H     1 <1>   0.0800 
 30 H       -2.1770    -0.3700     1.0340 H     1 <1>   0.0800 
 31 H       -1.8610     0.2960    -1.9300 H     1 <1>   0.0800 
 32 H       -1.2390    -1.1550    -1.1650 H     1 <1>   0.0800 
 33 H       -0.1620    -0.0850    -2.0370 H     1 <1>   0.0800 
 34 H        3.3110     1.0940     1.4370 H     1 <1>   0.0800 
 35 H        4.2930     1.1150    -1.4150 H     1 <1>   0.0800 
 36 H        3.4030    -1.3700    -0.2720 H     1 <1>   0.0800 
 37 H        3.4470    -1.2360     1.4840 H     1 <1>   0.0800 
 38 H        5.3750     2.9950     0.5100 H     1 <1>   0.3700 
 39 H        6.1360     0.9140     0.9370 H     1 <1>   0.0800 
 40 H        6.3550     0.3090    -0.7100 H     1 <1>   0.0800 
 41 H        2.8580     8.1770    -0.4890 H     1 <1>   0.1500 
 42 H        1.1940     6.5570    -0.6330 H     1 <1>   0.0800 
 43 H        1.5320     4.8560    -0.6420 H     1 <1>   0.0800 
 44 H        1.7570     5.7900    -2.1000 H     1 <1>   0.0800 
 45 H        7.5730     8.1360    -0.0420 H     1 <1>   0.0800 
 46 H        7.9820     6.4740     0.2310 H     1 <1>   0.0800 
 47 H        7.3180     7.4220     1.5420 H     1 <1>   0.0800 
 48 H        5.6100     9.3870     1.2350 H     1 <1>   0.0800 
 49 H        4.3180     9.8720     0.1750 H     1 <1>   0.0800 
 50 H        5.9150     9.6400    -0.4750 H     1 <1>   0.0800 
@<TRIPOS>BOND
  1   1   2  2   
  2   1   3  2   
  3   1   4  am  
  4   1   5  1   
  5   4   6  1   
  6   4   7  1   
  7   5   8  1   
  8   5  26  1   
  9   5  27  1   
 10   6  28  1   
 11   6  29  1   
 12   6  30  1   
 13   7  31  1   
 14   7  32  1   
 15   7  33  1   
 16   8   9  1   
 17   8  10  1   
 18   8  34  1   
 19   9  11  1   
 20   9  12  1   
 21   9  35  1   
 22  10  13  1   
 23  10  36  1   
 24  10  37  1   
 25  11  14  am  
 26  11  38  1   
 27  12  13  1   
 28  12  39  1   
 29  12  40  1   
 30  14  15  2   
 31  14  16  1   
 32  16  17  1   
 33  16  18  2   
 34  17  19  2   
 35  17  20  am  
 36  18  21  1   
 37  18  22  1   
 38  20  23  1   
 39  20  24  1   
 40  21  23  2   
 41  21  41  1   
 42  22  42  1   
 43  22  43  1   
 44  22  44  1   
 45  23  25  1   
 46  24  45  1   
 47  24  46  1   
 48  24  47  1   
 49  25  48  1   
 50  25  49  1   
 51  25  50  1   
@<TRIPOS>SUBSTRUCTURE
  1 ****  14 GROUP 4 **** **** 0

# MOE 2024.06 (io_trps.svl 2023.06)
