@<TRIPOS>MOLECULE
NONAME
51 53 1 0 0 
SMALL
USER_CHARGES


@<TRIPOS>ATOM
  1 S       -2.1810    -2.1200     3.1120 S.3   1 <1>  -0.0800 
  2 C       -2.8430    -2.9920     1.7430 C.2   1 <1>  -0.1100 
  3 C       -1.6960    -0.7860     2.0820 C.2   1 <1>  -0.1100 
  4 C       -2.6930    -2.2850     0.6050 C.2   1 <1>  -0.1810 
  5 C       -2.0330    -1.0250     0.8010 C.2   1 <1>  -0.1500 
  6 C       -3.1650    -2.7210    -0.7670 C.3   1 <1>   0.5240 
  7 N       -4.6470    -2.7690    -0.7570 N.4   1 <1>  -0.9590 
  8 C       -5.2330    -3.4360    -1.9630 C.3   1 <1>   0.3430 
  9 C       -5.2950    -1.4750    -0.4090 C.3   1 <1>   0.3430 
 10 C       -6.7490    -3.7020    -1.8030 C.3   1 <1>   0.1400 
 11 C       -6.3160    -1.7140     0.7070 C.3   1 <1>  -0.1600 
 12 N       -7.1340    -3.8480    -0.3680 N.am  1 <1>  -0.6600 
 13 C       -7.5220    -2.5940     0.3350 C.3   1 <1>   0.1400 
 14 C       -6.6700    -4.9360     0.3280 C.2   1 <1>   0.7160 
 15 O       -5.6750    -4.7550     1.0100 O.2   1 <1>  -0.5700 
 16 C       -7.2190    -6.2560     0.1400 C.2   1 <1>  -0.0860 
 17 C       -8.4870    -6.6290    -0.3300 C.2   1 <1>   0.1080 
 18 C       -6.6180    -7.4550     0.3750 C.2   1 <1>  -0.3020 
 19 N       -8.6350    -7.9110    -0.3990 N.2   1 <1>  -0.7070 
 20 C       -9.6230    -5.7050    -0.7160 C.3   1 <1>  -0.0590 
 21 N       -7.4800    -8.4270     0.0470 N.pl3 1 <1>   0.3140 
 22 C       -7.2640    -9.8830     0.1480 C.3   1 <1>   0.0960 
 23 C       -7.5710   -10.3850     1.5670 C.3   1 <1>  -0.1600 
 24 C       -7.3500   -11.8970     1.6850 C.3   1 <1>  -0.2400 
 25 H       -3.2840    -3.9540     1.9520 H     1 <1>   0.1500 
 26 H       -1.1990     0.0440     2.5540 H     1 <1>   0.1500 
 27 H       -1.8310    -0.3520    -0.0150 H     1 <1>   0.1500 
 28 H       -2.7670    -3.6990    -0.9800 H     1 <1>   0.0800 
 29 H       -2.8130    -2.0320    -1.5170 H     1 <1>   0.0800 
 30 H       -4.8900    -3.3950     0.0410 H     1 <1>   0.4500 
 31 H       -4.7450    -4.3860    -2.1080 H     1 <1>   0.0800 
 32 H       -5.0620    -2.8420    -2.8460 H     1 <1>   0.0800 
 33 H       -5.7750    -1.0460    -1.2740 H     1 <1>   0.0800 
 34 H       -4.5560    -0.7760    -0.0520 H     1 <1>   0.0800 
 35 H       -7.0090    -4.5990    -2.3410 H     1 <1>   0.0800 
 36 H       -7.3040    -2.8930    -2.2450 H     1 <1>   0.0800 
 37 H       -6.6940    -0.7580     1.0230 H     1 <1>   0.0800 
 38 H       -5.8160    -2.1340     1.5620 H     1 <1>   0.0800 
 39 H       -8.2000    -2.0370    -0.2900 H     1 <1>   0.0800 
 40 H       -8.0570    -2.8500     1.2360 H     1 <1>   0.0800 
 41 H       -5.6340    -7.6480     0.7600 H     1 <1>   0.1500 
 42 H       -9.7380    -4.9300     0.0180 H     1 <1>   0.0800 
 43 H      -10.5400    -6.2630    -0.7690 H     1 <1>   0.0800 
 44 H       -9.4310    -5.2680    -1.6770 H     1 <1>   0.0800 
 45 H       -6.2450   -10.0970    -0.1120 H     1 <1>   0.0800 
 46 H       -7.9100   -10.3670    -0.5620 H     1 <1>   0.0800 
 47 H       -8.5970   -10.1570     1.8060 H     1 <1>   0.0800 
 48 H       -6.9370    -9.8780     2.2740 H     1 <1>   0.0800 
 49 H       -7.9910   -12.4260     1.0010 H     1 <1>   0.0800 
 50 H       -7.5760   -12.2230     2.6850 H     1 <1>   0.0800 
 51 H       -6.3260   -12.1490     1.4670 H     1 <1>   0.0800 
@<TRIPOS>BOND
  1   1   2  1   
  2   1   3  1   
  3   2   4  2   
  4   2  25  1   
  5   3   5  2   
  6   3  26  1   
  7   4   5  1   
  8   4   6  1   
  9   5  27  1   
 10   6   7  1   
 11   6  28  1   
 12   6  29  1   
 13   7   8  1   
 14   7   9  1   
 15   7  30  1   
 16   8  10  1   
 17   8  31  1   
 18   8  32  1   
 19   9  11  1   
 20   9  33  1   
 21   9  34  1   
 22  10  12  1   
 23  10  35  1   
 24  10  36  1   
 25  11  13  1   
 26  11  37  1   
 27  11  38  1   
 28  12  13  1   
 29  12  14  am  
 30  13  39  1   
 31  13  40  1   
 32  14  15  2   
 33  14  16  1   
 34  16  17  1   
 35  16  18  2   
 36  17  19  2   
 37  17  20  1   
 38  18  21  1   
 39  18  41  1   
 40  19  21  1   
 41  20  42  1   
 42  20  43  1   
 43  20  44  1   
 44  21  22  1   
 45  22  23  1   
 46  22  45  1   
 47  22  46  1   
 48  23  24  1   
 49  23  47  1   
 50  23  48  1   
 51  24  49  1   
 52  24  50  1   
 53  24  51  1   
@<TRIPOS>SUBSTRUCTURE
  1 ****  15 GROUP 4 **** **** 0

# MOE 2024.06 (io_trps.svl 2023.06)
