@<TRIPOS>MOLECULE
NONAME
45 46 1 0 0 
SMALL
USER_CHARGES


@<TRIPOS>ATOM
  1 O       -0.7680    -0.2350    -0.5740 O.2   1 <1>  -0.5700 
  2 C       -1.8670    -0.0760    -0.1000 C.2   1 <1>   0.5690 
  3 N       -2.4740     1.1040     0.1980 N.am  1 <1>  -0.6600 
  4 C       -2.7360    -1.2470     0.2560 C.3   1 <1>  -0.0990 
  5 C       -1.8830     2.4650     0.0350 C.3   1 <1>   0.3000 
  6 C       -3.8340     0.8840     0.7420 C.3   1 <1>   0.1400 
  7 C       -4.1060    -0.6120     0.5410 C.3   1 <1>  -0.0800 
  8 C       -1.5870     2.7040    -1.4480 C.3   1 <1>  -0.2400 
  9 C       -0.5980     2.5580     0.8640 C.3   1 <1>  -0.2400 
 10 C       -2.8450     3.5590     0.5200 C.3   1 <1>  -0.2400 
 11 C       -4.8540    -1.2320     1.7290 C.3   1 <1>   0.2090 
 12 N       -5.1630    -2.6640     1.4570 N.pl3 1 <1>  -0.8380 
 13 C       -6.2990    -3.0430     0.7620 C.ar  1 <1>   0.7200 
 14 C       -4.3340    -3.6760     2.1730 C.3   1 <1>   0.1290 
 15 N       -6.5540    -4.3500     0.6880 N.ar  1 <1>  -0.6200 
 16 N       -7.0380    -2.0720     0.2220 N.ar  1 <1>  -0.6200 
 17 C       -7.6260    -4.7010     0.0170 C.ar  1 <1>   0.1600 
 18 C       -8.1040    -2.4540    -0.4430 C.ar  1 <1>   0.1600 
 19 C       -8.4600    -3.7770    -0.5850 C.ar  1 <1>   0.0830 
 20 O       -9.5860    -4.0770    -1.2960 O.3   1 <1>  -0.3630 
 21 C       -9.9850    -5.4210    -1.4640 C.3   1 <1>   0.0400 
 22 H       -2.3240    -1.7210     1.1250 H     1 <1>   0.0800 
 23 H       -2.7880    -1.9490    -0.5550 H     1 <1>   0.0800 
 24 H       -4.5640     1.4660     0.2070 H     1 <1>   0.0800 
 25 H       -3.8450     1.1460     1.7860 H     1 <1>   0.0800 
 26 H       -4.7180    -0.7080    -0.3390 H     1 <1>   0.0800 
 27 H       -0.8500     2.0100    -1.8070 H     1 <1>   0.0800 
 28 H       -1.2030     3.6970    -1.5970 H     1 <1>   0.0800 
 29 H       -2.4830     2.5920    -2.0290 H     1 <1>   0.0800 
 30 H        0.1450     1.8730     0.5000 H     1 <1>   0.0800 
 31 H       -0.8030     2.3350     1.8950 H     1 <1>   0.0800 
 32 H       -0.1860     3.5490     0.8030 H     1 <1>   0.0800 
 33 H       -3.7480     3.5620    -0.0630 H     1 <1>   0.0800 
 34 H       -2.3860     4.5250     0.4100 H     1 <1>   0.0800 
 35 H       -3.0830     3.4260     1.5600 H     1 <1>   0.0800 
 36 H       -5.7700    -0.6930     1.9010 H     1 <1>   0.0800 
 37 H       -4.2600    -1.1490     2.6230 H     1 <1>   0.0800 
 38 H       -3.4440    -3.2290     2.5790 H     1 <1>   0.0800 
 39 H       -4.0440    -4.4570     1.4900 H     1 <1>   0.0800 
 40 H       -4.9070    -4.1100     2.9740 H     1 <1>   0.0800 
 41 H       -7.8370    -5.7510    -0.0480 H     1 <1>   0.1500 
 42 H       -8.7220    -1.6980    -0.8930 H     1 <1>   0.1500 
 43 H      -10.8870    -5.4300    -2.0490 H     1 <1>   0.0800 
 44 H      -10.1740    -5.8550    -0.4980 H     1 <1>   0.0800 
 45 H       -9.2100    -5.9560    -1.9840 H     1 <1>   0.0800 
@<TRIPOS>BOND
  1   1   2  2   
  2   2   3  am  
  3   2   4  1   
  4   3   5  1   
  5   3   6  1   
  6   4   7  1   
  7   4  22  1   
  8   4  23  1   
  9   5   8  1   
 10   5   9  1   
 11   5  10  1   
 12   6   7  1   
 13   6  24  1   
 14   6  25  1   
 15   7  11  1   
 16   7  26  1   
 17   8  27  1   
 18   8  28  1   
 19   8  29  1   
 20   9  30  1   
 21   9  31  1   
 22   9  32  1   
 23  10  33  1   
 24  10  34  1   
 25  10  35  1   
 26  11  12  1   
 27  11  36  1   
 28  11  37  1   
 29  12  13  1   
 30  12  14  1   
 31  13  15  ar  
 32  13  16  ar  
 33  14  38  1   
 34  14  39  1   
 35  14  40  1   
 36  15  17  ar  
 37  16  18  ar  
 38  17  19  ar  
 39  17  41  1   
 40  18  19  ar  
 41  18  42  1   
 42  19  20  1   
 43  20  21  1   
 44  21  43  1   
 45  21  44  1   
 46  21  45  1   
@<TRIPOS>SUBSTRUCTURE
  1 ****   7 GROUP 4 **** **** 0

# MOE 2024.06 (io_trps.svl 2023.06)
