@<TRIPOS>MOLECULE
NONAME
48 50 1 0 0 
SMALL
USER_CHARGES


@<TRIPOS>ATOM
  1 O       -1.5210     0.9660    -2.0590 O.2   1 <1>  -0.5700 
  2 C       -1.9620     0.9180    -0.9410 C.2   1 <1>   0.4230 
  3 C       -2.9980    -0.0040    -0.5650 C.ar  1 <1>   0.0860 
  4 C       -1.3170     1.8340     0.0810 C.3   1 <1>  -0.1790 
  5 C       -4.0900     0.2650     0.2600 C.ar  1 <1>   0.1660 
  6 C       -2.9430    -1.3010    -1.0520 C.ar  1 <1>   0.1600 
  7 N       -4.9570    -0.6570     0.5970 N.ar  1 <1>  -0.6200 
  8 C       -4.3830     1.6500     0.8130 C.3   1 <1>  -0.0960 
  9 N       -3.8040    -2.2370    -0.7380 N.ar  1 <1>  -0.6200 
 10 C       -4.7710    -1.8610     0.0880 C.ar  1 <1>   0.7200 
 11 N       -5.6800    -2.7770     0.4670 N.pl3 1 <1>  -0.8690 
 12 C       -5.8190    -4.1240    -0.0760 C.3   1 <1>   0.2890 
 13 C       -7.2900    -4.5270    -0.0420 C.3   1 <1>  -0.1600 
 14 C       -4.9700    -5.0760     0.7610 C.3   1 <1>  -0.1600 
 15 C       -7.4530    -5.9740    -0.4960 C.3   1 <1>   0.3430 
 16 C       -5.1600    -6.5120     0.2900 C.3   1 <1>   0.3430 
 17 N       -6.6070    -6.8700     0.3540 N.4   1 <1>  -0.9590 
 18 C       -6.8220    -8.3100     0.0270 C.3   1 <1>   0.4860 
 19 C       -8.2690    -8.6660     0.2900 C.ar  1 <1>  -0.1430 
 20 C       -8.7250    -8.8030     1.5930 C.ar  1 <1>   0.1600 
 21 C       -9.1600    -8.8510    -0.7510 C.ar  1 <1>  -0.1500 
 22 N       -9.9700    -9.0740     1.9290 N.ar  1 <1>  -0.6200 
 23 C      -10.4630    -9.1490    -0.4130 C.ar  1 <1>  -0.1500 
 24 C      -10.8130    -9.2460     0.9230 C.ar  1 <1>   0.1600 
 25 H       -1.4790     1.4700     1.0790 H     1 <1>   0.0800 
 26 H       -1.7150     2.8270    -0.0140 H     1 <1>   0.0800 
 27 H       -0.2580     1.8740    -0.0970 H     1 <1>   0.0800 
 28 H       -2.1420    -1.5600    -1.7260 H     1 <1>   0.1500 
 29 H       -4.1180     2.4120     0.1030 H     1 <1>   0.0800 
 30 H       -3.8450     1.8040     1.7300 H     1 <1>   0.0800 
 31 H       -5.4340     1.7480     1.0200 H     1 <1>   0.0800 
 32 H       -6.4040    -2.4110     1.0840 H     1 <1>   0.4000 
 33 H       -5.4720    -4.1350    -1.0980 H     1 <1>   0.0800 
 34 H       -7.8470    -3.8870    -0.7040 H     1 <1>   0.0800 
 35 H       -7.6890    -4.4160     0.9500 H     1 <1>   0.0800 
 36 H       -5.2290    -4.9940     1.8020 H     1 <1>   0.0800 
 37 H       -3.9340    -4.8080     0.6530 H     1 <1>   0.0800 
 38 H       -7.1590    -6.0630    -1.5300 H     1 <1>   0.0800 
 39 H       -8.4920    -6.2540    -0.4140 H     1 <1>   0.0800 
 40 H       -4.5840    -7.1720     0.9200 H     1 <1>   0.0800 
 41 H       -4.8000    -6.6080    -0.7220 H     1 <1>   0.0800 
 42 H       -6.9220    -6.7320     1.3230 H     1 <1>   0.4500 
 43 H       -6.1870    -8.9280     0.6410 H     1 <1>   0.0800 
 44 H       -6.5810    -8.4970    -1.0070 H     1 <1>   0.0800 
 45 H       -8.0370    -8.6820     2.4130 H     1 <1>   0.1500 
 46 H       -8.8710    -8.7740    -1.7870 H     1 <1>   0.1500 
 47 H      -11.2080    -9.3080    -1.1730 H     1 <1>   0.1500 
 48 H      -11.8340    -9.4780     1.1770 H     1 <1>   0.1500 
@<TRIPOS>BOND
  1   1   2  2   
  2   2   3  1   
  3   2   4  1   
  4   3   5  ar  
  5   3   6  ar  
  6   4  25  1   
  7   4  26  1   
  8   4  27  1   
  9   5   7  ar  
 10   5   8  1   
 11   6   9  ar  
 12   6  28  1   
 13   7  10  ar  
 14   8  29  1   
 15   8  30  1   
 16   8  31  1   
 17   9  10  ar  
 18  10  11  1   
 19  11  12  1   
 20  11  32  1   
 21  12  13  1   
 22  12  14  1   
 23  12  33  1   
 24  13  15  1   
 25  13  34  1   
 26  13  35  1   
 27  14  16  1   
 28  14  36  1   
 29  14  37  1   
 30  15  17  1   
 31  15  38  1   
 32  15  39  1   
 33  16  17  1   
 34  16  40  1   
 35  16  41  1   
 36  17  18  1   
 37  17  42  1   
 38  18  19  1   
 39  18  43  1   
 40  18  44  1   
 41  19  20  ar  
 42  19  21  ar  
 43  20  22  ar  
 44  20  45  1   
 45  21  23  ar  
 46  21  46  1   
 47  22  24  ar  
 48  23  24  ar  
 49  23  47  1   
 50  24  48  1   
@<TRIPOS>SUBSTRUCTURE
  1 ****  12 GROUP 4 **** **** 0

# MOE 2024.06 (io_trps.svl 2023.06)
