@<TRIPOS>MOLECULE
NONAME
52 54 1 0 0 
SMALL
USER_CHARGES


@<TRIPOS>ATOM
  1 O        0.4390     1.1710     0.9130 O.2   1 <1>  -0.5700 
  2 C        0.3600     2.3610     0.7510 C.2   1 <1>   0.5690 
  3 N       -0.7270     3.0430     1.1740 N.am  1 <1>  -0.7300 
  4 C        1.4850     3.1120     0.0310 C.3   1 <1>   0.1810 
  5 C       -0.8670     4.5120     1.0560 C.3   1 <1>   0.3640 
  6 O        1.4480     4.5130     0.2320 O.3   1 <1>  -0.5600 
  7 C       -2.2830     4.8520     0.6080 C.ar  1 <1>  -0.1440 
  8 C        0.1660     5.0980     0.0580 C.3   1 <1>   0.2610 
  9 C       -2.9470     5.9250     1.1890 C.ar  1 <1>   0.1600 
 10 C       -2.9300     4.1340    -0.3820 C.ar  1 <1>  -0.1500 
 11 C        0.2670     6.6240     0.1890 C.2   1 <1>   0.5690 
 12 N       -4.1630     6.3300     0.8640 N.ar  1 <1>  -0.6200 
 13 C       -4.2000     4.5400    -0.7270 C.ar  1 <1>  -0.1500 
 14 O        0.0010     7.1490     1.2480 O.2   1 <1>  -0.5700 
 15 N        0.7230     7.4060    -0.8460 N.am  1 <1>  -0.6600 
 16 C       -4.7630     5.6290    -0.0830 C.ar  1 <1>   0.1600 
 17 C        0.6000     8.8980    -0.7650 C.3   1 <1>   0.1400 
 18 C        1.6260     6.9160    -1.9220 C.3   1 <1>   0.1400 
 19 C        1.6260     9.5000     0.2170 C.3   1 <1>   0.3430 
 20 C        3.0910     6.9870    -1.4620 C.3   1 <1>  -0.1600 
 21 N        2.8240     8.6130     0.3930 N.4   1 <1>  -0.9590 
 22 C        3.5410     8.3360    -0.8880 C.3   1 <1>   0.3430 
 23 C        3.6640     9.0370     1.5370 C.3   1 <1>   0.4230 
 24 C        4.4910    10.2760     1.1940 C.3   1 <1>  -0.2400 
 25 C        4.5530     7.8720     1.9580 C.3   1 <1>  -0.2400 
 26 H       -1.4640     2.5340     1.6680 H     1 <1>   0.3700 
 27 H        1.4200     2.9180    -1.0240 H     1 <1>   0.0800 
 28 H        2.4330     2.7530     0.3890 H     1 <1>   0.0800 
 29 H       -0.6940     4.9310     2.0330 H     1 <1>   0.0800 
 30 H       -0.1620     4.8710    -0.9390 H     1 <1>   0.0800 
 31 H       -2.4530     6.4900     1.9620 H     1 <1>   0.1500 
 32 H       -2.4730     3.2890    -0.8700 H     1 <1>   0.1500 
 33 H       -4.7550     4.0200    -1.4870 H     1 <1>   0.1500 
 34 H       -5.7560     5.9380    -0.3600 H     1 <1>   0.1500 
 35 H        0.7370     9.3320    -1.7410 H     1 <1>   0.0800 
 36 H       -0.3930     9.1600    -0.4380 H     1 <1>   0.0800 
 37 H        1.3820     5.9010    -2.1850 H     1 <1>   0.0800 
 38 H        1.4870     7.5150    -2.8060 H     1 <1>   0.0800 
 39 H        1.1350     9.6140     1.1700 H     1 <1>   0.0800 
 40 H        1.9220    10.4800    -0.1190 H     1 <1>   0.0800 
 41 H        3.7090     6.7660    -2.3140 H     1 <1>   0.0800 
 42 H        3.2810     6.2120    -0.7410 H     1 <1>   0.0800 
 43 H        2.4010     7.7120     0.6680 H     1 <1>   0.4500 
 44 H        3.3560     9.1260    -1.5980 H     1 <1>   0.0800 
 45 H        4.6020     8.2930    -0.7080 H     1 <1>   0.0800 
 46 H        3.0170     9.2760     2.3680 H     1 <1>   0.0800 
 47 H        5.2100    10.0760     0.4210 H     1 <1>   0.0800 
 48 H        5.0340    10.5900     2.0680 H     1 <1>   0.0800 
 49 H        3.8600    11.0930     0.8970 H     1 <1>   0.0800 
 50 H        5.2730     7.6220     1.2010 H     1 <1>   0.0800 
 51 H        3.9570     7.0060     2.1870 H     1 <1>   0.0800 
 52 H        5.0940     8.1410     2.8490 H     1 <1>   0.0800 
@<TRIPOS>BOND
  1   1   2  2   
  2   2   3  am  
  3   2   4  1   
  4   3   5  1   
  5   3  26  1   
  6   4   6  1   
  7   4  27  1   
  8   4  28  1   
  9   5   7  1   
 10   5   8  1   
 11   5  29  1   
 12   6   8  1   
 13   7   9  ar  
 14   7  10  ar  
 15   8  11  1   
 16   8  30  1   
 17   9  12  ar  
 18   9  31  1   
 19  10  13  ar  
 20  10  32  1   
 21  11  14  2   
 22  11  15  am  
 23  12  16  ar  
 24  13  16  ar  
 25  13  33  1   
 26  15  17  1   
 27  15  18  1   
 28  16  34  1   
 29  17  19  1   
 30  17  35  1   
 31  17  36  1   
 32  18  20  1   
 33  18  37  1   
 34  18  38  1   
 35  19  21  1   
 36  19  39  1   
 37  19  40  1   
 38  20  22  1   
 39  20  41  1   
 40  20  42  1   
 41  21  22  1   
 42  21  23  1   
 43  21  43  1   
 44  22  44  1   
 45  22  45  1   
 46  23  24  1   
 47  23  25  1   
 48  23  46  1   
 49  24  47  1   
 50  24  48  1   
 51  24  49  1   
 52  25  50  1   
 53  25  51  1   
 54  25  52  1   
@<TRIPOS>SUBSTRUCTURE
  1 ****  11 GROUP 4 **** **** 0

# MOE 2024.06 (io_trps.svl 2023.06)
