@<TRIPOS>MOLECULE
NONAME
52 54 1 0 0 
SMALL
USER_CHARGES


@<TRIPOS>ATOM
  1 O        0.1360    -1.1550     1.6630 O.2   1 <1>  -0.5700 
  2 C        1.0920    -1.4340     0.9790 C.2   1 <1>   0.5690 
  3 N        1.0060    -2.2950    -0.0880 N.am  1 <1>  -0.6600 
  4 C        2.4220    -0.8020     1.3570 C.3   1 <1>  -0.0990 
  5 C        2.1290    -2.5530    -1.0320 C.3   1 <1>   0.1400 
  6 C       -0.2850    -2.9430    -0.4410 C.3   1 <1>   0.1400 
  7 C        3.4540    -0.8090     0.2220 C.3   1 <1>  -0.1600 
  8 C        3.4880    -2.1960    -0.4230 C.3   1 <1>  -0.1600 
  9 C       -0.2930    -4.3950     0.0480 C.3   1 <1>  -0.1600 
 10 C       -1.6550    -5.0700    -0.2100 C.3   1 <1>  -0.0990 
 11 C       -1.7020    -6.5490     0.1570 C.2   1 <1>   0.5690 
 12 O       -0.7500    -7.0620     0.6960 O.2   1 <1>  -0.5700 
 13 N       -2.8200    -7.2790    -0.1360 N.am  1 <1>  -0.6600 
 14 C       -4.0960    -6.7820    -0.7110 C.3   1 <1>   0.1400 
 15 C       -2.9110    -8.7350     0.1360 C.3   1 <1>   0.1400 
 16 C       -5.1160    -7.8640    -0.3580 C.3   1 <1>   0.2000 
 17 C       -4.2940    -9.1570    -0.3740 C.3   1 <1>  -0.0800 
 18 O       -5.5760    -7.6210     0.9280 O.3   1 <1>  -0.6800 
 19 C       -4.9080   -10.3410     0.3960 C.3   1 <1>  -0.0170 
 20 C       -4.0600   -11.5930     0.2360 C.ar  1 <1>  -0.1440 
 21 C       -3.1190   -11.9670     1.1730 C.ar  1 <1>  -0.1500 
 22 C       -4.1890   -12.4210    -0.8610 C.ar  1 <1>  -0.1500 
 23 C       -2.3700   -13.1150     0.9720 C.ar  1 <1>   0.1600 
 24 C       -3.3910   -13.5480    -0.9660 C.ar  1 <1>   0.1600 
 25 N       -2.4830   -13.9140    -0.0760 N.ar  1 <1>  -0.6200 
 26 H        2.2470     0.2080     1.6800 H     1 <1>   0.0800 
 27 H        2.8090    -1.3520     2.1950 H     1 <1>   0.0800 
 28 H        2.1340    -3.5910    -1.3170 H     1 <1>   0.0800 
 29 H        1.9690    -1.9630    -1.9180 H     1 <1>   0.0800 
 30 H       -1.1000    -2.4060     0.0160 H     1 <1>   0.0800 
 31 H       -0.4250    -2.9060    -1.5070 H     1 <1>   0.0800 
 32 H        3.1800    -0.0750    -0.5170 H     1 <1>   0.0800 
 33 H        4.4250    -0.5530     0.6100 H     1 <1>   0.0800 
 34 H        3.7500    -2.9370     0.3130 H     1 <1>   0.0800 
 35 H        4.2370    -2.2220    -1.1940 H     1 <1>   0.0800 
 36 H        0.4770    -4.9510    -0.4550 H     1 <1>   0.0800 
 37 H       -0.0890    -4.4120     1.1050 H     1 <1>   0.0800 
 38 H       -1.8960    -4.9800    -1.2530 H     1 <1>   0.0800 
 39 H       -2.4090    -4.5580     0.3590 H     1 <1>   0.0800 
 40 H       -4.3790    -5.8240    -0.3090 H     1 <1>   0.0800 
 41 H       -3.9930    -6.7120    -1.7800 H     1 <1>   0.0800 
 42 H       -2.1230    -9.2680    -0.3700 H     1 <1>   0.0800 
 43 H       -2.8220    -8.8970     1.1970 H     1 <1>   0.0800 
 44 H       -5.9610    -7.8840    -1.0250 H     1 <1>   0.0800 
 45 H       -4.1750    -9.4520    -1.4020 H     1 <1>   0.0800 
 46 H       -4.8060    -7.4740     1.5140 H     1 <1>   0.4000 
 47 H       -5.9000   -10.5320     0.0250 H     1 <1>   0.0800 
 48 H       -4.9990   -10.1030     1.4420 H     1 <1>   0.0800 
 49 H       -2.9580   -11.3790     2.0580 H     1 <1>   0.1500 
 50 H       -4.9020   -12.2010    -1.6350 H     1 <1>   0.1500 
 51 H       -1.6390   -13.3890     1.7130 H     1 <1>   0.1500 
 52 H       -3.5060   -14.1820    -1.8290 H     1 <1>   0.1500 
@<TRIPOS>BOND
  1   1   2  2   
  2   2   3  am  
  3   2   4  1   
  4   3   5  1   
  5   3   6  1   
  6   4   7  1   
  7   4  26  1   
  8   4  27  1   
  9   5   8  1   
 10   5  28  1   
 11   5  29  1   
 12   6   9  1   
 13   6  30  1   
 14   6  31  1   
 15   7   8  1   
 16   7  32  1   
 17   7  33  1   
 18   8  34  1   
 19   8  35  1   
 20   9  10  1   
 21   9  36  1   
 22   9  37  1   
 23  10  11  1   
 24  10  38  1   
 25  10  39  1   
 26  11  12  2   
 27  11  13  am  
 28  13  14  1   
 29  13  15  1   
 30  14  16  1   
 31  14  40  1   
 32  14  41  1   
 33  15  17  1   
 34  15  42  1   
 35  15  43  1   
 36  16  17  1   
 37  16  18  1   
 38  16  44  1   
 39  17  19  1   
 40  17  45  1   
 41  18  46  1   
 42  19  20  1   
 43  19  47  1   
 44  19  48  1   
 45  20  21  ar  
 46  20  22  ar  
 47  21  23  ar  
 48  21  49  1   
 49  22  24  ar  
 50  22  50  1   
 51  23  25  ar  
 52  23  51  1   
 53  24  25  ar  
 54  24  52  1   
@<TRIPOS>SUBSTRUCTURE
  1 ****  11 GROUP 4 **** **** 0

# MOE 2024.06 (io_trps.svl 2023.06)
