@<TRIPOS>MOLECULE
NONAME
47 49 1 0 0 
SMALL
USER_CHARGES


@<TRIPOS>ATOM
  1 F        1.1020     0.5980     1.8560 F     1 <1>  -0.1900 
  2 C        2.0090     1.3190     1.2540 C.ar  1 <1>   0.1900 
  3 C        3.2960     1.3260     1.7550 C.ar  1 <1>  -0.1500 
  4 C        1.6470     2.0470     0.1370 C.ar  1 <1>  -0.1500 
  5 C        4.2530     2.0930     1.1110 C.ar  1 <1>  -0.1500 
  6 C        2.6130     2.8100    -0.4980 C.ar  1 <1>  -0.1500 
  7 C        3.9160     2.8340    -0.0160 C.ar  1 <1>  -0.1430 
  8 C        4.9740     3.6720    -0.7150 C.3   1 <1>  -0.0160 
  9 C        5.0710     5.0610    -0.0730 C.3   1 <1>  -0.1600 
 10 C        6.1490     5.9290    -0.7500 C.3   1 <1>  -0.0990 
 11 C        6.3370     7.3050    -0.1170 C.2   1 <1>   0.5690 
 12 O        5.4850     7.7050     0.6430 O.2   1 <1>  -0.5700 
 13 N        7.4500     8.0600    -0.4080 N.am  1 <1>  -0.6600 
 14 C        7.8050     9.2090     0.4880 C.3   1 <1>   0.1400 
 15 C        8.4490     7.7170    -1.4700 C.3   1 <1>   0.1400 
 16 C        9.0950     9.0060     1.3180 C.3   1 <1>   0.2200 
 17 C        9.8570     7.3540    -0.9560 C.3   1 <1>  -0.0190 
 18 N       10.3020     9.3260     0.5030 N.am  1 <1>  -0.6600 
 19 C        9.2340     7.6330     2.0280 C.3   1 <1>   0.1200 
 20 C       10.6430     8.5940    -0.5960 C.2   1 <1>   0.5690 
 21 C        9.9650     6.3020     0.1640 C.3   1 <1>   0.1200 
 22 C       11.0720    10.5340     0.9170 C.3   1 <1>   0.0600 
 23 O        9.0680     6.5010     1.2130 O.3   1 <1>  -0.5600 
 24 O       11.5700     8.8970    -1.3090 O.2   1 <1>  -0.5700 
 25 H        3.5400     0.7490     2.6270 H     1 <1>   0.1500 
 26 H        0.6350     2.0170    -0.2220 H     1 <1>   0.1500 
 27 H        5.2600     2.1130     1.4900 H     1 <1>   0.1500 
 28 H        2.3470     3.3870    -1.3660 H     1 <1>   0.1500 
 29 H        5.9250     3.1730    -0.6480 H     1 <1>   0.0800 
 30 H        4.7270     3.7690    -1.7580 H     1 <1>   0.0800 
 31 H        5.3080     4.9560     0.9720 H     1 <1>   0.0800 
 32 H        4.1160     5.5540    -0.1430 H     1 <1>   0.0800 
 33 H        5.8950     6.0670    -1.7840 H     1 <1>   0.0800 
 34 H        7.0840     5.4050    -0.6890 H     1 <1>   0.0800 
 35 H        7.9000    10.1020    -0.1050 H     1 <1>   0.0800 
 36 H        7.0030     9.3850     1.1830 H     1 <1>   0.0800 
 37 H        8.0860     6.9010    -2.0660 H     1 <1>   0.0800 
 38 H        8.5350     8.5610    -2.1340 H     1 <1>   0.0800 
 39 H        9.0520     9.7380     2.1040 H     1 <1>   0.0800 
 40 H       10.3740     6.9310    -1.7980 H     1 <1>   0.0800 
 41 H        8.4730     7.5660     2.7850 H     1 <1>   0.0800 
 42 H       10.1920     7.5640     2.5130 H     1 <1>   0.0800 
 43 H       10.9630     6.2760     0.5690 H     1 <1>   0.0800 
 44 H        9.7430     5.3310    -0.2420 H     1 <1>   0.0800 
 45 H       11.4120    10.4200     1.9310 H     1 <1>   0.0800 
 46 H       10.4480    11.4070     0.8450 H     1 <1>   0.0800 
 47 H       11.9320    10.6760     0.2840 H     1 <1>   0.0800 
@<TRIPOS>BOND
  1   1   2  1   
  2   2   3  ar  
  3   2   4  ar  
  4   3   5  ar  
  5   3  25  1   
  6   4   6  ar  
  7   4  26  1   
  8   5   7  ar  
  9   5  27  1   
 10   6   7  ar  
 11   6  28  1   
 12   7   8  1   
 13   8   9  1   
 14   8  29  1   
 15   8  30  1   
 16   9  10  1   
 17   9  31  1   
 18   9  32  1   
 19  10  11  1   
 20  10  33  1   
 21  10  34  1   
 22  11  12  2   
 23  11  13  am  
 24  13  14  1   
 25  13  15  1   
 26  14  16  1   
 27  14  35  1   
 28  14  36  1   
 29  15  17  1   
 30  15  37  1   
 31  15  38  1   
 32  16  18  1   
 33  16  19  1   
 34  16  39  1   
 35  17  20  1   
 36  17  21  1   
 37  17  40  1   
 38  18  20  am  
 39  18  22  1   
 40  19  23  1   
 41  19  41  1   
 42  19  42  1   
 43  20  24  2   
 44  21  23  1   
 45  21  43  1   
 46  21  44  1   
 47  22  45  1   
 48  22  46  1   
 49  22  47  1   
@<TRIPOS>SUBSTRUCTURE
  1 ****  10 GROUP 4 **** **** 0

# MOE 2024.06 (io_trps.svl 2023.06)
