@<TRIPOS>MOLECULE
NONAME
40 42 1 0 0 
SMALL
USER_CHARGES


@<TRIPOS>ATOM
  1 CL      -0.9320     0.0430     1.2060 Cl    1 <1>  -0.1770 
  2 C       -2.2140    -0.9990     0.6320 C.ar  1 <1>   0.1770 
  3 C       -3.3220    -1.2420     1.4230 C.ar  1 <1>   0.1600 
  4 C       -2.1120    -1.5780    -0.6160 C.ar  1 <1>  -0.1500 
  5 N       -4.3400    -2.0160     1.0720 N.ar  1 <1>  -0.6200 
  6 C       -3.1640    -2.3830    -0.9910 C.ar  1 <1>  -0.1500 
  7 C       -4.2440    -2.5750    -0.1330 C.ar  1 <1>   0.4100 
  8 N       -5.2820    -3.3830    -0.5400 N.pl3 1 <1>  -0.8380 
  9 C       -6.5880    -2.7070    -0.7430 C.3   1 <1>   0.2090 
 10 C       -5.5080    -4.6260     0.2400 C.3   1 <1>   0.2090 
 11 C       -7.5110    -3.2520     0.3510 C.3   1 <1>  -0.0800 
 12 C       -7.0010    -4.6830     0.5780 C.3   1 <1>  -0.0800 
 13 C       -9.0420    -3.1250     0.0880 C.3   1 <1>   0.2800 
 14 C       -7.7720    -5.6890    -0.2920 C.3   1 <1>  -0.1600 
 15 O       -9.2970    -3.0890    -1.2710 O.3   1 <1>  -0.6800 
 16 C       -9.7780    -4.3620     0.6380 C.3   1 <1>  -0.1600 
 17 C       -9.6470    -1.8400     0.6940 C.3   1 <1>  -0.1600 
 18 C       -9.2750    -5.6960     0.0440 C.3   1 <1>  -0.1600 
 19 C       -9.0560    -0.5170     0.1760 C.3   1 <1>  -0.2400 
 20 H       -3.3690    -0.7750     2.3910 H     1 <1>   0.1500 
 21 H       -1.2610    -1.4030    -1.2480 H     1 <1>   0.1500 
 22 H       -3.1770    -2.8760    -1.9450 H     1 <1>   0.1500 
 23 H       -6.4910    -1.6380    -0.6790 H     1 <1>   0.0800 
 24 H       -6.9430    -2.9670    -1.7250 H     1 <1>   0.0800 
 25 H       -5.2040    -5.4810    -0.3390 H     1 <1>   0.0800 
 26 H       -4.9280    -4.5990     1.1480 H     1 <1>   0.0800 
 27 H       -7.2790    -2.7080     1.2490 H     1 <1>   0.0800 
 28 H       -7.1170    -4.9630     1.6110 H     1 <1>   0.0800 
 29 H       -7.6480    -5.4130    -1.3260 H     1 <1>   0.0800 
 30 H       -7.3700    -6.6790    -0.1690 H     1 <1>   0.0800 
 31 H      -10.2590    -3.0710    -1.4160 H     1 <1>   0.4000 
 32 H       -9.6220    -4.3900     1.7020 H     1 <1>   0.0800 
 33 H      -10.8380    -4.2720     0.4820 H     1 <1>   0.0800 
 34 H      -10.7070    -1.8350     0.5150 H     1 <1>   0.0800 
 35 H       -9.5140    -1.8690     1.7620 H     1 <1>   0.0800 
 36 H       -9.4840    -6.4850     0.7450 H     1 <1>   0.0800 
 37 H       -9.8220    -5.9130    -0.8580 H     1 <1>   0.0800 
 38 H       -9.1130    -0.4670    -0.8980 H     1 <1>   0.0800 
 39 H       -8.0290    -0.4140     0.4750 H     1 <1>   0.0800 
 40 H       -9.6060     0.3130     0.5830 H     1 <1>   0.0800 
@<TRIPOS>BOND
  1   1   2  1   
  2   2   3  ar  
  3   2   4  ar  
  4   3   5  ar  
  5   3  20  1   
  6   4   6  ar  
  7   4  21  1   
  8   5   7  ar  
  9   6   7  ar  
 10   6  22  1   
 11   7   8  1   
 12   8   9  1   
 13   8  10  1   
 14   9  11  1   
 15   9  23  1   
 16   9  24  1   
 17  10  12  1   
 18  10  25  1   
 19  10  26  1   
 20  11  12  1   
 21  11  13  1   
 22  11  27  1   
 23  12  14  1   
 24  12  28  1   
 25  13  15  1   
 26  13  16  1   
 27  13  17  1   
 28  14  18  1   
 29  14  29  1   
 30  14  30  1   
 31  15  31  1   
 32  16  18  1   
 33  16  32  1   
 34  16  33  1   
 35  17  19  1   
 36  17  34  1   
 37  17  35  1   
 38  18  36  1   
 39  18  37  1   
 40  19  38  1   
 41  19  39  1   
 42  19  40  1   
@<TRIPOS>SUBSTRUCTURE
  1 ****   9 GROUP 4 **** **** 0

# MOE 2024.06 (io_trps.svl 2023.06)
