@<TRIPOS>MOLECULE
NONAME
48 50 1 0 0 
SMALL
USER_CHARGES


@<TRIPOS>ATOM
  1 O       -0.7190     0.0570     0.8060 O.2   1 <1>  -0.5700 
  2 C       -1.3360     0.9870     0.3180 C.2   1 <1>   0.7160 
  3 N       -2.6300     0.7700    -0.1180 N.am  1 <1>  -0.6600 
  4 C       -0.6950     2.2760     0.2000 C.2   1 <1>  -0.0860 
  5 C       -3.3340    -0.5130     0.2010 C.3   1 <1>   0.1400 
  6 C       -3.2770     1.6420    -1.1420 C.3   1 <1>   0.1400 
  7 C        0.5490     2.5830    -0.2620 C.2   1 <1>  -0.0400 
  8 C       -1.2390     3.5270     0.5640 C.2   1 <1>  -0.1500 
  9 C       -4.7940    -0.3190     0.6380 C.3   1 <1>   0.1400 
 10 C       -4.4770     2.3740    -0.5300 C.3   1 <1>  -0.1600 
 11 O        0.7660     3.8750    -0.2180 O.3   1 <1>  -0.2800 
 12 C        1.6530     1.6910    -0.7920 C.3   1 <1>  -0.0600 
 13 C       -0.3030     4.4530     0.2810 C.2   1 <1>  -0.0400 
 14 N       -5.6550     0.1310    -0.5010 N.am  1 <1>  -0.6600 
 15 C       -5.8020     1.6100    -0.6520 C.3   1 <1>   0.1400 
 16 C       -0.3010     5.9550     0.4500 C.3   1 <1>  -0.0600 
 17 C       -6.3450    -0.7200    -1.3370 C.2   1 <1>   0.5690 
 18 O       -7.0110    -0.2970    -2.2540 O.2   1 <1>  -0.5700 
 19 C       -6.2960    -2.2340    -1.1870 C.3   1 <1>   0.0810 
 20 C       -7.3600    -2.7420    -0.2310 C.2   1 <1>  -0.0400 
 21 O       -7.2350    -2.5580     1.0560 O.3   1 <1>  -0.0190 
 22 C       -8.5070    -3.4050    -0.4410 C.2   1 <1>  -0.1500 
 23 N       -8.2330    -3.0620     1.7190 N.2   1 <1>  -0.4100 
 24 C       -9.0190    -3.5770     0.8420 C.2   1 <1>   0.1080 
 25 C      -10.3210    -4.2740     1.1690 C.3   1 <1>  -0.0590 
 26 H       -2.8220    -1.0140     1.0050 H     1 <1>   0.0800 
 27 H       -3.2940    -1.1600    -0.6570 H     1 <1>   0.0800 
 28 H       -3.5890     1.0480    -1.9850 H     1 <1>   0.0800 
 29 H       -2.5700     2.3650    -1.5100 H     1 <1>   0.0800 
 30 H       -2.2140     3.6730     0.9910 H     1 <1>   0.1500 
 31 H       -4.8400     0.3950     1.4420 H     1 <1>   0.0800 
 32 H       -5.1600    -1.2480     1.0310 H     1 <1>   0.0800 
 33 H       -4.6000     3.3120    -1.0390 H     1 <1>   0.0800 
 34 H       -4.2820     2.6030     0.5020 H     1 <1>   0.0800 
 35 H        1.3440     0.6620    -0.7940 H     1 <1>   0.0800 
 36 H        2.5240     1.7900    -0.1700 H     1 <1>   0.0800 
 37 H        1.9050     1.9830    -1.7950 H     1 <1>   0.0800 
 38 H       -6.2230     1.8310    -1.6180 H     1 <1>   0.0800 
 39 H       -6.4970     1.9700     0.0870 H     1 <1>   0.0800 
 40 H       -1.2330     6.2850     0.8720 H     1 <1>   0.0800 
 41 H       -0.1610     6.4270    -0.5060 H     1 <1>   0.0800 
 42 H        0.5020     6.2440     1.1030 H     1 <1>   0.0800 
 43 H       -5.3260    -2.5550    -0.8630 H     1 <1>   0.0800 
 44 H       -6.4700    -2.6680    -2.1530 H     1 <1>   0.0800 
 45 H       -8.9560    -3.7340    -1.3600 H     1 <1>   0.1500 
 46 H      -11.1360    -3.7650     0.6890 H     1 <1>   0.0800 
 47 H      -10.4840    -4.2670     2.2320 H     1 <1>   0.0800 
 48 H      -10.2870    -5.2920     0.8280 H     1 <1>   0.0800 
@<TRIPOS>BOND
  1   1   2  2   
  2   2   3  am  
  3   2   4  1   
  4   3   5  1   
  5   3   6  1   
  6   4   7  2   
  7   4   8  1   
  8   5   9  1   
  9   5  26  1   
 10   5  27  1   
 11   6  10  1   
 12   6  28  1   
 13   6  29  1   
 14   7  11  1   
 15   7  12  1   
 16   8  13  2   
 17   8  30  1   
 18   9  14  1   
 19   9  31  1   
 20   9  32  1   
 21  10  15  1   
 22  10  33  1   
 23  10  34  1   
 24  11  13  1   
 25  12  35  1   
 26  12  36  1   
 27  12  37  1   
 28  13  16  1   
 29  14  15  1   
 30  14  17  am  
 31  15  38  1   
 32  15  39  1   
 33  16  40  1   
 34  16  41  1   
 35  16  42  1   
 36  17  18  2   
 37  17  19  1   
 38  19  20  1   
 39  19  43  1   
 40  19  44  1   
 41  20  21  1   
 42  20  22  2   
 43  21  23  1   
 44  22  24  1   
 45  22  45  1   
 46  23  24  2   
 47  24  25  1   
 48  25  46  1   
 49  25  47  1   
 50  25  48  1   
@<TRIPOS>SUBSTRUCTURE
  1 ****   5 GROUP 4 **** **** 0

# MOE 2024.06 (io_trps.svl 2023.06)
