@<TRIPOS>MOLECULE
NONAME
45 47 1 0 0 
SMALL
USER_CHARGES


@<TRIPOS>ATOM
  1 O       -1.4850     0.6060     1.5680 O.3   1 <1>  -0.8290 
  2 C       -2.3860    -0.1810     1.1940 C.ar  1 <1>   0.1390 
  3 N       -2.9210    -0.0390    -0.0430 N.ar  1 <1>  -0.3100 
  4 C       -2.8100    -1.1790     2.0660 C.ar  1 <1>  -0.1500 
  5 N       -3.8680    -0.8510    -0.4450 N.ar  1 <1>  -0.3100 
  6 C       -3.7990    -2.0180     1.6410 C.ar  1 <1>  -0.1500 
  7 C       -4.3030    -1.8090     0.3670 C.ar  1 <1>   0.1670 
  8 C       -5.4220    -2.6930    -0.1570 C.3   1 <1>  -0.0160 
  9 C       -6.7080    -1.8740    -0.3550 C.3   1 <1>  -0.0990 
 10 C       -7.9140    -2.6920    -0.7890 C.2   1 <1>   0.5690 
 11 O       -7.8020    -3.8950    -0.8510 O.2   1 <1>  -0.5700 
 12 N       -9.1000    -2.0630    -1.0840 N.am  1 <1>  -0.6600 
 13 C      -10.3010    -2.8310    -1.5170 C.3   1 <1>   0.1400 
 14 C       -9.3410    -0.5940    -1.0070 C.3   1 <1>   0.1400 
 15 C      -11.4440    -2.5810    -0.5310 C.3   1 <1>  -0.1600 
 16 C      -10.4640    -0.3260    -0.0040 C.3   1 <1>  -0.1600 
 17 C      -11.7440    -1.0870    -0.3750 C.3   1 <1>   0.4180 
 18 O      -12.2010    -0.6450    -1.6310 O.3   1 <1>  -0.5600 
 19 C      -12.8250    -0.8890     0.6850 C.2   1 <1>  -0.2880 
 20 C      -12.9450     0.5410    -1.6690 C.3   1 <1>   0.1200 
 21 C      -13.9710    -0.2380     0.4750 C.2   1 <1>  -0.2760 
 22 C      -14.2510     0.3860    -0.8790 C.3   1 <1>  -0.0220 
 23 C      -15.0690    -0.0710     1.5110 C.3   1 <1>  -0.1020 
 24 H       -2.3450    -1.2420     3.0290 H     1 <1>   0.1500 
 25 H       -4.1670    -2.8020     2.2720 H     1 <1>   0.1500 
 26 H       -5.6060    -3.4970     0.5340 H     1 <1>   0.0800 
 27 H       -5.1180    -3.1250    -1.0940 H     1 <1>   0.0800 
 28 H       -6.5170    -1.1250    -1.1000 H     1 <1>   0.0800 
 29 H       -6.9470    -1.3800     0.5690 H     1 <1>   0.0800 
 30 H      -10.0870    -3.8860    -1.5630 H     1 <1>   0.0800 
 31 H      -10.5890    -2.5080    -2.5030 H     1 <1>   0.0800 
 32 H       -9.6280    -0.2360    -1.9820 H     1 <1>   0.0800 
 33 H       -8.4580    -0.0600    -0.7060 H     1 <1>   0.0800 
 34 H      -11.1690    -2.9970     0.4210 H     1 <1>   0.0800 
 35 H      -12.3310    -3.0860    -0.8650 H     1 <1>   0.0800 
 36 H      -10.6630     0.7270     0.0560 H     1 <1>   0.0800 
 37 H      -10.1350    -0.6420     0.9690 H     1 <1>   0.0800 
 38 H      -12.5700    -1.3400     1.6270 H     1 <1>   0.1500 
 39 H      -13.1560     0.7630    -2.7000 H     1 <1>   0.0800 
 40 H      -12.3480     1.3350    -1.2590 H     1 <1>   0.0800 
 41 H      -14.9390    -0.2300    -1.4300 H     1 <1>   0.0800 
 42 H      -14.6930     1.3590    -0.7580 H     1 <1>   0.0800 
 43 H      -15.9840    -0.5100     1.1530 H     1 <1>   0.0800 
 44 H      -15.2370     0.9720     1.7110 H     1 <1>   0.0800 
 45 H      -14.7950    -0.5560     2.4310 H     1 <1>   0.0800 
@<TRIPOS>BOND
  1   1   2  1   
  2   2   3  ar  
  3   2   4  ar  
  4   3   5  ar  
  5   4   6  ar  
  6   4  24  1   
  7   5   7  ar  
  8   6   7  ar  
  9   6  25  1   
 10   7   8  1   
 11   8   9  1   
 12   8  26  1   
 13   8  27  1   
 14   9  10  1   
 15   9  28  1   
 16   9  29  1   
 17  10  11  2   
 18  10  12  am  
 19  12  13  1   
 20  12  14  1   
 21  13  15  1   
 22  13  30  1   
 23  13  31  1   
 24  14  16  1   
 25  14  32  1   
 26  14  33  1   
 27  15  17  1   
 28  15  34  1   
 29  15  35  1   
 30  16  17  1   
 31  16  36  1   
 32  16  37  1   
 33  17  18  1   
 34  17  19  1   
 35  18  20  1   
 36  19  21  2   
 37  19  38  1   
 38  20  22  1   
 39  20  39  1   
 40  20  40  1   
 41  21  22  1   
 42  21  23  1   
 43  22  41  1   
 44  22  42  1   
 45  23  43  1   
 46  23  44  1   
 47  23  45  1   
@<TRIPOS>SUBSTRUCTURE
  1 ****  14 GROUP 4 **** **** 0

# MOE 2024.06 (io_trps.svl 2023.06)
