@<TRIPOS>MOLECULE
NONAME
52 55 1 0 0 
SMALL
USER_CHARGES


@<TRIPOS>ATOM
  1 O       -1.7630     1.3240     2.9940 O.2   1 <1>  -0.5700 
  2 C       -2.0100     1.4120     1.8130 C.2   1 <1>   0.5690 
  3 N       -2.5640     0.3590     1.1230 N.am  1 <1>  -0.6600 
  4 C       -1.6920     2.7470     1.1440 C.3   1 <1>   0.0820 
  5 C       -2.8770     0.3490    -0.3420 C.3   1 <1>   0.1400 
  6 C       -2.7850    -0.9680     1.7780 C.3   1 <1>   0.1400 
  7 C       -0.7720     2.6440    -0.0710 C.2   1 <1>  -0.1810 
  8 C       -4.2600    -0.2680    -0.6250 C.3   1 <1>   0.1900 
  9 C       -4.1680    -1.5450     1.4350 C.3   1 <1>   0.1100 
 10 C       -0.9610     3.2660    -1.3060 C.2   1 <1>   0.1080 
 11 C        0.3750     1.9420    -0.2140 C.2   1 <1>  -0.3320 
 12 N       -4.3740    -1.6200    -0.0280 N.3   1 <1>  -0.8100 
 13 C       -4.5170    -0.3230    -2.1440 C.3   1 <1>   0.1200 
 14 N       -0.0330     2.9620    -2.1550 N.2   1 <1>  -0.7070 
 15 C       -2.0960     4.1970    -1.6740 C.3   1 <1>  -0.0590 
 16 N        0.7970     2.1500    -1.4780 N.pl3 1 <1>   0.3000 
 17 C        1.1260     1.0650     0.7740 C.3   1 <1>  -0.0600 
 18 C       -5.6880    -2.2150    -0.3720 C.3   1 <1>   0.3330 
 19 O       -5.7770    -0.8730    -2.4050 O.3   1 <1>  -0.5600 
 20 C       -5.7810    -3.6610     0.1130 C.ar  1 <1>  -0.1440 
 21 C       -5.9250    -2.1730    -1.8980 C.3   1 <1>   0.1200 
 22 C       -6.9110    -4.0960     0.7920 C.ar  1 <1>  -0.1500 
 23 C       -4.7470    -4.5580    -0.1200 C.ar  1 <1>  -0.1500 
 24 C       -7.0050    -5.4060     1.2300 C.ar  1 <1>  -0.1500 
 25 C       -4.8400    -5.8680     0.3170 C.ar  1 <1>  -0.1500 
 26 C       -5.9700    -6.2930     0.9920 C.ar  1 <1>  -0.1500 
 27 H       -2.6240     3.2010     0.8680 H     1 <1>   0.0800 
 28 H       -1.2240     3.3900     1.8660 H     1 <1>   0.0800 
 29 H       -2.8720     1.3460    -0.7380 H     1 <1>   0.0800 
 30 H       -2.1200    -0.2170    -0.8560 H     1 <1>   0.0800 
 31 H       -2.0270    -1.6540     1.4410 H     1 <1>   0.0800 
 32 H       -2.6990    -0.8810     2.8470 H     1 <1>   0.0800 
 33 H       -5.0030     0.3780    -0.1900 H     1 <1>   0.0800 
 34 H       -4.9280    -0.9300     1.8850 H     1 <1>   0.0800 
 35 H       -4.2380    -2.5290     1.8650 H     1 <1>   0.0800 
 36 H       -3.7700    -0.9220    -2.6350 H     1 <1>   0.0800 
 37 H       -4.5020     0.6670    -2.5640 H     1 <1>   0.0800 
 38 H       -2.1870     4.9730    -0.9380 H     1 <1>   0.0800 
 39 H       -3.0160     3.6480    -1.7370 H     1 <1>   0.0800 
 40 H       -1.8970     4.6500    -2.6280 H     1 <1>   0.0800 
 41 H        1.6450     1.7600    -1.9050 H     1 <1>   0.2700 
 42 H        0.7250     1.1750     1.7660 H     1 <1>   0.0800 
 43 H        2.1650     1.3420     0.8030 H     1 <1>   0.0800 
 44 H        1.0460     0.0320     0.4870 H     1 <1>   0.0800 
 45 H       -6.4660    -1.6390     0.0970 H     1 <1>   0.0800 
 46 H       -6.9220    -2.5030    -2.1230 H     1 <1>   0.0800 
 47 H       -5.2270    -2.8190    -2.4010 H     1 <1>   0.0800 
 48 H       -7.7240    -3.4190     0.9840 H     1 <1>   0.1500 
 49 H       -3.8640    -4.2290    -0.6400 H     1 <1>   0.1500 
 50 H       -7.8840    -5.7360     1.7550 H     1 <1>   0.1500 
 51 H       -4.0330    -6.5550     0.1320 H     1 <1>   0.1500 
 52 H       -6.0430    -7.3110     1.3320 H     1 <1>   0.1500 
@<TRIPOS>BOND
  1   1   2  2   
  2   2   3  am  
  3   2   4  1   
  4   3   5  1   
  5   3   6  1   
  6   4   7  1   
  7   4  27  1   
  8   4  28  1   
  9   5   8  1   
 10   5  29  1   
 11   5  30  1   
 12   6   9  1   
 13   6  31  1   
 14   6  32  1   
 15   7  10  1   
 16   7  11  2   
 17   8  12  1   
 18   8  13  1   
 19   8  33  1   
 20   9  12  1   
 21   9  34  1   
 22   9  35  1   
 23  10  14  2   
 24  10  15  1   
 25  11  16  1   
 26  11  17  1   
 27  12  18  1   
 28  13  19  1   
 29  13  36  1   
 30  13  37  1   
 31  14  16  1   
 32  15  38  1   
 33  15  39  1   
 34  15  40  1   
 35  16  41  1   
 36  17  42  1   
 37  17  43  1   
 38  17  44  1   
 39  18  20  1   
 40  18  21  1   
 41  18  45  1   
 42  19  21  1   
 43  20  22  ar  
 44  20  23  ar  
 45  21  46  1   
 46  21  47  1   
 47  22  24  ar  
 48  22  48  1   
 49  23  25  ar  
 50  23  49  1   
 51  24  26  ar  
 52  24  50  1   
 53  25  26  ar  
 54  25  51  1   
 55  26  52  1   
@<TRIPOS>SUBSTRUCTURE
  1 ****   5 GROUP 4 **** **** 0

# MOE 2024.06 (io_trps.svl 2023.06)
