@<TRIPOS>MOLECULE
NONAME
40 41 1 0 0 
SMALL
USER_CHARGES


@<TRIPOS>ATOM
  1 CL      -2.2660    -1.2680     2.1730 Cl    1 <1>  -0.1770 
  2 C       -2.9870    -0.0880     1.1000 C.ar  1 <1>   0.1770 
  3 C       -3.4450    -0.4260    -0.1700 C.ar  1 <1>   0.0860 
  4 C       -3.0780     1.2130     1.5620 C.ar  1 <1>   0.1600 
  5 C       -3.4190    -1.7530    -0.7560 C.2   1 <1>   0.5440 
  6 C       -3.9630     0.6480    -0.8870 C.ar  1 <1>  -0.1500 
  7 N       -3.5850     2.2240     0.8740 N.ar  1 <1>  -0.6200 
  8 O       -3.3900    -1.8830    -1.9630 O.2   1 <1>  -0.5700 
  9 N       -3.4820    -2.8860    -0.0010 N.am  1 <1>  -0.7300 
 10 C       -4.0110     1.9160    -0.3400 C.ar  1 <1>   0.1600 
 11 C       -3.3950    -4.2750    -0.5150 C.3   1 <1>   0.2200 
 12 C       -4.7680    -4.9270    -0.5420 C.3   1 <1>  -0.0800 
 13 C       -2.6950    -5.1370     0.5240 C.3   1 <1>   0.1200 
 14 C       -4.9370    -5.4210     0.9010 C.3   1 <1>   0.1200 
 15 C       -5.9030    -4.0190    -1.0630 C.3   1 <1>  -0.0550 
 16 O       -3.6680    -5.3950     1.4890 O.3   1 <1>  -0.5600 
 17 S       -7.4700    -4.8590    -1.3080 S.o2  1 <1>   1.3330 
 18 O       -7.2090    -6.0910    -2.0180 O.2   1 <1>  -0.6500 
 19 O       -8.4340    -3.9190    -1.8330 O.2   1 <1>  -0.6500 
 20 N       -7.9660    -5.2610     0.2670 N.am  1 <1>  -0.8490 
 21 C       -8.8390    -6.4390     0.2870 C.3   1 <1>   0.1160 
 22 C       -8.6180    -4.1510     0.9720 C.3   1 <1>   0.1160 
 23 H       -2.7130     1.4300     2.5510 H     1 <1>   0.1500 
 24 H       -4.3320     0.4890    -1.8860 H     1 <1>   0.1500 
 25 H       -3.4750    -2.8310     1.0230 H     1 <1>   0.3700 
 26 H       -4.4220     2.7200    -0.9290 H     1 <1>   0.1500 
 27 H       -2.8990    -4.3010    -1.4720 H     1 <1>   0.0800 
 28 H       -4.7070    -5.7940    -1.1770 H     1 <1>   0.0800 
 29 H       -1.8510    -4.6480     0.9780 H     1 <1>   0.0800 
 30 H       -2.3910    -6.0790     0.1000 H     1 <1>   0.0800 
 31 H       -5.3210    -6.4270     0.9370 H     1 <1>   0.0800 
 32 H       -5.5720    -4.7700     1.4760 H     1 <1>   0.0800 
 33 H       -5.5920    -3.6130    -2.0070 H     1 <1>   0.0800 
 34 H       -6.0460    -3.1950    -0.3950 H     1 <1>   0.0800 
 35 H       -9.1270    -6.6740     1.2970 H     1 <1>   0.0800 
 36 H       -8.3190    -7.2900    -0.1210 H     1 <1>   0.0800 
 37 H       -9.7230    -6.2600    -0.3030 H     1 <1>   0.0800 
 38 H       -8.8290    -4.4320     1.9890 H     1 <1>   0.0800 
 39 H       -9.5420    -3.8850     0.4830 H     1 <1>   0.0800 
 40 H       -7.9750    -3.2890     0.9850 H     1 <1>   0.0800 
@<TRIPOS>BOND
  1   1   2  1   
  2   2   3  ar  
  3   2   4  ar  
  4   3   5  1   
  5   3   6  ar  
  6   4   7  ar  
  7   4  23  1   
  8   5   8  2   
  9   5   9  am  
 10   6  10  ar  
 11   6  24  1   
 12   7  10  ar  
 13   9  11  1   
 14   9  25  1   
 15  10  26  1   
 16  11  12  1   
 17  11  13  1   
 18  11  27  1   
 19  12  14  1   
 20  12  15  1   
 21  12  28  1   
 22  13  16  1   
 23  13  29  1   
 24  13  30  1   
 25  14  16  1   
 26  14  31  1   
 27  14  32  1   
 28  15  17  1   
 29  15  33  1   
 30  15  34  1   
 31  17  18  2   
 32  17  19  2   
 33  17  20  am  
 34  20  21  1   
 35  20  22  1   
 36  21  35  1   
 37  21  36  1   
 38  21  37  1   
 39  22  38  1   
 40  22  39  1   
 41  22  40  1   
@<TRIPOS>SUBSTRUCTURE
  1 ****   9 GROUP 4 **** **** 0

# MOE 2024.06 (io_trps.svl 2023.06)
