@<TRIPOS>MOLECULE
NONAME
44 46 1 0 0 
SMALL
USER_CHARGES


@<TRIPOS>ATOM
  1 S       -0.1960     0.4800    -2.2920 S.3   1 <1>  -0.0800 
  2 C        0.8140     1.8610    -1.9010 C.2   1 <1>  -0.1100 
  3 C       -1.6160     1.2890    -1.6540 C.2   1 <1>  -0.1100 
  4 C        0.0890     2.8390    -1.3260 C.2   1 <1>  -0.1810 
  5 C       -1.3000     2.5110    -1.1900 C.2   1 <1>  -0.1500 
  6 C        0.6370     4.1780    -0.8520 C.3   1 <1>   0.0210 
  7 C        0.6550     4.2730     0.6830 C.3   1 <1>   0.2890 
  8 N        0.8310     5.6690     1.1620 N.pl3 1 <1>  -0.8690 
  9 C        1.7060     3.3740     1.3340 C.3   1 <1>  -0.2400 
 10 C        1.9000     6.5070     0.9590 C.ar  1 <1>   0.4100 
 11 N        2.8110     6.1750     0.0550 N.ar  1 <1>  -0.6200 
 12 C        1.9890     7.6770     1.7100 C.ar  1 <1>  -0.1500 
 13 C        3.8230     7.0110    -0.1000 C.ar  1 <1>   0.1600 
 14 C        3.0430     8.5400     1.5320 C.ar  1 <1>  -0.1500 
 15 C        4.0050     8.2120     0.5810 C.ar  1 <1>   0.0860 
 16 C        5.1510     9.0450     0.3020 C.2   1 <1>   0.5440 
 17 O        6.2340     8.5210     0.1170 O.2   1 <1>  -0.5700 
 18 N        5.0610    10.4190     0.2230 N.am  1 <1>  -0.6600 
 19 C        6.2750    11.2930     0.2460 C.3   1 <1>   0.1400 
 20 C        3.8270    11.1480    -0.2010 C.3   1 <1>   0.1400 
 21 C        6.3930    12.0900    -1.0630 C.3   1 <1>   0.1200 
 22 C        4.0890    11.9670    -1.4770 C.3   1 <1>   0.1200 
 23 O        5.2090    12.7920    -1.3190 O.3   1 <1>  -0.5600 
 24 H        1.8590     1.7920    -2.1450 H     1 <1>   0.1500 
 25 H       -2.5490     0.7560    -1.6980 H     1 <1>   0.1500 
 26 H       -1.9950     3.2060    -0.7530 H     1 <1>   0.1500 
 27 H        0.0250     4.9670    -1.2510 H     1 <1>   0.0800 
 28 H        1.6320     4.2990    -1.2370 H     1 <1>   0.0800 
 29 H       -0.3110     3.9460     1.0310 H     1 <1>   0.0800 
 30 H        0.2480     5.8820     1.9700 H     1 <1>   0.4000 
 31 H        2.6900     3.6300     0.9860 H     1 <1>   0.0800 
 32 H        1.5150     2.3460     1.0830 H     1 <1>   0.0800 
 33 H        1.6710     3.4750     2.4030 H     1 <1>   0.0800 
 34 H        1.2240     7.8930     2.4310 H     1 <1>   0.1500 
 35 H        4.5720     6.7350    -0.8230 H     1 <1>   0.1500 
 36 H        3.1340     9.4420     2.1100 H     1 <1>   0.1500 
 37 H        7.1660    10.7060     0.3880 H     1 <1>   0.0800 
 38 H        6.2000    11.9790     1.0700 H     1 <1>   0.0800 
 39 H        3.5190    11.8120     0.5870 H     1 <1>   0.0800 
 40 H        3.0240    10.4580    -0.3930 H     1 <1>   0.0800 
 41 H        6.5930    11.4300    -1.8890 H     1 <1>   0.0800 
 42 H        7.1920    12.8060    -0.9900 H     1 <1>   0.0800 
 43 H        3.2460    12.5980    -1.6940 H     1 <1>   0.0800 
 44 H        4.2590    11.3150    -2.3170 H     1 <1>   0.0800 
@<TRIPOS>BOND
  1   1   2  1   
  2   1   3  1   
  3   2   4  2   
  4   2  24  1   
  5   3   5  2   
  6   3  25  1   
  7   4   5  1   
  8   4   6  1   
  9   5  26  1   
 10   6   7  1   
 11   6  27  1   
 12   6  28  1   
 13   7   8  1   
 14   7   9  1   
 15   7  29  1   
 16   8  10  1   
 17   8  30  1   
 18   9  31  1   
 19   9  32  1   
 20   9  33  1   
 21  10  11  ar  
 22  10  12  ar  
 23  11  13  ar  
 24  12  14  ar  
 25  12  34  1   
 26  13  15  ar  
 27  13  35  1   
 28  14  15  ar  
 29  14  36  1   
 30  15  16  1   
 31  16  17  2   
 32  16  18  am  
 33  18  19  1   
 34  18  20  1   
 35  19  21  1   
 36  19  37  1   
 37  19  38  1   
 38  20  22  1   
 39  20  39  1   
 40  20  40  1   
 41  21  23  1   
 42  21  41  1   
 43  21  42  1   
 44  22  23  1   
 45  22  43  1   
 46  22  44  1   
@<TRIPOS>SUBSTRUCTURE
  1 ****  11 GROUP 4 **** **** 0

# MOE 2024.06 (io_trps.svl 2023.06)
