@<TRIPOS>MOLECULE
NONAME
50 53 1 0 0 
SMALL
USER_CHARGES


@<TRIPOS>ATOM
  1 O       -0.7400     2.1440    -2.2960 O.co2 1 <1>  -0.9000 
  2 C       -1.1380     1.7590    -1.1910 C.2   1 <1>   0.9060 
  3 O       -2.0550     0.9480    -1.0660 O.co2 1 <1>  -0.9000 
  4 C       -0.5740     2.4070     0.0640 C.3   1 <1>  -0.1060 
  5 C       -1.7480     3.1920     0.6940 C.3   1 <1>   0.2000 
  6 C        0.5590     3.3620    -0.3630 C.3   1 <1>   0.3430 
  7 C       -0.0280     1.3190     1.0250 C.3   1 <1>  -0.0650 
  8 O       -1.3110     3.8340     1.8540 O.3   1 <1>  -0.6800 
  9 C       -2.2720     4.2840    -0.2570 C.3   1 <1>  -0.1600 
 10 N        0.1200     4.7940    -0.3810 N.4   1 <1>  -0.9590 
 11 C        1.1710     0.5510     0.4500 C.3   1 <1>  -0.1950 
 12 C       -1.1670     4.9090    -1.1170 C.3   1 <1>   0.3430 
 13 C        1.1690     5.6980    -0.9030 C.3   1 <1>   0.4810 
 14 C        2.0520    -0.2450     1.3560 C.3   1 <1>  -0.2000 
 15 C        2.5820     0.9900     0.6880 C.3   1 <1>  -0.2000 
 16 C        0.8650     7.1500    -0.5770 C.2   1 <1>  -0.1240 
 17 C        1.6130     8.0760    -1.3650 C.2   1 <1>   0.6160 
 18 C       -0.0100     7.5980     0.3650 C.2   1 <1>  -0.1780 
 19 O        2.4180     7.7210    -2.2040 O.2   1 <1>  -0.5700 
 20 N        1.4140     9.4060    -1.1630 N.am  1 <1>  -0.5470 
 21 C       -0.2070     9.0020     0.5690 C.ar  1 <1>   0.0280 
 22 C        0.5250     9.9070    -0.2190 C.ar  1 <1>   0.1170 
 23 C       -1.0980     9.5080     1.5180 C.ar  1 <1>  -0.1500 
 24 C        0.3510    11.2770    -0.0440 C.ar  1 <1>  -0.1500 
 25 C       -1.2600    10.8670     1.6810 C.ar  1 <1>  -0.1500 
 26 C       -0.5340    11.7550     0.8980 C.ar  1 <1>  -0.1500 
 27 H       -2.5540     2.5270     0.9640 H     1 <1>   0.0800 
 28 H        0.9400     3.0740    -1.3300 H     1 <1>   0.0800 
 29 H        1.3670     3.2630     0.3410 H     1 <1>   0.0800 
 30 H        0.2620     1.7590     1.9620 H     1 <1>   0.0800 
 31 H       -0.8140     0.6100     1.2310 H     1 <1>   0.0800 
 32 H       -1.3650     3.2060     2.6050 H     1 <1>   0.4000 
 33 H       -2.9880     3.8420    -0.9290 H     1 <1>   0.0800 
 34 H       -2.7930     5.0430     0.2980 H     1 <1>   0.0800 
 35 H       -0.1030     5.0080     0.6040 H     1 <1>   0.4500 
 36 H        0.9410     0.0870    -0.4980 H     1 <1>   0.1000 
 37 H       -1.4050     5.9390    -1.3220 H     1 <1>   0.0800 
 38 H       -1.0930     4.3800    -2.0560 H     1 <1>   0.0800 
 39 H        2.1240     5.4400    -0.4750 H     1 <1>   0.0800 
 40 H        1.2450     5.5760    -1.9730 H     1 <1>   0.0800 
 41 H        1.8670    -0.2260     2.4160 H     1 <1>   0.1000 
 42 H        2.3940    -1.2090     1.0170 H     1 <1>   0.1000 
 43 H        3.2980     0.8750    -0.1080 H     1 <1>   0.1000 
 44 H        2.7960     1.8360     1.3170 H     1 <1>   0.1000 
 45 H       -0.5870     6.9440     0.9940 H     1 <1>   0.1500 
 46 H        1.9690    10.0330    -1.7460 H     1 <1>   0.3700 
 47 H       -1.6640     8.8280     2.1300 H     1 <1>   0.1500 
 48 H        0.9130    11.9650    -0.6490 H     1 <1>   0.1500 
 49 H       -1.9500    11.2490     2.4160 H     1 <1>   0.1500 
 50 H       -0.6670    12.8150     1.0320 H     1 <1>   0.1500 
@<TRIPOS>BOND
  1   1   2  ar  
  2   2   3  ar  
  3   2   4  1   
  4   4   5  1   
  5   4   6  1   
  6   4   7  1   
  7   5   8  1   
  8   5   9  1   
  9   5  27  1   
 10   6  10  1   
 11   6  28  1   
 12   6  29  1   
 13   7  11  1   
 14   7  30  1   
 15   7  31  1   
 16   8  32  1   
 17   9  12  1   
 18   9  33  1   
 19   9  34  1   
 20  10  12  1   
 21  10  13  1   
 22  10  35  1   
 23  11  14  1   
 24  11  15  1   
 25  11  36  1   
 26  12  37  1   
 27  12  38  1   
 28  13  16  1   
 29  13  39  1   
 30  13  40  1   
 31  14  15  1   
 32  14  41  1   
 33  14  42  1   
 34  15  43  1   
 35  15  44  1   
 36  16  17  1   
 37  16  18  2   
 38  17  19  2   
 39  17  20  am  
 40  18  21  1   
 41  18  45  1   
 42  20  22  1   
 43  20  46  1   
 44  21  22  ar  
 45  21  23  ar  
 46  22  24  ar  
 47  23  25  ar  
 48  23  47  1   
 49  24  26  ar  
 50  24  48  1   
 51  25  26  ar  
 52  25  49  1   
 53  26  50  1   
@<TRIPOS>SUBSTRUCTURE
  1 ****  10 GROUP 4 **** **** 0

# MOE 2024.06 (io_trps.svl 2023.06)
