@<TRIPOS>MOLECULE
NONAME
45 46 1 0 0 
SMALL
USER_CHARGES


@<TRIPOS>ATOM
  1 O       -1.8830     0.1620     1.4510 O.2   1 <1>  -0.5700 
  2 C       -1.7380     0.4210     0.2800 C.2   1 <1>   0.5690 
  3 N       -1.7530    -0.5500    -0.6780 N.am  1 <1>  -0.7300 
  4 C       -1.5550     1.8870    -0.1680 C.3   1 <1>   0.0610 
  5 C       -1.8810    -2.0320    -0.5510 C.3   1 <1>   0.2200 
  6 C       -1.5030     2.7990     1.0820 C.3   1 <1>   0.1200 
  7 C       -0.2430     2.0380    -0.9710 C.3   1 <1>  -0.2400 
  8 C       -2.7400     2.3090    -1.0660 C.3   1 <1>  -0.2400 
  9 C       -3.3130    -2.5480    -0.5220 C.3   1 <1>  -0.0800 
 10 C       -1.2680    -2.6930     0.6840 C.3   1 <1>   0.1200 
 11 O       -1.3370     4.1400     0.7200 O.3   1 <1>  -0.5600 
 12 C       -3.0950    -3.9550     0.0440 C.3   1 <1>   0.1200 
 13 C       -4.2730    -1.7250     0.3660 C.3   1 <1>  -0.0170 
 14 O       -1.9330    -3.9150     0.8200 O.3   1 <1>  -0.5600 
 15 C       -1.2850     5.0100     1.8030 C.3   1 <1>   0.0400 
 16 C       -5.6700    -2.3290     0.4010 C.ar  1 <1>  -0.1440 
 17 C       -6.5300    -2.2440    -0.6750 C.ar  1 <1>  -0.1500 
 18 C       -6.1490    -2.9900     1.5140 C.ar  1 <1>  -0.1500 
 19 C       -7.7890    -2.8150    -0.5910 C.ar  1 <1>   0.1600 
 20 C       -7.4260    -3.5260     1.4950 C.ar  1 <1>   0.1600 
 21 N       -8.2580    -3.4560     0.4670 N.ar  1 <1>  -0.6200 
 22 H       -1.6590    -0.2310    -1.6430 H     1 <1>   0.3700 
 23 H       -1.3860    -2.4690    -1.4010 H     1 <1>   0.0800 
 24 H       -0.6780     2.5120     1.7120 H     1 <1>   0.0800 
 25 H       -2.4190     2.7090     1.6410 H     1 <1>   0.0800 
 26 H       -0.0980     3.0630    -1.2670 H     1 <1>   0.0800 
 27 H       -0.2550     1.4340    -1.8600 H     1 <1>   0.0800 
 28 H        0.5960     1.7410    -0.3670 H     1 <1>   0.0800 
 29 H       -2.6340     3.3350    -1.3720 H     1 <1>   0.0800 
 30 H       -3.6650     2.2140    -0.5250 H     1 <1>   0.0800 
 31 H       -2.7960     1.6990    -1.9490 H     1 <1>   0.0800 
 32 H       -3.7130    -2.6130    -1.5170 H     1 <1>   0.0800 
 33 H       -1.4500    -2.1390     1.5850 H     1 <1>   0.0800 
 34 H       -0.2160    -2.8780     0.5660 H     1 <1>   0.0800 
 35 H       -2.9240    -4.6610    -0.7500 H     1 <1>   0.0800 
 36 H       -3.9080    -4.3030     0.6550 H     1 <1>   0.0800 
 37 H       -4.3510    -0.7220    -0.0120 H     1 <1>   0.0800 
 38 H       -3.8810    -1.6610     1.3670 H     1 <1>   0.0800 
 39 H       -1.1570     6.0080     1.4240 H     1 <1>   0.0800 
 40 H       -0.4500     4.7480     2.4290 H     1 <1>   0.0800 
 41 H       -2.2080     4.9460     2.3540 H     1 <1>   0.0800 
 42 H       -6.2330    -1.7390    -1.5750 H     1 <1>   0.1500 
 43 H       -5.5410    -3.0940     2.3940 H     1 <1>   0.1500 
 44 H       -8.4470    -2.7400    -1.4400 H     1 <1>   0.1500 
 45 H       -7.7820    -4.0390     2.3720 H     1 <1>   0.1500 
@<TRIPOS>BOND
  1   1   2  2   
  2   2   3  am  
  3   2   4  1   
  4   3   5  1   
  5   3  22  1   
  6   4   6  1   
  7   4   7  1   
  8   4   8  1   
  9   5   9  1   
 10   5  10  1   
 11   5  23  1   
 12   6  11  1   
 13   6  24  1   
 14   6  25  1   
 15   7  26  1   
 16   7  27  1   
 17   7  28  1   
 18   8  29  1   
 19   8  30  1   
 20   8  31  1   
 21   9  12  1   
 22   9  13  1   
 23   9  32  1   
 24  10  14  1   
 25  10  33  1   
 26  10  34  1   
 27  11  15  1   
 28  12  14  1   
 29  12  35  1   
 30  12  36  1   
 31  13  16  1   
 32  13  37  1   
 33  13  38  1   
 34  15  39  1   
 35  15  40  1   
 36  15  41  1   
 37  16  17  ar  
 38  16  18  ar  
 39  17  19  ar  
 40  17  42  1   
 41  18  20  ar  
 42  18  43  1   
 43  19  21  ar  
 44  19  44  1   
 45  20  21  ar  
 46  20  45  1   
@<TRIPOS>SUBSTRUCTURE
  1 ****  13 GROUP 4 **** **** 0

# MOE 2024.06 (io_trps.svl 2023.06)
