@<TRIPOS>MOLECULE
NONAME
52 54 1 0 0 
SMALL
USER_CHARGES


@<TRIPOS>ATOM
  1 O       -0.9610    -0.3060    -2.5940 O.2   1 <1>  -0.5700 
  2 C       -1.6480     0.5980    -2.1450 C.2   1 <1>   0.5650 
  3 N       -2.9380     0.3980    -1.5820 N.pl3 1 <1>   0.5610 
  4 C       -1.1520     1.9360    -2.1540 C.2   1 <1>  -0.1360 
  5 N       -3.6750    -0.7460    -1.4120 N.2   1 <1>  -0.7070 
  6 C       -3.6450     1.4730    -1.0920 C.2   1 <1>  -0.0680 
  7 C       -1.8560     2.9910    -1.6580 C.2   1 <1>  -0.0380 
  8 C       -4.7790    -0.3680    -0.8530 C.2   1 <1>   0.1080 
  9 N       -3.1190     2.7770    -1.1350 N.pl3 1 <1>  -0.5840 
 10 C       -4.8240     1.0030    -0.6280 C.2   1 <1>  -0.1500 
 11 C       -1.2920     4.4090    -1.6410 C.3   1 <1>   0.4810 
 12 C       -5.8750    -1.3480    -0.5020 C.3   1 <1>  -0.0590 
 13 N       -1.2640     4.8770    -0.2240 N.4   1 <1>  -0.9590 
 14 C        0.0990     4.7770     0.3990 C.3   1 <1>   0.5610 
 15 C       -1.8060     6.2780    -0.1300 C.3   1 <1>   0.4230 
 16 C        0.9960     5.8240    -0.2420 C.2   1 <1>  -0.2880 
 17 C        0.6920     3.3590     0.3220 C.3   1 <1>  -0.0220 
 18 C       -0.9250     7.2760    -0.9220 C.3   1 <1>  -0.0220 
 19 C       -1.9810     6.7010     1.3400 C.3   1 <1>  -0.0220 
 20 C        0.5590     6.9380    -0.8390 C.2   1 <1>  -0.2760 
 21 C        1.8130     3.1710     1.3320 C.2   1 <1>  -0.2880 
 22 C       -2.9010     7.9050     1.4560 C.2   1 <1>  -0.2880 
 23 C        1.4770     7.9700    -1.4740 C.3   1 <1>  -0.1020 
 24 C        1.7570     2.3460     2.3810 C.2   1 <1>  -0.3000 
 25 C       -2.5230     9.1070     1.8980 C.2   1 <1>  -0.3000 
 26 H       -0.1720     2.0450    -2.5820 H     1 <1>   0.1500 
 27 H       -3.7770     3.5360    -0.9040 H     1 <1>   0.4000 
 28 H       -5.6400     1.5390    -0.1780 H     1 <1>   0.1500 
 29 H       -1.9320     5.0410    -2.2340 H     1 <1>   0.0800 
 30 H       -0.3020     4.4360    -2.0690 H     1 <1>   0.0800 
 31 H       -6.7120    -0.8410    -0.0590 H     1 <1>   0.0800 
 32 H       -5.4970    -2.0760     0.1930 H     1 <1>   0.0800 
 33 H       -6.2010    -1.8550    -1.3910 H     1 <1>   0.0800 
 34 H       -1.8780     4.2380     0.2940 H     1 <1>   0.4500 
 35 H        0.0180     5.0140     1.4470 H     1 <1>   0.0800 
 36 H       -2.7890     6.2940    -0.5710 H     1 <1>   0.0800 
 37 H        2.0450     5.5950    -0.1530 H     1 <1>   0.1500 
 38 H       -0.0760     2.6400     0.5440 H     1 <1>   0.0800 
 39 H        1.0800     3.1620    -0.6610 H     1 <1>   0.0800 
 40 H       -1.2290     7.2760    -1.9530 H     1 <1>   0.0800 
 41 H       -1.0910     8.2750    -0.5550 H     1 <1>   0.0800 
 42 H       -2.4160     5.8990     1.9090 H     1 <1>   0.0800 
 43 H       -1.0260     6.9470     1.7720 H     1 <1>   0.0800 
 44 H        2.6900     3.7670     1.1290 H     1 <1>   0.1500 
 45 H       -3.9180     7.7070     1.1520 H     1 <1>   0.1500 
 46 H        1.2510     8.0850    -2.5200 H     1 <1>   0.0800 
 47 H        2.5080     7.6730    -1.3830 H     1 <1>   0.0800 
 48 H        1.3600     8.9240    -0.9900 H     1 <1>   0.0800 
 49 H        2.5640     2.2200     3.0860 H     1 <1>   0.1500 
 50 H        0.9180     1.7190     2.6330 H     1 <1>   0.1500 
 51 H       -3.1870     9.9520     1.9800 H     1 <1>   0.1500 
 52 H       -1.5260     9.3590     2.2200 H     1 <1>   0.1500 
@<TRIPOS>BOND
  1   1   2  2   
  2   2   3  1   
  3   2   4  1   
  4   3   5  1   
  5   3   6  1   
  6   4   7  2   
  7   4  26  1   
  8   5   8  2   
  9   6   9  1   
 10   6  10  2   
 11   7   9  1   
 12   7  11  1   
 13   8  10  1   
 14   8  12  1   
 15   9  27  1   
 16  10  28  1   
 17  11  13  1   
 18  11  29  1   
 19  11  30  1   
 20  12  31  1   
 21  12  32  1   
 22  12  33  1   
 23  13  14  1   
 24  13  15  1   
 25  13  34  1   
 26  14  16  1   
 27  14  17  1   
 28  14  35  1   
 29  15  18  1   
 30  15  19  1   
 31  15  36  1   
 32  16  20  2   
 33  16  37  1   
 34  17  21  1   
 35  17  38  1   
 36  17  39  1   
 37  18  20  1   
 38  18  40  1   
 39  18  41  1   
 40  19  22  1   
 41  19  42  1   
 42  19  43  1   
 43  20  23  1   
 44  21  24  2   
 45  21  44  1   
 46  22  25  2   
 47  22  45  1   
 48  23  46  1   
 49  23  47  1   
 50  23  48  1   
 51  24  49  1   
 52  24  50  1   
 53  25  51  1   
 54  25  52  1   
@<TRIPOS>SUBSTRUCTURE
  1 ****   7 GROUP 4 **** **** 0

# MOE 2024.06 (io_trps.svl 2023.06)
