@<TRIPOS>MOLECULE
NONAME
41 43 1 0 0 
SMALL
USER_CHARGES


@<TRIPOS>ATOM
  1 O       -0.3750    -0.4940    -0.1990 O.3   1 <1>  -0.2800 
  2 C       -1.3870    -1.0760     0.4120 C.2   1 <1>  -0.0400 
  3 C       -0.5520     0.8080    -0.1240 C.2   1 <1>  -0.0400 
  4 C       -2.2400    -0.1430     0.8970 C.2   1 <1>  -0.1500 
  5 C       -1.3940    -2.5940     0.4470 C.3   1 <1>   0.5230 
  6 C       -1.6890     1.0930     0.5430 C.2   1 <1>  -0.1500 
  7 C        0.4800     1.7200    -0.7520 C.3   1 <1>  -0.0600 
  8 N       -2.7630    -3.1070     0.7210 N.4   1 <1>  -0.9590 
  9 C       -3.7560    -2.7880    -0.3370 C.3   1 <1>   0.3430 
 10 C       -2.8420    -4.5800     0.9160 C.3   1 <1>   0.3430 
 11 C       -4.9210    -3.7210    -0.0110 C.3   1 <1>   0.2000 
 12 C       -4.2270    -5.0220     0.4030 C.3   1 <1>  -0.0800 
 13 O       -5.5710    -3.2060     1.1050 O.3   1 <1>  -0.6800 
 14 C       -4.1140    -6.0010    -0.7840 C.3   1 <1>  -0.0170 
 15 C       -3.4300    -7.3000    -0.3870 C.ar  1 <1>   0.1670 
 16 N       -2.1130    -7.2480    -0.2540 N.ar  1 <1>  -0.6200 
 17 C       -4.1870    -8.4460    -0.1910 C.ar  1 <1>  -0.1500 
 18 C       -1.5260    -8.3900     0.0770 C.ar  1 <1>   0.1600 
 19 C       -3.5620    -9.6230     0.1620 C.ar  1 <1>  -0.1500 
 20 C       -2.1920    -9.5830     0.2950 C.ar  1 <1>  -0.1500 
 21 H       -3.1580    -0.2580     1.4480 H     1 <1>   0.1500 
 22 H       -0.7080    -2.9290     1.2080 H     1 <1>   0.0800 
 23 H       -1.0510    -2.9660    -0.5040 H     1 <1>   0.0800 
 24 H       -2.1100     2.0570     0.7720 H     1 <1>   0.1500 
 25 H        0.2020     2.7490    -0.6110 H     1 <1>   0.0800 
 26 H        0.5520     1.5190    -1.8050 H     1 <1>   0.0800 
 27 H        1.4390     1.5520    -0.2980 H     1 <1>   0.0800 
 28 H       -3.1230    -2.6640     1.5780 H     1 <1>   0.4500 
 29 H       -4.0600    -1.7550    -0.3140 H     1 <1>   0.0800 
 30 H       -3.3540    -3.0280    -1.3070 H     1 <1>   0.0800 
 31 H       -2.0640    -5.0610     0.3470 H     1 <1>   0.0800 
 32 H       -2.7200    -4.8370     1.9560 H     1 <1>   0.0800 
 33 H       -5.6270    -3.8170    -0.8200 H     1 <1>   0.0800 
 34 H       -4.7690    -5.5150     1.1910 H     1 <1>   0.0800 
 35 H       -6.4130    -3.6800     1.2790 H     1 <1>   0.4000 
 36 H       -3.5570    -5.5570    -1.5910 H     1 <1>   0.0800 
 37 H       -5.0980    -6.2240    -1.1580 H     1 <1>   0.0800 
 38 H       -5.2550    -8.4300    -0.3130 H     1 <1>   0.1500 
 39 H       -0.4540    -8.3780     0.1810 H     1 <1>   0.1500 
 40 H       -4.1170   -10.5320     0.3220 H     1 <1>   0.1500 
 41 H       -1.6440   -10.4680     0.5630 H     1 <1>   0.1500 
@<TRIPOS>BOND
  1   1   2  1   
  2   1   3  1   
  3   2   4  2   
  4   2   5  1   
  5   3   6  2   
  6   3   7  1   
  7   4   6  1   
  8   4  21  1   
  9   5   8  1   
 10   5  22  1   
 11   5  23  1   
 12   6  24  1   
 13   7  25  1   
 14   7  26  1   
 15   7  27  1   
 16   8   9  1   
 17   8  10  1   
 18   8  28  1   
 19   9  11  1   
 20   9  29  1   
 21   9  30  1   
 22  10  12  1   
 23  10  31  1   
 24  10  32  1   
 25  11  12  1   
 26  11  13  1   
 27  11  33  1   
 28  12  14  1   
 29  12  34  1   
 30  13  35  1   
 31  14  15  1   
 32  14  36  1   
 33  14  37  1   
 34  15  16  ar  
 35  15  17  ar  
 36  16  18  ar  
 37  17  19  ar  
 38  17  38  1   
 39  18  20  ar  
 40  18  39  1   
 41  19  20  ar  
 42  19  40  1   
 43  20  41  1   
@<TRIPOS>SUBSTRUCTURE
  1 ****  10 GROUP 4 **** **** 0

# MOE 2024.06 (io_trps.svl 2023.06)
