@<TRIPOS>MOLECULE
NONAME
47 49 1 0 0 
SMALL
USER_CHARGES


@<TRIPOS>ATOM
  1 O       -1.9230     0.5340    -2.0120 O.2   1 <1>  -0.5700 
  2 C       -1.7310     0.7190    -0.8240 C.2   1 <1>   0.5440 
  3 N       -1.4550    -0.3580    -0.0310 N.am  1 <1>  -0.7300 
  4 C       -1.8460     2.0320    -0.2440 C.ar  1 <1>   0.0860 
  5 C       -1.7260    -1.7540    -0.4290 C.3   1 <1>   0.2200 
  6 C       -3.1090     2.5580     0.0570 C.ar  1 <1>   0.0830 
  7 C       -0.7140     2.8080     0.0280 C.ar  1 <1>   0.0830 
  8 C       -3.1150    -2.1500     0.0480 C.3   1 <1>  -0.0800 
  9 C       -0.7990    -2.7620     0.2530 C.3   1 <1>   0.1200 
 10 O       -4.1950     1.7790    -0.1750 O.3   1 <1>  -0.3630 
 11 C       -3.2290     3.8380     0.5890 C.ar  1 <1>  -0.1500 
 12 O        0.5000     2.2650    -0.2420 O.3   1 <1>  -0.3630 
 13 C       -0.8490     4.0870     0.5600 C.ar  1 <1>  -0.1500 
 14 C       -2.9110    -3.5840     0.5150 C.3   1 <1>   0.1200 
 15 C       -4.1960    -1.9710    -1.0270 C.3   1 <1>  -0.0170 
 16 O       -1.6110    -3.6130     1.0080 O.3   1 <1>  -0.5600 
 17 C       -5.4820     2.3290    -0.3520 C.3   1 <1>   0.0400 
 18 C       -2.1030     4.5990     0.8360 C.ar  1 <1>  -0.1500 
 19 C        1.6980     3.0060    -0.1740 C.3   1 <1>   0.0400 
 20 C       -5.5660    -2.3470    -0.4880 C.ar  1 <1>  -0.1430 
 21 C       -6.2170    -3.5060    -0.8610 C.ar  1 <1>  -0.1500 
 22 C       -6.2290    -1.5370     0.4100 C.ar  1 <1>  -0.1500 
 23 C       -7.4630    -3.7910    -0.3280 C.ar  1 <1>   0.1600 
 24 C       -7.4740    -1.9150     0.8840 C.ar  1 <1>   0.1600 
 25 N       -8.1080    -3.0230     0.5360 N.ar  1 <1>  -0.6200 
 26 H       -1.3230    -0.2030     0.9690 H     1 <1>   0.3700 
 27 H       -1.6320    -1.8600    -1.4970 H     1 <1>   0.0800 
 28 H       -3.3780    -1.5690     0.9150 H     1 <1>   0.0800 
 29 H       -0.0900    -2.2900     0.9100 H     1 <1>   0.0800 
 30 H       -0.2840    -3.3580    -0.4790 H     1 <1>   0.0800 
 31 H       -4.1910     4.2540     0.8240 H     1 <1>   0.1500 
 32 H        0.0080     4.6980     0.7700 H     1 <1>   0.1500 
 33 H       -2.9750    -4.2810    -0.3020 H     1 <1>   0.0800 
 34 H       -3.5960    -3.8640     1.2970 H     1 <1>   0.0800 
 35 H       -3.9600    -2.5660    -1.8920 H     1 <1>   0.0800 
 36 H       -4.2150    -0.9410    -1.3410 H     1 <1>   0.0800 
 37 H       -6.1300     1.5510    -0.7150 H     1 <1>   0.0800 
 38 H       -5.4250     3.1220    -1.0770 H     1 <1>   0.0800 
 39 H       -5.8410     2.6940     0.5930 H     1 <1>   0.0800 
 40 H       -2.2010     5.5900     1.2470 H     1 <1>   0.1500 
 41 H        2.5010     2.3720    -0.5030 H     1 <1>   0.0800 
 42 H        1.8660     3.3090     0.8450 H     1 <1>   0.0800 
 43 H        1.6180     3.8600    -0.8240 H     1 <1>   0.0800 
 44 H       -5.7680    -4.1890    -1.5590 H     1 <1>   0.1500 
 45 H       -5.7840    -0.6180     0.7450 H     1 <1>   0.1500 
 46 H       -7.9570    -4.6990    -0.6300 H     1 <1>   0.1500 
 47 H       -7.9750    -1.2710     1.5860 H     1 <1>   0.1500 
@<TRIPOS>BOND
  1   1   2  2   
  2   2   3  am  
  3   2   4  1   
  4   3   5  1   
  5   3  26  1   
  6   4   6  ar  
  7   4   7  ar  
  8   5   8  1   
  9   5   9  1   
 10   5  27  1   
 11   6  10  1   
 12   6  11  ar  
 13   7  12  1   
 14   7  13  ar  
 15   8  14  1   
 16   8  15  1   
 17   8  28  1   
 18   9  16  1   
 19   9  29  1   
 20   9  30  1   
 21  10  17  1   
 22  11  18  ar  
 23  11  31  1   
 24  12  19  1   
 25  13  18  ar  
 26  13  32  1   
 27  14  16  1   
 28  14  33  1   
 29  14  34  1   
 30  15  20  1   
 31  15  35  1   
 32  15  36  1   
 33  17  37  1   
 34  17  38  1   
 35  17  39  1   
 36  18  40  1   
 37  19  41  1   
 38  19  42  1   
 39  19  43  1   
 40  20  21  ar  
 41  20  22  ar  
 42  21  23  ar  
 43  21  44  1   
 44  22  24  ar  
 45  22  45  1   
 46  23  25  ar  
 47  23  46  1   
 48  24  25  ar  
 49  24  47  1   
@<TRIPOS>SUBSTRUCTURE
  1 ****   3 GROUP 4 **** **** 0

# MOE 2024.06 (io_trps.svl 2023.06)
