@<TRIPOS>MOLECULE
NONAME
55 57 1 0 0 
SMALL
USER_CHARGES


@<TRIPOS>ATOM
  1 O        0.0280     1.3550    -0.2390 O.2   1 <1>  -0.5700 
  2 C       -0.2850     2.5180    -0.3370 C.2   1 <1>   0.5690 
  3 N       -1.4620     3.0370     0.1400 N.am  1 <1>  -0.6600 
  4 C        0.6920     3.4520    -1.0440 C.3   1 <1>   0.1810 
  5 C       -1.7870     4.4920    -0.0500 C.3   1 <1>   0.3640 
  6 C       -2.4660     2.2740     0.9320 C.3   1 <1>   0.2200 
  7 O        0.6480     4.7480    -0.5070 O.3   1 <1>  -0.5600 
  8 C       -3.0050     4.6180    -0.9700 C.ar  1 <1>  -0.1440 
  9 C       -0.6270     5.3700    -0.6040 C.3   1 <1>   0.2610 
 10 C       -1.8580     1.8280     2.2610 C.3   1 <1>  -0.2400 
 11 C       -3.0300     1.0960     0.1370 C.3   1 <1>  -0.2400 
 12 C       -3.0940     3.8960    -2.1540 C.ar  1 <1>  -0.1500 
 13 C       -4.0430     5.4730    -0.6280 C.ar  1 <1>  -0.1500 
 14 C       -0.6090     6.7240     0.1180 C.2   1 <1>   0.5690 
 15 C       -4.1990     4.0240    -2.9770 C.ar  1 <1>  -0.1500 
 16 C       -5.1490     5.6030    -1.4500 C.ar  1 <1>  -0.1500 
 17 O       -1.6340     7.3540     0.2370 O.2   1 <1>  -0.5700 
 18 N        0.5670     7.1870     0.6190 N.am  1 <1>  -0.7300 
 19 C       -5.2290     4.8770    -2.6250 C.ar  1 <1>  -0.1500 
 20 C        0.7860     8.4910     1.2710 C.3   1 <1>   0.1400 
 21 C        2.0510     9.1250     0.6960 C.3   1 <1>  -0.1600 
 22 C        2.3080    10.5130     1.2990 C.3   1 <1>  -0.0170 
 23 C        3.5780    11.1300     0.7350 C.ar  1 <1>   0.1670 
 24 N        3.5150    11.5540    -0.5180 N.ar  1 <1>  -0.6200 
 25 C        4.7140    11.2200     1.5270 C.ar  1 <1>  -0.1500 
 26 C        4.6250    12.0870    -1.0010 C.ar  1 <1>   0.1600 
 27 C        5.8640    11.7790     1.0110 C.ar  1 <1>  -0.1500 
 28 C        5.8070    12.2220    -0.2930 C.ar  1 <1>  -0.1500 
 29 H        0.4640     3.5000    -2.0930 H     1 <1>   0.0800 
 30 H        1.6930     3.0800    -0.9200 H     1 <1>   0.0800 
 31 H       -2.0550     4.8820     0.9170 H     1 <1>   0.0800 
 32 H       -3.2940     2.9270     1.1580 H     1 <1>   0.0800 
 33 H       -0.8020     5.5670    -1.6460 H     1 <1>   0.0800 
 34 H       -1.0690     1.1160     2.1010 H     1 <1>   0.0800 
 35 H       -2.6120     1.3620     2.8690 H     1 <1>   0.0800 
 36 H       -1.4670     2.6760     2.7940 H     1 <1>   0.0800 
 37 H       -2.2740     0.3560    -0.0540 H     1 <1>   0.0800 
 38 H       -3.4370     1.4370    -0.7960 H     1 <1>   0.0800 
 39 H       -3.8190     0.6270     0.6960 H     1 <1>   0.0800 
 40 H       -2.3060     3.2220    -2.4410 H     1 <1>   0.1500 
 41 H       -3.9960     6.0540     0.2780 H     1 <1>   0.1500 
 42 H       -4.2590     3.4580    -3.8900 H     1 <1>   0.1500 
 43 H       -5.9470     6.2710    -1.1750 H     1 <1>   0.1500 
 44 H        1.3880     6.5830     0.4990 H     1 <1>   0.3700 
 45 H       -6.0890     4.9780    -3.2640 H     1 <1>   0.1500 
 46 H       -0.0620     9.1330     1.0930 H     1 <1>   0.0800 
 47 H        0.8890     8.3440     2.3320 H     1 <1>   0.0800 
 48 H        2.8970     8.4920     0.8960 H     1 <1>   0.0800 
 49 H        1.9420     9.2260    -0.3710 H     1 <1>   0.0800 
 50 H        2.3850    10.4360     2.3690 H     1 <1>   0.0800 
 51 H        1.4830    11.1650     1.0730 H     1 <1>   0.0800 
 52 H        4.7030    10.8570     2.5370 H     1 <1>   0.1500 
 53 H        4.5910    12.4360    -2.0190 H     1 <1>   0.1500 
 54 H        6.7620    11.8660     1.5970 H     1 <1>   0.1500 
 55 H        6.6660    12.6680    -0.7580 H     1 <1>   0.1500 
@<TRIPOS>BOND
  1   1   2  2   
  2   2   3  am  
  3   2   4  1   
  4   3   5  1   
  5   3   6  1   
  6   4   7  1   
  7   4  29  1   
  8   4  30  1   
  9   5   8  1   
 10   5   9  1   
 11   5  31  1   
 12   6  10  1   
 13   6  11  1   
 14   6  32  1   
 15   7   9  1   
 16   8  12  ar  
 17   8  13  ar  
 18   9  14  1   
 19   9  33  1   
 20  10  34  1   
 21  10  35  1   
 22  10  36  1   
 23  11  37  1   
 24  11  38  1   
 25  11  39  1   
 26  12  15  ar  
 27  12  40  1   
 28  13  16  ar  
 29  13  41  1   
 30  14  17  2   
 31  14  18  am  
 32  15  19  ar  
 33  15  42  1   
 34  16  19  ar  
 35  16  43  1   
 36  18  20  1   
 37  18  44  1   
 38  19  45  1   
 39  20  21  1   
 40  20  46  1   
 41  20  47  1   
 42  21  22  1   
 43  21  48  1   
 44  21  49  1   
 45  22  23  1   
 46  22  50  1   
 47  22  51  1   
 48  23  24  ar  
 49  23  25  ar  
 50  24  26  ar  
 51  25  27  ar  
 52  25  52  1   
 53  26  28  ar  
 54  26  53  1   
 55  27  28  ar  
 56  27  54  1   
 57  28  55  1   
@<TRIPOS>SUBSTRUCTURE
  1 ****  14 GROUP 4 **** **** 0

# MOE 2024.06 (io_trps.svl 2023.06)
