@<TRIPOS>MOLECULE
NONAME
50 53 1 0 0 
SMALL
USER_CHARGES


@<TRIPOS>ATOM
  1 O       -3.3810    -1.5840    -3.4560 O.2   1 <1>  -0.5700 
  2 C       -3.1980    -1.7360    -2.2790 C.2   1 <1>   0.5690 
  3 N       -2.8560    -0.6920    -1.5050 N.am  1 <1>  -0.7300 
  4 C       -3.3910    -3.0960    -1.6640 C.3   1 <1>  -0.0190 
  5 C       -2.6190    -0.7410    -0.0440 C.3   1 <1>   0.2200 
  6 C       -2.0870    -3.6200    -1.0220 C.3   1 <1>   0.1200 
  7 C       -4.6360    -3.0550    -0.7660 C.3   1 <1>   0.3430 
  8 C       -1.4510    -1.7080     0.2800 C.3   1 <1>   0.1200 
  9 C       -3.9370    -1.0800     0.7100 C.3   1 <1>   0.3430 
 10 O       -1.8280    -3.0620     0.2400 O.3   1 <1>  -0.5600 
 11 N       -4.3770    -2.5190     0.6150 N.4   1 <1>  -0.9590 
 12 C       -5.4630    -2.8560     1.5710 C.3   1 <1>   0.4860 
 13 C       -5.5430    -4.3650     1.6850 C.ar  1 <1>  -0.1440 
 14 C       -6.6280    -5.0450     1.1520 C.ar  1 <1>  -0.1500 
 15 C       -4.5300    -5.0820     2.3050 C.ar  1 <1>  -0.1500 
 16 C       -6.7020    -6.4260     1.2210 C.ar  1 <1>   0.0820 
 17 C       -4.6000    -6.4620     2.3820 C.ar  1 <1>  -0.1500 
 18 O       -7.7910    -7.0000     0.6590 O.3   1 <1>  -0.3630 
 19 C       -5.6800    -7.1370     1.8420 C.ar  1 <1>  -0.1500 
 20 C       -7.9190    -8.4110     0.5780 C.3   1 <1>   0.2630 
 21 C       -9.1710    -8.8070    -0.1970 C.ar  1 <1>   0.1670 
 22 N       -9.0910    -9.9450    -0.8750 N.ar  1 <1>  -0.6200 
 23 C      -10.3080    -8.0100    -0.1630 C.ar  1 <1>  -0.1500 
 24 C      -10.1770   -10.2930    -1.5470 C.ar  1 <1>   0.1600 
 25 C      -11.4320    -8.3870    -0.8660 C.ar  1 <1>  -0.1500 
 26 C      -11.3530    -9.5640    -1.5760 C.ar  1 <1>  -0.1500 
 27 H       -2.6860     0.1940    -1.9950 H     1 <1>   0.3700 
 28 H       -3.6200    -3.7560    -2.4820 H     1 <1>   0.0800 
 29 H       -2.3140     0.2470     0.2550 H     1 <1>   0.0800 
 30 H       -1.2410    -3.4350    -1.6640 H     1 <1>   0.0800 
 31 H       -2.1650    -4.6850    -0.8790 H     1 <1>   0.0800 
 32 H       -5.0000    -4.0670    -0.6810 H     1 <1>   0.0800 
 33 H       -5.4050    -2.4750    -1.2490 H     1 <1>   0.0800 
 34 H       -1.1030    -1.5170     1.2800 H     1 <1>   0.0800 
 35 H       -0.6230    -1.5520    -0.3920 H     1 <1>   0.0800 
 36 H       -4.7180    -0.4340     0.3430 H     1 <1>   0.0800 
 37 H       -3.7830    -0.8410     1.7490 H     1 <1>   0.0800 
 38 H       -3.5430    -3.0620     0.9150 H     1 <1>   0.4500 
 39 H       -5.2480    -2.4410     2.5420 H     1 <1>   0.0800 
 40 H       -6.4030    -2.4580     1.2260 H     1 <1>   0.0800 
 41 H       -7.4370    -4.5210     0.6720 H     1 <1>   0.1500 
 42 H       -3.6770    -4.5840     2.7370 H     1 <1>   0.1500 
 43 H       -3.8120    -7.0160     2.8660 H     1 <1>   0.1500 
 44 H       -5.7050    -8.2090     1.9190 H     1 <1>   0.1500 
 45 H       -7.0520    -8.7960     0.0710 H     1 <1>   0.0800 
 46 H       -7.9690    -8.8100     1.5740 H     1 <1>   0.0800 
 47 H      -10.3180    -7.1000     0.4100 H     1 <1>   0.1500 
 48 H      -10.1270   -11.2120    -2.1050 H     1 <1>   0.1500 
 49 H      -12.3280    -7.7900    -0.8600 H     1 <1>   0.1500 
 50 H      -12.1930    -9.9160    -2.1470 H     1 <1>   0.1500 
@<TRIPOS>BOND
  1   1   2  2   
  2   2   3  am  
  3   2   4  1   
  4   3   5  1   
  5   3  27  1   
  6   4   6  1   
  7   4   7  1   
  8   4  28  1   
  9   5   8  1   
 10   5   9  1   
 11   5  29  1   
 12   6  10  1   
 13   6  30  1   
 14   6  31  1   
 15   7  11  1   
 16   7  32  1   
 17   7  33  1   
 18   8  10  1   
 19   8  34  1   
 20   8  35  1   
 21   9  11  1   
 22   9  36  1   
 23   9  37  1   
 24  11  12  1   
 25  11  38  1   
 26  12  13  1   
 27  12  39  1   
 28  12  40  1   
 29  13  14  ar  
 30  13  15  ar  
 31  14  16  ar  
 32  14  41  1   
 33  15  17  ar  
 34  15  42  1   
 35  16  18  1   
 36  16  19  ar  
 37  17  19  ar  
 38  17  43  1   
 39  18  20  1   
 40  19  44  1   
 41  20  21  1   
 42  20  45  1   
 43  20  46  1   
 44  21  22  ar  
 45  21  23  ar  
 46  22  24  ar  
 47  23  25  ar  
 48  23  47  1   
 49  24  26  ar  
 50  24  48  1   
 51  25  26  ar  
 52  25  49  1   
 53  26  50  1   
@<TRIPOS>SUBSTRUCTURE
  1 ****  14 GROUP 4 **** **** 0

# MOE 2024.06 (io_trps.svl 2023.06)
