@<TRIPOS>MOLECULE
NONAME
27 28 1 0 0 
SMALL
USER_CHARGES


@<TRIPOS>ATOM
  1 S        0.3830    -0.2490     0.2270 S.o2  1 <1>   1.4150 
  2 O       -0.0750     0.0120     1.5700 O.2   1 <1>  -0.6500 
  3 O        1.4570    -1.1860     0.0090 O.2   1 <1>  -0.6500 
  4 N        0.9670     1.2130    -0.2940 N.am  1 <1>  -0.9780 
  5 C       -1.0220    -0.5910    -0.8790 C.3   1 <1>  -0.0720 
  6 C       -0.8010    -0.9020    -2.3330 C.3   1 <1>  -0.2000 
  7 C       -1.2570    -1.9840    -1.3950 C.3   1 <1>  -0.2000 
  8 C       -2.2880     0.2040    -0.5100 C.3   1 <1>   0.0780 
  9 C       -2.0330     1.7050    -0.4800 C.ar  1 <1>  -0.1430 
 10 C       -1.9680     2.3810     0.7300 C.ar  1 <1>  -0.1500 
 11 C       -1.8410     2.4080    -1.6590 C.ar  1 <1>  -0.1500 
 12 C       -1.7060     3.7390     0.7610 C.ar  1 <1>  -0.1500 
 13 C       -1.5790     3.7670    -1.6300 C.ar  1 <1>  -0.1500 
 14 C       -1.5100     4.4330    -0.4190 C.ar  1 <1>  -0.1500 
 15 H        1.7440     1.4060     0.3290 H     1 <1>   0.4200 
 16 H        0.2420     1.8910    -0.0530 H     1 <1>   0.4200 
 17 H        0.2120    -0.9310    -2.7000 H     1 <1>   0.1000 
 18 H       -1.4930    -0.5360    -3.0720 H     1 <1>   0.1000 
 19 H       -2.2620    -2.3580    -1.4920 H     1 <1>   0.1000 
 20 H       -0.5550    -2.7600    -1.1380 H     1 <1>   0.1000 
 21 H       -2.6330    -0.1230     0.4570 H     1 <1>   0.0800 
 22 H       -3.0770     0.0000    -1.2120 H     1 <1>   0.0800 
 23 H       -2.1150     1.8540     1.6590 H     1 <1>   0.1500 
 24 H       -1.8900     1.9040    -2.6080 H     1 <1>   0.1500 
 25 H       -1.6570     4.2560     1.7040 H     1 <1>   0.1500 
 26 H       -1.4290     4.3060    -2.5490 H     1 <1>   0.1500 
 27 H       -1.3070     5.4900    -0.3970 H     1 <1>   0.1500 
@<TRIPOS>BOND
  1   1   2  2   
  2   1   3  2   
  3   1   4  am  
  4   1   5  1   
  5   4  15  1   
  6   4  16  1   
  7   5   6  1   
  8   5   7  1   
  9   5   8  1   
 10   6   7  1   
 11   6  17  1   
 12   6  18  1   
 13   7  19  1   
 14   7  20  1   
 15   8   9  1   
 16   8  21  1   
 17   8  22  1   
 18   9  10  ar  
 19   9  11  ar  
 20  10  12  ar  
 21  10  23  1   
 22  11  13  ar  
 23  11  24  1   
 24  12  14  ar  
 25  12  25  1   
 26  13  14  ar  
 27  13  26  1   
 28  14  27  1   
@<TRIPOS>SUBSTRUCTURE
  1 ****   9 GROUP 4 **** **** 0

# MOE 2024.06 (io_trps.svl 2023.06)
