@<TRIPOS>MOLECULE
NONAME
28 28 1 0 0 
SMALL
USER_CHARGES


@<TRIPOS>ATOM
  1 BR      -0.1860     0.0940    -1.4010 Br    1 <1>  -0.1110 
  2 C        1.2930     1.0310    -0.5820 C.ar  1 <1>   0.1110 
  3 C        1.1750     2.3760    -0.2400 C.ar  1 <1>   0.0830 
  4 C        2.4580     0.3210    -0.3610 C.ar  1 <1>  -0.1500 
  5 O        0.0400     3.0840    -0.4480 O.3   1 <1>  -0.3630 
  6 C        2.2680     3.0180     0.3180 C.ar  1 <1>  -0.1500 
  7 C        3.5380     0.9750     0.2100 C.ar  1 <1>  -0.1500 
  8 C       -1.0750     2.7750     0.3540 C.3   1 <1>   0.1200 
  9 C        3.4430     2.3180     0.5450 C.ar  1 <1>  -0.1500 
 10 C       -2.3090     2.8000    -0.5550 C.3   1 <1>   0.3430 
 11 N       -3.5370     2.2340     0.1020 N.4   1 <1>  -0.9590 
 12 C       -3.4230     0.7520     0.3060 C.3   1 <1>   0.2630 
 13 C       -4.7440     2.5430    -0.7250 C.3   1 <1>   0.2630 
 14 H        2.5240    -0.7170    -0.6320 H     1 <1>   0.1500 
 15 H        2.2010     4.0610     0.5730 H     1 <1>   0.1500 
 16 H        4.4560     0.4400     0.3910 H     1 <1>   0.1500 
 17 H       -1.1410     3.5230     1.1240 H     1 <1>   0.0800 
 18 H       -0.9280     1.8070     0.7980 H     1 <1>   0.0800 
 19 H        4.2890     2.8200     0.9830 H     1 <1>   0.1500 
 20 H       -2.0900     2.2330    -1.4450 H     1 <1>   0.0800 
 21 H       -2.4920     3.8220    -0.8450 H     1 <1>   0.0800 
 22 H       -3.6560     2.6880     1.0210 H     1 <1>   0.4500 
 23 H       -3.2730     0.2540    -0.6390 H     1 <1>   0.0800 
 24 H       -4.3220     0.3670     0.7600 H     1 <1>   0.0800 
 25 H       -2.5910     0.5200     0.9500 H     1 <1>   0.0800 
 26 H       -4.6590     2.0880    -1.6990 H     1 <1>   0.0800 
 27 H       -4.8500     3.6090    -0.8500 H     1 <1>   0.0800 
 28 H       -5.6340     2.1650    -0.2460 H     1 <1>   0.0800 
@<TRIPOS>BOND
  1   1   2  1   
  2   2   3  ar  
  3   2   4  ar  
  4   3   5  1   
  5   3   6  ar  
  6   4   7  ar  
  7   4  14  1   
  8   5   8  1   
  9   6   9  ar  
 10   6  15  1   
 11   7   9  ar  
 12   7  16  1   
 13   8  10  1   
 14   8  17  1   
 15   8  18  1   
 16   9  19  1   
 17  10  11  1   
 18  10  20  1   
 19  10  21  1   
 20  11  12  1   
 21  11  13  1   
 22  11  22  1   
 23  12  23  1   
 24  12  24  1   
 25  12  25  1   
 26  13  26  1   
 27  13  27  1   
 28  13  28  1   
@<TRIPOS>SUBSTRUCTURE
  1 ****   5 GROUP 4 **** **** 0

# MOE 2024.06 (io_trps.svl 2023.06)
