@<TRIPOS>MOLECULE
NONAME
52 54 1 0 0 
SMALL
USER_CHARGES


@<TRIPOS>ATOM
  1 F        0.4750     1.0820    -1.7050 F     1 <1>  -0.1900 
  2 C        1.5200     1.0190    -0.9170 C.ar  1 <1>   0.1900 
  3 C        2.0690    -0.2190    -0.6010 C.ar  1 <1>   0.0820 
  4 C        2.0310     2.1980    -0.4090 C.ar  1 <1>  -0.1500 
  5 O        1.5540    -1.3640    -1.1110 O.3   1 <1>  -0.3630 
  6 C        3.1730    -0.2630     0.2390 C.ar  1 <1>  -0.1500 
  7 C        3.1270     2.1390     0.4370 C.ar  1 <1>  -0.1500 
  8 C        0.8180    -2.1900    -0.2450 C.3   1 <1>   0.2000 
  9 C        3.6940     0.9130     0.7570 C.ar  1 <1>  -0.1500 
 10 C        0.7160    -3.5610    -0.9140 C.3   1 <1>  -0.1600 
 11 C       -0.5680    -1.5720    -0.0300 C.3   1 <1>  -0.1600 
 12 C       -0.2420    -4.4760    -0.1600 C.3   1 <1>   0.3430 
 13 C       -1.4950    -2.5350     0.7020 C.3   1 <1>   0.3430 
 14 N       -1.5810    -3.8220    -0.0490 N.4   1 <1>  -0.9590 
 15 C       -2.5940    -4.7120     0.5980 C.3   1 <1>   0.3430 
 16 C       -3.0020    -5.8760    -0.3070 C.3   1 <1>  -0.0990 
 17 C       -4.0530    -6.7060     0.3920 C.2   1 <1>   0.5690 
 18 O       -4.3040    -6.4730     1.5480 O.2   1 <1>  -0.5700 
 19 N       -4.6730    -7.6840    -0.3030 N.am  1 <1>  -0.7300 
 20 C       -5.6610    -8.6250     0.2630 C.3   1 <1>   0.2840 
 21 C       -5.1780   -10.0390     0.0000 C.ar  1 <1>  -0.1430 
 22 C       -5.3060   -10.6240    -1.2510 C.ar  1 <1>   0.1900 
 23 C       -4.5910   -10.7880     1.0100 C.ar  1 <1>  -0.1500 
 24 F       -5.8410    -9.9370    -2.2260 F     1 <1>  -0.1900 
 25 C       -4.8790   -11.9110    -1.5190 C.ar  1 <1>  -0.1500 
 26 C       -4.1550   -12.0810     0.7610 C.ar  1 <1>  -0.1500 
 27 C       -4.2980   -12.6440    -0.4980 C.ar  1 <1>  -0.1500 
 28 H        1.5820     3.1390    -0.6720 H     1 <1>   0.1500 
 29 H        3.6280    -1.2070     0.4800 H     1 <1>   0.1500 
 30 H        3.5420     3.0460     0.8440 H     1 <1>   0.1500 
 31 H        1.3490    -2.2720     0.6890 H     1 <1>   0.0800 
 32 H        4.5510     0.8770     1.4100 H     1 <1>   0.1500 
 33 H        1.6910    -4.0150    -0.9370 H     1 <1>   0.0800 
 34 H        0.3760    -3.4490    -1.9290 H     1 <1>   0.0800 
 35 H       -1.0030    -1.3070    -0.9780 H     1 <1>   0.0800 
 36 H       -0.4730    -0.6750     0.5560 H     1 <1>   0.0800 
 37 H        0.1490    -4.6790     0.8250 H     1 <1>   0.0800 
 38 H       -0.3260    -5.4120    -0.6890 H     1 <1>   0.0800 
 39 H       -2.4740    -2.0900     0.7870 H     1 <1>   0.0800 
 40 H       -1.1190    -2.7150     1.6960 H     1 <1>   0.0800 
 41 H       -1.9050    -3.5950    -0.9990 H     1 <1>   0.4500 
 42 H       -3.4800    -4.1420     0.8320 H     1 <1>   0.0800 
 43 H       -2.2070    -5.1000     1.5280 H     1 <1>   0.0800 
 44 H       -2.1640    -6.5130    -0.5140 H     1 <1>   0.0800 
 45 H       -3.4150    -5.5040    -1.2260 H     1 <1>   0.0800 
 46 H       -4.4290    -7.8960    -1.2730 H     1 <1>   0.3700 
 47 H       -6.6180    -8.4670    -0.2060 H     1 <1>   0.0800 
 48 H       -5.7750    -8.4600     1.3210 H     1 <1>   0.0800 
 49 H       -4.4690   -10.3690     1.9950 H     1 <1>   0.1500 
 50 H       -4.9990   -12.3270    -2.5030 H     1 <1>   0.1500 
 51 H       -3.7020   -12.6540     1.5520 H     1 <1>   0.1500 
 52 H       -3.9570   -13.6490    -0.6820 H     1 <1>   0.1500 
@<TRIPOS>BOND
  1   1   2  1   
  2   2   3  ar  
  3   2   4  ar  
  4   3   5  1   
  5   3   6  ar  
  6   4   7  ar  
  7   4  28  1   
  8   5   8  1   
  9   6   9  ar  
 10   6  29  1   
 11   7   9  ar  
 12   7  30  1   
 13   8  10  1   
 14   8  11  1   
 15   8  31  1   
 16   9  32  1   
 17  10  12  1   
 18  10  33  1   
 19  10  34  1   
 20  11  13  1   
 21  11  35  1   
 22  11  36  1   
 23  12  14  1   
 24  12  37  1   
 25  12  38  1   
 26  13  14  1   
 27  13  39  1   
 28  13  40  1   
 29  14  15  1   
 30  14  41  1   
 31  15  16  1   
 32  15  42  1   
 33  15  43  1   
 34  16  17  1   
 35  16  44  1   
 36  16  45  1   
 37  17  18  2   
 38  17  19  am  
 39  19  20  1   
 40  19  46  1   
 41  20  21  1   
 42  20  47  1   
 43  20  48  1   
 44  21  22  ar  
 45  21  23  ar  
 46  22  24  1   
 47  22  25  ar  
 48  23  26  ar  
 49  23  49  1   
 50  25  27  ar  
 51  25  50  1   
 52  26  27  ar  
 53  26  51  1   
 54  27  52  1   
@<TRIPOS>SUBSTRUCTURE
  1 ****  14 GROUP 4 **** **** 0

# MOE 2024.06 (io_trps.svl 2023.06)
