@<TRIPOS>MOLECULE
NONAME
53 55 1 0 0 
SMALL
USER_CHARGES


@<TRIPOS>ATOM
  1 O        2.6320    -1.4100    -0.8150 O.co2 1 <1>  -0.9000 
  2 C        1.8680    -0.8060    -0.0480 C.2   1 <1>   0.9060 
  3 O        1.0370    -1.3760     0.6650 O.co2 1 <1>  -0.9000 
  4 C        2.1260     0.7030     0.1140 C.3   1 <1>  -0.1060 
  5 C        3.2390     0.2710     1.2010 C.3   1 <1>   0.2000 
  6 C        2.4750     2.2760     0.2580 C.3   1 <1>  -0.1600 
  7 C        0.9820     1.0280    -0.9650 C.3   1 <1>  -0.1600 
  8 O        3.1310     0.8980     2.4530 O.3   1 <1>  -0.6800 
  9 C        4.6360     0.4860     0.6180 C.3   1 <1>   0.3430 
 10 C        3.8730     2.6110    -0.2750 C.3   1 <1>   0.3430 
 11 C       -0.3480     1.4560    -0.3060 C.3   1 <1>  -0.1600 
 12 N        4.9080     1.9420     0.5470 N.4   1 <1>  -0.9590 
 13 C       -1.3980     1.8180    -1.3600 C.3   1 <1>  -0.2400 
 14 C        6.2940     2.2380     0.1480 C.3   1 <1>   0.5230 
 15 C        6.4620     3.7390     0.1680 C.2   1 <1>  -0.3320 
 16 N        6.5400     4.5140    -0.9640 N.pl3 1 <1>   0.0480 
 17 C        6.5520     4.5310     1.2650 C.2   1 <1>  -0.1500 
 18 C        6.6690     5.8220    -0.5620 C.ar  1 <1>  -0.1520 
 19 C        6.5480     4.0850    -2.3780 C.3   1 <1>   0.0160 
 20 C        6.6800     5.8620     0.8270 C.ar  1 <1>   0.0000 
 21 C        6.7840     7.0030    -1.3010 C.ar  1 <1>  -0.1500 
 22 C        6.8010     7.0860     1.4910 C.ar  1 <1>  -0.1500 
 23 C        6.9030     8.2010    -0.6360 C.ar  1 <1>  -0.1500 
 24 C        6.9110     8.2500     0.7640 C.ar  1 <1>  -0.1430 
 25 C        7.0450     9.5950     1.4530 C.3   1 <1>  -0.0970 
 26 H        3.2650    -0.7740     1.4970 H     1 <1>   0.0800 
 27 H        2.3600     2.6620     1.2530 H     1 <1>   0.0800 
 28 H        1.8480     2.9790    -0.2610 H     1 <1>   0.0800 
 29 H        1.2860     1.7370    -1.7180 H     1 <1>   0.0800 
 30 H        0.7170     0.1930    -1.6030 H     1 <1>   0.0800 
 31 H        2.2820     0.6080     2.8550 H     1 <1>   0.4000 
 32 H        4.6750     0.0350    -0.3610 H     1 <1>   0.0800 
 33 H        5.3560    -0.0050     1.2520 H     1 <1>   0.0800 
 34 H        4.0170     3.6800    -0.2420 H     1 <1>   0.0800 
 35 H        3.9490     2.2860    -1.3000 H     1 <1>   0.0800 
 36 H       -0.7180     0.6370     0.2890 H     1 <1>   0.0800 
 37 H       -0.2120     2.2940     0.3540 H     1 <1>   0.0800 
 38 H        4.7600     2.2830     1.5080 H     1 <1>   0.4500 
 39 H       -1.5880     0.9740    -2.0000 H     1 <1>   0.0800 
 40 H       -1.0640     2.6450    -1.9600 H     1 <1>   0.0800 
 41 H       -2.3200     2.0920    -0.8780 H     1 <1>   0.0800 
 42 H        6.9780     1.7910     0.8510 H     1 <1>   0.0800 
 43 H        6.5000     1.8420    -0.8320 H     1 <1>   0.0800 
 44 H        6.5320     4.2570     2.3060 H     1 <1>   0.1500 
 45 H        6.1730     3.0840    -2.4740 H     1 <1>   0.0800 
 46 H        7.5550     4.1310    -2.7530 H     1 <1>   0.0800 
 47 H        5.9270     4.7480    -2.9530 H     1 <1>   0.0800 
 48 H        6.7820     6.9760    -2.3760 H     1 <1>   0.1500 
 49 H        6.8070     7.0940     2.5660 H     1 <1>   0.1500 
 50 H        6.9920     9.1180    -1.1920 H     1 <1>   0.1500 
 51 H        7.9680    10.0640     1.1630 H     1 <1>   0.0800 
 52 H        7.0400     9.4820     2.5220 H     1 <1>   0.0800 
 53 H        6.2270    10.2330     1.1720 H     1 <1>   0.0800 
@<TRIPOS>BOND
  1   1   2  ar  
  2   2   3  ar  
  3   2   4  1   
  4   4   5  1   
  5   4   6  1   
  6   4   7  1   
  7   5   8  1   
  8   5   9  1   
  9   5  26  1   
 10   6  10  1   
 11   6  27  1   
 12   6  28  1   
 13   7  11  1   
 14   7  29  1   
 15   7  30  1   
 16   8  31  1   
 17   9  12  1   
 18   9  32  1   
 19   9  33  1   
 20  10  12  1   
 21  10  34  1   
 22  10  35  1   
 23  11  13  1   
 24  11  36  1   
 25  11  37  1   
 26  12  14  1   
 27  12  38  1   
 28  13  39  1   
 29  13  40  1   
 30  13  41  1   
 31  14  15  1   
 32  14  42  1   
 33  14  43  1   
 34  15  16  1   
 35  15  17  2   
 36  16  18  1   
 37  16  19  1   
 38  17  20  1   
 39  17  44  1   
 40  18  20  ar  
 41  18  21  ar  
 42  19  45  1   
 43  19  46  1   
 44  19  47  1   
 45  20  22  ar  
 46  21  23  ar  
 47  21  48  1   
 48  22  24  ar  
 49  22  49  1   
 50  23  24  ar  
 51  23  50  1   
 52  24  25  1   
 53  25  51  1   
 54  25  52  1   
 55  25  53  1   
@<TRIPOS>SUBSTRUCTURE
  1 ****  10 GROUP 4 **** **** 0

# MOE 2024.06 (io_trps.svl 2023.06)
