@<TRIPOS>MOLECULE
NONAME
66 69 1 0 0 
SMALL
USER_CHARGES


@<TRIPOS>ATOM
  1 CL      -1.3060     1.5760     0.1350 Cl    1 <1>  -0.1770 
  2 C       -0.6970    -0.0380    -0.1270 C.ar  1 <1>   0.1770 
  3 C       -1.5420    -1.1160     0.0450 C.ar  1 <1>  -0.1500 
  4 C        0.6220    -0.2100    -0.5030 C.ar  1 <1>  -0.1500 
  5 C       -1.0690    -2.4030    -0.1600 C.ar  1 <1>   0.1000 
  6 C        1.1020    -1.4920    -0.7100 C.ar  1 <1>  -0.1500 
  7 N       -1.9240    -3.4840     0.0140 N.pl3 1 <1>  -0.8380 
  8 C        0.2600    -2.5790    -0.5390 C.ar  1 <1>  -0.1500 
  9 C       -1.6530    -4.3690     1.1800 C.3   1 <1>   0.2090 
 10 C       -2.3600    -4.1930    -1.2210 C.3   1 <1>   0.2090 
 11 C       -2.8660    -5.2830     1.4550 C.3   1 <1>   0.3430 
 12 C       -3.5650    -5.1100    -0.9190 C.3   1 <1>   0.3430 
 13 N       -3.3120    -6.0680     0.2340 N.4   1 <1>  -0.9590 
 14 C       -4.4970    -6.9100     0.5700 C.3   1 <1>   0.3430 
 15 C       -4.7650    -7.9660    -0.5130 C.3   1 <1>  -0.1600 
 16 C       -5.9340    -8.8740    -0.1030 C.3   1 <1>   0.3430 
 17 N       -6.2560    -9.8710    -1.1750 N.4   1 <1>  -0.9590 
 18 C       -7.6100   -10.5040    -1.0580 C.3   1 <1>   0.4230 
 19 C       -5.2230   -10.9560    -1.2710 C.3   1 <1>   0.2630 
 20 C       -7.9170   -11.1280     0.3030 C.3   1 <1>  -0.1600 
 21 C       -8.7510    -9.5190    -1.2880 C.3   1 <1>  -0.1600 
 22 C       -9.4450   -11.2770     0.3070 C.3   1 <1>  -0.0800 
 23 C       -9.9780   -10.2160    -0.6840 C.3   1 <1>  -0.0800 
 24 C      -10.0600   -11.2240     1.7220 C.3   1 <1>   0.1400 
 25 C      -10.9930    -9.2400    -0.0610 C.3   1 <1>  -0.0990 
 26 N      -11.5140   -10.9520     1.6330 N.am  1 <1>  -0.6600 
 27 C      -11.9980    -9.9930     0.7860 C.2   1 <1>   0.5690 
 28 C      -12.3980   -11.7270     2.5460 C.3   1 <1>   0.0600 
 29 O      -13.1690    -9.7210     0.6830 O.2   1 <1>  -0.5700 
 30 H       -2.5620    -0.9560     0.3380 H     1 <1>   0.1500 
 31 H        1.2590     0.6480    -0.6290 H     1 <1>   0.1500 
 32 H        2.1270    -1.6410    -1.0030 H     1 <1>   0.1500 
 33 H        0.6400    -3.5700    -0.7020 H     1 <1>   0.1500 
 34 H       -0.7750    -4.9630     0.9920 H     1 <1>   0.0800 
 35 H       -1.4600    -3.7600     2.0470 H     1 <1>   0.0800 
 36 H       -2.6400    -3.4650    -1.9640 H     1 <1>   0.0800 
 37 H       -1.5420    -4.7710    -1.6160 H     1 <1>   0.0800 
 38 H       -3.6750    -4.6580     1.7970 H     1 <1>   0.0800 
 39 H       -2.6130    -5.9590     2.2560 H     1 <1>   0.0800 
 40 H       -3.8070    -5.6600    -1.8120 H     1 <1>   0.0800 
 41 H       -4.4050    -4.4780    -0.6830 H     1 <1>   0.0800 
 42 H       -2.5160    -6.6630    -0.0310 H     1 <1>   0.4500 
 43 H       -4.3140    -7.4120     1.5080 H     1 <1>   0.0800 
 44 H       -5.3630    -6.2800     0.6960 H     1 <1>   0.0800 
 45 H       -3.8780    -8.5590    -0.6450 H     1 <1>   0.0800 
 46 H       -5.0150    -7.4770    -1.4370 H     1 <1>   0.0800 
 47 H       -6.7990    -8.2590     0.0880 H     1 <1>   0.0800 
 48 H       -5.6940    -9.3940     0.8110 H     1 <1>   0.0800 
 49 H       -6.2740    -9.3810    -2.0820 H     1 <1>   0.4500 
 50 H       -7.7040   -11.2800    -1.8030 H     1 <1>   0.0800 
 51 H       -5.1660   -11.5040    -0.3440 H     1 <1>   0.0800 
 52 H       -4.2520   -10.5430    -1.4880 H     1 <1>   0.0800 
 53 H       -5.4780   -11.6470    -2.0590 H     1 <1>   0.0800 
 54 H       -7.4410   -12.0850     0.4230 H     1 <1>   0.0800 
 55 H       -7.6290   -10.4750     1.1060 H     1 <1>   0.0800 
 56 H       -8.5800    -8.5930    -0.7730 H     1 <1>   0.0800 
 57 H       -8.9030    -9.3250    -2.3360 H     1 <1>   0.0800 
 58 H       -9.6860   -12.2460    -0.1010 H     1 <1>   0.0800 
 59 H      -10.4920   -10.7480    -1.4710 H     1 <1>   0.0800 
 60 H       -9.6100   -10.4380     2.3040 H     1 <1>   0.0800 
 61 H       -9.8900   -12.1590     2.2280 H     1 <1>   0.0800 
 62 H      -11.5130    -8.7010    -0.8330 H     1 <1>   0.0800 
 63 H      -10.5050    -8.5270     0.5770 H     1 <1>   0.0800 
 64 H      -12.3170   -12.7770     2.3290 H     1 <1>   0.0800 
 65 H      -13.4260   -11.4300     2.4210 H     1 <1>   0.0800 
 66 H      -12.1130   -11.5500     3.5690 H     1 <1>   0.0800 
@<TRIPOS>BOND
  1   1   2  1   
  2   2   3  ar  
  3   2   4  ar  
  4   3   5  ar  
  5   3  30  1   
  6   4   6  ar  
  7   4  31  1   
  8   5   7  1   
  9   5   8  ar  
 10   6   8  ar  
 11   6  32  1   
 12   7   9  1   
 13   7  10  1   
 14   8  33  1   
 15   9  11  1   
 16   9  34  1   
 17   9  35  1   
 18  10  12  1   
 19  10  36  1   
 20  10  37  1   
 21  11  13  1   
 22  11  38  1   
 23  11  39  1   
 24  12  13  1   
 25  12  40  1   
 26  12  41  1   
 27  13  14  1   
 28  13  42  1   
 29  14  15  1   
 30  14  43  1   
 31  14  44  1   
 32  15  16  1   
 33  15  45  1   
 34  15  46  1   
 35  16  17  1   
 36  16  47  1   
 37  16  48  1   
 38  17  18  1   
 39  17  19  1   
 40  17  49  1   
 41  18  20  1   
 42  18  21  1   
 43  18  50  1   
 44  19  51  1   
 45  19  52  1   
 46  19  53  1   
 47  20  22  1   
 48  20  54  1   
 49  20  55  1   
 50  21  23  1   
 51  21  56  1   
 52  21  57  1   
 53  22  23  1   
 54  22  24  1   
 55  22  58  1   
 56  23  25  1   
 57  23  59  1   
 58  24  26  1   
 59  24  60  1   
 60  24  61  1   
 61  25  27  1   
 62  25  62  1   
 63  25  63  1   
 64  26  27  am  
 65  26  28  1   
 66  27  29  2   
 67  28  64  1   
 68  28  65  1   
 69  28  66  1   
@<TRIPOS>SUBSTRUCTURE
  1 ****  14 GROUP 4 **** **** 0

# MOE 2024.06 (io_trps.svl 2023.06)
