@<TRIPOS>MOLECULE
NONAME
52 55 1 0 0 
SMALL
USER_CHARGES


@<TRIPOS>ATOM
  1 O       -0.9280    -0.3530    -0.3480 O.2   1 <1>  -0.5700 
  2 C       -1.8460     0.4400    -0.2440 C.2   1 <1>   0.7160 
  3 N       -3.1080    -0.0650    -0.1800 N.am  1 <1>  -0.7300 
  4 C       -1.6250     1.8560    -0.1850 C.2   1 <1>  -0.0860 
  5 C       -3.4880    -1.4780    -0.4010 C.3   1 <1>   0.1400 
  6 C       -2.6190     2.8450    -0.1440 C.2   1 <1>   0.3720 
  7 C       -0.4710     2.5820    -0.1860 C.2   1 <1>   0.0870 
  8 C       -3.2690    -2.2880     0.8770 C.3   1 <1>   0.0200 
  9 N       -2.1060     4.0250    -0.1370 N.2   1 <1>  -0.4100 
 10 N       -4.0040     2.6180    -0.1140 N.pl3 1 <1>  -0.8210 
 11 O       -0.8140     3.8450    -0.1660 O.3   1 <1>  -0.0190 
 12 C        0.9280     2.2400    -0.2030 C.ar  1 <1>   0.0530 
 13 C       -3.3010    -3.7680     0.5600 C.2   1 <1>   0.0070 
 14 C       -4.6530     3.0620     1.1530 C.3   1 <1>   0.2090 
 15 C       -4.7370     3.2380    -1.2570 C.3   1 <1>   0.2090 
 16 C        1.8170     2.9380    -1.0200 C.ar  1 <1>  -0.1500 
 17 C        1.4550     1.2260     0.5980 C.ar  1 <1>  -0.1500 
 18 N       -4.3170    -4.5410     0.7050 N.2   1 <1>  -0.3380 
 19 N       -2.2490    -4.4360     0.0720 N.pl3 1 <1>   0.0330 
 20 C       -5.9810     3.6830     0.7470 C.3   1 <1>  -0.1600 
 21 C       -5.7170     4.2300    -0.6460 C.3   1 <1>  -0.1600 
 22 C        3.1650     2.6330    -1.0430 C.ar  1 <1>  -0.1500 
 23 C        2.8020     0.9130     0.5800 C.ar  1 <1>  -0.1500 
 24 N       -3.9440    -5.7640     0.2990 N.2   1 <1>  -0.3380 
 25 C       -2.7100    -5.6780    -0.0700 C.2   1 <1>   0.2700 
 26 C        3.6710     1.6200    -0.2460 C.ar  1 <1>   0.0830 
 27 N       -1.9740    -6.7400    -0.5460 N.pl3 1 <1>  -0.8840 
 28 O        5.0010     1.3810    -0.3250 O.3   1 <1>  -0.3630 
 29 C        5.6150     0.3660     0.4360 C.3   1 <1>   0.0400 
 30 H       -3.8580     0.6440    -0.1490 H     1 <1>   0.3700 
 31 H       -2.8790    -1.8790    -1.1940 H     1 <1>   0.0800 
 32 H       -4.5190    -1.5400    -0.7050 H     1 <1>   0.0800 
 33 H       -4.0440    -2.0560     1.5870 H     1 <1>   0.0800 
 34 H       -2.3170    -2.0460     1.3150 H     1 <1>   0.0800 
 35 H       -4.0420     3.8010     1.6470 H     1 <1>   0.0800 
 36 H       -4.8010     2.2270     1.8160 H     1 <1>   0.0800 
 37 H       -5.2740     2.4660    -1.7820 H     1 <1>   0.0800 
 38 H       -4.0690     3.7290    -1.9460 H     1 <1>   0.0800 
 39 H        1.4440     3.7300    -1.6450 H     1 <1>   0.1500 
 40 H        0.7970     0.6740     1.2440 H     1 <1>   0.1500 
 41 H       -1.3220    -4.0920    -0.1780 H     1 <1>   0.2700 
 42 H       -6.2920     4.4480     1.4360 H     1 <1>   0.0800 
 43 H       -6.7330     2.9150     0.7070 H     1 <1>   0.0800 
 44 H       -6.6130     4.3240    -1.2330 H     1 <1>   0.0800 
 45 H       -5.2370     5.1920    -0.5780 H     1 <1>   0.0800 
 46 H        3.8370     3.1800    -1.6790 H     1 <1>   0.1500 
 47 H        3.1560     0.1220     1.2120 H     1 <1>   0.1500 
 48 H       -2.5830    -7.5510    -0.6890 H     1 <1>   0.4000 
 49 H       -1.2050    -7.0160     0.0680 H     1 <1>   0.4000 
 50 H        6.6650     0.3640     0.2060 H     1 <1>   0.0800 
 51 H        5.1800    -0.5810     0.1700 H     1 <1>   0.0800 
 52 H        5.4700     0.5780     1.4810 H     1 <1>   0.0800 
@<TRIPOS>BOND
  1   1   2  2   
  2   2   3  am  
  3   2   4  1   
  4   3   5  1   
  5   3  30  1   
  6   4   6  1   
  7   4   7  2   
  8   5   8  1   
  9   5  31  1   
 10   5  32  1   
 11   6   9  2   
 12   6  10  1   
 13   7  11  1   
 14   7  12  1   
 15   8  13  1   
 16   8  33  1   
 17   8  34  1   
 18   9  11  1   
 19  10  14  1   
 20  10  15  1   
 21  12  16  ar  
 22  12  17  ar  
 23  13  18  2   
 24  13  19  1   
 25  14  20  1   
 26  14  35  1   
 27  14  36  1   
 28  15  21  1   
 29  15  37  1   
 30  15  38  1   
 31  16  22  ar  
 32  16  39  1   
 33  17  23  ar  
 34  17  40  1   
 35  18  24  1   
 36  19  25  1   
 37  19  41  1   
 38  20  21  1   
 39  20  42  1   
 40  20  43  1   
 41  21  44  1   
 42  21  45  1   
 43  22  26  ar  
 44  22  46  1   
 45  23  26  ar  
 46  23  47  1   
 47  24  25  2   
 48  25  27  1   
 49  26  28  1   
 50  27  48  1   
 51  27  49  1   
 52  28  29  1   
 53  29  50  1   
 54  29  51  1   
 55  29  52  1   
@<TRIPOS>SUBSTRUCTURE
  1 ****   2 GROUP 4 **** **** 0

# MOE 2024.06 (io_trps.svl 2023.06)
