@<TRIPOS>MOLECULE
NONAME
45 47 1 0 0 
SMALL
USER_CHARGES


@<TRIPOS>ATOM
  1 O       -0.7460    -0.4350    -1.5350 O.3   1 <1>  -0.5600 
  2 C       -0.1080    -1.2990    -0.6470 C.3   1 <1>   0.2800 
  3 C       -1.4760     0.6290    -0.9960 C.3   1 <1>   0.1200 
  4 C       -0.9950    -1.5530     0.6010 C.3   1 <1>  -0.1600 
  5 C        1.2430    -0.6630    -0.2770 C.3   1 <1>  -0.1600 
  6 C        0.1620    -2.5770    -1.4570 C.3   1 <1>  -0.1600 
  7 C       -2.7190     0.0920    -0.2750 C.3   1 <1>  -0.1600 
  8 C       -2.4880    -1.2930     0.3520 C.3   1 <1>   0.2800 
  9 C        2.1430    -1.6440     0.4670 C.3   1 <1>   0.3430 
 10 C        1.0850    -3.5490    -0.7300 C.3   1 <1>   0.3430 
 11 O       -3.0960    -1.3190     1.5830 O.3   1 <1>  -0.6800 
 12 C       -3.1670    -2.3970    -0.4620 C.3   1 <1>  -0.2400 
 13 N        2.3520    -2.8610    -0.3660 N.4   1 <1>  -0.9590 
 14 C        3.3700    -3.7760     0.2280 C.3   1 <1>   0.5230 
 15 C        4.7530    -3.1690     0.0410 C.2   1 <1>   0.0060 
 16 N        5.8650    -3.5720     0.6650 N.pl3 1 <1>   0.0330 
 17 N        4.9990    -2.1880    -0.7590 N.2   1 <1>  -0.3380 
 18 C        6.7970    -2.7510     0.1840 C.2   1 <1>   0.0060 
 19 N        6.2980    -1.9200    -0.6620 N.2   1 <1>  -0.3380 
 20 C        8.2580    -2.7970     0.5850 C.3   1 <1>  -0.0600 
 21 H       -1.7630     1.2780    -1.8050 H     1 <1>   0.0800 
 22 H       -0.8430     1.1800    -0.3230 H     1 <1>   0.0800 
 23 H       -0.6780    -0.8870     1.3830 H     1 <1>   0.0800 
 24 H       -0.8630    -2.5510     0.9720 H     1 <1>   0.0800 
 25 H        1.0940     0.2010     0.3430 H     1 <1>   0.0800 
 26 H        1.7480    -0.3390    -1.1700 H     1 <1>   0.0800 
 27 H        0.6110    -2.3140    -2.3980 H     1 <1>   0.0800 
 28 H       -0.7590    -3.0820    -1.6740 H     1 <1>   0.0800 
 29 H       -3.5240     0.0400    -0.9860 H     1 <1>   0.0800 
 30 H       -3.0070     0.8140     0.4690 H     1 <1>   0.0800 
 31 H        1.6900    -1.9110     1.4080 H     1 <1>   0.0800 
 32 H        3.0920    -1.1680     0.6670 H     1 <1>   0.0800 
 33 H        1.2920    -4.3880    -1.3760 H     1 <1>   0.0800 
 34 H        0.5980    -3.9160     0.1580 H     1 <1>   0.0800 
 35 H       -2.9060    -0.4990     2.0740 H     1 <1>   0.4000 
 36 H       -2.8540    -2.3560    -1.4880 H     1 <1>   0.0800 
 37 H       -4.2340    -2.2620    -0.4430 H     1 <1>   0.0800 
 38 H       -2.9350    -3.3660    -0.0600 H     1 <1>   0.0800 
 39 H        2.8090    -2.5190    -1.2310 H     1 <1>   0.4500 
 40 H        3.3440    -4.7290    -0.2750 H     1 <1>   0.0800 
 41 H        3.1670    -3.9300     1.2750 H     1 <1>   0.0800 
 42 H        6.0110    -4.3210     1.3470 H     1 <1>   0.2700 
 43 H        8.6840    -3.7530     0.3360 H     1 <1>   0.0800 
 44 H        8.3620    -2.6240     1.6400 H     1 <1>   0.0800 
 45 H        8.8040    -2.0340     0.0580 H     1 <1>   0.0800 
@<TRIPOS>BOND
  1   1   2  1   
  2   1   3  1   
  3   2   4  1   
  4   2   5  1   
  5   2   6  1   
  6   3   7  1   
  7   3  21  1   
  8   3  22  1   
  9   4   8  1   
 10   4  23  1   
 11   4  24  1   
 12   5   9  1   
 13   5  25  1   
 14   5  26  1   
 15   6  10  1   
 16   6  27  1   
 17   6  28  1   
 18   7   8  1   
 19   7  29  1   
 20   7  30  1   
 21   8  11  1   
 22   8  12  1   
 23   9  13  1   
 24   9  31  1   
 25   9  32  1   
 26  10  13  1   
 27  10  33  1   
 28  10  34  1   
 29  11  35  1   
 30  12  36  1   
 31  12  37  1   
 32  12  38  1   
 33  13  14  1   
 34  13  39  1   
 35  14  15  1   
 36  14  40  1   
 37  14  41  1   
 38  15  16  1   
 39  15  17  2   
 40  16  18  1   
 41  16  42  1   
 42  17  19  1   
 43  18  19  2   
 44  18  20  1   
 45  20  43  1   
 46  20  44  1   
 47  20  45  1   
@<TRIPOS>SUBSTRUCTURE
  1 ****   9 GROUP 4 **** **** 0

# MOE 2024.06 (io_trps.svl 2023.06)
