@<TRIPOS>MOLECULE
NONAME
43 45 1 0 0 
SMALL
USER_CHARGES


@<TRIPOS>ATOM
  1 O       -1.4930     0.3550     1.4460 O.2   1 <1>  -0.5700 
  2 C       -2.5160     0.8800     1.0730 C.2   1 <1>   0.5690 
  3 N       -3.7390     0.2950     1.3000 N.am  1 <1>  -0.6600 
  4 C       -2.3950     2.2310     0.3650 C.3   1 <1>  -0.0190 
  5 C       -3.8150    -1.0020     2.0470 C.3   1 <1>   0.3210 
  6 C       -5.0590     0.9200     0.9610 C.3   1 <1>   0.1400 
  7 C       -1.1680     2.3800    -0.5600 C.3   1 <1>  -0.0170 
  8 C       -2.3140     3.4140     1.3460 C.3   1 <1>  -0.0170 
  9 C       -4.3250    -2.1300     1.1610 C.2   1 <1>   0.0460 
 10 C       -5.4510     0.7060    -0.5110 C.3   1 <1>   0.1200 
 11 C       -0.9000     3.8640    -0.5090 C.ar  1 <1>  -0.1440 
 12 C       -1.5400     4.4430     0.5590 C.ar  1 <1>  -0.1440 
 13 N       -5.6130    -2.5260     1.2280 N.2   1 <1>  -0.5650 
 14 C       -3.6480    -2.8590     0.2420 C.2   1 <1>  -0.3320 
 15 O       -6.1470    -0.4790    -0.6730 O.3   1 <1>  -0.6800 
 16 C       -0.1310     4.6250    -1.3700 C.ar  1 <1>  -0.1500 
 17 C       -1.4310     5.8000     0.7990 C.ar  1 <1>  -0.1500 
 18 C       -5.6930    -3.4800     0.3600 C.2   1 <1>   0.0360 
 19 N       -4.5320    -3.7310    -0.2780 N.pl3 1 <1>   0.0330 
 20 C       -2.1960    -2.7910    -0.1990 C.3   1 <1>  -0.0600 
 21 C       -0.0150     5.9870    -1.1380 C.ar  1 <1>  -0.1500 
 22 C       -0.6620     6.5720    -0.0580 C.ar  1 <1>  -0.1500 
 23 H       -3.2470     2.3960    -0.2630 H     1 <1>   0.0800 
 24 H       -4.4710    -0.8920     2.8920 H     1 <1>   0.0800 
 25 H       -2.8500    -1.2830     2.4300 H     1 <1>   0.0800 
 26 H       -4.9970     1.9770     1.1490 H     1 <1>   0.0800 
 27 H       -5.8350     0.5330     1.6010 H     1 <1>   0.0800 
 28 H       -1.3800     2.0420    -1.5580 H     1 <1>   0.0800 
 29 H       -0.3090     1.8600    -0.1730 H     1 <1>   0.0800 
 30 H       -1.7530     3.1450     2.2240 H     1 <1>   0.0800 
 31 H       -3.2880     3.7710     1.6260 H     1 <1>   0.0800 
 32 H       -4.5810     0.6750    -1.1430 H     1 <1>   0.0800 
 33 H       -6.1000     1.4960    -0.8430 H     1 <1>   0.0800 
 34 H       -5.7890    -1.1850    -0.0690 H     1 <1>   0.4000 
 35 H        0.3710     4.1680    -2.2040 H     1 <1>   0.1500 
 36 H       -1.9310     6.2510     1.6380 H     1 <1>   0.1500 
 37 H       -6.5920    -4.0330     0.1470 H     1 <1>   0.1500 
 38 H       -4.3650    -4.4340    -1.0030 H     1 <1>   0.2700 
 39 H       -1.6610    -2.0520     0.3700 H     1 <1>   0.0800 
 40 H       -2.1360    -2.5240    -1.2390 H     1 <1>   0.0800 
 41 H       -1.7170    -3.7420    -0.0520 H     1 <1>   0.0800 
 42 H        0.5800     6.5930    -1.7980 H     1 <1>   0.1500 
 43 H       -0.5660     7.6290     0.1150 H     1 <1>   0.1500 
@<TRIPOS>BOND
  1   1   2  2   
  2   2   3  am  
  3   2   4  1   
  4   3   5  1   
  5   3   6  1   
  6   4   7  1   
  7   4   8  1   
  8   4  23  1   
  9   5   9  1   
 10   5  24  1   
 11   5  25  1   
 12   6  10  1   
 13   6  26  1   
 14   6  27  1   
 15   7  11  1   
 16   7  28  1   
 17   7  29  1   
 18   8  12  1   
 19   8  30  1   
 20   8  31  1   
 21   9  13  1   
 22   9  14  2   
 23  10  15  1   
 24  10  32  1   
 25  10  33  1   
 26  11  12  ar  
 27  11  16  ar  
 28  12  17  ar  
 29  13  18  2   
 30  14  19  1   
 31  14  20  1   
 32  15  34  1   
 33  16  21  ar  
 34  16  35  1   
 35  17  22  ar  
 36  17  36  1   
 37  18  19  1   
 38  18  37  1   
 39  19  38  1   
 40  20  39  1   
 41  20  40  1   
 42  20  41  1   
 43  21  22  ar  
 44  21  42  1   
 45  22  43  1   
@<TRIPOS>SUBSTRUCTURE
  1 ****   2 GROUP 4 **** **** 0

# MOE 2024.06 (io_trps.svl 2023.06)
