@<TRIPOS>MOLECULE
NONAME
45 47 1 0 0 
SMALL
USER_CHARGES


@<TRIPOS>ATOM
  1 F       -1.1000     1.1090    -1.9350 F     1 <1>  -0.1900 
  2 C       -1.7110     1.3150    -0.7900 C.ar  1 <1>   0.1900 
  3 C       -1.3310     2.3740     0.0400 C.ar  1 <1>   0.1000 
  4 C       -2.7420     0.4590    -0.4560 C.ar  1 <1>   0.1600 
  5 N       -0.2970     3.2870    -0.2370 N.pl3 1 <1>  -0.8380 
  6 C       -2.1010     2.4630     1.1940 C.ar  1 <1>  -0.1500 
  7 N       -3.4630     0.5530     0.6550 N.ar  1 <1>  -0.6200 
  8 C       -0.0390     4.5230     0.5490 C.3   1 <1>   0.4330 
  9 C        0.9240     2.8890    -0.9820 C.3   1 <1>   0.2090 
 10 C       -3.1190     1.5600     1.4460 C.ar  1 <1>   0.1600 
 11 C       -1.1760     5.5420     0.4460 C.ar  1 <1>  -0.1430 
 12 C        1.2680     5.0670    -0.0160 C.3   1 <1>  -0.1600 
 13 C        2.0190     3.8290    -0.4930 C.3   1 <1>  -0.1600 
 14 C       -1.4300     6.4020     1.5040 C.ar  1 <1>  -0.1500 
 15 C       -1.9720     5.6240    -0.6880 C.ar  1 <1>  -0.1500 
 16 C       -2.4590     7.3250     1.4320 C.ar  1 <1>  -0.1500 
 17 C       -3.0040     6.5410    -0.7630 C.ar  1 <1>  -0.1500 
 18 C       -3.2510     7.4020     0.2950 C.ar  1 <1>  -0.1430 
 19 C       -4.3730     8.4160     0.2040 C.3   1 <1>   0.4860 
 20 N       -3.9590     9.4920    -0.7410 N.4   1 <1>  -0.9590 
 21 C       -2.7990    10.2750    -0.2100 C.3   1 <1>   0.2630 
 22 C       -5.1040    10.3830    -1.0950 C.3   1 <1>   0.2630 
 23 H       -2.9860    -0.3380    -1.1360 H     1 <1>   0.1500 
 24 H       -1.9180     3.2390     1.9090 H     1 <1>   0.1500 
 25 H        0.1170     4.2420     1.5770 H     1 <1>   0.0800 
 26 H        0.7520     3.0320    -2.0360 H     1 <1>   0.0800 
 27 H        1.1780     1.8590    -0.7930 H     1 <1>   0.0800 
 28 H       -3.6870     1.6700     2.3540 H     1 <1>   0.1500 
 29 H        1.8180     5.6250     0.7200 H     1 <1>   0.0800 
 30 H        1.0530     5.7060    -0.8540 H     1 <1>   0.0800 
 31 H        2.7290     4.0510    -1.2700 H     1 <1>   0.0800 
 32 H        2.5330     3.3670     0.3310 H     1 <1>   0.0800 
 33 H       -0.8240     6.3530     2.3930 H     1 <1>   0.1500 
 34 H       -1.7900     4.9570    -1.5150 H     1 <1>   0.1500 
 35 H       -2.6330     7.9740     2.2730 H     1 <1>   0.1500 
 36 H       -3.6070     6.5600    -1.6550 H     1 <1>   0.1500 
 37 H       -4.5800     8.8290     1.1780 H     1 <1>   0.0800 
 38 H       -5.2620     7.9250    -0.1560 H     1 <1>   0.0800 
 39 H       -3.6340     9.0030    -1.5890 H     1 <1>   0.4500 
 40 H       -3.0680    10.7730     0.7070 H     1 <1>   0.0800 
 41 H       -2.4880    11.0160    -0.9280 H     1 <1>   0.0800 
 42 H       -1.9640     9.6190    -0.0150 H     1 <1>   0.0800 
 43 H       -5.4670    10.8960    -0.2190 H     1 <1>   0.0800 
 44 H       -5.9120     9.8080    -1.5180 H     1 <1>   0.0800 
 45 H       -4.7930    11.1190    -1.8200 H     1 <1>   0.0800 
@<TRIPOS>BOND
  1   1   2  1   
  2   2   3  ar  
  3   2   4  ar  
  4   3   5  1   
  5   3   6  ar  
  6   4   7  ar  
  7   4  23  1   
  8   5   8  1   
  9   5   9  1   
 10   6  10  ar  
 11   6  24  1   
 12   7  10  ar  
 13   8  11  1   
 14   8  12  1   
 15   8  25  1   
 16   9  13  1   
 17   9  26  1   
 18   9  27  1   
 19  10  28  1   
 20  11  14  ar  
 21  11  15  ar  
 22  12  13  1   
 23  12  29  1   
 24  12  30  1   
 25  13  31  1   
 26  13  32  1   
 27  14  16  ar  
 28  14  33  1   
 29  15  17  ar  
 30  15  34  1   
 31  16  18  ar  
 32  16  35  1   
 33  17  18  ar  
 34  17  36  1   
 35  18  19  1   
 36  19  20  1   
 37  19  37  1   
 38  19  38  1   
 39  20  21  1   
 40  20  22  1   
 41  20  39  1   
 42  21  40  1   
 43  21  41  1   
 44  21  42  1   
 45  22  43  1   
 46  22  44  1   
 47  22  45  1   
@<TRIPOS>SUBSTRUCTURE
  1 ****  15 GROUP 4 **** **** 0

# MOE 2024.06 (io_trps.svl 2023.06)
