@<TRIPOS>MOLECULE
NONAME
51 53 1 0 0 
SMALL
USER_CHARGES


@<TRIPOS>ATOM
  1 CL      -4.8430     0.8200    -1.5940 Cl    1 <1>  -0.1770 
  2 C       -4.2400    -0.4980    -0.6190 C.ar  1 <1>   0.1770 
  3 C       -4.0020    -0.3120     0.7350 C.ar  1 <1>  -0.1440 
  4 C       -4.0380    -1.7190    -1.2290 C.ar  1 <1>  -0.1500 
  5 C       -3.5590    -1.3960     1.4760 C.ar  1 <1>  -0.1500 
  6 C       -4.2030     1.0430     1.3980 C.3   1 <1>  -0.0960 
  7 C       -3.6310    -2.8240    -0.4870 C.ar  1 <1>   0.0860 
  8 C       -3.3780    -2.6280     0.8710 C.ar  1 <1>  -0.1500 
  9 C       -3.4490    -4.1260    -1.1000 C.2   1 <1>   0.5440 
 10 O       -2.4600    -4.3030    -1.7830 O.2   1 <1>  -0.5700 
 11 N       -4.3400    -5.1750    -0.9330 N.am  1 <1>  -0.6600 
 12 C       -5.8290    -5.0670    -0.8700 C.3   1 <1>   0.2200 
 13 C       -3.8610    -6.5700    -1.1630 C.3   1 <1>   0.0600 
 14 C       -6.4150    -4.2350    -2.0110 C.3   1 <1>  -0.1600 
 15 C       -6.3510    -4.4850     0.4440 C.3   1 <1>  -0.1600 
 16 C       -7.6440    -3.5170    -1.4380 C.3   1 <1>  -0.0800 
 17 C       -7.5600    -3.6090     0.0870 C.3   1 <1>  -0.0800 
 18 C       -7.7240    -2.0170    -1.7740 C.3   1 <1>  -0.1600 
 19 C       -7.4700    -2.1590     0.5810 C.3   1 <1>  -0.1600 
 20 C       -8.1720    -1.3170    -0.4880 C.3   1 <1>   0.4230 
 21 N       -9.6620    -1.3890    -0.3440 N.4   1 <1>  -0.9590 
 22 C      -10.3740    -0.6240    -1.4180 C.3   1 <1>   0.2630 
 23 C      -10.1460    -0.8960     0.9860 C.3   1 <1>   0.2630 
 24 H       -4.1920    -1.8190    -2.2880 H     1 <1>   0.1500 
 25 H       -3.3490    -1.2890     2.5270 H     1 <1>   0.1500 
 26 H       -3.9530     1.0030     2.4430 H     1 <1>   0.0800 
 27 H       -5.2260     1.3570     1.3020 H     1 <1>   0.0800 
 28 H       -3.5710     1.7760     0.9280 H     1 <1>   0.0800 
 29 H       -3.0290    -3.4640     1.4540 H     1 <1>   0.1500 
 30 H       -6.2520    -6.0550    -0.9610 H     1 <1>   0.0800 
 31 H       -4.2960    -7.2340    -0.4360 H     1 <1>   0.0800 
 32 H       -2.7900    -6.6220    -1.0710 H     1 <1>   0.0800 
 33 H       -4.1380    -6.8890    -2.1530 H     1 <1>   0.0800 
 34 H       -5.6950    -3.5380    -2.3880 H     1 <1>   0.0800 
 35 H       -6.7010    -4.8790    -2.8240 H     1 <1>   0.0800 
 36 H       -6.6540    -5.2870     1.0940 H     1 <1>   0.0800 
 37 H       -5.6000    -3.9210     0.9550 H     1 <1>   0.0800 
 38 H       -8.5380    -4.0210    -1.7680 H     1 <1>   0.0800 
 39 H       -8.4610    -4.0680     0.4630 H     1 <1>   0.0800 
 40 H       -8.3410    -1.8280    -2.6320 H     1 <1>   0.0800 
 41 H       -6.7440    -1.6430    -2.0060 H     1 <1>   0.0800 
 42 H       -6.4390    -1.8560     0.5940 H     1 <1>   0.0800 
 43 H       -7.8450    -2.0390     1.5790 H     1 <1>   0.0800 
 44 H       -7.8390    -0.2910    -0.4610 H     1 <1>   0.0800 
 45 H       -9.9080    -2.3850    -0.4330 H     1 <1>   0.4500 
 46 H      -10.0680     0.4100    -1.4070 H     1 <1>   0.0800 
 47 H      -11.4400    -0.6680    -1.2630 H     1 <1>   0.0800 
 48 H      -10.1610    -1.0370    -2.3900 H     1 <1>   0.0800 
 49 H       -9.8130     0.1160     1.1540 H     1 <1>   0.0800 
 50 H       -9.7770    -1.5200     1.7820 H     1 <1>   0.0800 
 51 H      -11.2240    -0.9140     1.0200 H     1 <1>   0.0800 
@<TRIPOS>BOND
  1   1   2  1   
  2   2   3  ar  
  3   2   4  ar  
  4   3   5  ar  
  5   3   6  1   
  6   4   7  ar  
  7   4  24  1   
  8   5   8  ar  
  9   5  25  1   
 10   6  26  1   
 11   6  27  1   
 12   6  28  1   
 13   7   8  ar  
 14   7   9  1   
 15   8  29  1   
 16   9  10  2   
 17   9  11  am  
 18  11  12  1   
 19  11  13  1   
 20  12  14  1   
 21  12  15  1   
 22  12  30  1   
 23  13  31  1   
 24  13  32  1   
 25  13  33  1   
 26  14  16  1   
 27  14  34  1   
 28  14  35  1   
 29  15  17  1   
 30  15  36  1   
 31  15  37  1   
 32  16  17  1   
 33  16  18  1   
 34  16  38  1   
 35  17  19  1   
 36  17  39  1   
 37  18  20  1   
 38  18  40  1   
 39  18  41  1   
 40  19  20  1   
 41  19  42  1   
 42  19  43  1   
 43  20  21  1   
 44  20  44  1   
 45  21  22  1   
 46  21  23  1   
 47  21  45  1   
 48  22  46  1   
 49  22  47  1   
 50  22  48  1   
 51  23  49  1   
 52  23  50  1   
 53  23  51  1   
@<TRIPOS>SUBSTRUCTURE
  1 ****  19 GROUP 4 **** **** 0

# MOE 2024.06 (io_trps.svl 2023.06)
