@<TRIPOS>MOLECULE
NONAME
50 52 1 0 0 
SMALL
USER_CHARGES


@<TRIPOS>ATOM
  1 S        0.0950    -0.1780     1.5310 S.o2  1 <1>   1.4470 
  2 O       -0.5460    -1.2530     2.2610 O.2   1 <1>  -0.6500 
  3 O        0.4240     1.0120     2.2910 O.2   1 <1>  -0.6500 
  4 N       -1.0180     0.3190     0.3500 N.am  1 <1>  -0.8490 
  5 C        1.4810    -0.8550     0.5690 C.ar  1 <1>  -0.0090 
  6 C       -2.3440     0.5570     0.9390 C.3   1 <1>   0.1960 
  7 C       -0.5510     1.4930    -0.3900 C.3   1 <1>   0.1960 
  8 C        2.5810    -0.0830     0.1940 C.ar  1 <1>   0.0820 
  9 C        1.4470    -2.1820     0.1560 C.ar  1 <1>  -0.1500 
 10 C       -3.4210     0.8690    -0.1290 C.3   1 <1>   0.0000 
 11 C       -1.5260     1.8350    -1.5190 C.3   1 <1>  -0.1600 
 12 O        2.6110     1.2220     0.5580 O.3   1 <1>  -0.3630 
 13 C        3.6110    -0.6510    -0.5500 C.ar  1 <1>  -0.1500 
 14 C        2.4610    -2.7770    -0.5970 C.ar  1 <1>  -0.1790 
 15 C       -4.7670     1.1190     0.5800 C.3   1 <1>   0.2000 
 16 C       -2.9460     2.0660    -0.9840 C.3   1 <1>  -0.1600 
 17 C       -3.7110    -0.3810    -0.9810 C.3   1 <1>  -0.1600 
 18 C        3.7910     1.9930     0.5040 C.3   1 <1>   0.0400 
 19 C        3.5480    -1.9740    -0.9340 C.ar  1 <1>  -0.1500 
 20 C        2.3910    -4.1710    -1.0190 C.2   1 <1>   0.9790 
 21 O       -5.6410     1.7860    -0.2860 O.3   1 <1>  -0.5600 
 22 C       -5.3350    -0.2780     0.8600 C.3   1 <1>  -0.1600 
 23 C       -4.7160    -1.2190    -0.1820 C.3   1 <1>  -0.1600 
 24 O        3.3340    -4.6910    -1.6420 O.co2 1 <1>  -0.9000 
 25 O        1.3860    -4.8600    -0.7690 O.co2 1 <1>  -0.9000 
 26 C       -6.6530     2.5120     0.3360 C.3   1 <1>   0.0400 
 27 H       -2.6460    -0.3170     1.4900 H     1 <1>   0.0800 
 28 H       -2.2770     1.3760     1.6360 H     1 <1>   0.0800 
 29 H       -0.4500     2.3340     0.2770 H     1 <1>   0.0800 
 30 H        0.4130     1.2890    -0.8230 H     1 <1>   0.0800 
 31 H        0.5990    -2.7930     0.4230 H     1 <1>   0.1500 
 32 H       -1.1850     2.7190    -2.0260 H     1 <1>   0.0800 
 33 H       -1.5280     1.0290    -2.2310 H     1 <1>   0.0800 
 34 H        4.4690    -0.0820    -0.8490 H     1 <1>   0.1500 
 35 H       -4.6410     1.7060     1.4750 H     1 <1>   0.0800 
 36 H       -3.6190     2.2290    -1.8080 H     1 <1>   0.0800 
 37 H       -2.9540     2.9550    -0.3770 H     1 <1>   0.0800 
 38 H       -4.1770    -0.0800    -1.9040 H     1 <1>   0.0800 
 39 H       -2.8210    -0.9400    -1.2140 H     1 <1>   0.0800 
 40 H        3.5900     2.9400     0.9720 H     1 <1>   0.0800 
 41 H        4.0640     2.1440    -0.5250 H     1 <1>   0.0800 
 42 H        4.5690     1.4780     1.0400 H     1 <1>   0.0800 
 43 H        4.3470    -2.4100    -1.5120 H     1 <1>   0.1500 
 44 H       -5.0260    -0.5930     1.8410 H     1 <1>   0.0800 
 45 H       -6.4090    -0.2950     0.8180 H     1 <1>   0.0800 
 46 H       -4.2100    -2.0320     0.3100 H     1 <1>   0.0800 
 47 H       -5.4700    -1.6210    -0.8370 H     1 <1>   0.0800 
 48 H       -7.2690     2.9480    -0.4300 H     1 <1>   0.0800 
 49 H       -6.2130     3.2910     0.9340 H     1 <1>   0.0800 
 50 H       -7.2460     1.8550     0.9470 H     1 <1>   0.0800 
@<TRIPOS>BOND
  1   1   2  2   
  2   1   3  2   
  3   1   4  am  
  4   1   5  1   
  5   4   6  1   
  6   4   7  1   
  7   5   8  ar  
  8   5   9  ar  
  9   6  10  1   
 10   6  27  1   
 11   6  28  1   
 12   7  11  1   
 13   7  29  1   
 14   7  30  1   
 15   8  12  1   
 16   8  13  ar  
 17   9  14  ar  
 18   9  31  1   
 19  10  15  1   
 20  10  16  1   
 21  10  17  1   
 22  11  16  1   
 23  11  32  1   
 24  11  33  1   
 25  12  18  1   
 26  13  19  ar  
 27  13  34  1   
 28  14  19  ar  
 29  14  20  1   
 30  15  21  1   
 31  15  22  1   
 32  15  35  1   
 33  16  36  1   
 34  16  37  1   
 35  17  23  1   
 36  17  38  1   
 37  17  39  1   
 38  18  40  1   
 39  18  41  1   
 40  18  42  1   
 41  19  43  1   
 42  20  24  ar  
 43  20  25  ar  
 44  21  26  1   
 45  22  23  1   
 46  22  44  1   
 47  22  45  1   
 48  23  46  1   
 49  23  47  1   
 50  26  48  1   
 51  26  49  1   
 52  26  50  1   
@<TRIPOS>SUBSTRUCTURE
  1 ****   4 GROUP 4 **** **** 0

# MOE 2024.06 (io_trps.svl 2023.06)
