@<TRIPOS>MOLECULE
NONAME
59 61 1 0 0 
SMALL
USER_CHARGES


@<TRIPOS>ATOM
  1 O       -1.7610    -1.0170    -0.0790 O.3   1 <1>  -0.3630 
  2 C       -2.3970     0.1210     0.2910 C.ar  1 <1>   0.0820 
  3 C       -0.4220    -1.1680     0.3450 C.3   1 <1>   0.1200 
  4 C       -3.3670     0.0270     1.2850 C.ar  1 <1>  -0.1440 
  5 C       -2.1120     1.3420    -0.3170 C.ar  1 <1>  -0.1440 
  6 C       -0.0950    -2.6570     0.3400 C.3   1 <1>  -0.2400 
  7 C       -4.0190     1.1710     1.7110 C.ar  1 <1>  -0.1500 
  8 C       -3.7240    -1.3180     1.8930 C.3   1 <1>   0.4870 
  9 C       -2.7650     2.4870     0.1300 C.ar  1 <1>   0.0820 
 10 C       -1.1140     1.4470    -1.4720 C.3   1 <1>  -0.0960 
 11 C       -3.7150     2.3950     1.1440 C.ar  1 <1>  -0.1500 
 12 N       -4.1130    -2.2430     0.8030 N.4   1 <1>  -0.9590 
 13 O       -2.4410     3.6710    -0.4550 O.3   1 <1>  -0.3620 
 14 C       -5.2500    -1.7710    -0.0490 C.3   1 <1>   0.3430 
 15 C       -4.3990    -3.6390     1.2090 C.3   1 <1>   0.3430 
 16 C       -3.0020     4.8960    -0.0440 C.3   1 <1>   0.1200 
 17 C       -6.1240    -3.0060    -0.3210 C.3   1 <1>   0.2000 
 18 C       -5.2580    -4.2020     0.0750 C.3   1 <1>  -0.0800 
 19 C       -2.3880     6.0040    -0.8950 C.3   1 <1>  -0.2400 
 20 O       -7.2440    -2.9700     0.5000 O.3   1 <1>  -0.6800 
 21 C       -4.4070    -4.6780    -1.1200 C.3   1 <1>   0.0210 
 22 C       -3.3650    -5.6940    -0.7010 C.2   1 <1>   0.1080 
 23 N       -2.2480    -5.3550    -0.1350 N.2   1 <1>  -0.7070 
 24 C       -3.4750    -7.0690    -0.8740 C.2   1 <1>  -0.1500 
 25 N       -1.5980    -6.5240     0.0540 N.pl3 1 <1>   0.3000 
 26 C       -2.3270    -7.5730    -0.3780 C.2   1 <1>  -0.3320 
 27 C       -1.8690    -9.0180    -0.2980 C.3   1 <1>  -0.0600 
 28 H        0.2190    -0.6350    -0.3350 H     1 <1>   0.0800 
 29 H       -0.3180    -0.7550     1.3340 H     1 <1>   0.0800 
 30 H       -0.2290    -3.0660    -0.6460 H     1 <1>   0.0800 
 31 H       -0.7230    -3.1840     1.0350 H     1 <1>   0.0800 
 32 H        0.9300    -2.8030     0.6310 H     1 <1>   0.0800 
 33 H       -4.7660     1.1300     2.4860 H     1 <1>   0.1500 
 34 H       -4.5340    -1.2040     2.5930 H     1 <1>   0.0800 
 35 H       -2.8650    -1.7080     2.4150 H     1 <1>   0.0800 
 36 H       -1.4480     2.1680    -2.1960 H     1 <1>   0.0800 
 37 H       -1.0060     0.5090    -1.9850 H     1 <1>   0.0800 
 38 H       -0.1560     1.7590    -1.0990 H     1 <1>   0.0800 
 39 H       -4.2320     3.2660     1.5020 H     1 <1>   0.1500 
 40 H       -3.2720    -2.2630     0.1920 H     1 <1>   0.4500 
 41 H       -5.8290    -1.0070     0.4440 H     1 <1>   0.0800 
 42 H       -4.8620    -1.3760    -0.9750 H     1 <1>   0.0800 
 43 H       -3.4950    -4.2020     1.3680 H     1 <1>   0.0800 
 44 H       -4.9720    -3.6420     2.1210 H     1 <1>   0.0800 
 45 H       -4.0670     4.8510    -0.1910 H     1 <1>   0.0800 
 46 H       -2.7710     5.0460     0.9970 H     1 <1>   0.0800 
 47 H       -6.4690    -3.0410    -1.3420 H     1 <1>   0.0800 
 48 H       -5.8520    -5.0310     0.4200 H     1 <1>   0.0800 
 49 H       -2.6090     5.8360    -1.9340 H     1 <1>   0.0800 
 50 H       -1.3230     6.0300    -0.7540 H     1 <1>   0.0800 
 51 H       -2.7970     6.9550    -0.6060 H     1 <1>   0.0800 
 52 H       -7.0380    -3.1270     1.4410 H     1 <1>   0.4000 
 53 H       -3.8950    -3.8530    -1.5830 H     1 <1>   0.0800 
 54 H       -5.0460    -5.1210    -1.8640 H     1 <1>   0.0800 
 55 H       -4.3030    -7.5950    -1.3160 H     1 <1>   0.1500 
 56 H       -0.6600    -6.5770     0.4720 H     1 <1>   0.2700 
 57 H       -2.6210    -9.6680    -0.7100 H     1 <1>   0.0800 
 58 H       -1.6970    -9.3010     0.7250 H     1 <1>   0.0800 
 59 H       -0.9600    -9.1540    -0.8570 H     1 <1>   0.0800 
@<TRIPOS>BOND
  1   1   2  1   
  2   1   3  1   
  3   2   4  ar  
  4   2   5  ar  
  5   3   6  1   
  6   3  28  1   
  7   3  29  1   
  8   4   7  ar  
  9   4   8  1   
 10   5   9  ar  
 11   5  10  1   
 12   6  30  1   
 13   6  31  1   
 14   6  32  1   
 15   7  11  ar  
 16   7  33  1   
 17   8  12  1   
 18   8  34  1   
 19   8  35  1   
 20   9  11  ar  
 21   9  13  1   
 22  10  36  1   
 23  10  37  1   
 24  10  38  1   
 25  11  39  1   
 26  12  14  1   
 27  12  15  1   
 28  12  40  1   
 29  13  16  1   
 30  14  17  1   
 31  14  41  1   
 32  14  42  1   
 33  15  18  1   
 34  15  43  1   
 35  15  44  1   
 36  16  19  1   
 37  16  45  1   
 38  16  46  1   
 39  17  18  1   
 40  17  20  1   
 41  17  47  1   
 42  18  21  1   
 43  18  48  1   
 44  19  49  1   
 45  19  50  1   
 46  19  51  1   
 47  20  52  1   
 48  21  22  1   
 49  21  53  1   
 50  21  54  1   
 51  22  23  2   
 52  22  24  1   
 53  23  25  1   
 54  24  26  2   
 55  24  55  1   
 56  25  26  1   
 57  25  56  1   
 58  26  27  1   
 59  27  57  1   
 60  27  58  1   
 61  27  59  1   
@<TRIPOS>SUBSTRUCTURE
  1 ****  12 GROUP 4 **** **** 0

# MOE 2024.06 (io_trps.svl 2023.06)
