@<TRIPOS>MOLECULE
NONAME
48 49 1 0 0 
SMALL
USER_CHARGES


@<TRIPOS>ATOM
  1 O        0.2370    -1.1880    -1.1650 O.2   1 <1>  -0.5700 
  2 C        1.0350    -0.3680    -0.7410 C.2   1 <1>   0.5440 
  3 N        0.5830     0.8550    -0.3320 N.am  1 <1>  -0.7300 
  4 C        2.4410    -0.6700    -0.7120 C.ar  1 <1>   0.0860 
  5 C       -0.8290     1.3160    -0.3540 C.3   1 <1>   0.0600 
  6 C        2.9940    -1.5000     0.2810 C.ar  1 <1>   0.4100 
  7 C        3.2910    -0.1650    -1.6840 C.ar  1 <1>  -0.1500 
  8 N        4.2710    -1.8690     0.3100 N.ar  1 <1>  -0.6200 
  9 N        2.2320    -2.0060     1.3160 N.pl3 1 <1>  -0.8380 
 10 C        4.6190    -0.5240    -1.6360 C.ar  1 <1>  -0.1500 
 11 C        5.0500    -1.3730    -0.6320 C.ar  1 <1>   0.1600 
 12 C        1.8720    -3.4460     1.2450 C.3   1 <1>   0.2090 
 13 C        2.5820    -1.5310     2.6840 C.3   1 <1>   0.1290 
 14 C        0.8820    -3.6720     0.0890 C.3   1 <1>   0.3430 
 15 N        0.5020    -5.1030    -0.1370 N.4   1 <1>  -0.9590 
 16 C       -0.2300    -5.1990    -1.4270 C.3   1 <1>   0.3430 
 17 C       -0.3310    -5.6460     0.9650 C.3   1 <1>   0.3430 
 18 C       -0.1210    -6.6060    -2.0230 C.3   1 <1>  -0.1600 
 19 C        0.0810    -7.0830     1.2850 C.3   1 <1>  -0.1600 
 20 C       -0.5810    -7.7650    -1.1190 C.3   1 <1>  -0.1600 
 21 C        0.3530    -8.0010     0.0780 C.3   1 <1>  -0.1600 
 22 H        1.2570     1.5190     0.0580 H     1 <1>   0.3700 
 23 H       -1.4640     0.5700    -0.8020 H     1 <1>   0.0800 
 24 H       -0.9070     2.2240    -0.9260 H     1 <1>   0.0800 
 25 H       -1.1670     1.5010     0.6510 H     1 <1>   0.0800 
 26 H        2.9150     0.4830    -2.4580 H     1 <1>   0.1500 
 27 H        5.3160    -0.1570    -2.3680 H     1 <1>   0.1500 
 28 H        6.0890    -1.6560    -0.6060 H     1 <1>   0.1500 
 29 H        1.4250    -3.7460     2.1750 H     1 <1>   0.0800 
 30 H        2.7680    -4.0220     1.0810 H     1 <1>   0.0800 
 31 H        2.9590    -0.5230     2.6390 H     1 <1>   0.0800 
 32 H        3.3450    -2.1610     3.1100 H     1 <1>   0.0800 
 33 H        1.7110    -1.5450     3.3150 H     1 <1>   0.0800 
 34 H        1.3410    -3.2890    -0.8070 H     1 <1>   0.0800 
 35 H       -0.0020    -3.0850     0.2760 H     1 <1>   0.0800 
 36 H        1.3530    -5.6730    -0.2180 H     1 <1>   0.4500 
 37 H        0.1850    -4.4960    -2.1330 H     1 <1>   0.0800 
 38 H       -1.2660    -4.9400    -1.2810 H     1 <1>   0.0800 
 39 H       -1.3700    -5.6260     0.6760 H     1 <1>   0.0800 
 40 H       -0.2260    -5.0450     1.8540 H     1 <1>   0.0800 
 41 H        0.8930    -6.7750    -2.3420 H     1 <1>   0.0800 
 42 H       -0.7250    -6.6210    -2.9140 H     1 <1>   0.0800 
 43 H       -0.7120    -7.5170     1.8700 H     1 <1>   0.0800 
 44 H        0.9520    -7.0690     1.9170 H     1 <1>   0.0800 
 45 H       -0.5770    -8.6620    -1.7180 H     1 <1>   0.0800 
 46 H       -1.5950    -7.6160    -0.7880 H     1 <1>   0.0800 
 47 H        0.2390    -9.0210     0.4070 H     1 <1>   0.0800 
 48 H        1.3770    -7.8980    -0.2400 H     1 <1>   0.0800 
@<TRIPOS>BOND
  1   1   2  2   
  2   2   3  am  
  3   2   4  1   
  4   3   5  1   
  5   3  22  1   
  6   4   6  ar  
  7   4   7  ar  
  8   5  23  1   
  9   5  24  1   
 10   5  25  1   
 11   6   8  ar  
 12   6   9  1   
 13   7  10  ar  
 14   7  26  1   
 15   8  11  ar  
 16   9  12  1   
 17   9  13  1   
 18  10  11  ar  
 19  10  27  1   
 20  11  28  1   
 21  12  14  1   
 22  12  29  1   
 23  12  30  1   
 24  13  31  1   
 25  13  32  1   
 26  13  33  1   
 27  14  15  1   
 28  14  34  1   
 29  14  35  1   
 30  15  16  1   
 31  15  17  1   
 32  15  36  1   
 33  16  18  1   
 34  16  37  1   
 35  16  38  1   
 36  17  19  1   
 37  17  39  1   
 38  17  40  1   
 39  18  20  1   
 40  18  41  1   
 41  18  42  1   
 42  19  21  1   
 43  19  43  1   
 44  19  44  1   
 45  20  21  1   
 46  20  45  1   
 47  20  46  1   
 48  21  47  1   
 49  21  48  1   
@<TRIPOS>SUBSTRUCTURE
  1 ****  14 GROUP 4 **** **** 0

# MOE 2024.06 (io_trps.svl 2023.06)
