@<TRIPOS>MOLECULE
NONAME
58 61 1 0 0 
SMALL
USER_CHARGES


@<TRIPOS>ATOM
  1 O        0.5780    -2.0520    -2.1020 O.2   1 <1>  -0.5700 
  2 C        1.0760    -2.3650    -1.0460 C.2   1 <1>   0.5690 
  3 N        0.3690    -3.0250    -0.0710 N.am  1 <1>  -0.6600 
  4 C        2.5410    -2.0180    -0.8390 C.3   1 <1>  -0.0990 
  5 C        0.9100    -3.3200     1.2850 C.3   1 <1>   0.1400 
  6 C       -1.0590    -3.3770    -0.2780 C.3   1 <1>   0.1400 
  7 C        2.9760    -2.0280     0.6320 C.3   1 <1>  -0.1600 
  8 C        2.4410    -3.2890     1.3120 C.3   1 <1>  -0.1600 
  9 C       -1.1600    -4.8170    -0.7870 C.3   1 <1>  -0.1600 
 10 C       -2.6250    -5.2350    -0.9950 C.3   1 <1>  -0.0990 
 11 C       -2.7560    -6.6540    -1.5100 C.2   1 <1>   0.5690 
 12 O       -3.2690    -6.8520    -2.5830 O.2   1 <1>  -0.5700 
 13 N       -2.3160    -7.6710    -0.7320 N.am  1 <1>  -0.7300 
 14 C       -2.3140    -9.1010    -1.1170 C.3   1 <1>   0.2200 
 15 C       -3.4350    -9.8670    -0.4250 C.3   1 <1>  -0.0800 
 16 C       -1.0990    -9.7660    -0.4880 C.3   1 <1>   0.1200 
 17 C       -2.8340   -10.1580     0.9580 C.3   1 <1>   0.1200 
 18 C       -4.7990    -9.1460    -0.3980 C.3   1 <1>  -0.0170 
 19 O       -1.4520    -9.9680     0.8470 O.3   1 <1>  -0.5600 
 20 C       -5.9820    -9.9270     0.1850 C.ar  1 <1>  -0.1440 
 21 C       -7.2190    -9.2660     0.3930 C.ar  1 <1>   0.0000 
 22 C       -5.9260   -11.2510     0.5210 C.ar  1 <1>  -0.1500 
 23 C       -8.2840   -10.0090     0.9610 C.ar  1 <1>   0.3100 
 24 C       -7.4650    -7.9120     0.0620 C.ar  1 <1>  -0.1500 
 25 C       -7.0420   -11.8940     1.0680 C.ar  1 <1>   0.1600 
 26 N       -8.1790   -11.3190     1.2930 N.ar  1 <1>  -0.6200 
 27 C       -9.5130    -9.3710     1.1920 C.ar  1 <1>  -0.1500 
 28 C       -8.6770    -7.3210     0.2970 C.ar  1 <1>  -0.1500 
 29 C       -9.7150    -8.0570     0.8720 C.ar  1 <1>  -0.1500 
 30 H        3.1210    -2.7380    -1.3870 H     1 <1>   0.0800 
 31 H        2.7310    -1.0510    -1.2660 H     1 <1>   0.0800 
 32 H        0.5260    -2.5840     1.9710 H     1 <1>   0.0800 
 33 H        0.5710    -4.2900     1.6070 H     1 <1>   0.0800 
 34 H       -1.5960    -3.2650     0.6480 H     1 <1>   0.0800 
 35 H       -1.4990    -2.7070    -0.9980 H     1 <1>   0.0800 
 36 H        4.0500    -1.9950     0.6960 H     1 <1>   0.0800 
 37 H        2.5820    -1.1570     1.1280 H     1 <1>   0.0800 
 38 H        2.7760    -3.3230     2.3340 H     1 <1>   0.0800 
 39 H        2.8220    -4.1650     0.8150 H     1 <1>   0.0800 
 40 H       -0.6380    -4.8900    -1.7270 H     1 <1>   0.0800 
 41 H       -0.6890    -5.4790    -0.0830 H     1 <1>   0.0800 
 42 H       -3.0860    -4.5730    -1.7070 H     1 <1>   0.0800 
 43 H       -3.1670    -5.1570    -0.0720 H     1 <1>   0.0800 
 44 H       -1.9160    -7.4910     0.1910 H     1 <1>   0.3700 
 45 H       -2.3340    -9.2080    -2.1890 H     1 <1>   0.0800 
 46 H       -3.5500   -10.8000    -0.9470 H     1 <1>   0.0800 
 47 H       -0.2120    -9.1590    -0.5440 H     1 <1>   0.0800 
 48 H       -0.9140   -10.7290    -0.9320 H     1 <1>   0.0800 
 49 H       -3.0190   -11.1690     1.2760 H     1 <1>   0.0800 
 50 H       -3.2000    -9.4710     1.7020 H     1 <1>   0.0800 
 51 H       -5.0500    -8.8610    -1.4070 H     1 <1>   0.0800 
 52 H       -4.6900    -8.2430     0.1750 H     1 <1>   0.0800 
 53 H       -5.0470   -11.8500     0.3840 H     1 <1>   0.1500 
 54 H       -6.6870    -7.3260    -0.3900 H     1 <1>   0.1500 
 55 H       -6.9480   -12.9370     1.3190 H     1 <1>   0.1500 
 56 H      -10.2980    -9.9580     1.6320 H     1 <1>   0.1500 
 57 H       -8.8480    -6.2900     0.0410 H     1 <1>   0.1500 
 58 H      -10.6640    -7.5810     1.0540 H     1 <1>   0.1500 
@<TRIPOS>BOND
  1   1   2  2   
  2   2   3  am  
  3   2   4  1   
  4   3   5  1   
  5   3   6  1   
  6   4   7  1   
  7   4  30  1   
  8   4  31  1   
  9   5   8  1   
 10   5  32  1   
 11   5  33  1   
 12   6   9  1   
 13   6  34  1   
 14   6  35  1   
 15   7   8  1   
 16   7  36  1   
 17   7  37  1   
 18   8  38  1   
 19   8  39  1   
 20   9  10  1   
 21   9  40  1   
 22   9  41  1   
 23  10  11  1   
 24  10  42  1   
 25  10  43  1   
 26  11  12  2   
 27  11  13  am  
 28  13  14  1   
 29  13  44  1   
 30  14  15  1   
 31  14  16  1   
 32  14  45  1   
 33  15  17  1   
 34  15  18  1   
 35  15  46  1   
 36  16  19  1   
 37  16  47  1   
 38  16  48  1   
 39  17  19  1   
 40  17  49  1   
 41  17  50  1   
 42  18  20  1   
 43  18  51  1   
 44  18  52  1   
 45  20  21  ar  
 46  20  22  ar  
 47  21  23  ar  
 48  21  24  ar  
 49  22  25  ar  
 50  22  53  1   
 51  23  26  ar  
 52  23  27  ar  
 53  24  28  ar  
 54  24  54  1   
 55  25  26  ar  
 56  25  55  1   
 57  27  29  ar  
 58  27  56  1   
 59  28  29  ar  
 60  28  57  1   
 61  29  58  1   
@<TRIPOS>SUBSTRUCTURE
  1 ****  13 GROUP 4 **** **** 0

# MOE 2024.06 (io_trps.svl 2023.06)
