@<TRIPOS>MOLECULE
NONAME
39 40 1 0 0 
SMALL
USER_CHARGES


@<TRIPOS>ATOM
  1 S       -0.2150    -0.2040     0.9020 S.3   1 <1>  -0.0800 
  2 C       -1.4570    -0.9660    -0.0380 C.2   1 <1>   0.4420 
  3 C       -0.5560     1.2540     0.0340 C.2   1 <1>   0.1980 
  4 N       -1.9990    -0.1560    -0.8720 N.2   1 <1>  -0.3380 
  5 N       -1.6800    -2.3040     0.2080 N.am  1 <1>  -0.4940 
  6 N       -1.4820     1.1090    -0.8240 N.2   1 <1>  -0.3380 
  7 C        0.2400     2.5010     0.3700 C.3   1 <1>   0.0200 
  8 C       -2.6790    -3.1220    -0.2580 C.2   1 <1>   0.6160 
  9 C        1.6860     2.4050    -0.1400 C.3   1 <1>  -0.1600 
 10 O       -3.6760    -2.6350    -0.7500 O.2   1 <1>  -0.5700 
 11 C       -2.5650    -4.5540    -0.1110 C.2   1 <1>   0.0140 
 12 C        2.4780     3.6810     0.1740 C.3   1 <1>  -0.1600 
 13 C       -3.6770    -5.3620    -0.0810 C.2   1 <1>  -0.0410 
 14 C       -1.2920    -5.2000     0.0030 C.2   1 <1>  -0.1500 
 15 C        3.9180     3.5760    -0.3410 C.3   1 <1>  -0.1600 
 16 N       -3.6100    -6.7250     0.0800 N.am  1 <1>  -0.4690 
 17 C       -1.2180    -6.5480     0.1640 C.2   1 <1>  -0.1360 
 18 C        4.7090     4.8490    -0.0290 C.3   1 <1>  -0.2400 
 19 C       -2.3840    -7.3580     0.2160 C.2   1 <1>   0.6160 
 20 C       -4.8520    -7.5410     0.1030 C.3   1 <1>   0.0600 
 21 O       -2.3160    -8.5680     0.3760 O.2   1 <1>  -0.5700 
 22 H       -1.0340    -2.7350     0.8600 H     1 <1>   0.3700 
 23 H        0.2320     2.6460     1.4350 H     1 <1>   0.0800 
 24 H       -0.2450     3.3470    -0.0850 H     1 <1>   0.0800 
 25 H        1.6700     2.2450    -1.2060 H     1 <1>   0.0800 
 26 H        2.1730     1.5610     0.3160 H     1 <1>   0.0800 
 27 H        2.4920     3.8440     1.2380 H     1 <1>   0.0800 
 28 H        1.9970     4.5260    -0.2880 H     1 <1>   0.0800 
 29 H       -4.6570    -4.9220    -0.1850 H     1 <1>   0.1500 
 30 H       -0.3950    -4.6100    -0.0550 H     1 <1>   0.1500 
 31 H        3.9120     3.4160    -1.4060 H     1 <1>   0.0800 
 32 H        4.4090     2.7340     0.1190 H     1 <1>   0.0800 
 33 H       -0.2830    -7.0680     0.2510 H     1 <1>   0.1500 
 34 H        4.2510     5.7020    -0.4980 H     1 <1>   0.0800 
 35 H        5.7150     4.7560    -0.3970 H     1 <1>   0.0800 
 36 H        4.7490     5.0170     1.0330 H     1 <1>   0.0800 
 37 H       -5.7190    -6.9170    -0.0240 H     1 <1>   0.0800 
 38 H       -4.9230    -8.0590     1.0440 H     1 <1>   0.0800 
 39 H       -4.8190    -8.2650    -0.6920 H     1 <1>   0.0800 
@<TRIPOS>BOND
  1   1   2  1   
  2   1   3  1   
  3   2   4  2   
  4   2   5  1   
  5   3   6  2   
  6   3   7  1   
  7   4   6  1   
  8   5   8  am  
  9   5  22  1   
 10   7   9  1   
 11   7  23  1   
 12   7  24  1   
 13   8  10  2   
 14   8  11  1   
 15   9  12  1   
 16   9  25  1   
 17   9  26  1   
 18  11  13  2   
 19  11  14  1   
 20  12  15  1   
 21  12  27  1   
 22  12  28  1   
 23  13  16  1   
 24  13  29  1   
 25  14  17  2   
 26  14  30  1   
 27  15  18  1   
 28  15  31  1   
 29  15  32  1   
 30  16  19  am  
 31  16  20  1   
 32  17  19  1   
 33  17  33  1   
 34  18  34  1   
 35  18  35  1   
 36  18  36  1   
 37  19  21  2   
 38  20  37  1   
 39  20  38  1   
 40  20  39  1   
@<TRIPOS>SUBSTRUCTURE
  1 ****   5 GROUP 4 **** **** 0

# MOE 2024.06 (io_trps.svl 2023.06)
