@<TRIPOS>MOLECULE
NONAME
51 53 1 0 0 
SMALL
USER_CHARGES


@<TRIPOS>ATOM
  1 F       -1.6770     3.1670    -1.9280 F     1 <1>  -0.1900 
  2 C       -1.0690     3.1120    -0.7720 C.ar  1 <1>   0.1900 
  3 C       -1.5990     2.3220     0.2430 C.ar  1 <1>  -0.1440 
  4 C        0.0830     3.8570    -0.6160 C.ar  1 <1>  -0.1500 
  5 C       -0.9370     2.2870     1.4650 C.ar  1 <1>  -0.1500 
  6 C       -2.8740     1.5090     0.0460 C.3   1 <1>  -0.0160 
  7 C        0.7100     3.7930     0.6120 C.ar  1 <1>   0.1900 
  8 C        0.2230     3.0240     1.6550 C.ar  1 <1>  -0.1500 
  9 C       -4.1150     2.3940     0.2330 C.3   1 <1>  -0.0990 
 10 F        1.8010     4.4850     0.7970 F     1 <1>  -0.1900 
 11 C       -5.4300     1.6460     0.0590 C.2   1 <1>   0.5690 
 12 O       -5.4220     0.4410     0.1570 O.2   1 <1>  -0.5700 
 13 N       -6.5910     2.3330    -0.1890 N.am  1 <1>  -0.6600 
 14 C       -7.8390     1.5730    -0.4990 C.3   1 <1>   0.1400 
 15 C       -6.7050     3.8240    -0.1770 C.3   1 <1>   0.1400 
 16 C       -8.8100     2.4410    -1.3030 C.3   1 <1>  -0.1600 
 17 C       -8.0780     4.2220     0.3640 C.3   1 <1>  -0.1600 
 18 C       -9.2290     3.7220    -0.5450 C.3   1 <1>   0.2800 
 19 O       -9.4020     4.6690    -1.5600 O.3   1 <1>  -0.5600 
 20 C      -10.5490     3.4760     0.2490 C.3   1 <1>  -0.1600 
 21 C      -10.0550     5.9000    -1.3430 C.3   1 <1>   0.1200 
 22 C      -11.6930     4.4600    -0.0430 C.3   1 <1>   0.2800 
 23 C      -11.1170     5.8790    -0.2280 C.3   1 <1>   0.2000 
 24 O      -12.3130     4.0740    -1.2170 O.3   1 <1>  -0.6800 
 25 C      -12.7820     4.3920     1.0330 C.3   1 <1>  -0.2400 
 26 O      -10.5290     6.3270     0.9590 O.3   1 <1>  -0.6800 
 27 H        0.4740     4.4590    -1.4140 H     1 <1>   0.1500 
 28 H       -1.3200     1.6860     2.2730 H     1 <1>   0.1500 
 29 H       -2.8840     1.0750    -0.9400 H     1 <1>   0.0800 
 30 H       -2.8990     0.6960     0.7520 H     1 <1>   0.0800 
 31 H        0.7440     3.0050     2.5950 H     1 <1>   0.1500 
 32 H       -4.0710     3.1900    -0.4860 H     1 <1>   0.0800 
 33 H       -4.0980     2.8220     1.2180 H     1 <1>   0.0800 
 34 H       -7.5910     0.6930    -1.0690 H     1 <1>   0.0800 
 35 H       -8.2970     1.2570     0.4220 H     1 <1>   0.0800 
 36 H       -5.9430     4.2540     0.4490 H     1 <1>   0.0800 
 37 H       -6.5820     4.2010    -1.1790 H     1 <1>   0.0800 
 38 H       -9.6690     1.8590    -1.5800 H     1 <1>   0.0800 
 39 H       -8.3130     2.7060    -2.2200 H     1 <1>   0.0800 
 40 H       -8.1100     5.2890     0.4730 H     1 <1>   0.0800 
 41 H       -8.1570     3.7950     1.3470 H     1 <1>   0.0800 
 42 H      -10.9070     2.4730     0.1100 H     1 <1>   0.0800 
 43 H      -10.3270     3.5380     1.2980 H     1 <1>   0.0800 
 44 H       -9.3150     6.6570    -1.1540 H     1 <1>   0.0800 
 45 H      -10.5450     6.1370    -2.2710 H     1 <1>   0.0800 
 46 H      -11.9060     6.5720    -0.4600 H     1 <1>   0.0800 
 47 H      -12.6470     3.1630    -1.1330 H     1 <1>   0.4000 
 48 H      -12.3830     4.6900     1.9860 H     1 <1>   0.0800 
 49 H      -13.1680     3.3940     1.1270 H     1 <1>   0.0800 
 50 H      -13.5850     5.0650     0.7870 H     1 <1>   0.0800 
 51 H       -9.7800     5.7460     1.1870 H     1 <1>   0.4000 
@<TRIPOS>BOND
  1   1   2  1   
  2   2   3  ar  
  3   2   4  ar  
  4   3   5  ar  
  5   3   6  1   
  6   4   7  ar  
  7   4  27  1   
  8   5   8  ar  
  9   5  28  1   
 10   6   9  1   
 11   6  29  1   
 12   6  30  1   
 13   7   8  ar  
 14   7  10  1   
 15   8  31  1   
 16   9  11  1   
 17   9  32  1   
 18   9  33  1   
 19  11  12  2   
 20  11  13  am  
 21  13  14  1   
 22  13  15  1   
 23  14  16  1   
 24  14  34  1   
 25  14  35  1   
 26  15  17  1   
 27  15  36  1   
 28  15  37  1   
 29  16  18  1   
 30  16  38  1   
 31  16  39  1   
 32  17  18  1   
 33  17  40  1   
 34  17  41  1   
 35  18  19  1   
 36  18  20  1   
 37  19  21  1   
 38  20  22  1   
 39  20  42  1   
 40  20  43  1   
 41  21  23  1   
 42  21  44  1   
 43  21  45  1   
 44  22  23  1   
 45  22  24  1   
 46  22  25  1   
 47  23  26  1   
 48  23  46  1   
 49  24  47  1   
 50  25  48  1   
 51  25  49  1   
 52  25  50  1   
 53  26  51  1   
@<TRIPOS>SUBSTRUCTURE
  1 ****  15 GROUP 4 **** **** 0

# MOE 2024.06 (io_trps.svl 2023.06)
