@<TRIPOS>MOLECULE
NONAME
48 50 1 0 0 
SMALL
USER_CHARGES


@<TRIPOS>ATOM
  1 F       -1.4190     1.4780     1.4840 F     1 <1>  -0.1900 
  2 C       -1.7370     1.7610     0.2470 C.ar  1 <1>   0.1900 
  3 C       -1.3770     2.9910    -0.2820 C.ar  1 <1>  -0.1440 
  4 C       -2.4280     0.8070    -0.4760 C.ar  1 <1>  -0.1500 
  5 C       -1.7440     3.2560    -1.5960 C.ar  1 <1>  -0.1500 
  6 C       -0.6200     4.0000     0.5720 C.3   1 <1>   0.2640 
  7 C       -2.7810     1.0900    -1.7840 C.ar  1 <1>  -0.1500 
  8 C       -2.4390     2.3130    -2.3390 C.ar  1 <1>  -0.1500 
  9 O        0.1230     4.8550    -0.2400 O.3   1 <1>  -0.5380 
 10 C        0.8940     5.7770     0.4710 C.3   1 <1>   0.2580 
 11 C        1.7080     6.6920    -0.4780 C.3   1 <1>   0.2250 
 12 C        2.2530     5.2020     0.9490 C.3   1 <1>   0.2250 
 13 N        2.9060     6.4270     0.3850 N.am  1 <1>  -0.5100 
 14 C        3.8420     7.2210     0.9800 C.2   1 <1>   0.5690 
 15 O        4.4140     6.8560     1.9790 O.2   1 <1>  -0.5700 
 16 C        4.2050     8.6050     0.4290 C.3   1 <1>  -0.0190 
 17 C        3.1960     9.6870     0.8630 C.3   1 <1>  -0.1600 
 18 C        4.4720     8.6340    -1.0980 C.3   1 <1>  -0.1600 
 19 C        3.6740    11.1090     0.5050 C.3   1 <1>   0.2000 
 20 C        4.3130    10.0340    -1.7230 C.3   1 <1>  -0.1600 
 21 O        2.5360    11.8860     0.2180 O.3   1 <1>  -0.5600 
 22 C        4.6340    11.1390    -0.7150 C.3   1 <1>   0.2000 
 23 C        1.8820    12.4080     1.3330 C.3   1 <1>   0.0400 
 24 O        4.5110    12.3530    -1.3590 O.3   1 <1>  -0.6800 
 25 H       -2.6830    -0.1340    -0.0230 H     1 <1>   0.1500 
 26 H       -1.4880     4.2000    -2.0480 H     1 <1>   0.1500 
 27 H        0.0550     3.4900     1.2380 H     1 <1>   0.0800 
 28 H       -1.3160     4.5880     1.1460 H     1 <1>   0.0800 
 29 H       -3.3190     0.3640    -2.3690 H     1 <1>   0.1500 
 30 H       -2.7130     2.5340    -3.3570 H     1 <1>   0.1500 
 31 H        0.3220     6.3050     1.2140 H     1 <1>   0.0000 
 32 H        1.4000     7.7190    -0.4550 H     1 <1>   0.0000 
 33 H        1.8490     6.2870    -1.4650 H     1 <1>   0.0000 
 34 H        2.5690     4.3190     0.4210 H     1 <1>   0.0000 
 35 H        2.3510     5.1490     2.0180 H     1 <1>   0.0000 
 36 H        5.1370     8.8630     0.9030 H     1 <1>   0.0800 
 37 H        3.0450     9.6250     1.9260 H     1 <1>   0.0800 
 38 H        2.2550     9.5040     0.3780 H     1 <1>   0.0800 
 39 H        5.4760     8.2830    -1.2670 H     1 <1>   0.0800 
 40 H        3.8170     7.9630    -1.6220 H     1 <1>   0.0800 
 41 H        4.1950    11.5470     1.3400 H     1 <1>   0.0800 
 42 H        3.2940    10.1570    -2.0510 H     1 <1>   0.0800 
 43 H        4.9570    10.1210    -2.5810 H     1 <1>   0.0800 
 44 H        5.6550    11.0400    -0.3900 H     1 <1>   0.0800 
 45 H        1.0360    12.9770     0.9870 H     1 <1>   0.0800 
 46 H        2.5550    13.0530     1.8710 H     1 <1>   0.0800 
 47 H        1.5420    11.6040     1.9620 H     1 <1>   0.0800 
 48 H        3.5810    12.6400    -1.2080 H     1 <1>   0.4000 
@<TRIPOS>BOND
  1   1   2  1   
  2   2   3  ar  
  3   2   4  ar  
  4   3   5  ar  
  5   3   6  1   
  6   4   7  ar  
  7   4  25  1   
  8   5   8  ar  
  9   5  26  1   
 10   6   9  1   
 11   6  27  1   
 12   6  28  1   
 13   7   8  ar  
 14   7  29  1   
 15   8  30  1   
 16   9  10  1   
 17  10  11  1   
 18  10  12  1   
 19  10  31  1   
 20  11  13  1   
 21  11  32  1   
 22  11  33  1   
 23  12  13  1   
 24  12  34  1   
 25  12  35  1   
 26  13  14  am  
 27  14  15  2   
 28  14  16  1   
 29  16  17  1   
 30  16  18  1   
 31  16  36  1   
 32  17  19  1   
 33  17  37  1   
 34  17  38  1   
 35  18  20  1   
 36  18  39  1   
 37  18  40  1   
 38  19  21  1   
 39  19  22  1   
 40  19  41  1   
 41  20  22  1   
 42  20  42  1   
 43  20  43  1   
 44  21  23  1   
 45  22  24  1   
 46  22  44  1   
 47  23  45  1   
 48  23  46  1   
 49  23  47  1   
 50  24  48  1   
@<TRIPOS>SUBSTRUCTURE
  1 ****  11 GROUP 4 **** **** 0

# MOE 2024.06 (io_trps.svl 2023.06)
