@<TRIPOS>MOLECULE
NONAME
41 43 1 0 0 
SMALL
USER_CHARGES


@<TRIPOS>ATOM
  1 S       -0.2220    -0.1100    -1.1790 S.3   1 <1>  -0.2860 
  2 C        0.7690     0.5140     0.1900 C.2   1 <1>  -0.0960 
  3 C       -0.4190    -1.9080    -0.7930 C.3   1 <1>   0.0700 
  4 N        1.1490     1.7850     0.2730 N.pl3 1 <1>   0.3000 
  5 C        1.2660    -0.0920     1.2760 C.2   1 <1>   0.0770 
  6 C       -1.4060    -2.5180    -1.7860 C.3   1 <1>   0.2090 
  7 N        1.8690     1.9500     1.3930 N.2   1 <1>  -0.4180 
  8 N        1.9410     0.8110     2.0020 N.2   1 <1>  -0.2270 
  9 N       -1.4860    -3.9880    -1.5810 N.pl3 1 <1>  -0.8690 
 10 C       -2.2870    -4.5690    -0.6260 C.ar  1 <1>   0.4100 
 11 N       -2.7880    -3.7970     0.3200 N.ar  1 <1>  -0.6200 
 12 C       -2.5520    -5.9160    -0.6580 C.ar  1 <1>  -0.1500 
 13 C       -3.5500    -4.4110     1.2030 C.ar  1 <1>   0.4700 
 14 C       -3.3570    -6.4490     0.3190 C.ar  1 <1>   0.4100 
 15 N       -3.8720    -5.6870     1.2670 N.ar  1 <1>  -0.6200 
 16 N       -3.6460    -7.7990     0.3470 N.pl3 1 <1>  -0.8380 
 17 C       -4.9480    -8.2470     0.9120 C.3   1 <1>   0.2090 
 18 C       -2.5270    -8.7510     0.5590 C.3   1 <1>   0.2090 
 19 C       -5.3340    -9.5890     0.2910 C.3   1 <1>  -0.1600 
 20 C       -2.8820   -10.0960    -0.0750 C.3   1 <1>  -0.1600 
 21 C       -4.2100   -10.6060     0.4830 C.3   1 <1>   0.2000 
 22 O       -4.5480   -11.7630    -0.1850 O.3   1 <1>  -0.6800 
 23 H       -0.7890    -1.9840     0.2130 H     1 <1>   0.0800 
 24 H        0.5520    -2.3620    -0.8780 H     1 <1>   0.0800 
 25 H        0.9430     2.5360    -0.3920 H     1 <1>   0.2700 
 26 H        1.1810    -1.1200     1.5810 H     1 <1>   0.1500 
 27 H       -1.0780    -2.3180    -2.7910 H     1 <1>   0.0800 
 28 H       -2.3800    -2.0760    -1.6480 H     1 <1>   0.0800 
 29 H       -1.3220    -4.5410    -2.4250 H     1 <1>   0.4000 
 30 H       -2.1500    -6.5410    -1.4250 H     1 <1>   0.1500 
 31 H       -3.9660    -3.7860     1.9750 H     1 <1>   0.1500 
 32 H       -5.7100    -7.5150     0.6980 H     1 <1>   0.0800 
 33 H       -4.8590    -8.3390     1.9810 H     1 <1>   0.0800 
 34 H       -2.3630    -8.8720     1.6170 H     1 <1>   0.0800 
 35 H       -1.6210    -8.3670     0.1200 H     1 <1>   0.0800 
 36 H       -5.5260    -9.4340    -0.7550 H     1 <1>   0.0800 
 37 H       -6.2320    -9.9480     0.7600 H     1 <1>   0.0800 
 38 H       -2.1030   -10.8040     0.1410 H     1 <1>   0.0800 
 39 H       -2.9480    -9.9640    -1.1400 H     1 <1>   0.0800 
 40 H       -4.1050   -10.8500     1.5270 H     1 <1>   0.0800 
 41 H       -4.6690   -11.5690    -1.1340 H     1 <1>   0.4000 
@<TRIPOS>BOND
  1   1   2  1   
  2   1   3  1   
  3   2   4  1   
  4   2   5  2   
  5   3   6  1   
  6   3  23  1   
  7   3  24  1   
  8   4   7  1   
  9   4  25  1   
 10   5   8  1   
 11   5  26  1   
 12   6   9  1   
 13   6  27  1   
 14   6  28  1   
 15   7   8  2   
 16   9  10  1   
 17   9  29  1   
 18  10  11  ar  
 19  10  12  ar  
 20  11  13  ar  
 21  12  14  ar  
 22  12  30  1   
 23  13  15  ar  
 24  13  31  1   
 25  14  15  ar  
 26  14  16  1   
 27  16  17  1   
 28  16  18  1   
 29  17  19  1   
 30  17  32  1   
 31  17  33  1   
 32  18  20  1   
 33  18  34  1   
 34  18  35  1   
 35  19  21  1   
 36  19  36  1   
 37  19  37  1   
 38  20  21  1   
 39  20  38  1   
 40  20  39  1   
 41  21  22  1   
 42  21  40  1   
 43  22  41  1   
@<TRIPOS>SUBSTRUCTURE
  1 ****  10 GROUP 4 **** **** 0

# MOE 2024.06 (io_trps.svl 2023.06)
