@<TRIPOS>MOLECULE
NONAME
51 54 1 0 0 
SMALL
USER_CHARGES


@<TRIPOS>ATOM
  1 O       -2.7140     2.2230    -2.5380 O.2   1 <1>  -0.5700 
  2 C       -2.6670     1.9650    -1.3570 C.2   1 <1>   0.5690 
  3 N       -2.9640     0.7060    -0.9030 N.am  1 <1>  -0.6600 
  4 C       -2.3040     3.0880    -0.4100 C.3   1 <1>   0.1570 
  5 C       -2.8510     0.2200     0.4990 C.3   1 <1>   0.1400 
  6 C       -3.3140    -0.4090    -1.8100 C.3   1 <1>   0.1400 
  7 N       -1.0080     2.8310     0.2320 N.pl3 1 <1>   0.3140 
  8 C       -3.3400    -1.2260     0.4450 C.3   1 <1>   0.2000 
  9 C       -3.0780    -1.6800    -0.9940 C.3   1 <1>  -0.0800 
 10 N       -0.9320     2.6170     1.5610 N.2   1 <1>  -0.7070 
 11 C        0.2180     2.7880    -0.3400 C.2   1 <1>  -0.3320 
 12 O       -2.6600    -2.0170     1.3550 O.3   1 <1>  -0.6800 
 13 C       -3.9390    -2.8580    -1.4860 C.3   1 <1>  -0.0170 
 14 C        0.3280     2.4410     1.8000 C.2   1 <1>   0.1080 
 15 C        1.0990     2.5350     0.6500 C.2   1 <1>  -0.1500 
 16 C        0.5030     2.9910    -1.8200 C.3   1 <1>  -0.0600 
 17 C       -3.4210    -4.2000    -0.9720 C.ar  1 <1>  -0.1440 
 18 C        0.8570     2.1670     3.1880 C.3   1 <1>  -0.0590 
 19 C       -3.9190    -4.8460     0.1860 C.ar  1 <1>   0.0000 
 20 C       -2.4250    -4.8280    -1.6610 C.ar  1 <1>  -0.1500 
 21 C       -3.3450    -6.0930     0.5400 C.ar  1 <1>   0.3100 
 22 C       -4.9470    -4.3390     1.0150 C.ar  1 <1>  -0.1500 
 23 C       -1.9260    -6.0590    -1.2230 C.ar  1 <1>   0.1600 
 24 N       -2.3510    -6.6820    -0.1710 N.ar  1 <1>  -0.6200 
 25 C       -3.8210    -6.7660     1.6770 C.ar  1 <1>  -0.1500 
 26 C       -5.3880    -5.0190     2.1180 C.ar  1 <1>  -0.1500 
 27 C       -4.8210    -6.2500     2.4550 C.ar  1 <1>  -0.1500 
 28 H       -3.0570     3.1790     0.3480 H     1 <1>   0.0800 
 29 H       -2.2410     4.0120    -0.9500 H     1 <1>   0.0800 
 30 H       -1.8190     0.2520     0.8050 H     1 <1>   0.0800 
 31 H       -3.4550     0.8120     1.1640 H     1 <1>   0.0800 
 32 H       -4.3500    -0.3140    -2.0890 H     1 <1>   0.0800 
 33 H       -2.7020    -0.3880    -2.6970 H     1 <1>   0.0800 
 34 H       -4.3880    -1.2580     0.6850 H     1 <1>   0.0800 
 35 H       -2.0370    -1.9280    -1.1050 H     1 <1>   0.0800 
 36 H       -1.7430    -2.1730     1.0600 H     1 <1>   0.4000 
 37 H       -3.8950    -2.8830    -2.5610 H     1 <1>   0.0800 
 38 H       -4.9720    -2.7110    -1.2320 H     1 <1>   0.0800 
 39 H        2.1670     2.4280     0.5920 H     1 <1>   0.1500 
 40 H        1.5630     2.9790    -1.9980 H     1 <1>   0.0800 
 41 H        0.1120     3.9370    -2.1510 H     1 <1>   0.0800 
 42 H        0.0520     2.2050    -2.4000 H     1 <1>   0.0800 
 43 H        1.9230     2.0400     3.1660 H     1 <1>   0.0800 
 44 H        0.4020     1.2740     3.5750 H     1 <1>   0.0800 
 45 H        0.6110     2.9910     3.8330 H     1 <1>   0.0800 
 46 H       -1.9990    -4.4000    -2.5500 H     1 <1>   0.1500 
 47 H       -5.3910    -3.3920     0.7850 H     1 <1>   0.1500 
 48 H       -1.1390    -6.5180    -1.7980 H     1 <1>   0.1500 
 49 H       -3.3670    -7.7090     1.9170 H     1 <1>   0.1500 
 50 H       -6.1690    -4.6170     2.7390 H     1 <1>   0.1500 
 51 H       -5.1750    -6.7760     3.3240 H     1 <1>   0.1500 
@<TRIPOS>BOND
  1   1   2  2   
  2   2   3  am  
  3   2   4  1   
  4   3   5  1   
  5   3   6  1   
  6   4   7  1   
  7   4  28  1   
  8   4  29  1   
  9   5   8  1   
 10   5  30  1   
 11   5  31  1   
 12   6   9  1   
 13   6  32  1   
 14   6  33  1   
 15   7  10  1   
 16   7  11  1   
 17   8   9  1   
 18   8  12  1   
 19   8  34  1   
 20   9  13  1   
 21   9  35  1   
 22  10  14  2   
 23  11  15  2   
 24  11  16  1   
 25  12  36  1   
 26  13  17  1   
 27  13  37  1   
 28  13  38  1   
 29  14  15  1   
 30  14  18  1   
 31  15  39  1   
 32  16  40  1   
 33  16  41  1   
 34  16  42  1   
 35  17  19  ar  
 36  17  20  ar  
 37  18  43  1   
 38  18  44  1   
 39  18  45  1   
 40  19  21  ar  
 41  19  22  ar  
 42  20  23  ar  
 43  20  46  1   
 44  21  24  ar  
 45  21  25  ar  
 46  22  26  ar  
 47  22  47  1   
 48  23  24  ar  
 49  23  48  1   
 50  25  27  ar  
 51  25  49  1   
 52  26  27  ar  
 53  26  50  1   
 54  27  51  1   
@<TRIPOS>SUBSTRUCTURE
  1 ****   8 GROUP 4 **** **** 0

# MOE 2024.06 (io_trps.svl 2023.06)
