@<TRIPOS>MOLECULE
NONAME
49 51 1 0 0 
SMALL
USER_CHARGES


@<TRIPOS>ATOM
  1 O       -0.2760     0.2040     1.0030 O.2   1 <1>  -0.5700 
  2 C        0.6470    -0.4480     0.5820 C.2   1 <1>   0.5690 
  3 N        1.8940     0.0630     0.4620 N.am  1 <1>  -0.7300 
  4 C        0.4000    -1.8850     0.1890 C.3   1 <1>  -0.0990 
  5 C        2.2440     1.4600     0.7520 C.3   1 <1>   0.3640 
  6 C        0.2070    -2.7600     1.4320 C.3   1 <1>   0.0200 
  7 C        3.2840     1.9110    -0.2660 C.ar  1 <1>  -0.1440 
  8 C        2.7090     1.5690     2.2130 C.3   1 <1>  -0.1600 
  9 C       -0.0960    -4.1890     1.0300 C.2   1 <1>   0.0060 
 10 C        4.6020     1.4750    -0.2090 C.ar  1 <1>   0.1600 
 11 C        2.9220     2.7730    -1.2840 C.ar  1 <1>  -0.1500 
 12 C        3.1140     2.9970     2.6090 C.3   1 <1>  -0.2400 
 13 N        0.8050    -5.0900     0.8560 N.2   1 <1>  -0.5650 
 14 N       -1.3600    -4.6310     0.8130 N.pl3 1 <1>   0.0330 
 15 N        5.5570     1.8210    -1.0570 N.ar  1 <1>  -0.6200 
 16 C        3.9040     3.1460    -2.1760 C.ar  1 <1>  -0.1500 
 17 C        0.1090    -6.2120     0.5000 C.ar  1 <1>   0.2270 
 18 C       -1.2450    -5.9360     0.4670 C.ar  1 <1>  -0.1520 
 19 C        5.1860     2.6490    -2.0200 C.ar  1 <1>   0.1600 
 20 C        0.5740    -7.4980     0.1900 C.ar  1 <1>  -0.1430 
 21 C       -2.1780    -6.9130     0.1260 C.ar  1 <1>  -0.1500 
 22 C       -0.3470    -8.4730    -0.1600 C.ar  1 <1>  -0.1430 
 23 C        2.0760    -7.7550     0.2510 C.3   1 <1>  -0.0970 
 24 C       -1.7170    -8.1710    -0.1850 C.ar  1 <1>  -0.1500 
 25 C        0.0770    -9.8870    -0.5300 C.3   1 <1>  -0.0970 
 26 H        2.6450    -0.4930     0.0540 H     1 <1>   0.3700 
 27 H        1.2240    -2.2590    -0.3900 H     1 <1>   0.0800 
 28 H       -0.4830    -1.9230    -0.4220 H     1 <1>   0.0800 
 29 H        1.3610     2.0690     0.6390 H     1 <1>   0.0800 
 30 H       -0.5920    -2.3740     2.0390 H     1 <1>   0.0800 
 31 H        1.1070    -2.7480     2.0220 H     1 <1>   0.0800 
 32 H        3.5350     0.9040     2.3910 H     1 <1>   0.0800 
 33 H        1.8950     1.2600     2.8470 H     1 <1>   0.0800 
 34 H        4.8940     0.8020     0.5770 H     1 <1>   0.1500 
 35 H        1.9140     3.1410    -1.3830 H     1 <1>   0.1500 
 36 H        3.9590     3.3320     2.0330 H     1 <1>   0.0800 
 37 H        3.3820     3.0270     3.6510 H     1 <1>   0.0800 
 38 H        2.2960     3.6780     2.4490 H     1 <1>   0.0800 
 39 H       -2.2280    -4.0970     0.8930 H     1 <1>   0.2700 
 40 H        3.6810     3.8150    -2.9870 H     1 <1>   0.1500 
 41 H        5.9450     2.9480    -2.7220 H     1 <1>   0.1500 
 42 H       -3.2280    -6.6820     0.1070 H     1 <1>   0.1500 
 43 H        2.5260    -7.1430     1.0130 H     1 <1>   0.0800 
 44 H        2.5230    -7.5060    -0.6940 H     1 <1>   0.0800 
 45 H        2.2930    -8.7800     0.4870 H     1 <1>   0.0800 
 46 H       -2.4220    -8.9380    -0.4520 H     1 <1>   0.1500 
 47 H        0.8980    -9.8600    -1.2240 H     1 <1>   0.0800 
 48 H       -0.7310   -10.4240    -0.9930 H     1 <1>   0.0800 
 49 H        0.3800   -10.4190     0.3540 H     1 <1>   0.0800 
@<TRIPOS>BOND
  1   1   2  2   
  2   2   3  am  
  3   2   4  1   
  4   3   5  1   
  5   3  26  1   
  6   4   6  1   
  7   4  27  1   
  8   4  28  1   
  9   5   7  1   
 10   5   8  1   
 11   5  29  1   
 12   6   9  1   
 13   6  30  1   
 14   6  31  1   
 15   7  10  ar  
 16   7  11  ar  
 17   8  12  1   
 18   8  32  1   
 19   8  33  1   
 20   9  13  2   
 21   9  14  1   
 22  10  15  ar  
 23  10  34  1   
 24  11  16  ar  
 25  11  35  1   
 26  12  36  1   
 27  12  37  1   
 28  12  38  1   
 29  13  17  1   
 30  14  18  1   
 31  14  39  1   
 32  15  19  ar  
 33  16  19  ar  
 34  16  40  1   
 35  17  18  ar  
 36  17  20  ar  
 37  18  21  ar  
 38  19  41  1   
 39  20  22  ar  
 40  20  23  1   
 41  21  24  ar  
 42  21  42  1   
 43  22  24  ar  
 44  22  25  1   
 45  23  43  1   
 46  23  44  1   
 47  23  45  1   
 48  24  46  1   
 49  25  47  1   
 50  25  48  1   
 51  25  49  1   
@<TRIPOS>SUBSTRUCTURE
  1 ****   4 GROUP 4 **** **** 0

# MOE 2024.06 (io_trps.svl 2023.06)
