@<TRIPOS>MOLECULE
NONAME
46 49 1 0 0 
SMALL
USER_CHARGES


@<TRIPOS>ATOM
  1 S        0.1690    -0.3430     1.2540 S.3   1 <1>  -0.0800 
  2 C        1.1910    -1.7420     0.9940 C.2   1 <1>   0.1980 
  3 C        1.5950     0.6100     1.5420 C.2   1 <1>  -0.1100 
  4 N        2.4370    -1.5120     1.1080 N.2   1 <1>  -0.5650 
  5 C        0.5160    -3.0530     0.6620 C.3   1 <1>   0.0200 
  6 C        2.6720    -0.1810     1.4200 C.2   1 <1>   0.0770 
  7 C        0.0840    -3.0690    -0.8020 C.3   1 <1>   0.1400 
  8 N       -0.5310    -4.3760    -1.1300 N.am  1 <1>  -0.7300 
  9 C       -1.8600    -4.6600    -1.0930 C.2   1 <1>   0.5690 
 10 O       -2.6750    -3.8250    -0.7790 O.2   1 <1>  -0.5700 
 11 C       -2.3350    -6.0770    -1.4260 C.3   1 <1>   0.2610 
 12 O       -1.2340    -6.8830    -1.8350 O.3   1 <1>  -0.5600 
 13 C       -3.1430    -6.6350    -0.2140 C.3   1 <1>   0.3640 
 14 C       -1.4590    -8.2680    -1.8020 C.3   1 <1>   0.1810 
 15 N       -2.6060    -7.9090     0.3610 N.am  1 <1>  -0.5090 
 16 C       -4.6070    -6.7960    -0.6260 C.ar  1 <1>  -0.1430 
 17 C       -1.7850    -8.7130    -0.3830 C.2   1 <1>   0.5690 
 18 C       -2.8150    -8.1250     1.8130 C.3   1 <1>   0.0490 
 19 C       -5.1330    -8.0080    -1.0600 C.ar  1 <1>   0.1600 
 20 C       -5.4440    -5.6970    -0.5820 C.ar  1 <1>  -0.1500 
 21 O       -1.3030    -9.7430     0.0280 O.2   1 <1>  -0.5700 
 22 C       -3.4480    -9.4070     2.2550 C.3   1 <1>  -0.2000 
 23 C       -4.1960    -8.1220     2.3970 C.3   1 <1>  -0.2000 
 24 N       -6.3820    -8.1980    -1.4520 N.ar  1 <1>  -0.6200 
 25 C       -6.7510    -5.8790    -0.9800 C.ar  1 <1>  -0.1500 
 26 C       -7.1620    -7.1310    -1.4010 C.ar  1 <1>   0.1600 
 27 H        1.4740     1.6520     1.7700 H     1 <1>   0.1500 
 28 H        1.2110    -3.8520     0.8430 H     1 <1>   0.0800 
 29 H       -0.3400    -3.1820     1.3000 H     1 <1>   0.0800 
 30 H        3.6960     0.1290     1.5430 H     1 <1>   0.1500 
 31 H        0.9370    -2.9050    -1.4390 H     1 <1>   0.0800 
 32 H       -0.6280    -2.2810    -0.9800 H     1 <1>   0.0800 
 33 H        0.1010    -5.1340    -1.4160 H     1 <1>   0.3700 
 34 H       -2.9890    -5.9950    -2.2760 H     1 <1>   0.0800 
 35 H       -3.1170    -5.9020     0.5750 H     1 <1>   0.0800 
 36 H       -2.2650    -8.5110    -2.4690 H     1 <1>   0.0800 
 37 H       -0.5610    -8.7570    -2.1360 H     1 <1>   0.0800 
 38 H       -2.0020    -7.7400     2.4060 H     1 <1>   0.1000 
 39 H       -4.5020    -8.8790    -1.0880 H     1 <1>   0.1500 
 40 H       -5.1020    -4.7280    -0.2550 H     1 <1>   0.1500 
 41 H       -3.7540   -10.1130     1.5020 H     1 <1>   0.1000 
 42 H       -3.0720    -9.8860     3.1410 H     1 <1>   0.1000 
 43 H       -4.3400    -7.7350     3.3900 H     1 <1>   0.1000 
 44 H       -5.0650    -7.9900     1.7780 H     1 <1>   0.1000 
 45 H       -7.4460    -5.0600    -0.9670 H     1 <1>   0.1500 
 46 H       -8.1850    -7.2620    -1.7120 H     1 <1>   0.1500 
@<TRIPOS>BOND
  1   1   2  1   
  2   1   3  1   
  3   2   4  2   
  4   2   5  1   
  5   3   6  2   
  6   3  27  1   
  7   4   6  1   
  8   5   7  1   
  9   5  28  1   
 10   5  29  1   
 11   6  30  1   
 12   7   8  1   
 13   7  31  1   
 14   7  32  1   
 15   8   9  am  
 16   8  33  1   
 17   9  10  2   
 18   9  11  1   
 19  11  12  1   
 20  11  13  1   
 21  11  34  1   
 22  12  14  1   
 23  13  15  1   
 24  13  16  1   
 25  13  35  1   
 26  14  17  1   
 27  14  36  1   
 28  14  37  1   
 29  15  17  am  
 30  15  18  1   
 31  16  19  ar  
 32  16  20  ar  
 33  17  21  2   
 34  18  22  1   
 35  18  23  1   
 36  18  38  1   
 37  19  24  ar  
 38  19  39  1   
 39  20  25  ar  
 40  20  40  1   
 41  22  23  1   
 42  22  41  1   
 43  22  42  1   
 44  23  43  1   
 45  23  44  1   
 46  24  26  ar  
 47  25  26  ar  
 48  25  45  1   
 49  26  46  1   
@<TRIPOS>SUBSTRUCTURE
  1 ****   9 GROUP 4 **** **** 0

# MOE 2024.06 (io_trps.svl 2023.06)
