@<TRIPOS>MOLECULE
NONAME
34 35 1 0 0 
SMALL
USER_CHARGES


@<TRIPOS>ATOM
  1 S        1.8630     0.7110     2.2550 S.3   1 <1>  -0.4600 
  2 C        1.7120     2.4610     1.8160 C.3   1 <1>   0.0700 
  3 C        3.2780     0.2150     1.2380 C.3   1 <1>   0.0700 
  4 C        1.6580     2.5920     0.2890 C.3   1 <1>   0.1100 
  5 C        3.0270     0.6330    -0.2170 C.3   1 <1>   0.1100 
  6 N        2.8980     2.1010    -0.3620 N.3   1 <1>  -0.8100 
  7 C        2.9060     2.4810    -1.8090 C.3   1 <1>   0.1710 
  8 C        3.2540     3.9510    -2.0460 C.2   1 <1>   0.5690 
  9 O        2.9030     4.4850    -3.0680 O.2   1 <1>  -0.5700 
 10 N        3.9480     4.5650    -1.0490 N.am  1 <1>  -0.4940 
 11 C        4.4380     5.8470    -0.9440 C.2   1 <1>   0.4420 
 12 S        5.1800     6.2710     0.5630 S.3   1 <1>  -0.0800 
 13 N        4.4450     6.8190    -1.7810 N.2   1 <1>  -0.3380 
 14 C        5.4770     7.8390    -0.1100 C.2   1 <1>   0.1980 
 15 N        5.0410     7.9530    -1.2990 N.2   1 <1>  -0.3380 
 16 C        6.1770     8.8800     0.7470 C.3   1 <1>   0.3000 
 17 O        7.3130     8.3340     1.3540 O.3   1 <1>  -0.5600 
 18 C        8.0490     9.2410     2.1100 C.3   1 <1>   0.0400 
 19 H        2.5630     2.9770     2.2230 H     1 <1>   0.0800 
 20 H        0.8090     2.8250     2.2730 H     1 <1>   0.0800 
 21 H        3.3720    -0.8520     1.3270 H     1 <1>   0.0800 
 22 H        4.1530     0.6950     1.6360 H     1 <1>   0.0800 
 23 H        1.5110     3.6320     0.0520 H     1 <1>   0.0800 
 24 H        0.8050     2.0480    -0.0830 H     1 <1>   0.0800 
 25 H        2.1390     0.1450    -0.5830 H     1 <1>   0.0800 
 26 H        3.8620     0.2900    -0.8040 H     1 <1>   0.0800 
 27 H        1.9500     2.2680    -2.2560 H     1 <1>   0.0800 
 28 H        3.6470     1.9020    -2.3310 H     1 <1>   0.0800 
 29 H        4.0860     3.9500    -0.2440 H     1 <1>   0.3700 
 30 H        5.5100     9.2250     1.5160 H     1 <1>   0.0800 
 31 H        6.4790     9.7080     0.1290 H     1 <1>   0.0800 
 32 H        8.8910     8.7190     2.5310 H     1 <1>   0.0800 
 33 H        7.4320     9.6310     2.9010 H     1 <1>   0.0800 
 34 H        8.4000    10.0350     1.4730 H     1 <1>   0.0800 
@<TRIPOS>BOND
  1   1   2  1   
  2   1   3  1   
  3   2   4  1   
  4   2  19  1   
  5   2  20  1   
  6   3   5  1   
  7   3  21  1   
  8   3  22  1   
  9   4   6  1   
 10   4  23  1   
 11   4  24  1   
 12   5   6  1   
 13   5  25  1   
 14   5  26  1   
 15   6   7  1   
 16   7   8  1   
 17   7  27  1   
 18   7  28  1   
 19   8   9  2   
 20   8  10  am  
 21  10  11  1   
 22  10  29  1   
 23  11  12  1   
 24  11  13  2   
 25  12  14  1   
 26  13  15  1   
 27  14  15  2   
 28  14  16  1   
 29  16  17  1   
 30  16  30  1   
 31  16  31  1   
 32  17  18  1   
 33  18  32  1   
 34  18  33  1   
 35  18  34  1   
@<TRIPOS>SUBSTRUCTURE
  1 ****  10 GROUP 4 **** **** 0

# MOE 2024.06 (io_trps.svl 2023.06)
