@<TRIPOS>MOLECULE
NONAME
41 42 1 0 0 
SMALL
USER_CHARGES


@<TRIPOS>ATOM
  1 S        1.9100    -0.0480    -2.1630 S.o2  1 <1>   1.3330 
  2 O        2.8730     0.9860    -2.4720 O.2   1 <1>  -0.6500 
  3 O        1.5070    -0.9840    -3.1820 O.2   1 <1>  -0.6500 
  4 N        2.5540    -0.9400    -0.8240 N.am  1 <1>  -0.6930 
  5 C        0.4650     0.6950    -1.4360 C.3   1 <1>  -0.1350 
  6 C        1.8710    -2.0120    -0.2540 C.ar  1 <1>   0.1990 
  7 C        3.7750    -0.4040    -0.1430 C.3   1 <1>   0.2570 
  8 C        1.4670    -1.9740     1.0770 C.ar  1 <1>  -0.1500 
  9 C        1.5760    -3.1480    -0.9980 C.ar  1 <1>  -0.1500 
 10 C        3.5440     0.8880     0.6510 C.2   1 <1>   0.5690 
 11 C        0.7860    -3.0350     1.6440 C.ar  1 <1>  -0.1500 
 12 C        0.8930    -4.2100    -0.4350 C.ar  1 <1>  -0.1500 
 13 O        3.4180     0.8310     1.8510 O.2   1 <1>  -0.5700 
 14 N        3.4810     2.0720    -0.0070 N.am  1 <1>  -0.7300 
 15 C        0.4920    -4.1600     0.8900 C.ar  1 <1>  -0.1430 
 16 C        3.0510     3.3630     0.5930 C.3   1 <1>   0.2810 
 17 C       -0.2550    -5.3260     1.5110 C.3   1 <1>  -0.0970 
 18 C        2.0160     4.0770    -0.2720 C.2   1 <1>   0.5690 
 19 C        4.2330     4.3480     0.5760 C.3   1 <1>  -0.1600 
 20 O        0.8620     3.7440    -0.3990 O.2   1 <1>  -0.5700 
 21 N        2.5750     5.1190    -0.9090 N.am  1 <1>  -0.7300 
 22 C        4.0050     5.2840    -0.6220 C.3   1 <1>   0.1400 
 23 H        0.0150     1.3840    -2.1220 H     1 <1>   0.0800 
 24 H        0.7270     1.2230    -0.5410 H     1 <1>   0.0800 
 25 H       -0.2520    -0.0620    -1.1850 H     1 <1>   0.0800 
 26 H        4.5360    -0.2250    -0.8810 H     1 <1>   0.0800 
 27 H        4.1550    -1.1490     0.5330 H     1 <1>   0.0800 
 28 H        1.6810    -1.1080     1.6760 H     1 <1>   0.1500 
 29 H        1.8860    -3.2000    -2.0260 H     1 <1>   0.1500 
 30 H        0.4850    -2.9820     2.6760 H     1 <1>   0.1500 
 31 H        0.6760    -5.0770    -1.0340 H     1 <1>   0.1500 
 32 H        3.4750     2.0530    -1.0400 H     1 <1>   0.3700 
 33 H        2.6740     3.2160     1.5910 H     1 <1>   0.0800 
 34 H       -0.9300    -4.9770     2.2720 H     1 <1>   0.0800 
 35 H        0.4450    -6.0110     1.9550 H     1 <1>   0.0800 
 36 H       -0.8260    -5.8480     0.7650 H     1 <1>   0.0800 
 37 H        5.1870     3.8540     0.5310 H     1 <1>   0.0800 
 38 H        4.2010     4.9380     1.4750 H     1 <1>   0.0800 
 39 H        2.0660     5.6850    -1.5930 H     1 <1>   0.3700 
 40 H        4.5820     4.9670    -1.4760 H     1 <1>   0.0800 
 41 H        4.2350     6.3070    -0.3780 H     1 <1>   0.0800 
@<TRIPOS>BOND
  1   1   2  2   
  2   1   3  2   
  3   1   4  am  
  4   1   5  1   
  5   4   6  1   
  6   4   7  1   
  7   5  23  1   
  8   5  24  1   
  9   5  25  1   
 10   6   8  ar  
 11   6   9  ar  
 12   7  10  1   
 13   7  26  1   
 14   7  27  1   
 15   8  11  ar  
 16   8  28  1   
 17   9  12  ar  
 18   9  29  1   
 19  10  13  2   
 20  10  14  am  
 21  11  15  ar  
 22  11  30  1   
 23  12  15  ar  
 24  12  31  1   
 25  14  16  1   
 26  14  32  1   
 27  15  17  1   
 28  16  18  1   
 29  16  19  1   
 30  16  33  1   
 31  17  34  1   
 32  17  35  1   
 33  17  36  1   
 34  18  20  2   
 35  18  21  am  
 36  19  22  1   
 37  19  37  1   
 38  19  38  1   
 39  21  22  1   
 40  21  39  1   
 41  22  40  1   
 42  22  41  1   
@<TRIPOS>SUBSTRUCTURE
  1 ****   4 GROUP 4 **** **** 0

# MOE 2024.06 (io_trps.svl 2023.06)
