@<TRIPOS>MOLECULE
NONAME
52 54 1 0 0 
SMALL
USER_CHARGES


@<TRIPOS>ATOM
  1 O        2.5620     2.3790    -0.8840 O.3   1 <1>  -0.0190 
  2 N        3.0490     1.1760    -0.8810 N.2   1 <1>  -0.4100 
  3 C        1.2570     2.3770    -0.8430 C.2   1 <1>  -0.0400 
  4 C        2.0400     0.3810    -0.8590 C.2   1 <1>   0.1080 
  5 C        0.8470     1.1000    -0.8350 C.2   1 <1>  -0.1500 
  6 C        0.5020     3.6920    -0.8200 C.3   1 <1>   0.0200 
  7 C        2.1440    -1.1280    -0.8600 C.3   1 <1>  -0.0590 
  8 C        0.5710     4.3610     0.5690 C.3   1 <1>  -0.0800 
  9 C       -0.1010     5.7310     0.5650 C.3   1 <1>   0.2000 
 10 C        2.0050     4.6890     1.0100 C.3   1 <1>   0.3430 
 11 O       -0.3750     6.0800     1.8840 O.3   1 <1>  -0.6800 
 12 C        1.0030     6.6560     0.0450 C.3   1 <1>   0.3430 
 13 N        2.2910     6.0880     0.5640 N.4   1 <1>  -0.9590 
 14 C        2.8130     6.9030     1.6950 C.3   1 <1>   0.4860 
 15 C        3.1250     8.2970     1.1870 C.ar  1 <1>  -0.1430 
 16 C        4.1590     8.5020     0.2860 C.ar  1 <1>  -0.1500 
 17 C        2.3660     9.3780     1.6060 C.ar  1 <1>  -0.1500 
 18 C        4.4240     9.7670    -0.2130 C.ar  1 <1>  -0.1430 
 19 C        2.6240    10.6450     1.1150 C.ar  1 <1>  -0.1500 
 20 C        3.6490    10.8480     0.1950 C.ar  1 <1>   0.0820 
 21 C        5.5550     9.9430    -1.2130 C.3   1 <1>   0.2640 
 22 O        3.9380    12.0630    -0.3440 O.3   1 <1>  -0.3630 
 23 O        5.0440     9.6630    -2.4650 O.3   1 <1>  -0.6800 
 24 C        3.2040    13.2380    -0.0680 C.3   1 <1>   0.1200 
 25 C        1.9270    13.2500    -0.9100 C.3   1 <1>  -0.2400 
 26 H       -0.1440     0.6850    -0.8120 H     1 <1>   0.1500 
 27 H        0.9070     4.3300    -1.5870 H     1 <1>   0.0800 
 28 H       -0.5270     3.4950    -1.0680 H     1 <1>   0.0800 
 29 H        1.6610    -1.5270    -1.7330 H     1 <1>   0.0800 
 30 H        1.6760    -1.5290     0.0200 H     1 <1>   0.0800 
 31 H        3.1780    -1.4260    -0.8700 H     1 <1>   0.0800 
 32 H        0.1080     3.7000     1.2810 H     1 <1>   0.0800 
 33 H       -1.0080     5.7900    -0.0120 H     1 <1>   0.0800 
 34 H        2.7280     3.9960     0.6140 H     1 <1>   0.0800 
 35 H        2.0450     4.6410     2.0860 H     1 <1>   0.0800 
 36 H       -1.2010     5.6540     2.2010 H     1 <1>   0.4000 
 37 H        0.8390     7.6720     0.3660 H     1 <1>   0.0800 
 38 H        1.0110     6.6290    -1.0320 H     1 <1>   0.0800 
 39 H        2.9940     6.1040    -0.1850 H     1 <1>   0.4500 
 40 H        2.0760     6.9560     2.4810 H     1 <1>   0.0800 
 41 H        3.7100     6.4570     2.0930 H     1 <1>   0.0800 
 42 H        4.7710     7.6800    -0.0460 H     1 <1>   0.1500 
 43 H        1.5640     9.2470     2.3150 H     1 <1>   0.1500 
 44 H        2.0160    11.4590     1.4590 H     1 <1>   0.1500 
 45 H        6.3590     9.2560    -1.0180 H     1 <1>   0.0800 
 46 H        5.9440    10.9470    -1.2160 H     1 <1>   0.0800 
 47 H        4.3260    10.3000    -2.6490 H     1 <1>   0.4000 
 48 H        3.0060    13.3000     0.9870 H     1 <1>   0.0800 
 49 H        3.8280    14.0700    -0.3440 H     1 <1>   0.0800 
 50 H        1.2920    12.4210    -0.6600 H     1 <1>   0.0800 
 51 H        2.1760    13.2070    -1.9550 H     1 <1>   0.0800 
 52 H        1.3840    14.1600    -0.7280 H     1 <1>   0.0800 
@<TRIPOS>BOND
  1   1   2  1   
  2   1   3  1   
  3   2   4  2   
  4   3   5  2   
  5   3   6  1   
  6   4   5  1   
  7   4   7  1   
  8   5  26  1   
  9   6   8  1   
 10   6  27  1   
 11   6  28  1   
 12   7  29  1   
 13   7  30  1   
 14   7  31  1   
 15   8   9  1   
 16   8  10  1   
 17   8  32  1   
 18   9  11  1   
 19   9  12  1   
 20   9  33  1   
 21  10  13  1   
 22  10  34  1   
 23  10  35  1   
 24  11  36  1   
 25  12  13  1   
 26  12  37  1   
 27  12  38  1   
 28  13  14  1   
 29  13  39  1   
 30  14  15  1   
 31  14  40  1   
 32  14  41  1   
 33  15  16  ar  
 34  15  17  ar  
 35  16  18  ar  
 36  16  42  1   
 37  17  19  ar  
 38  17  43  1   
 39  18  20  ar  
 40  18  21  1   
 41  19  20  ar  
 42  19  44  1   
 43  20  22  1   
 44  21  23  1   
 45  21  45  1   
 46  21  46  1   
 47  22  24  1   
 48  23  47  1   
 49  24  25  1   
 50  24  48  1   
 51  24  49  1   
 52  25  50  1   
 53  25  51  1   
 54  25  52  1   
@<TRIPOS>SUBSTRUCTURE
  1 ****  13 GROUP 4 **** **** 0

# MOE 2024.06 (io_trps.svl 2023.06)
