@<TRIPOS>MOLECULE
NONAME
39 41 1 0 0 
SMALL
USER_CHARGES


@<TRIPOS>ATOM
  1 O       -1.5160    -0.2510    -2.5790 O.2   1 <1>  -0.5700 
  2 C       -1.7900    -0.6570    -1.4790 C.2   1 <1>   0.5690 
  3 N       -1.8830     0.1720    -0.3970 N.am  1 <1>  -0.6600 
  4 C       -2.0830    -2.1280    -1.3390 C.3   1 <1>  -0.0190 
  5 C       -2.3050    -0.3000     0.9530 C.3   1 <1>   0.2200 
  6 C       -1.5140     1.6190    -0.4950 C.3   1 <1>   0.0600 
  7 C       -1.1290    -2.8230    -0.3450 C.3   1 <1>   0.1200 
  8 C       -3.5880    -2.3060    -1.1050 C.3   1 <1>   0.3430 
  9 C       -1.3030    -1.3370     1.5150 C.3   1 <1>   0.1200 
 10 C       -3.7810    -0.7860     0.9320 C.3   1 <1>   0.3430 
 11 O       -1.4950    -2.6270     0.9940 O.3   1 <1>  -0.5600 
 12 N       -4.0000    -2.1500     0.3310 N.4   1 <1>  -0.9590 
 13 C       -5.3580    -2.6920     0.6070 C.3   1 <1>   0.4860 
 14 C       -5.3690    -4.1670     0.2690 C.ar  1 <1>  -0.1440 
 15 C       -6.1470    -4.6270    -0.7840 C.ar  1 <1>   0.1600 
 16 C       -4.6060    -5.0730     0.9820 C.ar  1 <1>  -0.1500 
 17 N       -6.2020    -5.8840    -1.1830 N.ar  1 <1>  -0.6200 
 18 C       -4.6650    -6.3900     0.5810 C.ar  1 <1>  -0.1500 
 19 C       -5.4660    -6.7390    -0.4930 C.ar  1 <1>   0.1600 
 20 H       -1.8750    -2.5570    -2.3030 H     1 <1>   0.0800 
 21 H       -2.2670     0.5520     1.6100 H     1 <1>   0.0800 
 22 H       -0.7110     1.8410     0.1870 H     1 <1>   0.0800 
 23 H       -2.3630     2.2350    -0.2580 H     1 <1>   0.0800 
 24 H       -1.1850     1.8670    -1.4910 H     1 <1>   0.0800 
 25 H       -0.1150    -2.4840    -0.4840 H     1 <1>   0.0800 
 26 H       -1.1470    -3.8860    -0.5180 H     1 <1>   0.0800 
 27 H       -3.8460    -3.3000    -1.4360 H     1 <1>   0.0800 
 28 H       -4.1290    -1.6080    -1.7240 H     1 <1>   0.0800 
 29 H       -1.4360    -1.4150     2.5810 H     1 <1>   0.0800 
 30 H       -0.2860    -1.0290     1.3330 H     1 <1>   0.0800 
 31 H       -4.3750    -0.0550     0.4100 H     1 <1>   0.0800 
 32 H       -4.1230    -0.8100     1.9540 H     1 <1>   0.0800 
 33 H       -3.3230    -2.7610     0.8310 H     1 <1>   0.4500 
 34 H       -5.6010    -2.5690     1.6500 H     1 <1>   0.0800 
 35 H       -6.0940    -2.1680     0.0190 H     1 <1>   0.0800 
 36 H       -6.7570    -3.9340    -1.3390 H     1 <1>   0.1500 
 37 H       -3.9870    -4.7870     1.8170 H     1 <1>   0.1500 
 38 H       -4.0980    -7.1480     1.0940 H     1 <1>   0.1500 
 39 H       -5.5040    -7.7720    -0.7980 H     1 <1>   0.1500 
@<TRIPOS>BOND
  1   1   2  2   
  2   2   3  am  
  3   2   4  1   
  4   3   5  1   
  5   3   6  1   
  6   4   7  1   
  7   4   8  1   
  8   4  20  1   
  9   5   9  1   
 10   5  10  1   
 11   5  21  1   
 12   6  22  1   
 13   6  23  1   
 14   6  24  1   
 15   7  11  1   
 16   7  25  1   
 17   7  26  1   
 18   8  12  1   
 19   8  27  1   
 20   8  28  1   
 21   9  11  1   
 22   9  29  1   
 23   9  30  1   
 24  10  12  1   
 25  10  31  1   
 26  10  32  1   
 27  12  13  1   
 28  12  33  1   
 29  13  14  1   
 30  13  34  1   
 31  13  35  1   
 32  14  15  ar  
 33  14  16  ar  
 34  15  17  ar  
 35  15  36  1   
 36  16  18  ar  
 37  16  37  1   
 38  17  19  ar  
 39  18  19  ar  
 40  18  38  1   
 41  19  39  1   
@<TRIPOS>SUBSTRUCTURE
  1 ****  12 GROUP 4 **** **** 0

# MOE 2024.06 (io_trps.svl 2023.06)
