@<TRIPOS>MOLECULE
NONAME
42 44 1 0 0 
SMALL
USER_CHARGES


@<TRIPOS>ATOM
  1 F       -0.8370    -0.6240     0.8160 F     1 <1>  -0.3400 
  2 C       -1.6960    -1.0150    -0.1160 C.3   1 <1>   1.1640 
  3 F       -1.0320    -1.8430    -0.9140 F     1 <1>  -0.3400 
  4 F       -1.9690     0.0600    -0.8470 F     1 <1>  -0.3400 
  5 C       -2.9570    -1.6490     0.4920 C.ar  1 <1>  -0.1440 
  6 C       -3.0630    -3.0260     0.6500 C.ar  1 <1>  -0.1500 
  7 C       -4.0180    -0.8510     0.9080 C.ar  1 <1>  -0.1500 
  8 C       -4.1970    -3.6250     1.1950 C.ar  1 <1>   0.0860 
  9 C       -5.1490    -1.4200     1.4650 C.ar  1 <1>  -0.1500 
 10 C       -4.2820    -5.0670     1.3250 C.2   1 <1>   0.5440 
 11 C       -5.2340    -2.7910     1.6080 C.ar  1 <1>  -0.1500 
 12 O       -3.4070    -5.6720     1.9130 O.2   1 <1>  -0.5700 
 13 N       -5.3220    -5.7790     0.7760 N.am  1 <1>  -0.6600 
 14 C       -6.2240    -5.2770    -0.2940 C.3   1 <1>   0.1400 
 15 C       -5.4160    -7.2580     0.8730 C.3   1 <1>   0.1400 
 16 C       -7.1860    -6.4340    -0.5530 C.3   1 <1>   0.2000 
 17 C       -6.3360    -7.6800    -0.2790 C.3   1 <1>  -0.0800 
 18 O       -8.2080    -6.3550     0.3800 O.3   1 <1>  -0.6800 
 19 C       -7.1390    -8.9650    -0.0010 C.3   1 <1>   0.0200 
 20 C       -6.2630   -10.2010     0.1260 C.2   1 <1>  -0.0400 
 21 O       -6.8190   -11.3270     0.4860 O.3   1 <1>  -0.0190 
 22 C       -4.9540   -10.4350    -0.0590 C.2   1 <1>  -0.1500 
 23 N       -5.9560   -12.2980     0.5550 N.2   1 <1>  -0.4100 
 24 C       -4.8220   -11.7890     0.2320 C.2   1 <1>   0.1080 
 25 C       -3.5250   -12.5660     0.1800 C.3   1 <1>  -0.0590 
 26 H       -2.2530    -3.6730     0.3510 H     1 <1>   0.1500 
 27 H       -3.9680     0.2220     0.8060 H     1 <1>   0.1500 
 28 H       -5.9620    -0.7920     1.7900 H     1 <1>   0.1500 
 29 H       -6.1120    -3.2280     2.0510 H     1 <1>   0.1500 
 30 H       -6.7520    -4.3870     0.0000 H     1 <1>   0.0800 
 31 H       -5.6430    -5.0780    -1.1770 H     1 <1>   0.0800 
 32 H       -4.4420    -7.7100     0.7900 H     1 <1>   0.0800 
 33 H       -5.8440    -7.5180     1.8260 H     1 <1>   0.0800 
 34 H       -7.6190    -6.4150    -1.5390 H     1 <1>   0.0800 
 35 H       -5.7200    -7.8460    -1.1460 H     1 <1>   0.0800 
 36 H       -7.8150    -6.2420     1.2690 H     1 <1>   0.4000 
 37 H       -7.8400    -9.1270    -0.8000 H     1 <1>   0.0800 
 38 H       -7.7040    -8.8560     0.9080 H     1 <1>   0.0800 
 39 H       -4.1600    -9.7760    -0.3590 H     1 <1>   0.1500 
 40 H       -3.1160   -12.5260    -0.8130 H     1 <1>   0.0800 
 41 H       -3.7020   -13.5930     0.4430 H     1 <1>   0.0800 
 42 H       -2.8200   -12.1460     0.8730 H     1 <1>   0.0800 
@<TRIPOS>BOND
  1   1   2  1   
  2   2   3  1   
  3   2   4  1   
  4   2   5  1   
  5   5   6  ar  
  6   5   7  ar  
  7   6   8  ar  
  8   6  26  1   
  9   7   9  ar  
 10   7  27  1   
 11   8  10  1   
 12   8  11  ar  
 13   9  11  ar  
 14   9  28  1   
 15  10  12  2   
 16  10  13  am  
 17  11  29  1   
 18  13  14  1   
 19  13  15  1   
 20  14  16  1   
 21  14  30  1   
 22  14  31  1   
 23  15  17  1   
 24  15  32  1   
 25  15  33  1   
 26  16  17  1   
 27  16  18  1   
 28  16  34  1   
 29  17  19  1   
 30  17  35  1   
 31  18  36  1   
 32  19  20  1   
 33  19  37  1   
 34  19  38  1   
 35  20  21  1   
 36  20  22  2   
 37  21  23  1   
 38  22  24  1   
 39  22  39  1   
 40  23  24  2   
 41  24  25  1   
 42  25  40  1   
 43  25  41  1   
 44  25  42  1   
@<TRIPOS>SUBSTRUCTURE
  1 ****  13 GROUP 4 **** **** 0

# MOE 2024.06 (io_trps.svl 2023.06)
