@<TRIPOS>MOLECULE
NONAME
43 44 1 0 0 
SMALL
USER_CHARGES


@<TRIPOS>ATOM
  1 O        0.1830    -0.1240     1.0670 O.2   1 <1>  -0.5700 
  2 C        1.2260    -0.6420     0.7220 C.2   1 <1>   0.5440 
  3 N        2.3900     0.0870     0.6560 N.am  1 <1>  -0.4940 
  4 C        1.2760    -2.0400     0.3640 C.ar  1 <1>   0.0860 
  5 C        2.6380     1.4460     0.9710 C.2   1 <1>  -0.0880 
  6 C        0.5470    -2.5700    -0.7070 C.ar  1 <1>   0.1670 
  7 C        2.0840    -2.9140     1.0800 C.ar  1 <1>  -0.1500 
  8 N        3.8200     2.1000     0.7730 N.pl3 1 <1>   0.3140 
  9 C        1.7930     2.3530     1.5150 C.2   1 <1>  -0.1500 
 10 N        0.5870    -3.8360    -1.0900 N.ar  1 <1>  -0.6200 
 11 C       -0.3710    -1.6820    -1.5320 C.3   1 <1>  -0.0970 
 12 C        2.1240    -4.2330     0.6890 C.ar  1 <1>  -0.1500 
 13 N        3.7400     3.3900     1.1850 N.2   1 <1>  -0.7070 
 14 C        5.1010     1.5780     0.2110 C.3   1 <1>   0.1760 
 15 C        2.5270     3.5250     1.6210 C.2   1 <1>   0.1390 
 16 C        1.3660    -4.6430    -0.3940 C.ar  1 <1>   0.1670 
 17 C        4.9370     1.0290    -1.2270 C.3   1 <1>  -0.1600 
 18 C        5.7220     0.5520     1.1840 C.3   1 <1>  -0.1600 
 19 C        1.3910    -6.0880    -0.8450 C.3   1 <1>  -0.0970 
 20 C        4.2430     2.0130    -2.1810 C.3   1 <1>  -0.2400 
 21 C        7.1500     0.1320     0.8070 C.3   1 <1>  -0.2400 
 22 H        3.1850    -0.4310     0.2840 H     1 <1>   0.3700 
 23 H        2.6560    -2.5690     1.9240 H     1 <1>   0.1500 
 24 H        0.7690     2.2170     1.8110 H     1 <1>   0.1500 
 25 H        0.1170    -0.7590    -1.7850 H     1 <1>   0.0800 
 26 H       -1.2610    -1.4660    -0.9710 H     1 <1>   0.0800 
 27 H       -0.6530    -2.1770    -2.4440 H     1 <1>   0.0800 
 28 H        2.7360    -4.9380     1.2220 H     1 <1>   0.1500 
 29 H        5.7680     2.4210     0.1590 H     1 <1>   0.0800 
 30 H        2.1410     4.4470     2.0210 H     1 <1>   0.1500 
 31 H        4.3970     0.1000    -1.2170 H     1 <1>   0.0800 
 32 H        5.9130     0.8220    -1.6280 H     1 <1>   0.0800 
 33 H        5.1050    -0.3260     1.2430 H     1 <1>   0.0800 
 34 H        5.7550     0.9990     2.1640 H     1 <1>   0.0800 
 35 H        0.3980    -6.4970    -0.7900 H     1 <1>   0.0800 
 36 H        2.0450    -6.6780    -0.2300 H     1 <1>   0.0800 
 37 H        1.7290    -6.1400    -1.8640 H     1 <1>   0.0800 
 38 H        3.2230     2.1860    -1.8830 H     1 <1>   0.0800 
 39 H        4.2380     1.6180    -3.1810 H     1 <1>   0.0800 
 40 H        4.7610     2.9570    -2.1890 H     1 <1>   0.0800 
 41 H        7.1640    -0.4210    -0.1150 H     1 <1>   0.0800 
 42 H        7.5610    -0.4960     1.5780 H     1 <1>   0.0800 
 43 H        7.7830     0.9970     0.7050 H     1 <1>   0.0800 
@<TRIPOS>BOND
  1   1   2  2   
  2   2   3  am  
  3   2   4  1   
  4   3   5  1   
  5   3  22  1   
  6   4   6  ar  
  7   4   7  ar  
  8   5   8  1   
  9   5   9  2   
 10   6  10  ar  
 11   6  11  1   
 12   7  12  ar  
 13   7  23  1   
 14   8  13  1   
 15   8  14  1   
 16   9  15  1   
 17   9  24  1   
 18  10  16  ar  
 19  11  25  1   
 20  11  26  1   
 21  11  27  1   
 22  12  16  ar  
 23  12  28  1   
 24  13  15  2   
 25  14  17  1   
 26  14  18  1   
 27  14  29  1   
 28  15  30  1   
 29  16  19  1   
 30  17  20  1   
 31  17  31  1   
 32  17  32  1   
 33  18  21  1   
 34  18  33  1   
 35  18  34  1   
 36  19  35  1   
 37  19  36  1   
 38  19  37  1   
 39  20  38  1   
 40  20  39  1   
 41  20  40  1   
 42  21  41  1   
 43  21  42  1   
 44  21  43  1   
@<TRIPOS>SUBSTRUCTURE
  1 ****   3 GROUP 4 **** **** 0

# MOE 2024.06 (io_trps.svl 2023.06)
