@<TRIPOS>MOLECULE
NONAME
54 55 1 0 0 
SMALL
USER_CHARGES


@<TRIPOS>ATOM
  1 O       -0.4830    -0.6280     0.2160 O.2   1 <1>  -0.5700 
  2 C       -1.4140     0.1210     0.3890 C.2   1 <1>   0.5690 
  3 N       -2.5270    -0.3010     1.0860 N.am  1 <1>  -0.6600 
  4 C       -1.2370     1.5270    -0.2490 C.3   1 <1>   0.4840 
  5 C       -2.7930    -1.7780     1.1800 C.3   1 <1>   0.3210 
  6 C       -3.4740     0.5060     1.9300 C.3   1 <1>   0.1400 
  7 N       -1.4910     2.7090     0.6590 N.4   1 <1>  -0.9590 
  8 C       -2.0440     1.6130    -1.5540 C.3   1 <1>  -0.2400 
  9 C       -4.1000    -2.1430     0.4840 C.2   1 <1>   0.0460 
 10 C       -4.6340     1.1440     1.1540 C.3   1 <1>   0.1200 
 11 C       -1.3410     4.0380    -0.0030 C.3   1 <1>   0.4230 
 12 C       -0.6810     2.5720     1.9160 C.3   1 <1>   0.2630 
 13 N       -5.2880    -1.9950     1.1110 N.2   1 <1>  -0.5650 
 14 C       -4.2740    -2.6430    -0.7630 C.2   1 <1>  -0.3320 
 15 O       -4.2940     2.4300     0.7380 O.3   1 <1>  -0.6800 
 16 C        0.1240     4.3860    -0.3100 C.3   1 <1>  -0.1600 
 17 C       -2.0240     5.1420     0.8270 C.3   1 <1>  -0.1600 
 18 C       -6.1500    -2.4170     0.2450 C.2   1 <1>   0.0360 
 19 N       -5.5990    -2.8250    -0.9160 N.pl3 1 <1>   0.0330 
 20 C       -3.2670    -2.9810    -1.8500 C.3   1 <1>  -0.0600 
 21 C        0.2150     5.6670    -1.1620 C.3   1 <1>  -0.1600 
 22 C       -1.4680     6.5490     0.5340 C.3   1 <1>  -0.1600 
 23 C       -0.9340     6.6590    -0.8990 C.3   1 <1>  -0.1600 
 24 H       -0.1990     1.5640    -0.5340 H     1 <1>   0.0800 
 25 H       -2.8460    -2.0770     2.2120 H     1 <1>   0.0800 
 26 H       -1.9980    -2.3440     0.7280 H     1 <1>   0.0800 
 27 H       -2.9490     1.2540     2.4920 H     1 <1>   0.0800 
 28 H       -3.9150    -0.1550     2.6580 H     1 <1>   0.0800 
 29 H       -2.5030     2.6320     0.8910 H     1 <1>   0.4500 
 30 H       -3.0990     1.6550    -1.3660 H     1 <1>   0.0800 
 31 H       -1.8570     0.7250    -2.1330 H     1 <1>   0.0800 
 32 H       -1.7410     2.4470    -2.1580 H     1 <1>   0.0800 
 33 H       -5.4910     1.2290     1.8000 H     1 <1>   0.0800 
 34 H       -4.9030     0.5500     0.2960 H     1 <1>   0.0800 
 35 H       -1.8600     4.0150    -0.9470 H     1 <1>   0.0800 
 36 H        0.3720     2.6220     1.6890 H     1 <1>   0.0800 
 37 H       -0.8780     1.6260     2.3930 H     1 <1>   0.0800 
 38 H       -0.9210     3.3580     2.6110 H     1 <1>   0.0800 
 39 H       -5.0910     2.8570     0.3520 H     1 <1>   0.4000 
 40 H        0.6110     3.5870    -0.8390 H     1 <1>   0.0800 
 41 H        0.6530     4.5590     0.6100 H     1 <1>   0.0800 
 42 H       -1.9340     4.9660     1.8820 H     1 <1>   0.0800 
 43 H       -3.0710     5.1310     0.5820 H     1 <1>   0.0800 
 44 H       -7.2130    -2.4520     0.4150 H     1 <1>   0.1500 
 45 H       -6.0890    -3.2020    -1.7320 H     1 <1>   0.2700 
 46 H       -2.2700    -2.7180    -1.5440 H     1 <1>   0.0800 
 47 H       -3.4970    -2.4400    -2.7510 H     1 <1>   0.0800 
 48 H       -3.2910    -4.0350    -2.0630 H     1 <1>   0.0800 
 49 H        0.2140     5.4130    -2.2090 H     1 <1>   0.0800 
 50 H        1.1560     6.1500    -0.9550 H     1 <1>   0.0800 
 51 H       -0.6630     6.7690     1.2170 H     1 <1>   0.0800 
 52 H       -2.2360     7.2860     0.6980 H     1 <1>   0.0800 
 53 H       -1.7410     6.4680    -1.5880 H     1 <1>   0.0800 
 54 H       -0.5890     7.6630    -1.0850 H     1 <1>   0.0800 
@<TRIPOS>BOND
  1   1   2  2   
  2   2   3  am  
  3   2   4  1   
  4   3   5  1   
  5   3   6  1   
  6   4   7  1   
  7   4   8  1   
  8   4  24  1   
  9   5   9  1   
 10   5  25  1   
 11   5  26  1   
 12   6  10  1   
 13   6  27  1   
 14   6  28  1   
 15   7  11  1   
 16   7  12  1   
 17   7  29  1   
 18   8  30  1   
 19   8  31  1   
 20   8  32  1   
 21   9  13  1   
 22   9  14  2   
 23  10  15  1   
 24  10  33  1   
 25  10  34  1   
 26  11  16  1   
 27  11  17  1   
 28  11  35  1   
 29  12  36  1   
 30  12  37  1   
 31  12  38  1   
 32  13  18  2   
 33  14  19  1   
 34  14  20  1   
 35  15  39  1   
 36  16  21  1   
 37  16  40  1   
 38  16  41  1   
 39  17  22  1   
 40  17  42  1   
 41  17  43  1   
 42  18  19  1   
 43  18  44  1   
 44  19  45  1   
 45  20  46  1   
 46  20  47  1   
 47  20  48  1   
 48  21  23  1   
 49  21  49  1   
 50  21  50  1   
 51  22  23  1   
 52  22  51  1   
 53  22  52  1   
 54  23  53  1   
 55  23  54  1   
@<TRIPOS>SUBSTRUCTURE
  1 ****   4 GROUP 4 **** **** 0

# MOE 2024.06 (io_trps.svl 2023.06)
