@<TRIPOS>MOLECULE
NONAME
43 45 1 0 0 
SMALL
USER_CHARGES


@<TRIPOS>ATOM
  1 O       -1.7940    -1.6850    -0.3690 O.3   1 <1>  -0.3630 
  2 C       -2.1060    -0.4010    -0.0790 C.ar  1 <1>   0.3920 
  3 C       -0.8850    -1.9970    -1.4110 C.3   1 <1>   0.0400 
  4 N       -1.5560     0.5600    -0.8090 N.ar  1 <1>  -0.6200 
  5 C       -3.0050    -0.1770     0.9600 C.ar  1 <1>  -0.1430 
  6 C       -1.9000     1.7960    -0.4860 C.ar  1 <1>   0.1600 
  7 C       -3.3550     1.1190     1.2800 C.ar  1 <1>  -0.1500 
  8 C       -3.5870    -1.3500     1.7210 C.3   1 <1>   0.4870 
  9 C       -2.7790     2.1240     0.5310 C.ar  1 <1>  -0.1500 
 10 N       -4.3590    -2.2100     0.7880 N.4   1 <1>  -0.9590 
 11 C       -5.4320    -1.5130     0.0050 C.3   1 <1>   0.3430 
 12 C       -4.9690    -3.4190     1.3830 C.3   1 <1>   0.3430 
 13 C       -6.6130    -2.4980    -0.0670 C.3   1 <1>   0.2000 
 14 C       -6.0200    -3.8440     0.3540 C.3   1 <1>  -0.0800 
 15 O       -7.5910    -2.1290     0.8490 O.3   1 <1>  -0.6800 
 16 C       -5.4270    -4.5690    -0.8820 C.3   1 <1>  -0.0170 
 17 C       -4.2470    -5.4730    -0.5600 C.ar  1 <1>   0.1670 
 18 N       -3.0790    -4.8620    -0.4040 N.ar  1 <1>  -0.6200 
 19 C       -4.4210    -6.8510    -0.4470 C.ar  1 <1>   0.1600 
 20 C       -2.1040    -5.7220    -0.1450 C.ar  1 <1>   0.1600 
 21 N       -3.4500    -7.7020    -0.1680 N.ar  1 <1>  -0.6200 
 22 C       -2.2840    -7.0950    -0.0290 C.ar  1 <1>   0.1600 
 23 H       -0.7960    -3.0660    -1.4790 H     1 <1>   0.0800 
 24 H        0.0720    -1.5590    -1.1820 H     1 <1>   0.0800 
 25 H       -1.2620    -1.6000    -2.3380 H     1 <1>   0.0800 
 26 H       -1.4570     2.5910    -1.0630 H     1 <1>   0.1500 
 27 H       -4.0400     1.3590     2.0770 H     1 <1>   0.1500 
 28 H       -4.2270    -0.9910     2.5090 H     1 <1>   0.0800 
 29 H       -2.7840    -1.9190     2.1610 H     1 <1>   0.0800 
 30 H       -3.0060     3.1570     0.7300 H     1 <1>   0.1500 
 31 H       -3.6530    -2.5610     0.1070 H     1 <1>   0.4500 
 32 H       -5.7420    -0.5970     0.4800 H     1 <1>   0.0800 
 33 H       -5.0670    -1.2920    -0.9850 H     1 <1>   0.0800 
 34 H       -4.2370    -4.1890     1.5690 H     1 <1>   0.0800 
 35 H       -5.4540    -3.1660     2.3110 H     1 <1>   0.0800 
 36 H       -7.0710    -2.5130    -1.0420 H     1 <1>   0.0800 
 37 H       -6.7570    -4.4840     0.8110 H     1 <1>   0.0800 
 38 H       -7.3000    -2.1820     1.7790 H     1 <1>   0.4000 
 39 H       -5.0850    -3.8560    -1.6130 H     1 <1>   0.0800 
 40 H       -6.2030    -5.1430    -1.3580 H     1 <1>   0.0800 
 41 H       -5.4010    -7.2710    -0.5910 H     1 <1>   0.1500 
 42 H       -1.1120    -5.3260    -0.0160 H     1 <1>   0.1500 
 43 H       -1.4310    -7.7150     0.1870 H     1 <1>   0.1500 
@<TRIPOS>BOND
  1   1   2  1   
  2   1   3  1   
  3   2   4  ar  
  4   2   5  ar  
  5   3  23  1   
  6   3  24  1   
  7   3  25  1   
  8   4   6  ar  
  9   5   7  ar  
 10   5   8  1   
 11   6   9  ar  
 12   6  26  1   
 13   7   9  ar  
 14   7  27  1   
 15   8  10  1   
 16   8  28  1   
 17   8  29  1   
 18   9  30  1   
 19  10  11  1   
 20  10  12  1   
 21  10  31  1   
 22  11  13  1   
 23  11  32  1   
 24  11  33  1   
 25  12  14  1   
 26  12  34  1   
 27  12  35  1   
 28  13  14  1   
 29  13  15  1   
 30  13  36  1   
 31  14  16  1   
 32  14  37  1   
 33  15  38  1   
 34  16  17  1   
 35  16  39  1   
 36  16  40  1   
 37  17  18  ar  
 38  17  19  ar  
 39  18  20  ar  
 40  19  21  ar  
 41  19  41  1   
 42  20  22  ar  
 43  20  42  1   
 44  21  22  ar  
 45  22  43  1   
@<TRIPOS>SUBSTRUCTURE
  1 ****  10 GROUP 4 **** **** 0

# MOE 2024.06 (io_trps.svl 2023.06)
