@<TRIPOS>MOLECULE
NONAME
51 54 1 0 0 
SMALL
USER_CHARGES


@<TRIPOS>ATOM
  1 O        1.0170    -2.0630     2.3210 O.3   1 <1>  -0.6800 
  2 C        1.5940    -2.1570     1.0740 C.3   1 <1>   0.2000 
  3 C        2.3130    -3.4930     0.9320 C.3   1 <1>  -0.1600 
  4 C        2.6860    -1.1040     0.9340 C.3   1 <1>  -0.1600 
  5 C        3.4470    -3.2190    -0.0660 C.3   1 <1>  -0.0800 
  6 C        3.6730    -1.7030    -0.0760 C.3   1 <1>  -0.0800 
  7 C        4.8050    -3.8370     0.2990 C.3   1 <1>  -0.1600 
  8 C        5.1580    -1.4900     0.2580 C.3   1 <1>  -0.1600 
  9 C        5.8590    -2.7990    -0.1100 C.3   1 <1>   0.4230 
 10 N        6.1800    -2.7760    -1.5800 N.4   1 <1>  -0.9590 
 11 C        7.6160    -2.4410    -1.8290 C.3   1 <1>   0.4860 
 12 C        5.8190    -3.9960    -2.3680 C.3   1 <1>   0.2630 
 13 C        7.8970    -1.0120    -1.4040 C.ar  1 <1>  -0.1440 
 14 C        8.5500    -0.7800    -0.1600 C.ar  1 <1>   0.0000 
 15 C        7.5040     0.0370    -2.2080 C.ar  1 <1>  -0.1440 
 16 C        8.7340     0.5570     0.2610 C.ar  1 <1>   0.0000 
 17 C        9.0350    -1.7980     0.7010 C.ar  1 <1>  -0.1500 
 18 C        7.7190     1.3510    -1.7780 C.ar  1 <1>  -0.1500 
 19 C        6.8290    -0.0960    -3.5700 C.3   1 <1>  -0.0970 
 20 C        8.3110     1.6030    -0.5760 C.ar  1 <1>  -0.1500 
 21 C        9.3400     0.8220     1.5050 C.ar  1 <1>  -0.1500 
 22 C        9.6240    -1.5140     1.9010 C.ar  1 <1>  -0.1500 
 23 C        9.7750    -0.1880     2.3130 C.ar  1 <1>  -0.1500 
 24 H        0.3130    -2.7310     2.4240 H     1 <1>   0.4000 
 25 H        0.8370    -2.0320     0.3170 H     1 <1>   0.0800 
 26 H        2.7110    -3.7820     1.8900 H     1 <1>   0.0800 
 27 H        1.6490    -4.2600     0.5730 H     1 <1>   0.0800 
 28 H        2.2830    -0.1680     0.5900 H     1 <1>   0.0800 
 29 H        3.1570    -0.9590     1.8900 H     1 <1>   0.0800 
 30 H        3.1390    -3.5290    -1.0500 H     1 <1>   0.0800 
 31 H        3.4530    -1.3250    -1.0610 H     1 <1>   0.0800 
 32 H        4.9510    -4.8210    -0.1050 H     1 <1>   0.0800 
 33 H        4.8700    -3.9310     1.3690 H     1 <1>   0.0800 
 34 H        5.2750    -1.3520     1.3190 H     1 <1>   0.0800 
 35 H        5.5590    -0.6190    -0.2250 H     1 <1>   0.0800 
 36 H        6.7580    -2.9300     0.4690 H     1 <1>   0.0800 
 37 H        5.6480    -1.9760    -1.9440 H     1 <1>   0.4500 
 38 H        8.2580    -3.1340    -1.3160 H     1 <1>   0.0800 
 39 H        7.8320    -2.5290    -2.8800 H     1 <1>   0.0800 
 40 H        6.3470    -4.8560    -1.9900 H     1 <1>   0.0800 
 41 H        6.0750    -3.8620    -3.4070 H     1 <1>   0.0800 
 42 H        4.7610    -4.1860    -2.3030 H     1 <1>   0.0800 
 43 H        8.9600    -2.8310     0.4280 H     1 <1>   0.1500 
 44 H        7.4120     2.1720    -2.4040 H     1 <1>   0.1500 
 45 H        7.3730     0.4850    -4.2960 H     1 <1>   0.0800 
 46 H        5.8270     0.2940    -3.5190 H     1 <1>   0.0800 
 47 H        6.7850    -1.1040    -3.9330 H     1 <1>   0.0800 
 48 H        8.4670     2.6160    -0.2510 H     1 <1>   0.1500 
 49 H        9.4590     1.8460     1.8110 H     1 <1>   0.1500 
 50 H        9.9860    -2.2970     2.5460 H     1 <1>   0.1500 
 51 H       10.2390     0.0210     3.2620 H     1 <1>   0.1500 
@<TRIPOS>BOND
  1   1   2  1   
  2   1  24  1   
  3   2   3  1   
  4   2   4  1   
  5   2  25  1   
  6   3   5  1   
  7   3  26  1   
  8   3  27  1   
  9   4   6  1   
 10   4  28  1   
 11   4  29  1   
 12   5   6  1   
 13   5   7  1   
 14   5  30  1   
 15   6   8  1   
 16   6  31  1   
 17   7   9  1   
 18   7  32  1   
 19   7  33  1   
 20   8   9  1   
 21   8  34  1   
 22   8  35  1   
 23   9  10  1   
 24   9  36  1   
 25  10  11  1   
 26  10  12  1   
 27  10  37  1   
 28  11  13  1   
 29  11  38  1   
 30  11  39  1   
 31  12  40  1   
 32  12  41  1   
 33  12  42  1   
 34  13  14  ar  
 35  13  15  ar  
 36  14  16  ar  
 37  14  17  ar  
 38  15  18  ar  
 39  15  19  1   
 40  16  20  ar  
 41  16  21  ar  
 42  17  22  ar  
 43  17  43  1   
 44  18  20  ar  
 45  18  44  1   
 46  19  45  1   
 47  19  46  1   
 48  19  47  1   
 49  20  48  1   
 50  21  23  ar  
 51  21  49  1   
 52  22  23  ar  
 53  22  50  1   
 54  23  51  1   
@<TRIPOS>SUBSTRUCTURE
  1 ****   8 GROUP 4 **** **** 0

# MOE 2024.06 (io_trps.svl 2023.06)
