@<TRIPOS>MOLECULE
NONAME
42 43 1 0 0 
SMALL
USER_CHARGES


@<TRIPOS>ATOM
  1 F        1.2640    -1.7350     1.7410 F     1 <1>  -0.1900 
  2 C        0.6820    -2.6670     1.0380 C.ar  1 <1>   0.1900 
  3 C        0.5820    -3.9350     1.5730 C.ar  1 <1>  -0.1500 
  4 C        0.1880    -2.3460    -0.2110 C.ar  1 <1>  -0.1500 
  5 C       -0.0420    -4.9260     0.8220 C.ar  1 <1>   0.0830 
  6 C       -0.4300    -3.3360    -0.9560 C.ar  1 <1>  -0.1500 
  7 O       -0.1980    -6.1990     1.2750 O.3   1 <1>  -0.3630 
  8 C       -0.5470    -4.6240    -0.4450 C.ar  1 <1>  -0.1440 
  9 C        0.1780    -6.5700     2.5880 C.3   1 <1>   0.0400 
 10 C       -1.2260    -5.6980    -1.2760 C.3   1 <1>   0.4870 
 11 N       -2.3650    -6.2470    -0.5040 N.4   1 <1>  -0.9590 
 12 C       -2.8060    -7.5670    -0.9830 C.3   1 <1>   0.5230 
 13 C       -3.4660    -5.2490    -0.3330 C.3   1 <1>   0.3430 
 14 C       -2.3970    -8.5240     0.1040 C.2   1 <1>  -0.3320 
 15 C       -4.4070    -5.6010     0.8280 C.3   1 <1>   0.1200 
 16 N       -1.1900    -9.1240     0.2260 N.pl3 1 <1>   0.0480 
 17 C       -3.1430    -8.9510     1.1480 C.2   1 <1>   0.0770 
 18 O       -5.4080    -4.6480     0.8600 O.3   1 <1>  -0.6800 
 19 C       -1.2910    -9.8610     1.3530 C.2   1 <1>   0.0360 
 20 C        0.0000    -9.0590    -0.6460 C.3   1 <1>   0.0160 
 21 N       -2.4400    -9.7750     1.9370 N.2   1 <1>  -0.5650 
 22 H        0.9910    -4.1120     2.5490 H     1 <1>   0.1500 
 23 H        0.2910    -1.3420    -0.5850 H     1 <1>   0.1500 
 24 H       -0.8110    -3.0850    -1.9320 H     1 <1>   0.1500 
 25 H       -0.0970    -7.5980     2.7430 H     1 <1>   0.0800 
 26 H       -0.3420    -5.9480     3.2950 H     1 <1>   0.0800 
 27 H        1.2440    -6.4600     2.6930 H     1 <1>   0.0800 
 28 H       -0.5100    -6.4760    -1.4800 H     1 <1>   0.0800 
 29 H       -1.5690    -5.2890    -2.2120 H     1 <1>   0.0800 
 30 H       -1.9510    -6.4290     0.4290 H     1 <1>   0.4500 
 31 H       -2.3440    -7.8280    -1.9210 H     1 <1>   0.0800 
 32 H       -3.8780    -7.5870    -1.1020 H     1 <1>   0.0800 
 33 H       -4.0410    -5.1790    -1.2420 H     1 <1>   0.0800 
 34 H       -3.0430    -4.2790    -0.1250 H     1 <1>   0.0800 
 35 H       -3.8840    -5.5730     1.7690 H     1 <1>   0.0800 
 36 H       -4.8730    -6.5600     0.6840 H     1 <1>   0.0800 
 37 H       -4.1650    -8.7130     1.3940 H     1 <1>   0.1500 
 38 H       -6.0150    -4.7830     1.6190 H     1 <1>   0.4000 
 39 H       -0.4780   -10.4650     1.7200 H     1 <1>   0.1500 
 40 H       -0.3010    -9.0550    -1.6770 H     1 <1>   0.0800 
 41 H        0.6190    -9.9210    -0.4690 H     1 <1>   0.0800 
 42 H        0.5640    -8.1720    -0.4210 H     1 <1>   0.0800 
@<TRIPOS>BOND
  1   1   2  1   
  2   2   3  ar  
  3   2   4  ar  
  4   3   5  ar  
  5   3  22  1   
  6   4   6  ar  
  7   4  23  1   
  8   5   7  1   
  9   5   8  ar  
 10   6   8  ar  
 11   6  24  1   
 12   7   9  1   
 13   8  10  1   
 14   9  25  1   
 15   9  26  1   
 16   9  27  1   
 17  10  11  1   
 18  10  28  1   
 19  10  29  1   
 20  11  12  1   
 21  11  13  1   
 22  11  30  1   
 23  12  14  1   
 24  12  31  1   
 25  12  32  1   
 26  13  15  1   
 27  13  33  1   
 28  13  34  1   
 29  14  16  1   
 30  14  17  2   
 31  15  18  1   
 32  15  35  1   
 33  15  36  1   
 34  16  19  1   
 35  16  20  1   
 36  17  21  1   
 37  17  37  1   
 38  18  38  1   
 39  19  21  2   
 40  19  39  1   
 41  20  40  1   
 42  20  41  1   
 43  20  42  1   
@<TRIPOS>SUBSTRUCTURE
  1 ****   7 GROUP 4 **** **** 0

# MOE 2024.06 (io_trps.svl 2023.06)
