@<TRIPOS>MOLECULE
NONAME
47 49 1 0 0 
SMALL
USER_CHARGES


@<TRIPOS>ATOM
  1 O       -1.9210     0.1690     2.4460 O.2   1 <1>  -0.5700 
  2 C       -1.8400     0.7330     1.3700 C.2   1 <1>   0.5440 
  3 N       -2.3910     0.1110     0.2730 N.am  1 <1>  -0.6600 
  4 C       -1.2740     2.0660     1.3120 C.ar  1 <1>   0.0860 
  5 C       -2.4970    -1.3870     0.2170 C.3   1 <1>   0.3640 
  6 C       -3.3720     0.8600    -0.5660 C.3   1 <1>   0.1400 
  7 C       -0.5070     2.5440     0.2360 C.ar  1 <1>   0.3920 
  8 C       -1.4870     2.9420     2.3710 C.ar  1 <1>  -0.1500 
  9 C       -1.1900    -2.0520     0.6610 C.ar  1 <1>  -0.1440 
 10 C       -2.8650    -1.8980    -1.2040 C.3   1 <1>   0.2000 
 11 C       -3.5990     0.1950    -1.9280 C.3   1 <1>   0.1200 
 12 O       -0.2440     1.7140    -0.7970 O.3   1 <1>  -0.3630 
 13 N       -0.0090     3.7800     0.1490 N.ar  1 <1>  -0.6200 
 14 C       -0.9640     4.2120     2.2950 C.ar  1 <1>  -0.1500 
 15 C        0.0100    -1.7530     0.0310 C.ar  1 <1>  -0.1500 
 16 C       -1.1950    -2.9810     1.6920 C.ar  1 <1>  -0.1500 
 17 O       -3.9180    -1.1510    -1.7530 O.3   1 <1>  -0.5600 
 18 C       -3.2900    -3.3760    -1.2140 C.3   1 <1>   0.1200 
 19 C        0.5150     2.1290    -1.9150 C.3   1 <1>   0.1200 
 20 C       -0.2440     4.5770     1.1740 C.ar  1 <1>   0.1600 
 21 C        1.1810    -2.3840     0.4100 C.ar  1 <1>  -0.1500 
 22 C       -0.0250    -3.6130     2.0730 C.ar  1 <1>  -0.1500 
 23 O       -2.1870    -4.2170    -1.0840 O.3   1 <1>  -0.6800 
 24 C        0.6290     0.9590    -2.8880 C.3   1 <1>  -0.2400 
 25 C        1.1640    -3.3180     1.4300 C.ar  1 <1>  -0.1500 
 26 H       -3.2810    -1.6800     0.8930 H     1 <1>   0.0800 
 27 H       -4.3120     0.9080    -0.0440 H     1 <1>   0.0800 
 28 H       -3.0310     1.8680    -0.7240 H     1 <1>   0.0800 
 29 H       -2.0510     2.6240     3.2320 H     1 <1>   0.1500 
 30 H       -2.0230    -1.7880    -1.8640 H     1 <1>   0.0800 
 31 H       -2.7200     0.2730    -2.5440 H     1 <1>   0.0800 
 32 H       -4.4210     0.6650    -2.4380 H     1 <1>   0.0800 
 33 H       -1.1100     4.9130     3.0970 H     1 <1>   0.1500 
 34 H        0.0320    -1.0210    -0.7560 H     1 <1>   0.1500 
 35 H       -2.1100    -3.2110     2.2100 H     1 <1>   0.1500 
 36 H       -3.7620    -3.6150    -2.1510 H     1 <1>   0.0800 
 37 H       -3.9710    -3.5830    -0.4080 H     1 <1>   0.0800 
 38 H        0.0120     2.9620    -2.3750 H     1 <1>   0.0800 
 39 H        1.4880     2.4380    -1.5710 H     1 <1>   0.0800 
 40 H        0.1600     5.5740     1.1210 H     1 <1>   0.1500 
 41 H        2.1060    -2.1440    -0.0860 H     1 <1>   0.1500 
 42 H       -0.0380    -4.3310     2.8740 H     1 <1>   0.1500 
 43 H       -1.6070    -3.9320    -0.3420 H     1 <1>   0.4000 
 44 H       -0.3470     0.6140    -3.1760 H     1 <1>   0.0800 
 45 H        1.1810     0.1550    -2.4370 H     1 <1>   0.0800 
 46 H        1.1550     1.2750    -3.7700 H     1 <1>   0.0800 
 47 H        2.0740    -3.8080     1.7270 H     1 <1>   0.1500 
@<TRIPOS>BOND
  1   1   2  2   
  2   2   3  am  
  3   2   4  1   
  4   3   5  1   
  5   3   6  1   
  6   4   7  ar  
  7   4   8  ar  
  8   5   9  1   
  9   5  10  1   
 10   5  26  1   
 11   6  11  1   
 12   6  27  1   
 13   6  28  1   
 14   7  12  1   
 15   7  13  ar  
 16   8  14  ar  
 17   8  29  1   
 18   9  15  ar  
 19   9  16  ar  
 20  10  17  1   
 21  10  18  1   
 22  10  30  1   
 23  11  17  1   
 24  11  31  1   
 25  11  32  1   
 26  12  19  1   
 27  13  20  ar  
 28  14  20  ar  
 29  14  33  1   
 30  15  21  ar  
 31  15  34  1   
 32  16  22  ar  
 33  16  35  1   
 34  18  23  1   
 35  18  36  1   
 36  18  37  1   
 37  19  24  1   
 38  19  38  1   
 39  19  39  1   
 40  20  40  1   
 41  21  25  ar  
 42  21  41  1   
 43  22  25  ar  
 44  22  42  1   
 45  23  43  1   
 46  24  44  1   
 47  24  45  1   
 48  24  46  1   
 49  25  47  1   
@<TRIPOS>SUBSTRUCTURE
  1 ****   3 GROUP 4 **** **** 0

# MOE 2024.06 (io_trps.svl 2023.06)
