@<TRIPOS>MOLECULE
NONAME
53 55 1 0 0 
SMALL
USER_CHARGES


@<TRIPOS>ATOM
  1 O        1.2360     0.0460     2.1460 O.3   1 <1>  -0.5600 
  2 C        1.5790     0.8770     1.0840 C.3   1 <1>   0.2000 
  3 C        0.9480    -1.3030     1.8520 C.3   1 <1>   0.2640 
  4 C        2.9450     0.4800     0.5130 C.3   1 <1>  -0.1600 
  5 C        1.6170     2.2990     1.6350 C.3   1 <1>  -0.1600 
  6 C       -0.1040    -1.4600     0.7530 C.ar  1 <1>   0.1660 
  7 C        3.3880     1.4840    -0.5430 C.3   1 <1>   0.3430 
  8 C        2.0870     3.2780     0.5670 C.3   1 <1>   0.3430 
  9 N        0.3390    -1.6080    -0.4920 N.ar  1 <1>  -0.6200 
 10 C       -1.4460    -1.4390     1.1000 C.ar  1 <1>  -0.1500 
 11 N        3.4220     2.8530     0.0450 N.4   1 <1>  -0.9590 
 12 C       -0.5970    -1.7610    -1.4170 C.ar  1 <1>   0.1600 
 13 C       -2.4070    -1.5890     0.1230 C.ar  1 <1>  -0.1500 
 14 C        3.9640     3.8390    -0.9190 C.3   1 <1>   0.5230 
 15 C       -1.9590    -1.7570    -1.1680 C.ar  1 <1>  -0.1500 
 16 C        4.1990     5.1240    -0.1700 C.2   1 <1>  -0.3320 
 17 N        5.2370     5.3910     0.6580 N.pl3 1 <1>   0.0480 
 18 C        3.4290     6.2360    -0.1930 C.2   1 <1>   0.0770 
 19 C        5.0020     6.6490     1.0940 C.2   1 <1>   0.0360 
 20 C        6.4170     4.5670     1.0190 C.3   1 <1>   0.0960 
 21 N        3.9280     7.1820     0.6130 N.2   1 <1>  -0.5650 
 22 C        7.4360     4.4720    -0.1330 C.3   1 <1>  -0.0800 
 23 C        8.5900     3.5450     0.2690 C.3   1 <1>  -0.2400 
 24 C        7.9980     5.8480    -0.5190 C.3   1 <1>  -0.2400 
 25 H        0.8150     0.8220     0.3270 H     1 <1>   0.0800 
 26 H        0.5920    -1.7550     2.7590 H     1 <1>   0.0800 
 27 H        1.8580    -1.8020     1.5710 H     1 <1>   0.0800 
 28 H        2.8780    -0.4840     0.0410 H     1 <1>   0.0800 
 29 H        3.6770     0.4260     1.2990 H     1 <1>   0.0800 
 30 H        2.2710     2.3510     2.4870 H     1 <1>   0.0800 
 31 H        0.6280     2.5780     1.9550 H     1 <1>   0.0800 
 32 H        2.6970     1.4570    -1.3710 H     1 <1>   0.0800 
 33 H        4.3650     1.2100    -0.9070 H     1 <1>   0.0800 
 34 H        2.1510     4.2660     0.9970 H     1 <1>   0.0800 
 35 H        1.3690     3.3060    -0.2380 H     1 <1>   0.0800 
 36 H       -1.7390    -1.3070     2.1260 H     1 <1>   0.1500 
 37 H        4.0540     2.8480     0.8520 H     1 <1>   0.4500 
 38 H       -0.2630    -1.8980    -2.4320 H     1 <1>   0.1500 
 39 H       -3.4580    -1.5780     0.3590 H     1 <1>   0.1500 
 40 H        3.2580     4.0020    -1.7170 H     1 <1>   0.0800 
 41 H        4.8900     3.4880    -1.3450 H     1 <1>   0.0800 
 42 H       -2.6560    -1.8860    -1.9760 H     1 <1>   0.1500 
 43 H        2.5230     6.4200    -0.7480 H     1 <1>   0.1500 
 44 H        5.6640     7.1510     1.7790 H     1 <1>   0.1500 
 45 H        6.0820     3.5850     1.2970 H     1 <1>   0.0800 
 46 H        6.8910     5.0080     1.8790 H     1 <1>   0.0800 
 47 H        6.9580     4.0430    -0.9960 H     1 <1>   0.0800 
 48 H        9.1150     3.9380     1.1240 H     1 <1>   0.0800 
 49 H        9.2920     3.4500    -0.5410 H     1 <1>   0.0800 
 50 H        8.2270     2.5620     0.5130 H     1 <1>   0.0800 
 51 H        8.4730     6.3190     0.3240 H     1 <1>   0.0800 
 52 H        7.2190     6.4970    -0.8790 H     1 <1>   0.0800 
 53 H        8.7280     5.7470    -1.3040 H     1 <1>   0.0800 
@<TRIPOS>BOND
  1   1   2  1   
  2   1   3  1   
  3   2   4  1   
  4   2   5  1   
  5   2  25  1   
  6   3   6  1   
  7   3  26  1   
  8   3  27  1   
  9   4   7  1   
 10   4  28  1   
 11   4  29  1   
 12   5   8  1   
 13   5  30  1   
 14   5  31  1   
 15   6   9  ar  
 16   6  10  ar  
 17   7  11  1   
 18   7  32  1   
 19   7  33  1   
 20   8  11  1   
 21   8  34  1   
 22   8  35  1   
 23   9  12  ar  
 24  10  13  ar  
 25  10  36  1   
 26  11  14  1   
 27  11  37  1   
 28  12  15  ar  
 29  12  38  1   
 30  13  15  ar  
 31  13  39  1   
 32  14  16  1   
 33  14  40  1   
 34  14  41  1   
 35  15  42  1   
 36  16  17  1   
 37  16  18  2   
 38  17  19  1   
 39  17  20  1   
 40  18  21  1   
 41  18  43  1   
 42  19  21  2   
 43  19  44  1   
 44  20  22  1   
 45  20  45  1   
 46  20  46  1   
 47  22  23  1   
 48  22  24  1   
 49  22  47  1   
 50  23  48  1   
 51  23  49  1   
 52  23  50  1   
 53  24  51  1   
 54  24  52  1   
 55  24  53  1   
@<TRIPOS>SUBSTRUCTURE
  1 ****  11 GROUP 4 **** **** 0

# MOE 2024.06 (io_trps.svl 2023.06)
