@<TRIPOS>MOLECULE
NONAME
65 68 1 0 0 
SMALL
USER_CHARGES


@<TRIPOS>ATOM
  1 O        0.3110    -2.9230     1.1040 O.3   1 <1>  -0.3630 
  2 C       -0.9790    -2.6070     0.7980 C.ar  1 <1>   0.0820 
  3 C        0.9400    -2.3290     2.2240 C.3   1 <1>   0.0400 
  4 C       -1.4910    -3.0820    -0.4100 C.ar  1 <1>  -0.1440 
  5 C       -1.7920    -1.8460     1.6380 C.ar  1 <1>  -0.1500 
  6 C       -2.7970    -2.7960    -0.7830 C.ar  1 <1>  -0.1500 
  7 C       -0.6190    -3.9170    -1.3150 C.3   1 <1>   0.4870 
  8 C       -3.0910    -1.5770     1.2540 C.ar  1 <1>  -0.1440 
  9 C       -3.5860    -2.0430     0.0640 C.ar  1 <1>  -0.1440 
 10 N       -0.2870    -5.1730    -0.5880 N.4   1 <1>  -0.9590 
 11 C       -4.1290    -0.7780     2.0050 C.3   1 <1>  -0.0170 
 12 C       -5.0200    -1.6150    -0.1390 C.3   1 <1>  -0.0170 
 13 C        0.9180    -5.9040    -1.1160 C.3   1 <1>   0.4230 
 14 C       -1.5170    -6.0270    -0.4260 C.3   1 <1>   0.3430 
 15 C       -5.4310    -1.0820     1.2440 C.3   1 <1>  -0.1600 
 16 C        1.0520    -7.2800    -0.4020 C.3   1 <1>   0.0000 
 17 C        2.2540    -5.0890    -1.1270 C.3   1 <1>   0.3430 
 18 C       -1.4060    -7.3480    -1.2060 C.3   1 <1>  -0.1600 
 19 C        2.4060    -7.9130    -0.8180 C.3   1 <1>  -0.1600 
 20 C       -0.1150    -8.1580    -0.9260 C.3   1 <1>  -0.1600 
 21 C        0.9350    -7.2400     1.1590 C.3   1 <1>   0.1200 
 22 N        3.3290    -5.6440    -0.2320 N.4   1 <1>  -0.9590 
 23 C        3.6580    -7.0760    -0.4980 C.3   1 <1>   0.3430 
 24 O        1.4510    -6.0730     1.7160 O.3   1 <1>  -0.6800 
 25 C        4.5630    -4.8090    -0.1830 C.3   1 <1>   0.3430 
 26 C        4.2950    -3.5170     0.5900 C.3   1 <1>  -0.1600 
 27 C        5.5710    -2.6770     0.7100 C.3   1 <1>  -0.2400 
 28 H        1.9630    -2.6530     2.2580 H     1 <1>   0.0800 
 29 H        0.4320    -2.6410     3.1210 H     1 <1>   0.0800 
 30 H        0.9020    -1.2580     2.1210 H     1 <1>   0.0800 
 31 H       -1.4480    -1.4570     2.5780 H     1 <1>   0.1500 
 32 H       -3.2130    -3.1420    -1.7140 H     1 <1>   0.1500 
 33 H        0.2730    -3.3560    -1.5370 H     1 <1>   0.0800 
 34 H       -1.1330    -4.1350    -2.2370 H     1 <1>   0.0800 
 35 H       -0.0430    -4.8410     0.3660 H     1 <1>   0.4500 
 36 H       -4.1960    -1.0790     3.0360 H     1 <1>   0.0800 
 37 H       -3.8900     0.2690     1.9440 H     1 <1>   0.0800 
 38 H       -5.0610    -0.8300    -0.8730 H     1 <1>   0.0800 
 39 H       -5.6440    -2.4360    -0.4450 H     1 <1>   0.0800 
 40 H        0.7150    -6.1220    -2.1510 H     1 <1>   0.0800 
 41 H       -1.6520    -6.2530     0.6190 H     1 <1>   0.0800 
 42 H       -2.3950    -5.4890    -0.7490 H     1 <1>   0.0800 
 43 H       -5.9670    -1.8540     1.7690 H     1 <1>   0.0800 
 44 H       -6.0600    -0.2120     1.1660 H     1 <1>   0.0800 
 45 H        2.0400    -4.0740    -0.8400 H     1 <1>   0.0800 
 46 H        2.6300    -5.0740    -2.1370 H     1 <1>   0.0800 
 47 H       -2.2630    -7.9600    -0.9800 H     1 <1>   0.0800 
 48 H       -1.4650    -7.1220    -2.2570 H     1 <1>   0.0800 
 49 H        2.4070    -8.0850    -1.8810 H     1 <1>   0.0800 
 50 H        2.5180    -8.8820    -0.3620 H     1 <1>   0.0800 
 51 H        0.1620    -8.6500    -1.8450 H     1 <1>   0.0800 
 52 H       -0.3290    -8.9460    -0.2210 H     1 <1>   0.0800 
 53 H        1.4490    -8.0780     1.6000 H     1 <1>   0.0800 
 54 H       -0.0950    -7.3010     1.4690 H     1 <1>   0.0800 
 55 H        2.9130    -5.6380     0.7230 H     1 <1>   0.4500 
 56 H        4.3500    -7.1500    -1.3230 H     1 <1>   0.0800 
 57 H        4.1450    -7.4890     0.3720 H     1 <1>   0.0800 
 58 H        1.3130    -6.0830     2.6930 H     1 <1>   0.4000 
 59 H        5.3470    -5.3520     0.3220 H     1 <1>   0.0800 
 60 H        4.9020    -4.5810    -1.1800 H     1 <1>   0.0800 
 61 H        3.5480    -2.9240     0.0940 H     1 <1>   0.0800 
 62 H        3.9510    -3.7570     1.5810 H     1 <1>   0.0800 
 63 H        5.9420    -2.3990    -0.2620 H     1 <1>   0.0800 
 64 H        6.3410    -3.2200     1.2310 H     1 <1>   0.0800 
 65 H        5.3680    -1.7740     1.2610 H     1 <1>   0.0800 
@<TRIPOS>BOND
  1   1   2  1   
  2   1   3  1   
  3   2   4  ar  
  4   2   5  ar  
  5   3  28  1   
  6   3  29  1   
  7   3  30  1   
  8   4   6  ar  
  9   4   7  1   
 10   5   8  ar  
 11   5  31  1   
 12   6   9  ar  
 13   6  32  1   
 14   7  10  1   
 15   7  33  1   
 16   7  34  1   
 17   8   9  ar  
 18   8  11  1   
 19   9  12  1   
 20  10  13  1   
 21  10  14  1   
 22  10  35  1   
 23  11  15  1   
 24  11  36  1   
 25  11  37  1   
 26  12  15  1   
 27  12  38  1   
 28  12  39  1   
 29  13  16  1   
 30  13  17  1   
 31  13  40  1   
 32  14  18  1   
 33  14  41  1   
 34  14  42  1   
 35  15  43  1   
 36  15  44  1   
 37  16  19  1   
 38  16  20  1   
 39  16  21  1   
 40  17  22  1   
 41  17  45  1   
 42  17  46  1   
 43  18  20  1   
 44  18  47  1   
 45  18  48  1   
 46  19  23  1   
 47  19  49  1   
 48  19  50  1   
 49  20  51  1   
 50  20  52  1   
 51  21  24  1   
 52  21  53  1   
 53  21  54  1   
 54  22  23  1   
 55  22  25  1   
 56  22  55  1   
 57  23  56  1   
 58  23  57  1   
 59  24  58  1   
 60  25  26  1   
 61  25  59  1   
 62  25  60  1   
 63  26  27  1   
 64  26  61  1   
 65  26  62  1   
 66  27  63  1   
 67  27  64  1   
 68  27  65  1   
@<TRIPOS>SUBSTRUCTURE
  1 ****  10 GROUP 4 **** **** 0

# MOE 2024.06 (io_trps.svl 2023.06)
