@<TRIPOS>MOLECULE
NONAME
41 42 1 0 0 
SMALL
USER_CHARGES


@<TRIPOS>ATOM
  1 S        0.9630     0.7340    -1.0910 S.o2  1 <1>   1.3330 
  2 O        0.4700     1.6230    -2.1190 O.2   1 <1>  -0.6500 
  3 O        0.5610    -0.6540    -1.0930 O.2   1 <1>  -0.6500 
  4 N        0.5270     1.3990     0.4080 N.am  1 <1>  -0.8490 
  5 C        2.7550     0.7890    -1.0870 C.3   1 <1>  -0.0550 
  6 C       -0.8620     1.0900     0.7560 C.3   1 <1>   0.1160 
  7 C        0.7560     2.8460     0.5000 C.3   1 <1>   0.1160 
  8 C        3.4000     0.1280     0.1460 C.3   1 <1>  -0.0800 
  9 C        4.8890     0.3940     0.2420 C.3   1 <1>   0.2890 
 10 C        3.3390    -1.3930     0.1580 C.3   1 <1>   0.1200 
 11 N        5.1290     1.6630     0.9620 N.pl3 1 <1>  -0.8690 
 12 C        5.4150    -0.8280     0.9930 C.3   1 <1>   0.1200 
 13 O        4.4110    -1.8040     0.9490 O.3   1 <1>  -0.5600 
 14 C        5.0450     2.8520     0.3320 C.ar  1 <1>   0.7200 
 15 N        4.3530     3.7600     0.9900 N.ar  1 <1>  -0.6200 
 16 N        5.6110     2.9640    -0.8630 N.ar  1 <1>  -0.6200 
 17 C        4.2390     4.9200     0.3920 C.ar  1 <1>   0.3930 
 18 C        5.4920     4.1390    -1.4330 C.ar  1 <1>   0.1600 
 19 O        3.5210     5.8380     1.0670 O.3   1 <1>  -0.3630 
 20 C        4.8070     5.1690    -0.8430 C.ar  1 <1>  -0.1500 
 21 C        3.4090     7.1810     0.6510 C.3   1 <1>   0.0400 
 22 H        3.1260     0.3240    -1.9790 H     1 <1>   0.0800 
 23 H        3.0530     1.8170    -1.1200 H     1 <1>   0.0800 
 24 H       -1.1010     1.4930     1.7250 H     1 <1>   0.0800 
 25 H       -1.0030     0.0220     0.7910 H     1 <1>   0.0800 
 26 H       -1.5330     1.5040     0.0220 H     1 <1>   0.0800 
 27 H        0.5170     3.1960     1.4900 H     1 <1>   0.0800 
 28 H        0.1450     3.3720    -0.2150 H     1 <1>   0.0800 
 29 H        1.7890     3.0750     0.3090 H     1 <1>   0.0800 
 30 H        2.9220     0.4760     1.0460 H     1 <1>   0.0800 
 31 H        5.3430     0.4190    -0.7340 H     1 <1>   0.0800 
 32 H        3.4810    -1.8050    -0.8280 H     1 <1>   0.0800 
 33 H        2.4220    -1.7660     0.5820 H     1 <1>   0.0800 
 34 H        4.6760     1.7120     1.8740 H     1 <1>   0.4000 
 35 H        5.6100    -0.6020     2.0260 H     1 <1>   0.0800 
 36 H        6.2980    -1.2230     0.5240 H     1 <1>   0.0800 
 37 H        5.9520     4.2790    -2.3980 H     1 <1>   0.1500 
 38 H        4.7250     6.1160    -1.3360 H     1 <1>   0.1500 
 39 H        2.8340     7.7110     1.3900 H     1 <1>   0.0800 
 40 H        2.9020     7.2150    -0.2970 H     1 <1>   0.0800 
 41 H        4.3930     7.6100     0.5810 H     1 <1>   0.0800 
@<TRIPOS>BOND
  1   1   2  2   
  2   1   3  2   
  3   1   4  am  
  4   1   5  1   
  5   4   6  1   
  6   4   7  1   
  7   5   8  1   
  8   5  22  1   
  9   5  23  1   
 10   6  24  1   
 11   6  25  1   
 12   6  26  1   
 13   7  27  1   
 14   7  28  1   
 15   7  29  1   
 16   8   9  1   
 17   8  10  1   
 18   8  30  1   
 19   9  11  1   
 20   9  12  1   
 21   9  31  1   
 22  10  13  1   
 23  10  32  1   
 24  10  33  1   
 25  11  14  1   
 26  11  34  1   
 27  12  13  1   
 28  12  35  1   
 29  12  36  1   
 30  14  15  ar  
 31  14  16  ar  
 32  15  17  ar  
 33  16  18  ar  
 34  17  19  1   
 35  17  20  ar  
 36  18  20  ar  
 37  18  37  1   
 38  19  21  1   
 39  20  38  1   
 40  21  39  1   
 41  21  40  1   
 42  21  41  1   
@<TRIPOS>SUBSTRUCTURE
  1 ****   5 GROUP 4 **** **** 0

# MOE 2024.06 (io_trps.svl 2023.06)
