@<TRIPOS>MOLECULE
NONAME
50 52 1 0 0 
SMALL
USER_CHARGES


@<TRIPOS>ATOM
  1 S       -1.2810    -2.4140    -1.8650 S.3   1 <1>  -0.0800 
  2 C       -2.1170    -3.9610    -1.8490 C.2   1 <1>  -0.1400 
  3 C       -2.6210    -1.6480    -2.6960 C.2   1 <1>  -0.1100 
  4 C       -3.3180    -3.8520    -2.4480 C.2   1 <1>  -0.1500 
  5 C       -1.3940    -5.1250    -1.2030 C.3   1 <1>   0.5230 
  6 C       -3.6050    -2.5350    -2.9280 C.2   1 <1>  -0.1500 
  7 N       -1.9670    -5.4110     0.1390 N.4   1 <1>  -0.9590 
  8 C       -2.0410    -4.2200     1.0370 C.3   1 <1>   0.3430 
  9 C       -1.3000    -6.5550     0.8030 C.3   1 <1>   0.3430 
 10 C       -3.3910    -4.1630     1.7740 C.3   1 <1>   0.1100 
 11 C       -2.2280    -7.2840     1.7790 C.3   1 <1>  -0.1600 
 12 N       -3.8740    -5.4620     2.2980 N.3   1 <1>  -0.8100 
 13 C       -2.9110    -6.4220     2.8530 C.3   1 <1>   0.1100 
 14 C       -5.1940    -5.9520     1.7990 C.3   1 <1>   0.1710 
 15 C       -5.1550    -6.6760     0.4470 C.2   1 <1>   0.5690 
 16 O       -4.5990    -6.1330    -0.4840 O.2   1 <1>  -0.5700 
 17 N       -5.6830    -7.9290     0.3580 N.am  1 <1>  -0.4930 
 18 C       -5.5870    -8.8440    -0.7190 C.2   1 <1>   0.0630 
 19 C       -5.8350   -10.1720    -0.6720 C.2   1 <1>  -0.3320 
 20 C       -5.2140    -8.6010    -2.0420 C.2   1 <1>   0.1390 
 21 N       -5.6010   -10.6520    -1.9200 N.pl3 1 <1>   0.3140 
 22 C       -6.2850   -11.0420     0.4940 C.3   1 <1>  -0.0600 
 23 N       -5.2110    -9.6800    -2.7610 N.2   1 <1>  -0.7070 
 24 C       -5.7370   -12.0400    -2.3820 C.3   1 <1>   0.0160 
 25 H       -2.5300    -0.6010    -2.9300 H     1 <1>   0.1500 
 26 H       -4.0350    -4.6470    -2.5800 H     1 <1>   0.1500 
 27 H       -0.3440    -4.8970    -1.1230 H     1 <1>   0.0800 
 28 H       -1.5070    -5.9940    -1.8310 H     1 <1>   0.0800 
 29 H       -4.5360    -2.3200    -3.4250 H     1 <1>   0.1500 
 30 H       -2.9590    -5.6800    -0.0310 H     1 <1>   0.4500 
 31 H       -1.9300    -3.3090     0.4770 H     1 <1>   0.0800 
 32 H       -1.2440    -4.2550     1.7600 H     1 <1>   0.0800 
 33 H       -0.4250    -6.2070     1.3270 H     1 <1>   0.0800 
 34 H       -0.9770    -7.2650     0.0580 H     1 <1>   0.0800 
 35 H       -4.1250    -3.7520     1.1000 H     1 <1>   0.0800 
 36 H       -3.3010    -3.4740     2.5960 H     1 <1>   0.0800 
 37 H       -1.6250    -8.0110     2.2940 H     1 <1>   0.0800 
 38 H       -2.9540    -7.8510     1.2310 H     1 <1>   0.0800 
 39 H       -2.1680    -5.8910     3.4250 H     1 <1>   0.0800 
 40 H       -3.4320    -7.0690     3.5390 H     1 <1>   0.0800 
 41 H       -5.8660    -5.1160     1.7080 H     1 <1>   0.0800 
 42 H       -5.6120    -6.6120     2.5380 H     1 <1>   0.0800 
 43 H       -6.1540    -8.3070     1.1790 H     1 <1>   0.3700 
 44 H       -4.9570    -7.6330    -2.4340 H     1 <1>   0.1500 
 45 H       -6.3950   -10.4580     1.3890 H     1 <1>   0.0800 
 46 H       -5.5600   -11.8150     0.6810 H     1 <1>   0.0800 
 47 H       -7.2320   -11.5000     0.2690 H     1 <1>   0.0800 
 48 H       -5.0770   -12.6680    -1.8140 H     1 <1>   0.0800 
 49 H       -5.4750   -12.0910    -3.4230 H     1 <1>   0.0800 
 50 H       -6.7540   -12.3570    -2.2520 H     1 <1>   0.0800 
@<TRIPOS>BOND
  1   1   2  1   
  2   1   3  1   
  3   2   4  2   
  4   2   5  1   
  5   3   6  2   
  6   3  25  1   
  7   4   6  1   
  8   4  26  1   
  9   5   7  1   
 10   5  27  1   
 11   5  28  1   
 12   6  29  1   
 13   7   8  1   
 14   7   9  1   
 15   7  30  1   
 16   8  10  1   
 17   8  31  1   
 18   8  32  1   
 19   9  11  1   
 20   9  33  1   
 21   9  34  1   
 22  10  12  1   
 23  10  35  1   
 24  10  36  1   
 25  11  13  1   
 26  11  37  1   
 27  11  38  1   
 28  12  13  1   
 29  12  14  1   
 30  13  39  1   
 31  13  40  1   
 32  14  15  1   
 33  14  41  1   
 34  14  42  1   
 35  15  16  2   
 36  15  17  am  
 37  17  18  1   
 38  17  43  1   
 39  18  19  2   
 40  18  20  1   
 41  19  21  1   
 42  19  22  1   
 43  20  23  2   
 44  20  44  1   
 45  21  23  1   
 46  21  24  1   
 47  22  45  1   
 48  22  46  1   
 49  22  47  1   
 50  24  48  1   
 51  24  49  1   
 52  24  50  1   
@<TRIPOS>SUBSTRUCTURE
  1 ****  16 GROUP 4 **** **** 0

# MOE 2024.06 (io_trps.svl 2023.06)
