@<TRIPOS>MOLECULE
NONAME
37 39 1 0 0 
SMALL
USER_CHARGES


@<TRIPOS>ATOM
  1 O       -0.9030     1.4730    -2.3390 O.2   1 <1>  -0.5700 
  2 C       -0.6480     2.2090    -1.4100 C.2   1 <1>   0.6340 
  3 O        0.6160     2.4540    -1.0860 O.3   1 <1>  -0.4300 
  4 C       -1.5440     2.8350    -0.4880 C.ar  1 <1>   0.0860 
  5 C        0.6820     3.2550     0.0740 C.3   1 <1>   0.6440 
  6 C       -2.9340     2.8860    -0.3820 C.ar  1 <1>   0.0820 
  7 C       -0.7690     3.4680     0.4560 C.ar  1 <1>  -0.1440 
  8 N        1.3650     4.5060    -0.2900 N.am  1 <1>  -0.6600 
  9 O       -3.7010     2.2480    -1.2930 O.3   1 <1>  -0.3630 
 10 C       -3.5090     3.6000     0.6800 C.ar  1 <1>   0.0820 
 11 C       -1.3190     4.1490     1.5230 C.ar  1 <1>  -0.1500 
 12 C        0.8990     5.4590    -1.1190 C.2   1 <1>   0.5690 
 13 C        2.6280     4.9100     0.4140 C.3   1 <1>   0.1140 
 14 C       -3.8740     0.8620    -1.1170 C.3   1 <1>   0.0400 
 15 O       -4.8500     3.7300     0.8560 O.3   1 <1>  -0.3630 
 16 C       -2.7000     4.2090     1.6290 C.ar  1 <1>  -0.1500 
 17 O       -0.1070     5.4140    -1.7850 O.2   1 <1>  -0.5700 
 18 C        1.8180     6.6490    -1.1300 C.3   1 <1>  -0.0990 
 19 C        2.7620     4.6360     1.9320 C.2   1 <1>   0.9060 
 20 C        2.7360     6.4110     0.0800 C.3   1 <1>  -0.1600 
 21 C       -5.6260     4.1730    -0.2380 C.3   1 <1>   0.0400 
 22 O        1.8200     4.1360     2.5650 O.co2 1 <1>  -0.9000 
 23 O        3.8340     4.9120     2.4800 O.co2 1 <1>  -0.9000 
 24 H        1.2170     2.7080     0.8310 H     1 <1>   0.0800 
 25 H       -0.6780     4.6240     2.2510 H     1 <1>   0.1500 
 26 H        3.4420     4.3920    -0.0590 H     1 <1>   0.0800 
 27 H       -4.5030     0.4990    -1.9100 H     1 <1>   0.0800 
 28 H       -4.3420     0.6910    -0.1630 H     1 <1>   0.0800 
 29 H       -2.9160     0.3750    -1.1600 H     1 <1>   0.0800 
 30 H       -3.1520     4.7380     2.4490 H     1 <1>   0.1500 
 31 H        1.2610     7.5620    -1.0370 H     1 <1>   0.0800 
 32 H        2.3770     6.6450    -2.0470 H     1 <1>   0.0800 
 33 H        3.7560     6.6960    -0.1060 H     1 <1>   0.0800 
 34 H        2.3740     6.9770     0.9220 H     1 <1>   0.0800 
 35 H       -6.5290     4.6100     0.1470 H     1 <1>   0.0800 
 36 H       -5.8670     3.3310    -0.8600 H     1 <1>   0.0800 
 37 H       -5.0680     4.9060    -0.7940 H     1 <1>   0.0800 
@<TRIPOS>BOND
  1   1   2  2   
  2   2   3  1   
  3   2   4  1   
  4   3   5  1   
  5   4   6  ar  
  6   4   7  ar  
  7   5   7  1   
  8   5   8  1   
  9   5  24  1   
 10   6   9  1   
 11   6  10  ar  
 12   7  11  ar  
 13   8  12  am  
 14   8  13  1   
 15   9  14  1   
 16  10  15  1   
 17  10  16  ar  
 18  11  16  ar  
 19  11  25  1   
 20  12  17  2   
 21  12  18  1   
 22  13  19  1   
 23  13  20  1   
 24  13  26  1   
 25  14  27  1   
 26  14  28  1   
 27  14  29  1   
 28  15  21  1   
 29  16  30  1   
 30  18  20  1   
 31  18  31  1   
 32  18  32  1   
 33  19  22  ar  
 34  19  23  ar  
 35  20  33  1   
 36  20  34  1   
 37  21  35  1   
 38  21  36  1   
 39  21  37  1   
@<TRIPOS>SUBSTRUCTURE
  1 ****   7 GROUP 4 **** **** 0

# MOE 2024.06 (io_trps.svl 2023.06)
