@<TRIPOS>MOLECULE
NONAME
37 39 1 0 0 
SMALL
USER_CHARGES


@<TRIPOS>ATOM
  1 O        0.4160     0.5980     0.7010 O.3   1 <1>  -0.0190 
  2 N        1.3320    -0.3220     0.6020 N.2   1 <1>  -0.4100 
  3 C        0.7660     1.7040     0.1010 C.2   1 <1>  -0.0400 
  4 C        2.2880     0.1990    -0.0780 C.2   1 <1>   0.1080 
  5 C        1.9830     1.5100    -0.4340 C.2   1 <1>  -0.1500 
  6 C       -0.1930     2.8820     0.1230 C.3   1 <1>   0.0200 
  7 C        3.5660    -0.5250    -0.4380 C.3   1 <1>  -0.0590 
  8 C        0.4590     4.1920    -0.3580 C.3   1 <1>  -0.0800 
  9 C       -0.4940     5.3830    -0.4760 C.3   1 <1>   0.2000 
 10 C        1.5760     4.6990     0.5630 C.3   1 <1>   0.2090 
 11 O       -1.2780     5.4600     0.6670 O.3   1 <1>  -0.6800 
 12 C        0.4550     6.5780    -0.4810 C.3   1 <1>   0.2090 
 13 N        1.5580     6.1830     0.4470 N.pl3 1 <1>  -0.8380 
 14 C        2.7510     6.8850     0.4690 C.ar  1 <1>   0.4100 
 15 N        2.9540     7.7690    -0.4970 N.ar  1 <1>  -0.6200 
 16 C        3.6730     6.6470     1.4850 C.ar  1 <1>  -0.1500 
 17 C        4.1040     8.4420    -0.4730 C.ar  1 <1>   0.3830 
 18 C        4.8620     7.3320     1.5170 C.ar  1 <1>  -0.1500 
 19 C        4.3560     9.4090    -1.5100 C.1   1 <1>   0.4840 
 20 C        5.0700     8.2480     0.5070 C.ar  1 <1>  -0.1500 
 21 N        4.6020    10.1830    -2.3150 N.1   1 <1>  -0.5570 
 22 H        2.6080     2.1680    -1.0070 H     1 <1>   0.1500 
 23 H       -1.0360     2.6480    -0.5030 H     1 <1>   0.0800 
 24 H       -0.5610     3.0030     1.1270 H     1 <1>   0.0800 
 25 H        3.7410    -0.4560    -1.4960 H     1 <1>   0.0800 
 26 H        3.4890    -1.5620    -0.1650 H     1 <1>   0.0800 
 27 H        4.3930    -0.0870     0.0890 H     1 <1>   0.0800 
 28 H        0.8860     4.0260    -1.3310 H     1 <1>   0.0800 
 29 H       -1.1370     5.3420    -1.3380 H     1 <1>   0.0800 
 30 H        2.5330     4.2990     0.2710 H     1 <1>   0.0800 
 31 H        1.3750     4.4280     1.5860 H     1 <1>   0.0800 
 32 H       -0.7070     5.7800     1.3970 H     1 <1>   0.4000 
 33 H       -0.0300     7.4820    -0.1550 H     1 <1>   0.0800 
 34 H        0.8470     6.7210    -1.4740 H     1 <1>   0.0800 
 35 H        3.4390     5.9280     2.2470 H     1 <1>   0.1500 
 36 H        5.5920     7.1670     2.2910 H     1 <1>   0.1500 
 37 H        5.9840     8.8160     0.4810 H     1 <1>   0.1500 
@<TRIPOS>BOND
  1   1   2  1   
  2   1   3  1   
  3   2   4  2   
  4   3   5  2   
  5   3   6  1   
  6   4   5  1   
  7   4   7  1   
  8   5  22  1   
  9   6   8  1   
 10   6  23  1   
 11   6  24  1   
 12   7  25  1   
 13   7  26  1   
 14   7  27  1   
 15   8   9  1   
 16   8  10  1   
 17   8  28  1   
 18   9  11  1   
 19   9  12  1   
 20   9  29  1   
 21  10  13  1   
 22  10  30  1   
 23  10  31  1   
 24  11  32  1   
 25  12  13  1   
 26  12  33  1   
 27  12  34  1   
 28  13  14  1   
 29  14  15  ar  
 30  14  16  ar  
 31  15  17  ar  
 32  16  18  ar  
 33  16  35  1   
 34  17  19  1   
 35  17  20  ar  
 36  18  20  ar  
 37  18  36  1   
 38  19  21  3   
 39  20  37  1   
@<TRIPOS>SUBSTRUCTURE
  1 ****  10 GROUP 4 **** **** 0

# MOE 2024.06 (io_trps.svl 2023.06)
