@<TRIPOS>MOLECULE
NONAME
50 53 1 0 0 
SMALL
USER_CHARGES


@<TRIPOS>ATOM
  1 O        0.3080     0.1680     1.2190 O.2   1 <1>  -0.5700 
  2 C        1.3310    -0.3640     0.8530 C.2   1 <1>   0.5690 
  3 N        2.2580     0.3130     0.0900 N.am  1 <1>  -0.6600 
  4 C        1.5420    -1.7990     1.3160 C.3   1 <1>   0.0810 
  5 C        3.5170    -0.2900    -0.4460 C.3   1 <1>   0.1400 
  6 C        1.9630     1.7030    -0.3640 C.3   1 <1>   0.1400 
  7 C        1.0150    -2.8060     0.3110 C.2   1 <1>  -0.0400 
  8 C        4.7190     0.0220     0.4620 C.3   1 <1>   0.1100 
  9 C        3.2010     2.6070    -0.4320 C.3   1 <1>  -0.1600 
 10 O        1.6690    -3.0420    -0.7950 O.3   1 <1>  -0.0190 
 11 C       -0.0770    -3.5840     0.3150 C.2   1 <1>  -0.1500 
 12 N        5.2130     1.4170     0.3620 N.3   1 <1>  -0.8100 
 13 C        4.1830     2.4120     0.7270 C.3   1 <1>   0.1100 
 14 N        1.0760    -3.9360    -1.5300 N.2   1 <1>  -0.4100 
 15 C        0.0180    -4.2800    -0.8870 C.2   1 <1>   0.1080 
 16 C        6.4370     1.5930     1.1690 C.3   1 <1>   0.2780 
 17 C       -0.9840    -5.3020    -1.3780 C.3   1 <1>  -0.0590 
 18 C        7.3070     2.7050     0.5870 C.2   1 <1>   0.1820 
 19 N        8.4020     3.2490     1.2150 N.pl3 1 <1>  -0.7000 
 20 C        7.1740     3.3240    -0.6030 C.2   1 <1>   0.2000 
 21 C        8.9230     4.1900     0.4080 C.cat 1 <1>   0.7910 
 22 N        8.1820     4.2590    -0.7230 N.pl3 1 <1>  -0.6290 
 23 C       10.0360     5.0290     0.5820 C.2   1 <1>  -0.1410 
 24 C        8.5060     5.1490    -1.7220 C.2   1 <1>   0.2290 
 25 C       10.3720     5.9200    -0.4020 C.2   1 <1>  -0.1500 
 26 C        9.5850     5.9730    -1.5720 C.2   1 <1>  -0.1500 
 27 H        1.0090    -1.9290     2.2390 H     1 <1>   0.0800 
 28 H        2.5780    -1.9850     1.5180 H     1 <1>   0.0800 
 29 H        3.7070     0.0680    -1.4430 H     1 <1>   0.0800 
 30 H        3.4130    -1.3550    -0.5170 H     1 <1>   0.0800 
 31 H        1.2600     2.1540     0.3160 H     1 <1>   0.0800 
 32 H        1.4920     1.6610    -1.3310 H     1 <1>   0.0800 
 33 H        5.5150    -0.6400     0.1680 H     1 <1>   0.0800 
 34 H        4.4610    -0.2080     1.4820 H     1 <1>   0.0800 
 35 H        2.8470     3.6220    -0.4120 H     1 <1>   0.0800 
 36 H        3.7050     2.4740    -1.3720 H     1 <1>   0.0800 
 37 H       -0.8580    -3.6720     1.0480 H     1 <1>   0.1500 
 38 H        3.6620     2.1180     1.6250 H     1 <1>   0.0800 
 39 H        4.6530     3.3620     0.9170 H     1 <1>   0.0800 
 40 H        7.0160     0.6860     1.1620 H     1 <1>   0.0800 
 41 H        6.1740     1.8160     2.1900 H     1 <1>   0.0800 
 42 H       -1.0450    -6.1170    -0.6820 H     1 <1>   0.0800 
 43 H       -0.6790    -5.6830    -2.3360 H     1 <1>   0.0800 
 44 H       -1.9510    -4.8450    -1.4780 H     1 <1>   0.0800 
 45 H        8.7810     3.0010     2.1310 H     1 <1>   0.4500 
 46 H        6.4290     3.1540    -1.3650 H     1 <1>   0.1500 
 47 H       10.6050     4.9530     1.4890 H     1 <1>   0.1500 
 48 H        7.8900     5.1690    -2.6080 H     1 <1>   0.1500 
 49 H       11.2190     6.5810    -0.3060 H     1 <1>   0.1500 
 50 H        9.8530     6.6750    -2.3440 H     1 <1>   0.1500 
@<TRIPOS>BOND
  1   1   2  2   
  2   2   3  am  
  3   2   4  1   
  4   3   5  1   
  5   3   6  1   
  6   4   7  1   
  7   4  27  1   
  8   4  28  1   
  9   5   8  1   
 10   5  29  1   
 11   5  30  1   
 12   6   9  1   
 13   6  31  1   
 14   6  32  1   
 15   7  10  1   
 16   7  11  2   
 17   8  12  1   
 18   8  33  1   
 19   8  34  1   
 20   9  13  1   
 21   9  35  1   
 22   9  36  1   
 23  10  14  1   
 24  11  15  1   
 25  11  37  1   
 26  12  13  1   
 27  12  16  1   
 28  13  38  1   
 29  13  39  1   
 30  14  15  2   
 31  15  17  1   
 32  16  18  1   
 33  16  40  1   
 34  16  41  1   
 35  17  42  1   
 36  17  43  1   
 37  17  44  1   
 38  18  19  1   
 39  18  20  2   
 40  19  21  ar  
 41  19  45  1   
 42  20  22  1   
 43  20  46  1   
 44  21  22  ar  
 45  21  23  1   
 46  22  24  1   
 47  23  25  2   
 48  23  47  1   
 49  24  26  2   
 50  24  48  1   
 51  25  26  1   
 52  25  49  1   
 53  26  50  1   
@<TRIPOS>SUBSTRUCTURE
  1 ****  12 GROUP 4 **** **** 0

# MOE 2024.06 (io_trps.svl 2023.06)
