@<TRIPOS>MOLECULE
NONAME
51 54 1 0 0 
SMALL
USER_CHARGES


@<TRIPOS>ATOM
  1 O       -0.4930     0.1170     0.4000 O.2   1 <1>  -0.5700 
  2 C       -1.4800     0.6450    -0.0560 C.2   1 <1>   0.5690 
  3 N       -2.5580    -0.1050    -0.4630 N.am  1 <1>  -0.6600 
  4 C       -1.5170     2.1680    -0.1730 C.3   1 <1>   0.0820 
  5 C       -3.8770     0.4230    -0.9370 C.3   1 <1>   0.1400 
  6 C       -2.5330    -1.6020    -0.3970 C.3   1 <1>   0.1400 
  7 C       -0.1960     2.8890     0.0810 C.2   1 <1>  -0.1810 
  8 C       -5.0360    -0.1580    -0.1030 C.3   1 <1>   0.1900 
  9 C       -3.7270    -2.1420     0.4060 C.3   1 <1>   0.1100 
 10 C        0.1400     3.7650     1.0430 C.2   1 <1>  -0.0400 
 11 C        0.9710     2.7930    -0.6800 C.2   1 <1>   0.1080 
 12 N       -5.0130    -1.6400    -0.1300 N.3   1 <1>  -0.8100 
 13 C       -6.3900     0.3690    -0.6200 C.3   1 <1>   0.1200 
 14 O        1.3740     4.1380     0.8360 O.3   1 <1>  -0.0190 
 15 C       -0.6080     4.3430     2.2270 C.3   1 <1>  -0.0600 
 16 N        1.8890     3.5580    -0.2080 N.2   1 <1>  -0.4100 
 17 C        1.1690     1.9120    -1.8950 C.3   1 <1>  -0.0590 
 18 C       -6.1720    -2.1800     0.6220 C.3   1 <1>   0.3330 
 19 O       -7.4380    -0.1530     0.1430 O.3   1 <1>  -0.5600 
 20 C       -6.2520    -3.7010     0.4930 C.ar  1 <1>  -0.1440 
 21 C       -7.4920    -1.5550     0.1200 C.3   1 <1>   0.1200 
 22 C       -6.4520    -4.4850     1.6200 C.ar  1 <1>  -0.1500 
 23 C       -6.1330    -4.3180    -0.7450 C.ar  1 <1>  -0.1500 
 24 C       -6.5310    -5.8630     1.5110 C.ar  1 <1>  -0.1500 
 25 C       -6.2120    -5.6950    -0.8560 C.ar  1 <1>  -0.1500 
 26 C       -6.4120    -6.4690     0.2730 C.ar  1 <1>  -0.1500 
 27 H       -1.8400     2.4240    -1.1640 H     1 <1>   0.0800 
 28 H       -2.2510     2.5310     0.5190 H     1 <1>   0.0800 
 29 H       -3.9100     1.4940    -0.8750 H     1 <1>   0.0800 
 30 H       -4.0140     0.1440    -1.9670 H     1 <1>   0.0800 
 31 H       -2.5740    -1.9990    -1.3960 H     1 <1>   0.0800 
 32 H       -1.6210    -1.9500     0.0560 H     1 <1>   0.0800 
 33 H       -4.9190     0.1830     0.9120 H     1 <1>   0.0800 
 34 H       -3.6180    -1.8540     1.4380 H     1 <1>   0.0800 
 35 H       -3.7070    -3.2170     0.3580 H     1 <1>   0.0800 
 36 H       -6.5400     0.0890    -1.6480 H     1 <1>   0.0800 
 37 H       -6.4330     1.4400    -0.5390 H     1 <1>   0.0800 
 38 H       -1.6000     3.9380     2.2890 H     1 <1>   0.0800 
 39 H       -0.6690     5.4110     2.1290 H     1 <1>   0.0800 
 40 H       -0.0800     4.1060     3.1330 H     1 <1>   0.0800 
 41 H        0.3580     2.0440    -2.5860 H     1 <1>   0.0800 
 42 H        1.2150     0.8830    -1.5890 H     1 <1>   0.0800 
 43 H        2.0900     2.1680    -2.3850 H     1 <1>   0.0800 
 44 H       -6.0630    -1.9240     1.6620 H     1 <1>   0.0800 
 45 H       -8.3060    -1.8640     0.7490 H     1 <1>   0.0800 
 46 H       -7.6960    -1.8740    -0.8870 H     1 <1>   0.0800 
 47 H       -6.5470    -4.0290     2.5900 H     1 <1>   0.1500 
 48 H       -5.9710    -3.7190    -1.6250 H     1 <1>   0.1500 
 49 H       -6.6860    -6.4640     2.3900 H     1 <1>   0.1500 
 50 H       -6.1180    -6.1620    -1.8200 H     1 <1>   0.1500 
 51 H       -6.4740    -7.5390     0.1880 H     1 <1>   0.1500 
@<TRIPOS>BOND
  1   1   2  2   
  2   2   3  am  
  3   2   4  1   
  4   3   5  1   
  5   3   6  1   
  6   4   7  1   
  7   4  27  1   
  8   4  28  1   
  9   5   8  1   
 10   5  29  1   
 11   5  30  1   
 12   6   9  1   
 13   6  31  1   
 14   6  32  1   
 15   7  10  2   
 16   7  11  1   
 17   8  12  1   
 18   8  13  1   
 19   8  33  1   
 20   9  12  1   
 21   9  34  1   
 22   9  35  1   
 23  10  14  1   
 24  10  15  1   
 25  11  16  2   
 26  11  17  1   
 27  12  18  1   
 28  13  19  1   
 29  13  36  1   
 30  13  37  1   
 31  14  16  1   
 32  15  38  1   
 33  15  39  1   
 34  15  40  1   
 35  17  41  1   
 36  17  42  1   
 37  17  43  1   
 38  18  20  1   
 39  18  21  1   
 40  18  44  1   
 41  19  21  1   
 42  20  22  ar  
 43  20  23  ar  
 44  21  45  1   
 45  21  46  1   
 46  22  24  ar  
 47  22  47  1   
 48  23  25  ar  
 49  23  48  1   
 50  24  26  ar  
 51  24  49  1   
 52  25  26  ar  
 53  25  50  1   
 54  26  51  1   
@<TRIPOS>SUBSTRUCTURE
  1 ****   3 GROUP 4 **** **** 0

# MOE 2024.06 (io_trps.svl 2023.06)
