@<TRIPOS>MOLECULE
NONAME
55 58 1 0 0 
SMALL
USER_CHARGES


@<TRIPOS>ATOM
  1 O        0.4550    -0.0710    -1.3880 O.2   1 <1>  -0.5700 
  2 C        0.2530    -0.9140    -0.5370 C.2   1 <1>   0.5440 
  3 N       -0.8670    -0.7480     0.1990 N.am  1 <1>  -0.8000 
  4 C        1.1710    -2.0110    -0.3170 C.ar  1 <1>   0.0860 
  5 C        0.7770    -3.2570     0.2170 C.ar  1 <1>   0.4100 
  6 C        2.5150    -1.8450    -0.6200 C.ar  1 <1>  -0.1500 
  7 N        1.6370    -4.2350     0.4930 N.ar  1 <1>  -0.6200 
  8 N       -0.5520    -3.5750     0.4700 N.pl3 1 <1>  -0.8380 
  9 C        3.4000    -2.8680    -0.3600 C.ar  1 <1>  -0.1430 
 10 C        2.9060    -4.0370     0.2070 C.ar  1 <1>   0.1670 
 11 C       -0.9320    -4.3260     1.7030 C.3   1 <1>   0.2090 
 12 C       -1.4650    -3.7850    -0.6880 C.3   1 <1>   0.2090 
 13 C        4.8740    -2.6810    -0.6950 C.3   1 <1>  -0.0970 
 14 C        3.8260    -5.1990     0.5340 C.3   1 <1>  -0.0970 
 15 C       -1.0940    -5.8190     1.4080 C.3   1 <1>  -0.1600 
 16 C       -1.5840    -5.2760    -0.9980 C.3   1 <1>  -0.1600 
 17 C       -2.0440    -6.0800     0.2300 C.3   1 <1>   0.4240 
 18 O       -3.2720    -5.5210     0.6530 O.3   1 <1>  -0.5600 
 19 C       -2.1840    -7.6020    -0.0680 C.ar  1 <1>  -0.1430 
 20 C       -4.4330    -5.9560     0.0250 C.3   1 <1>   0.1200 
 21 C       -1.0910    -8.3940    -0.4470 C.ar  1 <1>   0.0830 
 22 C       -3.4310    -8.2190     0.0360 C.ar  1 <1>  -0.1430 
 23 C       -4.6560    -7.4100     0.4080 C.3   1 <1>  -0.0170 
 24 O        0.1270    -7.8080    -0.5850 O.3   1 <1>  -0.3620 
 25 C       -1.2570    -9.7560    -0.6860 C.ar  1 <1>  -0.1500 
 26 C       -3.5840    -9.5750    -0.2010 C.ar  1 <1>  -0.1500 
 27 C        1.3100    -8.5340    -0.8250 C.3   1 <1>   0.0400 
 28 C       -2.4980   -10.3450    -0.5600 C.ar  1 <1>  -0.1500 
 29 H       -1.5260    -0.0080    -0.0330 H     1 <1>   0.3700 
 30 H       -1.2040    -1.5450     0.7540 H     1 <1>   0.3700 
 31 H        2.8490    -0.9160    -1.0490 H     1 <1>   0.1500 
 32 H       -1.8570    -3.9290     2.0830 H     1 <1>   0.0800 
 33 H       -0.1760    -4.1890     2.4580 H     1 <1>   0.0800 
 34 H       -1.0840    -3.2700    -1.5540 H     1 <1>   0.0800 
 35 H       -2.4330    -3.3770    -0.4550 H     1 <1>   0.0800 
 36 H        5.0350    -1.7550    -1.2170 H     1 <1>   0.0800 
 37 H        5.2170    -3.4830    -1.3230 H     1 <1>   0.0800 
 38 H        5.4580    -2.6660     0.2080 H     1 <1>   0.0800 
 39 H        3.3020    -5.9370     1.1160 H     1 <1>   0.0800 
 40 H        4.6700    -4.8580     1.1040 H     1 <1>   0.0800 
 41 H        4.1660    -5.6580    -0.3740 H     1 <1>   0.0800 
 42 H       -1.4650    -6.3250     2.2790 H     1 <1>   0.0800 
 43 H       -0.1200    -6.2130     1.2050 H     1 <1>   0.0800 
 44 H       -0.6180    -5.6120    -1.3210 H     1 <1>   0.0800 
 45 H       -2.2590    -5.4320    -1.8160 H     1 <1>   0.0800 
 46 H       -4.3290    -5.8430    -1.0390 H     1 <1>   0.0800 
 47 H       -5.2460    -5.3440     0.3720 H     1 <1>   0.0800 
 48 H       -5.5220    -7.7820    -0.1100 H     1 <1>   0.0800 
 49 H       -4.8350    -7.4820     1.4660 H     1 <1>   0.0800 
 50 H       -0.4330   -10.3780    -0.9750 H     1 <1>   0.1500 
 51 H       -4.5510   -10.0370    -0.1070 H     1 <1>   0.1500 
 52 H        2.1290    -7.8380    -0.8240 H     1 <1>   0.0800 
 53 H        1.2380    -9.0120    -1.7860 H     1 <1>   0.0800 
 54 H        1.4420    -9.2570    -0.0390 H     1 <1>   0.0800 
 55 H       -2.6200   -11.3980    -0.7430 H     1 <1>   0.1500 
@<TRIPOS>BOND
  1   1   2  2   
  2   2   3  am  
  3   2   4  1   
  4   3  29  1   
  5   3  30  1   
  6   4   5  ar  
  7   4   6  ar  
  8   5   7  ar  
  9   5   8  1   
 10   6   9  ar  
 11   6  31  1   
 12   7  10  ar  
 13   8  11  1   
 14   8  12  1   
 15   9  10  ar  
 16   9  13  1   
 17  10  14  1   
 18  11  15  1   
 19  11  32  1   
 20  11  33  1   
 21  12  16  1   
 22  12  34  1   
 23  12  35  1   
 24  13  36  1   
 25  13  37  1   
 26  13  38  1   
 27  14  39  1   
 28  14  40  1   
 29  14  41  1   
 30  15  17  1   
 31  15  42  1   
 32  15  43  1   
 33  16  17  1   
 34  16  44  1   
 35  16  45  1   
 36  17  18  1   
 37  17  19  1   
 38  18  20  1   
 39  19  21  ar  
 40  19  22  ar  
 41  20  23  1   
 42  20  46  1   
 43  20  47  1   
 44  21  24  1   
 45  21  25  ar  
 46  22  23  1   
 47  22  26  ar  
 48  23  48  1   
 49  23  49  1   
 50  24  27  1   
 51  25  28  ar  
 52  25  50  1   
 53  26  28  ar  
 54  26  51  1   
 55  27  52  1   
 56  27  53  1   
 57  27  54  1   
 58  28  55  1   
@<TRIPOS>SUBSTRUCTURE
  1 ****  16 GROUP 4 **** **** 0

# MOE 2024.06 (io_trps.svl 2023.06)
