@<TRIPOS>MOLECULE
NONAME
53 56 1 0 0 
SMALL
USER_CHARGES


@<TRIPOS>ATOM
  1 O       -1.3520     0.4600     1.1500 O.2   1 <1>  -0.5700 
  2 C       -2.0260     0.2710     0.1560 C.2   1 <1>   0.5440 
  3 N       -2.1360     1.2880    -0.7700 N.am  1 <1>  -0.6600 
  4 C       -2.6940    -0.9990    -0.0110 C.ar  1 <1>   0.0860 
  5 C       -3.3320     1.4910    -1.6440 C.3   1 <1>   0.1400 
  6 C       -1.2120     2.4640    -0.7640 C.3   1 <1>   0.1400 
  7 C       -3.2920    -1.6310     1.0760 C.ar  1 <1>   0.1600 
  8 C       -2.7670    -1.6610    -1.2350 C.ar  1 <1>  -0.1500 
  9 C       -3.9840     2.8570    -1.3660 C.3   1 <1>   0.1200 
 10 C       -1.9930     3.7650    -0.5250 C.3   1 <1>   0.1200 
 11 N       -3.9430    -2.7810     1.0480 N.ar  1 <1>  -0.6200 
 12 C       -3.4330    -2.8610    -1.2820 C.ar  1 <1>  -0.1500 
 13 O       -3.0390     3.8860    -1.4480 O.3   1 <1>  -0.5600 
 14 C       -4.0080    -3.3900    -0.1290 C.ar  1 <1>   0.4100 
 15 N       -4.6740    -4.5840    -0.1930 N.pl3 1 <1>  -0.8690 
 16 C       -5.2670    -5.2970     0.9730 C.3   1 <1>   0.2090 
 17 C       -6.6950    -4.8110     1.2190 C.3   1 <1>   0.1200 
 18 O       -7.2910    -5.6100     2.2250 O.3   1 <1>  -0.3630 
 19 C       -8.4490    -6.2680     1.9630 C.ar  1 <1>   0.0820 
 20 C       -8.5920    -7.1800     0.8760 C.ar  1 <1>   0.3100 
 21 C       -9.4900    -6.0250     2.8240 C.ar  1 <1>  -0.1500 
 22 N       -7.5510    -7.4530     0.0350 N.ar  1 <1>  -0.6200 
 23 C       -9.8520    -7.8030     0.7080 C.ar  1 <1>   0.0000 
 24 C      -10.7250    -6.6490     2.6450 C.ar  1 <1>  -0.1500 
 25 C       -7.7360    -8.2950    -0.9320 C.ar  1 <1>   0.1670 
 26 C      -10.0160    -8.7030    -0.3580 C.ar  1 <1>  -0.1500 
 27 C      -10.9010    -7.5180     1.6040 C.ar  1 <1>  -0.1500 
 28 C       -8.9540    -8.9440    -1.1730 C.ar  1 <1>  -0.1500 
 29 C       -6.5570    -8.5720    -1.8410 C.3   1 <1>  -0.0970 
 30 H       -4.0620     0.7200    -1.4760 H     1 <1>   0.0800 
 31 H       -3.0280     1.4480    -2.6750 H     1 <1>   0.0800 
 32 H       -0.7110     2.5230    -1.7130 H     1 <1>   0.0800 
 33 H       -0.4590     2.3550    -0.0030 H     1 <1>   0.0800 
 34 H       -3.2210    -1.1400     2.0330 H     1 <1>   0.1500 
 35 H       -2.3070    -1.2390    -2.1110 H     1 <1>   0.1500 
 36 H       -4.4250     2.8730    -0.3840 H     1 <1>   0.0800 
 37 H       -4.7510     3.0580    -2.0930 H     1 <1>   0.0800 
 38 H       -1.3450     4.6150    -0.6480 H     1 <1>   0.0800 
 39 H       -2.4020     3.7820     0.4700 H     1 <1>   0.0800 
 40 H       -3.5150    -3.4080    -2.2010 H     1 <1>   0.1500 
 41 H       -4.8510    -5.0150    -1.1010 H     1 <1>   0.4000 
 42 H       -4.6720    -5.1200     1.8520 H     1 <1>   0.0800 
 43 H       -5.2720    -6.3540     0.7710 H     1 <1>   0.0800 
 44 H       -7.2780    -4.8700     0.3180 H     1 <1>   0.0800 
 45 H       -6.6790    -3.7960     1.5720 H     1 <1>   0.0800 
 46 H       -9.3550    -5.3450     3.6450 H     1 <1>   0.1500 
 47 H      -11.5260    -6.4370     3.3320 H     1 <1>   0.1500 
 48 H      -10.9660    -9.1840    -0.5100 H     1 <1>   0.1500 
 49 H      -11.8500    -8.0030     1.4580 H     1 <1>   0.1500 
 50 H       -9.0360    -9.6260    -2.0000 H     1 <1>   0.1500 
 51 H       -5.6580    -8.6430    -1.2550 H     1 <1>   0.0800 
 52 H       -6.4500    -7.7670    -2.5440 H     1 <1>   0.0800 
 53 H       -6.6910    -9.4940    -2.3760 H     1 <1>   0.0800 
@<TRIPOS>BOND
  1   1   2  2   
  2   2   3  am  
  3   2   4  1   
  4   3   5  1   
  5   3   6  1   
  6   4   7  ar  
  7   4   8  ar  
  8   5   9  1   
  9   5  30  1   
 10   5  31  1   
 11   6  10  1   
 12   6  32  1   
 13   6  33  1   
 14   7  11  ar  
 15   7  34  1   
 16   8  12  ar  
 17   8  35  1   
 18   9  13  1   
 19   9  36  1   
 20   9  37  1   
 21  10  13  1   
 22  10  38  1   
 23  10  39  1   
 24  11  14  ar  
 25  12  14  ar  
 26  12  40  1   
 27  14  15  1   
 28  15  16  1   
 29  15  41  1   
 30  16  17  1   
 31  16  42  1   
 32  16  43  1   
 33  17  18  1   
 34  17  44  1   
 35  17  45  1   
 36  18  19  1   
 37  19  20  ar  
 38  19  21  ar  
 39  20  22  ar  
 40  20  23  ar  
 41  21  24  ar  
 42  21  46  1   
 43  22  25  ar  
 44  23  26  ar  
 45  23  27  ar  
 46  24  27  ar  
 47  24  47  1   
 48  25  28  ar  
 49  25  29  1   
 50  26  28  ar  
 51  26  48  1   
 52  27  49  1   
 53  28  50  1   
 54  29  51  1   
 55  29  52  1   
 56  29  53  1   
@<TRIPOS>SUBSTRUCTURE
  1 ****  15 GROUP 4 **** **** 0

# MOE 2024.06 (io_trps.svl 2023.06)
