@<TRIPOS>MOLECULE
NONAME
26 26 1 0 0 
SMALL
USER_CHARGES


@<TRIPOS>ATOM
  1 O        0.2190    -0.5320    -0.7890 O.2   1 <1>  -0.5700 
  2 C        0.0300    -1.4520    -0.0180 C.2   1 <1>   0.6340 
  3 O        0.9880    -1.7460     0.8690 O.3   1 <1>  -0.4300 
  4 C       -1.2010    -2.2130     0.0070 C.ar  1 <1>   0.0860 
  5 C        2.2040    -1.0260     0.9180 C.3   1 <1>   0.0400 
  6 C       -1.2820    -3.6170     0.0890 C.ar  1 <1>  -0.1440 
  7 C       -2.4070    -1.5070    -0.0640 C.ar  1 <1>  -0.1500 
  8 C       -2.5190    -4.2400     0.1160 C.ar  1 <1>  -0.1500 
  9 C       -0.0430    -4.5120     0.1300 C.3   1 <1>  -0.0160 
 10 C       -3.6310    -2.1400    -0.0370 C.ar  1 <1>  -0.1500 
 11 C       -3.7030    -3.5200     0.0550 C.ar  1 <1>   0.1000 
 12 C        0.6470    -4.5660    -1.2360 C.3   1 <1>  -0.2400 
 13 N       -4.9210    -4.1610     0.0780 N.pl3 1 <1>  -0.9000 
 14 H        2.8130    -1.4390     1.7030 H     1 <1>   0.0800 
 15 H        1.9880     0.0080     1.1210 H     1 <1>   0.0800 
 16 H        2.7030    -1.1220    -0.0300 H     1 <1>   0.0800 
 17 H       -2.3710    -0.4330    -0.1410 H     1 <1>   0.1500 
 18 H       -2.5850    -5.3100     0.1820 H     1 <1>   0.1500 
 19 H       -0.3260    -5.5120     0.4070 H     1 <1>   0.0800 
 20 H        0.6460    -4.1750     0.8820 H     1 <1>   0.0800 
 21 H       -4.5380    -1.5660    -0.0860 H     1 <1>   0.1500 
 22 H       -0.0420    -4.9160    -1.9850 H     1 <1>   0.0800 
 23 H        1.4860    -5.2380    -1.1980 H     1 <1>   0.0800 
 24 H        1.0020    -3.5930    -1.5250 H     1 <1>   0.0800 
 25 H       -5.7520    -3.6510    -0.2320 H     1 <1>   0.4000 
 26 H       -4.9560    -5.1630    -0.1260 H     1 <1>   0.4000 
@<TRIPOS>BOND
  1   1   2  2   
  2   2   3  1   
  3   2   4  1   
  4   3   5  1   
  5   4   6  ar  
  6   4   7  ar  
  7   5  14  1   
  8   5  15  1   
  9   5  16  1   
 10   6   8  ar  
 11   6   9  1   
 12   7  10  ar  
 13   7  17  1   
 14   8  11  ar  
 15   8  18  1   
 16   9  12  1   
 17   9  19  1   
 18   9  20  1   
 19  10  11  ar  
 20  10  21  1   
 21  11  13  1   
 22  12  22  1   
 23  12  23  1   
 24  12  24  1   
 25  13  25  1   
 26  13  26  1   
@<TRIPOS>SUBSTRUCTURE
  1 ****   4 GROUP 4 **** **** 0

# MOE 2024.06 (io_trps.svl 2023.06)
