@<TRIPOS>MOLECULE
NONAME
43 45 1 0 0 
SMALL
USER_CHARGES


@<TRIPOS>ATOM
  1 S       -0.7610     0.1700    -1.0130 S.3   1 <1>  -0.0800 
  2 C        0.3640     1.5140    -1.0930 C.2   1 <1>  -0.1100 
  3 C       -2.1170     1.2660    -0.8190 C.2   1 <1>  -0.1100 
  4 C       -0.2810     2.6900    -0.9730 C.2   1 <1>  -0.1810 
  5 C       -1.6990     2.5450    -0.8200 C.2   1 <1>  -0.1500 
  6 C        0.3750     4.0630    -0.9920 C.3   1 <1>   0.0210 
  7 C        0.3300     4.7350     0.3910 C.3   1 <1>   0.2890 
  8 N        0.6270     6.1850     0.3180 N.pl3 1 <1>  -0.8690 
  9 C        1.2490     4.0750     1.4200 C.3   1 <1>  -0.2400 
 10 C        1.8020     6.8130    -0.0420 C.ar  1 <1>   0.4100 
 11 N        2.7000     6.0830    -0.7010 N.ar  1 <1>  -0.6200 
 12 C        1.9960     8.1680     0.2870 C.ar  1 <1>   0.0860 
 13 C        3.8320     6.6760    -1.0200 C.ar  1 <1>   0.1600 
 14 C        0.9650     8.9270     0.9550 C.2   1 <1>   0.5440 
 15 C        3.2060     8.7560    -0.0570 C.ar  1 <1>  -0.1500 
 16 C        4.1370     7.9920    -0.7220 C.ar  1 <1>  -0.1500 
 17 O        0.4530     8.5040     1.9790 O.2   1 <1>  -0.5700 
 18 N        0.5290    10.1360     0.4590 N.am  1 <1>  -0.6600 
 19 C       -0.5150    10.9360     1.1380 C.3   1 <1>   0.1400 
 20 C        0.6980    10.5740    -0.9450 C.3   1 <1>   0.1400 
 21 C       -0.8540    12.0540     0.1590 C.3   1 <1>  -0.1600 
 22 C       -0.4910    11.4890    -1.2110 C.3   1 <1>  -0.1600 
 23 H        1.4060     1.2790    -1.2210 H     1 <1>   0.1500 
 24 H       -3.0950     0.8300    -0.7260 H     1 <1>   0.1500 
 25 H       -2.3380     3.4060    -0.7200 H     1 <1>   0.1500 
 26 H       -0.1370     4.6850    -1.7040 H     1 <1>   0.0800 
 27 H        1.3940     3.9560    -1.3120 H     1 <1>   0.0800 
 28 H       -0.6790     4.6450     0.7550 H     1 <1>   0.0800 
 29 H        0.1080     6.7170     1.0340 H     1 <1>   0.4000 
 30 H        2.2700     4.0950     1.0840 H     1 <1>   0.0800 
 31 H        0.9600     3.0500     1.5640 H     1 <1>   0.0800 
 32 H        1.1750     4.5870     2.3620 H     1 <1>   0.0800 
 33 H        4.5610     6.0830    -1.5450 H     1 <1>   0.1500 
 34 H        3.4040     9.7830     0.1960 H     1 <1>   0.1500 
 35 H        5.0870     8.4040    -1.0090 H     1 <1>   0.1500 
 36 H       -0.1490    11.3200     2.0750 H     1 <1>   0.0800 
 37 H       -1.3760    10.3140     1.3170 H     1 <1>   0.0800 
 38 H        0.7070     9.7350    -1.6210 H     1 <1>   0.0800 
 39 H        1.6180    11.1260    -1.0340 H     1 <1>   0.0800 
 40 H       -0.2390    12.9090     0.3790 H     1 <1>   0.0800 
 41 H       -1.8890    12.3410     0.2250 H     1 <1>   0.0800 
 42 H       -1.3070    10.8990    -1.5900 H     1 <1>   0.0800 
 43 H       -0.2540    12.2590    -1.9240 H     1 <1>   0.0800 
@<TRIPOS>BOND
  1   1   2  1   
  2   1   3  1   
  3   2   4  2   
  4   2  23  1   
  5   3   5  2   
  6   3  24  1   
  7   4   5  1   
  8   4   6  1   
  9   5  25  1   
 10   6   7  1   
 11   6  26  1   
 12   6  27  1   
 13   7   8  1   
 14   7   9  1   
 15   7  28  1   
 16   8  10  1   
 17   8  29  1   
 18   9  30  1   
 19   9  31  1   
 20   9  32  1   
 21  10  11  ar  
 22  10  12  ar  
 23  11  13  ar  
 24  12  14  1   
 25  12  15  ar  
 26  13  16  ar  
 27  13  33  1   
 28  14  17  2   
 29  14  18  am  
 30  15  16  ar  
 31  15  34  1   
 32  16  35  1   
 33  18  19  1   
 34  18  20  1   
 35  19  21  1   
 36  19  36  1   
 37  19  37  1   
 38  20  22  1   
 39  20  38  1   
 40  20  39  1   
 41  21  22  1   
 42  21  40  1   
 43  21  41  1   
 44  22  42  1   
 45  22  43  1   
@<TRIPOS>SUBSTRUCTURE
  1 ****   8 GROUP 4 **** **** 0

# MOE 2024.06 (io_trps.svl 2023.06)
