@<TRIPOS>MOLECULE
NONAME
48 49 1 0 0 
SMALL
USER_CHARGES


@<TRIPOS>ATOM
  1 O       -3.2730     0.9640    -2.2680 O.2   1 <1>  -0.5700 
  2 C       -2.5440     1.2130    -1.3260 C.2   1 <1>   0.5440 
  3 N       -2.5040     0.2500    -0.3520 N.am  1 <1>  -0.6600 
  4 C       -1.9240     2.5230    -1.1950 C.ar  1 <1>   0.0860 
  5 C       -2.2070    -1.1600    -0.7190 C.3   1 <1>   0.3200 
  6 C       -2.9310     0.5590     1.0490 C.3   1 <1>   0.1400 
  7 C       -0.7890     2.7800    -0.4060 C.ar  1 <1>   0.0820 
  8 C       -2.4850     3.6120    -1.8680 C.ar  1 <1>  -0.1500 
  9 C       -3.4400    -2.0040    -0.4800 C.2   1 <1>  -0.3320 
 10 C       -4.4600     0.4120     1.2270 C.3   1 <1>   0.3430 
 11 O       -0.1450     1.7680     0.2120 O.3   1 <1>  -0.3630 
 12 C       -0.3000     4.0740    -0.2340 C.ar  1 <1>  -0.1440 
 13 C       -1.9890     4.8920    -1.7240 C.ar  1 <1>  -0.1500 
 14 N       -3.5850    -2.9190     0.4980 N.pl3 1 <1>   0.0330 
 15 C       -4.5970    -2.0000    -1.1750 C.2   1 <1>   0.0770 
 16 N       -5.2240     0.9920     0.0760 N.4   1 <1>  -0.9590 
 17 C        0.8770     1.1330    -0.5260 C.3   1 <1>   0.0400 
 18 C       -0.9050     5.1240    -0.9000 C.ar  1 <1>  -0.1500 
 19 C        0.8940     4.3620     0.6670 C.3   1 <1>  -0.0970 
 20 C       -4.8450    -3.3810     0.3570 C.2   1 <1>   0.0360 
 21 N       -5.4920    -2.8390    -0.6230 N.2   1 <1>  -0.5650 
 22 C       -5.2960     2.4820     0.1080 C.3   1 <1>   0.2630 
 23 C       -6.5800     0.3760    -0.0440 C.3   1 <1>   0.2630 
 24 H       -1.3750    -1.5190    -0.1380 H     1 <1>   0.0800 
 25 H       -1.9350    -1.2130    -1.7610 H     1 <1>   0.0800 
 26 H       -2.6470     1.5670     1.2970 H     1 <1>   0.0800 
 27 H       -2.4190    -0.0920     1.7360 H     1 <1>   0.0800 
 28 H       -3.3270     3.4540    -2.5200 H     1 <1>   0.1500 
 29 H       -4.7700     0.8700     2.1520 H     1 <1>   0.0800 
 30 H       -4.6840    -0.6400     1.2940 H     1 <1>   0.0800 
 31 H       -2.4420     5.7140    -2.2540 H     1 <1>   0.1500 
 32 H       -2.8940    -3.2330     1.1890 H     1 <1>   0.2700 
 33 H       -4.8350    -1.4160    -2.0520 H     1 <1>   0.1500 
 34 H       -4.6760     0.7140    -0.7720 H     1 <1>   0.4500 
 35 H        1.3240     0.3780     0.0950 H     1 <1>   0.0800 
 36 H        1.6150     1.8640    -0.8040 H     1 <1>   0.0800 
 37 H        0.4480     0.6860    -1.4050 H     1 <1>   0.0800 
 38 H       -0.5310     6.1280    -0.7880 H     1 <1>   0.1500 
 39 H        0.8310     3.7840     1.5720 H     1 <1>   0.0800 
 40 H        0.9280     5.4020     0.9380 H     1 <1>   0.0800 
 41 H        1.8070     4.1110     0.1580 H     1 <1>   0.0800 
 42 H       -5.2560    -4.1360     1.0070 H     1 <1>   0.1500 
 43 H       -5.8590     2.8120     0.9660 H     1 <1>   0.0800 
 44 H       -5.7760     2.8480    -0.7850 H     1 <1>   0.0800 
 45 H       -4.3050     2.9040     0.1590 H     1 <1>   0.0800 
 46 H       -7.1930     0.6490     0.7990 H     1 <1>   0.0800 
 47 H       -6.5030    -0.6980    -0.0790 H     1 <1>   0.0800 
 48 H       -7.0620     0.7110    -0.9480 H     1 <1>   0.0800 
@<TRIPOS>BOND
  1   1   2  2   
  2   2   3  am  
  3   2   4  1   
  4   3   5  1   
  5   3   6  1   
  6   4   7  ar  
  7   4   8  ar  
  8   5   9  1   
  9   5  24  1   
 10   5  25  1   
 11   6  10  1   
 12   6  26  1   
 13   6  27  1   
 14   7  11  1   
 15   7  12  ar  
 16   8  13  ar  
 17   8  28  1   
 18   9  14  1   
 19   9  15  2   
 20  10  16  1   
 21  10  29  1   
 22  10  30  1   
 23  11  17  1   
 24  12  18  ar  
 25  12  19  1   
 26  13  18  ar  
 27  13  31  1   
 28  14  20  1   
 29  14  32  1   
 30  15  21  1   
 31  15  33  1   
 32  16  22  1   
 33  16  23  1   
 34  16  34  1   
 35  17  35  1   
 36  17  36  1   
 37  17  37  1   
 38  18  38  1   
 39  19  39  1   
 40  19  40  1   
 41  19  41  1   
 42  20  21  2   
 43  20  42  1   
 44  22  43  1   
 45  22  44  1   
 46  22  45  1   
 47  23  46  1   
 48  23  47  1   
 49  23  48  1   
@<TRIPOS>SUBSTRUCTURE
  1 ****   3 GROUP 4 **** **** 0

# MOE 2024.06 (io_trps.svl 2023.06)
