@<TRIPOS>MOLECULE
NONAME
46 48 1 0 0 
SMALL
USER_CHARGES


@<TRIPOS>ATOM
  1 O       -0.7370     0.1240     0.6010 O.2   1 <1>  -0.5700 
  2 C       -1.5870     0.9480     0.3220 C.2   1 <1>   0.6900 
  3 N       -1.2710     1.9940    -0.5320 N.am  1 <1>  -0.4690 
  4 N       -2.8500     0.8780     0.8740 N.am  1 <1>  -0.4200 
  5 C       -2.1150     3.1070    -0.6540 C.2   1 <1>   0.1230 
  6 C       -0.1390     1.8080    -1.4890 C.3   1 <1>   0.0600 
  7 C       -3.7480     1.9080     0.6810 C.2   1 <1>   0.6160 
  8 C       -3.2410    -0.3010     1.7030 C.3   1 <1>   0.0600 
  9 C       -1.6490     4.3080    -1.3240 C.2   1 <1>   0.6160 
 10 C       -3.3410     3.0320    -0.0780 C.2   1 <1>  -0.1360 
 11 O       -4.8530     1.8720     1.1880 O.2   1 <1>  -0.5700 
 12 O       -1.9010     4.4770    -2.4980 O.2   1 <1>  -0.5700 
 13 N       -0.8840     5.2550    -0.6670 N.am  1 <1>  -0.6600 
 14 C       -0.4420     5.0760     0.7710 C.3   1 <1>   0.2200 
 15 C       -0.5360     6.5280    -1.3870 C.3   1 <1>   0.1400 
 16 C       -0.8090     6.2730     1.6630 C.3   1 <1>   0.1200 
 17 C        1.0720     4.7610     0.8560 C.3   1 <1>   0.3430 
 18 C        0.5910     7.3680    -0.7550 C.3   1 <1>  -0.0800 
 19 O        0.1840     7.2510     1.6130 O.3   1 <1>  -0.5600 
 20 N        1.8190     5.1560    -0.3910 N.4   1 <1>  -0.9590 
 21 C        0.1350     8.0980     0.5160 C.3   1 <1>   0.1200 
 22 C        1.9370     6.6410    -0.5530 C.3   1 <1>   0.3430 
 23 C        3.1580     4.5000    -0.4510 C.3   1 <1>   0.2630 
 24 H       -0.3650     2.2660    -2.4360 H     1 <1>   0.0800 
 25 H        0.0300     0.7580    -1.6650 H     1 <1>   0.0800 
 26 H        0.7580     2.2360    -1.0820 H     1 <1>   0.0800 
 27 H       -4.2860    -0.5210     1.5680 H     1 <1>   0.0800 
 28 H       -3.0580    -0.0860     2.7410 H     1 <1>   0.0800 
 29 H       -2.6720    -1.1690     1.4170 H     1 <1>   0.0800 
 30 H       -4.0560     3.8280    -0.1600 H     1 <1>   0.1500 
 31 H       -0.9600     4.2390     1.2020 H     1 <1>   0.0800 
 32 H       -0.2490     6.2850    -2.3970 H     1 <1>   0.0800 
 33 H       -1.4280     7.1290    -1.4580 H     1 <1>   0.0800 
 34 H       -0.8600     5.9470     2.6880 H     1 <1>   0.0800 
 35 H       -1.7640     6.6950     1.3980 H     1 <1>   0.0800 
 36 H        1.1770     3.6990     1.0080 H     1 <1>   0.0800 
 37 H        1.4950     5.2530     1.7170 H     1 <1>   0.0800 
 38 H        0.7870     8.1570    -1.4590 H     1 <1>   0.0800 
 39 H        1.2240     4.8330    -1.1710 H     1 <1>   0.4500 
 40 H       -0.8610     8.4990     0.4170 H     1 <1>   0.0800 
 41 H        0.8030     8.9160     0.7260 H     1 <1>   0.0800 
 42 H        2.4380     7.0620     0.3040 H     1 <1>   0.0800 
 43 H        2.5510     6.8400    -1.4170 H     1 <1>   0.0800 
 44 H        3.7770     4.8380     0.3640 H     1 <1>   0.0800 
 45 H        3.6510     4.7390    -1.3800 H     1 <1>   0.0800 
 46 H        3.0550     3.4290    -0.3850 H     1 <1>   0.0800 
@<TRIPOS>BOND
  1   1   2  2   
  2   2   3  am  
  3   2   4  am  
  4   3   5  1   
  5   3   6  1   
  6   4   7  am  
  7   4   8  1   
  8   5   9  1   
  9   5  10  2   
 10   6  24  1   
 11   6  25  1   
 12   6  26  1   
 13   7  10  1   
 14   7  11  2   
 15   8  27  1   
 16   8  28  1   
 17   8  29  1   
 18   9  12  2   
 19   9  13  am  
 20  10  30  1   
 21  13  14  1   
 22  13  15  1   
 23  14  16  1   
 24  14  17  1   
 25  14  31  1   
 26  15  18  1   
 27  15  32  1   
 28  15  33  1   
 29  16  19  1   
 30  16  34  1   
 31  16  35  1   
 32  17  20  1   
 33  17  36  1   
 34  17  37  1   
 35  18  21  1   
 36  18  22  1   
 37  18  38  1   
 38  19  21  1   
 39  20  22  1   
 40  20  23  1   
 41  20  39  1   
 42  21  40  1   
 43  21  41  1   
 44  22  42  1   
 45  22  43  1   
 46  23  44  1   
 47  23  45  1   
 48  23  46  1   
@<TRIPOS>SUBSTRUCTURE
  1 ****  14 GROUP 4 **** **** 0

# MOE 2024.06 (io_trps.svl 2023.06)
