@<TRIPOS>MOLECULE
NONAME
50 52 1 0 0 
SMALL
USER_CHARGES


@<TRIPOS>ATOM
  1 S       -0.0340     0.2590    -0.0490 S.o2  1 <1>   1.3330 
  2 O       -0.3220     0.5170    -1.4410 O.2   1 <1>  -0.6500 
  3 O       -1.0940     0.3040     0.9290 O.2   1 <1>  -0.6500 
  4 N        1.1740     1.3680     0.4130 N.am  1 <1>  -0.8490 
  5 C        0.7890    -1.3120     0.1030 C.3   1 <1>  -0.1350 
  6 C        1.9610     1.8140    -0.7560 C.3   1 <1>   0.1960 
  7 C        0.5970     2.4450     1.2290 C.3   1 <1>   0.1960 
  8 C        3.3280     2.4060    -0.3670 C.3   1 <1>   0.3430 
  9 C        1.6280     3.4360     1.7720 C.3   1 <1>  -0.1600 
 10 N        3.3180     3.8690    -0.0300 N.4   1 <1>  -0.9590 
 11 C        2.1250     4.3940     0.6960 C.3   1 <1>   0.3430 
 12 C        3.6330     4.7150    -1.2120 C.3   1 <1>   0.4860 
 13 C        3.9300     6.1180    -0.7300 C.ar  1 <1>  -0.1440 
 14 C        5.0010     6.3450     0.1350 C.ar  1 <1>   0.0820 
 15 C        3.1280     7.1730    -1.1450 C.ar  1 <1>  -0.1500 
 16 O        5.7460     5.2690     0.5090 O.3   1 <1>  -0.3620 
 17 C        5.2630     7.6370     0.5870 C.ar  1 <1>  -0.1500 
 18 C        3.4020     8.4460    -0.6850 C.ar  1 <1>  -0.1440 
 19 C        6.9790     5.4410     1.1810 C.3   1 <1>   0.0400 
 20 C        4.4520     8.6730     0.1670 C.ar  1 <1>  -0.1440 
 21 C        2.6690     9.7260    -1.0050 C.3   1 <1>  -0.0170 
 22 C        4.5580    10.1340     0.5300 C.3   1 <1>  -0.0170 
 23 C        3.2330    10.7250     0.0200 C.3   1 <1>  -0.1600 
 24 H        0.1140    -2.1030    -0.1590 H     1 <1>   0.0800 
 25 H        1.1140    -1.4610     1.1140 H     1 <1>   0.0800 
 26 H        1.6390    -1.3580    -0.5470 H     1 <1>   0.0800 
 27 H        1.3940     2.5010    -1.3610 H     1 <1>   0.0800 
 28 H        2.1700     0.9520    -1.3670 H     1 <1>   0.0800 
 29 H        0.1110     2.0040     2.0850 H     1 <1>   0.0800 
 30 H       -0.1630     2.9640     0.6650 H     1 <1>   0.0800 
 31 H        4.0160     2.2420    -1.1800 H     1 <1>   0.0800 
 32 H        3.6940     1.8460     0.4780 H     1 <1>   0.0800 
 33 H        2.4320     2.9330     2.2780 H     1 <1>   0.0800 
 34 H        1.1200     4.0320     2.5080 H     1 <1>   0.0800 
 35 H        4.1310     4.0520     0.5860 H     1 <1>   0.4500 
 36 H        2.3880     5.3330     1.1590 H     1 <1>   0.0800 
 37 H        1.3250     4.5870     0.0000 H     1 <1>   0.0800 
 38 H        2.8050     4.7240    -1.9010 H     1 <1>   0.0800 
 39 H        4.5040     4.3330    -1.7190 H     1 <1>   0.0800 
 40 H        2.3010     7.0250    -1.8180 H     1 <1>   0.1500 
 41 H        6.0750     7.8570     1.2550 H     1 <1>   0.1500 
 42 H        7.4470     4.4790     1.2870 H     1 <1>   0.0800 
 43 H        6.7960     5.8650     2.1520 H     1 <1>   0.0800 
 44 H        7.6100     6.0880     0.5950 H     1 <1>   0.0800 
 45 H        1.6040     9.6140    -0.9020 H     1 <1>   0.0800 
 46 H        2.9100    10.0370    -2.0070 H     1 <1>   0.0800 
 47 H        5.3920    10.5740     0.0130 H     1 <1>   0.0800 
 48 H        4.6700    10.2750     1.5910 H     1 <1>   0.0800 
 49 H        2.5460    10.8010     0.8450 H     1 <1>   0.0800 
 50 H        3.3700    11.7020    -0.4090 H     1 <1>   0.0800 
@<TRIPOS>BOND
  1   1   2  2   
  2   1   3  2   
  3   1   4  am  
  4   1   5  1   
  5   4   6  1   
  6   4   7  1   
  7   5  24  1   
  8   5  25  1   
  9   5  26  1   
 10   6   8  1   
 11   6  27  1   
 12   6  28  1   
 13   7   9  1   
 14   7  29  1   
 15   7  30  1   
 16   8  10  1   
 17   8  31  1   
 18   8  32  1   
 19   9  11  1   
 20   9  33  1   
 21   9  34  1   
 22  10  11  1   
 23  10  12  1   
 24  10  35  1   
 25  11  36  1   
 26  11  37  1   
 27  12  13  1   
 28  12  38  1   
 29  12  39  1   
 30  13  14  ar  
 31  13  15  ar  
 32  14  16  1   
 33  14  17  ar  
 34  15  18  ar  
 35  15  40  1   
 36  16  19  1   
 37  17  20  ar  
 38  17  41  1   
 39  18  20  ar  
 40  18  21  1   
 41  19  42  1   
 42  19  43  1   
 43  19  44  1   
 44  20  22  1   
 45  21  23  1   
 46  21  45  1   
 47  21  46  1   
 48  22  23  1   
 49  22  47  1   
 50  22  48  1   
 51  23  49  1   
 52  23  50  1   
@<TRIPOS>SUBSTRUCTURE
  1 ****  10 GROUP 4 **** **** 0

# MOE 2024.06 (io_trps.svl 2023.06)
