@<TRIPOS>MOLECULE
NONAME
45 46 1 0 0 
SMALL
USER_CHARGES


@<TRIPOS>ATOM
  1 O       -1.2650    -0.0210     0.4770 O.2   1 <1>  -0.5700 
  2 C       -2.1050     0.8050     0.7890 C.2   1 <1>   0.5440 
  3 N       -3.2730     0.3630     1.3690 N.am  1 <1>  -0.6600 
  4 C       -1.8740     2.2090     0.5030 C.ar  1 <1>   0.0860 
  5 C       -3.3900    -1.0430     1.8580 C.3   1 <1>   0.3200 
  6 C       -4.5720     1.0910     1.2330 C.3   1 <1>   0.1400 
  7 C       -1.4870     2.6280    -0.7650 C.ar  1 <1>  -0.1500 
  8 C       -2.0250     3.1910     1.4780 C.ar  1 <1>  -0.1500 
  9 C       -3.8150    -1.9580     0.7240 C.2   1 <1>   0.0070 
 10 C       -5.0920     1.0260    -0.2080 C.3   1 <1>   0.1200 
 11 C       -1.2830     3.9650    -1.0510 C.ar  1 <1>  -0.1500 
 12 C       -1.8220     4.5290     1.1940 C.ar  1 <1>  -0.1500 
 13 N       -4.9440    -2.5890     0.6480 N.2   1 <1>  -0.5650 
 14 N       -3.0060    -2.1660    -0.3350 N.pl3 1 <1>   0.0330 
 15 O       -6.3580     1.5890    -0.2610 O.3   1 <1>  -0.6800 
 16 C       -1.4490     4.9470    -0.0800 C.ar  1 <1>  -0.1430 
 17 C       -4.8610    -3.2490    -0.5240 C.2   1 <1>   0.0770 
 18 C       -3.6850    -3.0010    -1.1400 C.2   1 <1>  -0.3020 
 19 C       -1.2150     6.4280    -0.4490 C.3   1 <1>   0.1440 
 20 C       -1.4540     7.3900     0.7280 C.3   1 <1>  -0.2400 
 21 C        0.2350     6.6180    -0.9170 C.3   1 <1>  -0.2400 
 22 C       -2.1740     6.8350    -1.5790 C.3   1 <1>  -0.2400 
 23 H       -4.1110    -1.0970     2.6540 H     1 <1>   0.0800 
 24 H       -2.4430    -1.3740     2.2480 H     1 <1>   0.0800 
 25 H       -4.4480     2.1200     1.5160 H     1 <1>   0.0800 
 26 H       -5.2990     0.6470     1.8910 H     1 <1>   0.0800 
 27 H       -1.3440     1.8910    -1.5360 H     1 <1>   0.1500 
 28 H       -2.3050     2.8980     2.4740 H     1 <1>   0.1500 
 29 H       -5.1650     0.0090    -0.5560 H     1 <1>   0.0800 
 30 H       -4.4540     1.5910    -0.8650 H     1 <1>   0.0800 
 31 H       -0.9880     4.2340    -2.0490 H     1 <1>   0.1500 
 32 H       -1.9610     5.2320     1.9940 H     1 <1>   0.1500 
 33 H       -2.0840    -1.7220    -0.4600 H     1 <1>   0.2700 
 34 H       -7.0220     0.9640     0.0920 H     1 <1>   0.4000 
 35 H       -5.6660    -3.8780    -0.8690 H     1 <1>   0.1500 
 36 H       -3.3040    -3.3600    -2.0790 H     1 <1>   0.1500 
 37 H       -0.7820     7.1700     1.5380 H     1 <1>   0.0800 
 38 H       -2.4670     7.3120     1.0800 H     1 <1>   0.0800 
 39 H       -1.2850     8.4080     0.4240 H     1 <1>   0.0800 
 40 H        0.9140     6.3040    -0.1440 H     1 <1>   0.0800 
 41 H        0.4290     7.6500    -1.1450 H     1 <1>   0.0800 
 42 H        0.4380     6.0380    -1.7980 H     1 <1>   0.0800 
 43 H       -3.1920     6.6720    -1.2730 H     1 <1>   0.0800 
 44 H       -1.9930     6.2600    -2.4680 H     1 <1>   0.0800 
 45 H       -2.0520     7.8740    -1.8240 H     1 <1>   0.0800 
@<TRIPOS>BOND
  1   1   2  2   
  2   2   3  am  
  3   2   4  1   
  4   3   5  1   
  5   3   6  1   
  6   4   7  ar  
  7   4   8  ar  
  8   5   9  1   
  9   5  23  1   
 10   5  24  1   
 11   6  10  1   
 12   6  25  1   
 13   6  26  1   
 14   7  11  ar  
 15   7  27  1   
 16   8  12  ar  
 17   8  28  1   
 18   9  13  2   
 19   9  14  1   
 20  10  15  1   
 21  10  29  1   
 22  10  30  1   
 23  11  16  ar  
 24  11  31  1   
 25  12  16  ar  
 26  12  32  1   
 27  13  17  1   
 28  14  18  1   
 29  14  33  1   
 30  15  34  1   
 31  16  19  1   
 32  17  18  2   
 33  17  35  1   
 34  18  36  1   
 35  19  20  1   
 36  19  21  1   
 37  19  22  1   
 38  20  37  1   
 39  20  38  1   
 40  20  39  1   
 41  21  40  1   
 42  21  41  1   
 43  21  42  1   
 44  22  43  1   
 45  22  44  1   
 46  22  45  1   
@<TRIPOS>SUBSTRUCTURE
  1 ****   4 GROUP 4 **** **** 0

# MOE 2024.06 (io_trps.svl 2023.06)
