@<TRIPOS>MOLECULE
NONAME
47 50 1 0 0 
SMALL
USER_CHARGES


@<TRIPOS>ATOM
  1 O       -0.2790    -0.6710     0.7260 O.3   1 <1>  -0.0190 
  2 N       -0.4420    -1.9590     0.8160 N.2   1 <1>  -0.4100 
  3 C        0.8640    -0.3610     0.1730 C.2   1 <1>   0.0550 
  4 C        0.6170    -2.4890     0.3080 C.2   1 <1>   0.1080 
  5 C        1.5010    -1.5030    -0.1270 C.2   1 <1>  -0.1500 
  6 C        1.2420     1.0950    -0.0190 C.3   1 <1>  -0.0150 
  7 C        0.8370    -3.9940     0.2130 C.3   1 <1>   0.5240 
  8 C        2.6730     1.5230    -0.0920 C.3   1 <1>  -0.2000 
  9 C        1.8410     1.8680     1.1110 C.3   1 <1>  -0.2000 
 10 N       -0.4850    -4.6950     0.2090 N.4   1 <1>  -0.9590 
 11 C       -0.3870    -6.1250     0.6040 C.3   1 <1>   0.3430 
 12 C       -1.2170    -4.4890    -1.0740 C.3   1 <1>   0.3430 
 13 C       -1.7880    -6.7140     0.7520 C.3   1 <1>  -0.1600 
 14 C       -2.6310    -5.0440    -0.9440 C.3   1 <1>  -0.1600 
 15 C       -2.6180    -6.5120    -0.5200 C.3   1 <1>   0.2000 
 16 O       -3.9300    -6.8480    -0.2410 O.3   1 <1>  -0.5600 
 17 C       -4.2690    -8.2000    -0.4280 C.3   1 <1>   0.2630 
 18 C       -5.6660    -8.5190     0.0960 C.ar  1 <1>   0.1660 
 19 N       -5.9290    -9.8120     0.2430 N.ar  1 <1>  -0.6200 
 20 C       -6.5790    -7.5130     0.3870 C.ar  1 <1>  -0.1500 
 21 C       -7.1370   -10.1090     0.6950 C.ar  1 <1>   0.1600 
 22 C       -7.8330    -7.8370     0.8570 C.ar  1 <1>  -0.1500 
 23 C       -8.1100    -9.1780     1.0130 C.ar  1 <1>  -0.1500 
 24 H        2.4630    -1.6320    -0.5890 H     1 <1>   0.1500 
 25 H        0.5380     1.6150    -0.6460 H     1 <1>   0.1000 
 26 H        1.4130    -4.3050     1.0680 H     1 <1>   0.0800 
 27 H        1.3900    -4.2300    -0.6810 H     1 <1>   0.0800 
 28 H        2.9420     2.3100    -0.7750 H     1 <1>   0.1000 
 29 H        3.4560     0.7950     0.0270 H     1 <1>   0.1000 
 30 H        2.0330     1.3590     2.0400 H     1 <1>   0.1000 
 31 H        1.5310     2.8880     1.2560 H     1 <1>   0.1000 
 32 H       -1.0370    -4.1890     0.9240 H     1 <1>   0.4500 
 33 H        0.1360    -6.2160     1.5430 H     1 <1>   0.0800 
 34 H        0.1580    -6.6760    -0.1460 H     1 <1>   0.0800 
 35 H       -0.7030    -4.9880    -1.8790 H     1 <1>   0.0800 
 36 H       -1.2720    -3.4350    -1.3040 H     1 <1>   0.0800 
 37 H       -2.2810    -6.2440     1.5850 H     1 <1>   0.0800 
 38 H       -1.6980    -7.7630     0.9660 H     1 <1>   0.0800 
 39 H       -3.1330    -4.9530    -1.8910 H     1 <1>   0.0800 
 40 H       -3.1730    -4.4580    -0.2230 H     1 <1>   0.0800 
 41 H       -2.2530    -7.1250    -1.3300 H     1 <1>   0.0800 
 42 H       -3.5600    -8.8140     0.0970 H     1 <1>   0.0800 
 43 H       -4.2260    -8.4240    -1.4780 H     1 <1>   0.0800 
 44 H       -6.3150    -6.4800     0.2470 H     1 <1>   0.1500 
 45 H       -7.3650   -11.1540     0.8200 H     1 <1>   0.1500 
 46 H       -8.5600    -7.0790     1.0920 H     1 <1>   0.1500 
 47 H       -9.0680    -9.5000     1.3760 H     1 <1>   0.1500 
@<TRIPOS>BOND
  1   1   2  1   
  2   1   3  1   
  3   2   4  2   
  4   3   5  2   
  5   3   6  1   
  6   4   5  1   
  7   4   7  1   
  8   5  24  1   
  9   6   8  1   
 10   6   9  1   
 11   6  25  1   
 12   7  10  1   
 13   7  26  1   
 14   7  27  1   
 15   8   9  1   
 16   8  28  1   
 17   8  29  1   
 18   9  30  1   
 19   9  31  1   
 20  10  11  1   
 21  10  12  1   
 22  10  32  1   
 23  11  13  1   
 24  11  33  1   
 25  11  34  1   
 26  12  14  1   
 27  12  35  1   
 28  12  36  1   
 29  13  15  1   
 30  13  37  1   
 31  13  38  1   
 32  14  15  1   
 33  14  39  1   
 34  14  40  1   
 35  15  16  1   
 36  15  41  1   
 37  16  17  1   
 38  17  18  1   
 39  17  42  1   
 40  17  43  1   
 41  18  19  ar  
 42  18  20  ar  
 43  19  21  ar  
 44  20  22  ar  
 45  20  44  1   
 46  21  23  ar  
 47  21  45  1   
 48  22  23  ar  
 49  22  46  1   
 50  23  47  1   
@<TRIPOS>SUBSTRUCTURE
  1 ****  14 GROUP 4 **** **** 0

# MOE 2024.06 (io_trps.svl 2023.06)
