@<TRIPOS>MOLECULE
NONAME
46 48 1 0 0 
SMALL
USER_CHARGES


@<TRIPOS>ATOM
  1 S        0.3330    -0.6080    -1.4340 S.3   1 <1>  -0.0800 
  2 C       -0.0420    -2.2970    -1.7190 C.2   1 <1>  -0.1100 
  3 C        0.0500    -0.7900     0.2870 C.2   1 <1>  -0.1100 
  4 C       -0.3680    -2.9160    -0.5670 C.2   1 <1>  -0.1810 
  5 C       -0.3060    -2.0540     0.5790 C.2   1 <1>  -0.1500 
  6 C       -0.7580    -4.3730    -0.4350 C.3   1 <1>   0.5240 
  7 N       -2.1980    -4.5050    -0.7910 N.4   1 <1>  -0.9590 
  8 C       -2.6000    -5.9220    -1.1400 C.3   1 <1>   0.3430 
  9 C       -3.0870    -3.8320     0.1980 C.3   1 <1>   0.3430 
 10 C       -3.0910    -6.8480     0.0080 C.3   1 <1>   0.0000 
 11 C       -3.2310    -4.6800     1.4520 C.3   1 <1>  -0.1600 
 12 C       -3.8580    -6.0160     1.0720 C.3   1 <1>   0.2000 
 13 C       -4.1440    -7.8020    -0.6110 C.3   1 <1>   0.1200 
 14 C       -1.9520    -7.7710     0.5630 C.3   1 <1>  -0.0170 
 15 O       -4.0810    -6.7420     2.2230 O.3   1 <1>  -0.6800 
 16 O       -3.6600    -8.3350    -1.8000 O.3   1 <1>  -0.6800 
 17 C       -0.6180    -7.1290     0.9120 C.ar  1 <1>  -0.1440 
 18 C        0.4110    -7.1410    -0.0200 C.ar  1 <1>  -0.1500 
 19 C       -0.3910    -6.5700     2.1610 C.ar  1 <1>  -0.1500 
 20 C        1.6300    -6.5560     0.2740 C.ar  1 <1>  -0.1500 
 21 C        0.8260    -5.9810     2.4540 C.ar  1 <1>  -0.1500 
 22 C        1.8350    -5.9660     1.5080 C.ar  1 <1>  -0.1500 
 23 H        0.0280    -2.6360    -2.7390 H     1 <1>   0.1500 
 24 H        0.1890     0.0820     0.9030 H     1 <1>   0.1500 
 25 H       -0.5190    -2.4120     1.5730 H     1 <1>   0.1500 
 26 H       -0.5720    -4.7120     0.5680 H     1 <1>   0.0800 
 27 H       -0.1580    -4.9570    -1.1120 H     1 <1>   0.0800 
 28 H       -2.2690    -3.9540    -1.6560 H     1 <1>   0.4500 
 29 H       -3.4130    -5.8550    -1.8450 H     1 <1>   0.0800 
 30 H       -1.7960    -6.4160    -1.6600 H     1 <1>   0.0800 
 31 H       -2.6950    -2.8610     0.4540 H     1 <1>   0.0800 
 32 H       -4.0620    -3.6860    -0.2390 H     1 <1>   0.0800 
 33 H       -3.8900    -4.1670     2.1310 H     1 <1>   0.0800 
 34 H       -2.2830    -4.7940     1.9350 H     1 <1>   0.0800 
 35 H       -4.8380    -5.7900     0.6840 H     1 <1>   0.0800 
 36 H       -5.0600    -7.2850    -0.8440 H     1 <1>   0.0800 
 37 H       -4.3710    -8.6130     0.0630 H     1 <1>   0.0800 
 38 H       -2.3020    -8.3210     1.4190 H     1 <1>   0.0800 
 39 H       -1.7350    -8.5270    -0.1720 H     1 <1>   0.0800 
 40 H       -3.2520    -6.9100     2.7130 H     1 <1>   0.4000 
 41 H       -4.2550    -9.0420    -2.1330 H     1 <1>   0.4000 
 42 H        0.2770    -7.6150    -0.9790 H     1 <1>   0.1500 
 43 H       -1.1510    -6.5970     2.9230 H     1 <1>   0.1500 
 44 H        2.4270    -6.5690    -0.4520 H     1 <1>   0.1500 
 45 H        0.9970    -5.5440     3.4240 H     1 <1>   0.1500 
 46 H        2.7840    -5.5120     1.7380 H     1 <1>   0.1500 
@<TRIPOS>BOND
  1   1   2  1   
  2   1   3  1   
  3   2   4  2   
  4   2  23  1   
  5   3   5  2   
  6   3  24  1   
  7   4   5  1   
  8   4   6  1   
  9   5  25  1   
 10   6   7  1   
 11   6  26  1   
 12   6  27  1   
 13   7   8  1   
 14   7   9  1   
 15   7  28  1   
 16   8  10  1   
 17   8  29  1   
 18   8  30  1   
 19   9  11  1   
 20   9  31  1   
 21   9  32  1   
 22  10  12  1   
 23  10  13  1   
 24  10  14  1   
 25  11  12  1   
 26  11  33  1   
 27  11  34  1   
 28  12  15  1   
 29  12  35  1   
 30  13  16  1   
 31  13  36  1   
 32  13  37  1   
 33  14  17  1   
 34  14  38  1   
 35  14  39  1   
 36  15  40  1   
 37  16  41  1   
 38  17  18  ar  
 39  17  19  ar  
 40  18  20  ar  
 41  18  42  1   
 42  19  21  ar  
 43  19  43  1   
 44  20  22  ar  
 45  20  44  1   
 46  21  22  ar  
 47  21  45  1   
 48  22  46  1   
@<TRIPOS>SUBSTRUCTURE
  1 ****   6 GROUP 4 **** **** 0

# MOE 2024.06 (io_trps.svl 2023.06)
