@<TRIPOS>MOLECULE
NONAME
47 49 1 0 0 
SMALL
USER_CHARGES


@<TRIPOS>ATOM
  1 O       -1.4290     1.8280    -2.1820 O.co2 1 <1>  -0.9000 
  2 C       -0.6230     2.0690    -1.2690 C.2   1 <1>   0.9060 
  3 O        0.5900     1.8900    -1.4030 O.co2 1 <1>  -0.9000 
  4 C       -1.1580     2.3640     0.1620 C.3   1 <1>   0.4600 
  5 N       -2.1720     1.3530     0.6920 N.4   1 <1>  -0.9590 
  6 C       -1.7210     3.7690     0.3970 C.ar  1 <1>  -0.1430 
  7 C       -1.5790    -0.0080     0.5480 C.3   1 <1>   0.3430 
  8 C       -3.4500     1.4680    -0.0760 C.3   1 <1>   0.3430 
  9 C       -2.4070     4.4650    -0.5900 C.ar  1 <1>  -0.1500 
 10 C       -1.5530     4.3600     1.6420 C.ar  1 <1>  -0.1500 
 11 C       -2.5500    -1.0560     1.0810 C.3   1 <1>  -0.1600 
 12 C       -4.4620     0.4510     0.4400 C.3   1 <1>  -0.1600 
 13 C       -2.9350     5.7210    -0.3390 C.ar  1 <1>   0.0830 
 14 C       -2.0710     5.6180     1.8990 C.ar  1 <1>  -0.1500 
 15 C       -3.8870    -0.9660     0.3470 C.3   1 <1>   0.2000 
 16 O       -3.6030     6.3170    -1.3570 O.3   1 <1>  -0.3630 
 17 C       -2.7640     6.2990     0.9140 C.ar  1 <1>  -0.1500 
 18 O       -4.7710    -1.8640     0.9780 O.3   1 <1>  -0.3630 
 19 C       -4.0430     7.6530    -1.2650 C.3   1 <1>   0.0400 
 20 C       -5.9220    -2.3040     0.4010 C.ar  1 <1>   0.0830 
 21 C       -6.7920    -3.0480     1.1910 C.ar  1 <1>   0.1600 
 22 C       -6.2760    -2.0570    -0.9170 C.ar  1 <1>  -0.1500 
 23 N       -7.9530    -3.5470     0.7930 N.ar  1 <1>  -0.6200 
 24 C       -7.4820    -2.5710    -1.3460 C.ar  1 <1>  -0.1500 
 25 C       -8.2700    -3.2960    -0.4670 C.ar  1 <1>   0.1600 
 26 H       -0.2790     2.2900     0.7750 H     1 <1>   0.0800 
 27 H       -2.3510     1.5790     1.6720 H     1 <1>   0.4500 
 28 H       -0.6460    -0.0640     1.0850 H     1 <1>   0.0800 
 29 H       -1.3770    -0.2050    -0.4940 H     1 <1>   0.0800 
 30 H       -3.2680     1.2870    -1.1240 H     1 <1>   0.0800 
 31 H       -3.8550     2.4620     0.0240 H     1 <1>   0.0800 
 32 H       -2.5430     4.0470    -1.5740 H     1 <1>   0.1500 
 33 H       -1.0120     3.8520     2.4220 H     1 <1>   0.1500 
 34 H       -2.6920    -0.9100     2.1370 H     1 <1>   0.0800 
 35 H       -2.1260    -2.0320     0.9260 H     1 <1>   0.0800 
 36 H       -5.3530     0.5260    -0.1550 H     1 <1>   0.0800 
 37 H       -4.7150     0.6850     1.4590 H     1 <1>   0.0800 
 38 H       -1.9340     6.0700     2.8660 H     1 <1>   0.1500 
 39 H       -3.7460    -1.2690    -0.6770 H     1 <1>   0.0800 
 40 H       -3.1590     7.2720     1.1390 H     1 <1>   0.1500 
 41 H       -4.4850     7.9240    -2.2070 H     1 <1>   0.0800 
 42 H       -3.1970     8.2860    -1.0630 H     1 <1>   0.0800 
 43 H       -4.7770     7.7270    -0.4820 H     1 <1>   0.0800 
 44 H       -6.5050    -3.2380     2.2100 H     1 <1>   0.1500 
 45 H       -5.6630    -1.4980    -1.5980 H     1 <1>   0.1500 
 46 H       -7.8150    -2.4170    -2.3570 H     1 <1>   0.1500 
 47 H       -9.2090    -3.6910    -0.8180 H     1 <1>   0.1500 
@<TRIPOS>BOND
  1   1   2  ar  
  2   2   3  ar  
  3   2   4  1   
  4   4   5  1   
  5   4   6  1   
  6   4  26  1   
  7   5   7  1   
  8   5   8  1   
  9   5  27  1   
 10   6   9  ar  
 11   6  10  ar  
 12   7  11  1   
 13   7  28  1   
 14   7  29  1   
 15   8  12  1   
 16   8  30  1   
 17   8  31  1   
 18   9  13  ar  
 19   9  32  1   
 20  10  14  ar  
 21  10  33  1   
 22  11  15  1   
 23  11  34  1   
 24  11  35  1   
 25  12  15  1   
 26  12  36  1   
 27  12  37  1   
 28  13  16  1   
 29  13  17  ar  
 30  14  17  ar  
 31  14  38  1   
 32  15  18  1   
 33  15  39  1   
 34  16  19  1   
 35  17  40  1   
 36  18  20  1   
 37  19  41  1   
 38  19  42  1   
 39  19  43  1   
 40  20  21  ar  
 41  20  22  ar  
 42  21  23  ar  
 43  21  44  1   
 44  22  24  ar  
 45  22  45  1   
 46  23  25  ar  
 47  24  25  ar  
 48  24  46  1   
 49  25  47  1   
@<TRIPOS>SUBSTRUCTURE
  1 ****   8 GROUP 4 **** **** 0

# MOE 2024.06 (io_trps.svl 2023.06)
