@<TRIPOS>MOLECULE
NONAME
48 50 1 0 0 
SMALL
USER_CHARGES


@<TRIPOS>ATOM
  1 O       -2.1030     0.6400    -1.9310 O.2   1 <1>  -0.5700 
  2 C       -1.9330     0.9170    -0.7600 C.2   1 <1>   0.5440 
  3 N       -1.9340    -0.0910     0.1580 N.am  1 <1>  -0.7300 
  4 C       -1.7470     2.2870    -0.3210 C.ar  1 <1>   0.0860 
  5 C       -2.1930    -1.5140    -0.1510 C.3   1 <1>   0.2200 
  6 C       -0.4940     2.9050    -0.4060 C.ar  1 <1>  -0.1440 
  7 C       -2.8140     3.0180     0.2160 C.ar  1 <1>  -0.1440 
  8 C       -3.6790    -1.7900    -0.0090 C.3   1 <1>  -0.0800 
  9 C       -1.6000    -2.4010     0.9400 C.3   1 <1>   0.1200 
 10 C       -0.3190     4.2020     0.0450 C.ar  1 <1>  -0.1500 
 11 C        0.6960     2.1610    -0.9990 C.3   1 <1>  -0.0970 
 12 C       -2.6210     4.3140     0.6630 C.ar  1 <1>  -0.1500 
 13 C       -4.2070     2.4070     0.3100 C.3   1 <1>  -0.0970 
 14 C       -3.8100    -2.0380     1.4960 C.3   1 <1>   0.1200 
 15 C       -4.1100    -3.0090    -0.8440 C.3   1 <1>  -0.0170 
 16 O       -2.5660    -2.4910     1.9460 O.3   1 <1>  -0.5600 
 17 C       -1.3760     4.9120     0.5850 C.ar  1 <1>  -0.1440 
 18 C       -5.6090    -3.2450    -0.7430 C.ar  1 <1>  -0.1440 
 19 C       -1.1750     6.3340     1.0750 C.3   1 <1>  -0.0970 
 20 C       -6.5130    -2.4490    -1.4180 C.ar  1 <1>  -0.1500 
 21 C       -6.1450    -4.2610     0.0230 C.ar  1 <1>  -0.1500 
 22 C       -7.8700    -2.6970    -1.2940 C.ar  1 <1>   0.1600 
 23 C       -7.5190    -4.4230     0.0800 C.ar  1 <1>   0.1600 
 24 N       -8.3950    -3.6640    -0.5590 N.ar  1 <1>  -0.6200 
 25 H       -1.8590     0.1360     1.1520 H     1 <1>   0.3700 
 26 H       -1.8060    -1.7540    -1.1280 H     1 <1>   0.0800 
 27 H       -4.2630    -0.9390    -0.3140 H     1 <1>   0.0800 
 28 H       -0.6880    -2.0030     1.3470 H     1 <1>   0.0800 
 29 H       -1.4280    -3.3940     0.5660 H     1 <1>   0.0800 
 30 H        0.6470     4.6700    -0.0250 H     1 <1>   0.1500 
 31 H        1.5760     2.7780    -1.0070 H     1 <1>   0.0800 
 32 H        0.4780     1.8710    -2.0120 H     1 <1>   0.0800 
 33 H        0.9050     1.2770    -0.4230 H     1 <1>   0.0800 
 34 H       -3.4450     4.8700     1.0750 H     1 <1>   0.1500 
 35 H       -4.9320     3.1390     0.6180 H     1 <1>   0.0800 
 36 H       -4.2110     1.6030     1.0230 H     1 <1>   0.0800 
 37 H       -4.5070     2.0230    -0.6500 H     1 <1>   0.0800 
 38 H       -4.5620    -2.7670     1.7440 H     1 <1>   0.0800 
 39 H       -4.0240    -1.1180     2.0120 H     1 <1>   0.0800 
 40 H       -3.5820    -3.8900    -0.5230 H     1 <1>   0.0800 
 41 H       -3.8600    -2.8380    -1.8770 H     1 <1>   0.0800 
 42 H       -0.1670     6.4750     1.4220 H     1 <1>   0.0800 
 43 H       -1.8450     6.5510     1.8880 H     1 <1>   0.0800 
 44 H       -1.3670     7.0250     0.2740 H     1 <1>   0.0800 
 45 H       -6.1730    -1.6400    -2.0390 H     1 <1>   0.1500 
 46 H       -5.5090    -4.9270     0.5770 H     1 <1>   0.1500 
 47 H       -8.5590    -2.0660    -1.8280 H     1 <1>   0.1500 
 48 H       -7.9200    -5.2200     0.6830 H     1 <1>   0.1500 
@<TRIPOS>BOND
  1   1   2  2   
  2   2   3  am  
  3   2   4  1   
  4   3   5  1   
  5   3  25  1   
  6   4   6  ar  
  7   4   7  ar  
  8   5   8  1   
  9   5   9  1   
 10   5  26  1   
 11   6  10  ar  
 12   6  11  1   
 13   7  12  ar  
 14   7  13  1   
 15   8  14  1   
 16   8  15  1   
 17   8  27  1   
 18   9  16  1   
 19   9  28  1   
 20   9  29  1   
 21  10  17  ar  
 22  10  30  1   
 23  11  31  1   
 24  11  32  1   
 25  11  33  1   
 26  12  17  ar  
 27  12  34  1   
 28  13  35  1   
 29  13  36  1   
 30  13  37  1   
 31  14  16  1   
 32  14  38  1   
 33  14  39  1   
 34  15  18  1   
 35  15  40  1   
 36  15  41  1   
 37  17  19  1   
 38  18  20  ar  
 39  18  21  ar  
 40  19  42  1   
 41  19  43  1   
 42  19  44  1   
 43  20  22  ar  
 44  20  45  1   
 45  21  23  ar  
 46  21  46  1   
 47  22  24  ar  
 48  22  47  1   
 49  23  24  ar  
 50  23  48  1   
@<TRIPOS>SUBSTRUCTURE
  1 ****   3 GROUP 4 **** **** 0

# MOE 2024.06 (io_trps.svl 2023.06)
