@<TRIPOS>MOLECULE
NONAME
38 38 1 0 0 
SMALL
USER_CHARGES


@<TRIPOS>ATOM
  1 O        0.7420     1.3330     1.9510 O.2   1 <1>  -0.5700 
  2 C        0.6800     0.4410     1.1400 C.2   1 <1>   0.5690 
  3 N        0.9190     0.6230    -0.1850 N.am  1 <1>  -0.7300 
  4 C        0.3430    -0.9670     1.6280 C.3   1 <1>   0.1810 
  5 C        1.1740     1.8370    -0.9960 C.3   1 <1>   0.4000 
  6 O        0.5230    -1.9300     0.6150 O.3   1 <1>  -0.5600 
  7 C        2.6450     1.9450    -1.3880 C.2   1 <1>   0.0060 
  8 C        0.6290     3.1250    -0.3750 C.3   1 <1>  -0.2400 
  9 C        0.2340    -3.2310     1.0280 C.3   1 <1>   0.1200 
 10 N        3.0300     2.0380    -2.6140 N.2   1 <1>  -0.5650 
 11 N        3.6950     1.9490    -0.5460 N.pl3 1 <1>   0.3140 
 12 C        0.4730    -4.1840    -0.1400 C.3   1 <1>   0.1200 
 13 C        4.3580     2.0950    -2.4800 C.2   1 <1>   0.3660 
 14 N        4.8070     2.0420    -1.2730 N.2   1 <1>  -0.7070 
 15 C        3.7150     1.8320     0.9390 C.3   1 <1>   0.0960 
 16 O        0.1780    -5.4760     0.2860 O.3   1 <1>  -0.5600 
 17 C        5.0400     2.2810     1.5760 C.3   1 <1>  -0.2400 
 18 C        0.3570    -6.4470    -0.6940 C.3   1 <1>   0.0400 
 19 H        0.9290    -0.2410    -0.7370 H     1 <1>   0.3700 
 20 H       -0.6820    -0.9910     1.9490 H     1 <1>   0.0800 
 21 H        0.9850    -1.2140     2.4550 H     1 <1>   0.0800 
 22 H        0.6280     1.7020    -1.9150 H     1 <1>   0.0800 
 23 H        1.1670     3.4020     0.5100 H     1 <1>   0.0800 
 24 H       -0.4120     3.0070    -0.1350 H     1 <1>   0.0800 
 25 H        0.7260     3.9270    -1.0840 H     1 <1>   0.0800 
 26 H       -0.7970    -3.2770     1.3340 H     1 <1>   0.0800 
 27 H        0.8820    -3.4880     1.8480 H     1 <1>   0.0800 
 28 H        1.5040    -4.1480    -0.4450 H     1 <1>   0.0800 
 29 H       -0.1760    -3.9350    -0.9620 H     1 <1>   0.0800 
 30 H        4.9970     2.1790    -3.3450 H     1 <1>   0.1500 
 31 H        3.5240     0.8060     1.1930 H     1 <1>   0.0800 
 32 H        2.9240     2.4340     1.3390 H     1 <1>   0.0800 
 33 H        5.8480     1.6560     1.2380 H     1 <1>   0.0800 
 34 H        4.9740     2.2050     2.6460 H     1 <1>   0.0800 
 35 H        5.2500     3.3030     1.3160 H     1 <1>   0.0800 
 36 H        0.1050    -7.4030    -0.2680 H     1 <1>   0.0800 
 37 H        1.3860    -6.4500    -1.0080 H     1 <1>   0.0800 
 38 H       -0.2940    -6.2380    -1.5250 H     1 <1>   0.0800 
@<TRIPOS>BOND
  1   1   2  2   
  2   2   3  am  
  3   2   4  1   
  4   3   5  1   
  5   3  19  1   
  6   4   6  1   
  7   4  20  1   
  8   4  21  1   
  9   5   7  1   
 10   5   8  1   
 11   5  22  1   
 12   6   9  1   
 13   7  10  2   
 14   7  11  1   
 15   8  23  1   
 16   8  24  1   
 17   8  25  1   
 18   9  12  1   
 19   9  26  1   
 20   9  27  1   
 21  10  13  1   
 22  11  14  1   
 23  11  15  1   
 24  12  16  1   
 25  12  28  1   
 26  12  29  1   
 27  13  14  2   
 28  13  30  1   
 29  15  17  1   
 30  15  31  1   
 31  15  32  1   
 32  16  18  1   
 33  17  33  1   
 34  17  34  1   
 35  17  35  1   
 36  18  36  1   
 37  18  37  1   
 38  18  38  1   
@<TRIPOS>SUBSTRUCTURE
  1 ****   3 GROUP 4 **** **** 0

# MOE 2024.06 (io_trps.svl 2023.06)
