@<TRIPOS>MOLECULE
NONAME
42 44 1 0 0 
SMALL
USER_CHARGES


@<TRIPOS>ATOM
  1 O        1.1350     0.0480    -0.6910 O.2   1 <1>  -0.5700 
  2 C        1.8060    -0.8720    -0.3010 C.2   1 <1>   0.5690 
  3 N        1.8380    -1.2220     1.0000 N.am  1 <1>  -0.7300 
  4 C        2.6760    -1.6570    -1.2590 C.3   1 <1>  -0.0990 
  5 C        2.6480    -2.3470     1.5080 C.3   1 <1>   0.1400 
  6 C        2.6530    -3.1730    -0.9570 C.3   1 <1>  -0.0800 
  7 C        2.5190    -3.5380     0.5400 C.3   1 <1>  -0.0800 
  8 C        3.8920    -3.8970    -1.4960 C.3   1 <1>  -0.1600 
  9 C        3.5430    -4.6440     0.8350 C.3   1 <1>  -0.1600 
 10 C        4.2350    -4.9900    -0.4840 C.3   1 <1>   0.2200 
 11 N        5.7070    -5.2160    -0.3400 N.am  1 <1>  -0.6600 
 12 C        6.6790    -4.2410    -0.1630 C.2   1 <1>   0.5440 
 13 C        6.1240    -6.6020    -0.7060 C.3   1 <1>   0.0600 
 14 O        7.7880    -4.4370    -0.6190 O.2   1 <1>  -0.5700 
 15 C        6.4540    -3.0070     0.5580 C.ar  1 <1>   0.0860 
 16 C        6.3960    -3.0090     1.9480 C.ar  1 <1>   0.1600 
 17 C        6.3220    -1.7790    -0.0760 C.ar  1 <1>  -0.1500 
 18 N        6.1710    -1.9560     2.7180 N.ar  1 <1>  -0.6200 
 19 C        6.0920    -0.6610     0.6980 C.ar  1 <1>  -0.1440 
 20 C        6.0270    -0.8080     2.0760 C.ar  1 <1>   0.1600 
 21 C        5.9090     0.7040     0.0570 C.3   1 <1>  -0.0970 
 22 H        1.2820    -0.6730     1.6590 H     1 <1>   0.3700 
 23 H        2.3510    -1.4770    -2.2680 H     1 <1>   0.0800 
 24 H        3.6700    -1.2680    -1.1570 H     1 <1>   0.0800 
 25 H        3.6720    -2.0310     1.5730 H     1 <1>   0.0800 
 26 H        2.3120    -2.6280     2.4910 H     1 <1>   0.0800 
 27 H        1.7890    -3.5870    -1.4510 H     1 <1>   0.0800 
 28 H        1.5350    -3.9500     0.6880 H     1 <1>   0.0800 
 29 H        4.7070    -3.2160    -1.6170 H     1 <1>   0.0800 
 30 H        3.6840    -4.3330    -2.4570 H     1 <1>   0.0800 
 31 H        3.0390    -5.5170     1.2100 H     1 <1>   0.0800 
 32 H        4.2440    -4.3330     1.5800 H     1 <1>   0.0800 
 33 H        3.7770    -5.8960    -0.8470 H     1 <1>   0.0800 
 34 H        5.5150    -7.3200    -0.1850 H     1 <1>   0.0800 
 35 H        7.1530    -6.7730    -0.4380 H     1 <1>   0.0800 
 36 H        6.0160    -6.7430    -1.7680 H     1 <1>   0.0800 
 37 H        6.5400    -3.9520     2.4470 H     1 <1>   0.1500 
 38 H        6.4040    -1.7160    -1.1470 H     1 <1>   0.1500 
 39 H        5.8470     0.0650     2.6820 H     1 <1>   0.1500 
 40 H        6.2770     0.7040    -0.9530 H     1 <1>   0.0800 
 41 H        6.4470     1.4510     0.6130 H     1 <1>   0.0800 
 42 H        4.8660     0.9660     0.0440 H     1 <1>   0.0800 
@<TRIPOS>BOND
  1   1   2  2   
  2   2   3  am  
  3   2   4  1   
  4   3   5  1   
  5   3  22  1   
  6   4   6  1   
  7   4  23  1   
  8   4  24  1   
  9   5   7  1   
 10   5  25  1   
 11   5  26  1   
 12   6   7  1   
 13   6   8  1   
 14   6  27  1   
 15   7   9  1   
 16   7  28  1   
 17   8  10  1   
 18   8  29  1   
 19   8  30  1   
 20   9  10  1   
 21   9  31  1   
 22   9  32  1   
 23  10  11  1   
 24  10  33  1   
 25  11  12  am  
 26  11  13  1   
 27  12  14  2   
 28  12  15  1   
 29  13  34  1   
 30  13  35  1   
 31  13  36  1   
 32  15  16  ar  
 33  15  17  ar  
 34  16  18  ar  
 35  16  37  1   
 36  17  19  ar  
 37  17  38  1   
 38  18  20  ar  
 39  19  20  ar  
 40  19  21  1   
 41  20  39  1   
 42  21  40  1   
 43  21  41  1   
 44  21  42  1   
@<TRIPOS>SUBSTRUCTURE
  1 ****  15 GROUP 4 **** **** 0

# MOE 2024.06 (io_trps.svl 2023.06)
