@<TRIPOS>MOLECULE
NONAME
52 54 1 0 0 
SMALL
USER_CHARGES


@<TRIPOS>ATOM
  1 S       -1.3160    -0.8920    -0.5130 S.3   1 <1>  -0.0800 
  2 C       -1.5460    -1.5820     1.0990 C.2   1 <1>  -0.0450 
  3 C       -0.4210     0.4790     0.1120 C.2   1 <1>  -0.1400 
  4 C       -2.2610    -2.8250     1.2610 C.2   1 <1>   0.7150 
  5 C       -0.9440    -0.7680     2.0020 C.2   1 <1>  -0.1500 
  6 C       -0.3170     0.3880     1.4520 C.2   1 <1>  -0.1500 
  7 C        0.0690     1.4920    -0.9070 C.3   1 <1>   0.0200 
  8 O       -2.2580    -3.3980     2.3350 O.2   1 <1>  -0.5700 
  9 N       -2.9910    -3.3710     0.2380 N.am  1 <1>  -0.6600 
 10 C        0.8350     2.6460    -0.2550 C.3   1 <1>  -0.2400 
 11 C       -2.9400    -4.8550     0.0380 C.3   1 <1>   0.3640 
 12 C       -4.2390    -2.6860    -0.1840 C.3   1 <1>   0.1400 
 13 C       -1.4690    -5.2520    -0.1350 C.ar  1 <1>  -0.1430 
 14 C       -3.7630    -5.3530    -1.1920 C.3   1 <1>   0.2000 
 15 C       -4.7380    -3.2340    -1.5210 C.3   1 <1>   0.1200 
 16 C       -0.8990    -6.1970     0.7070 C.ar  1 <1>  -0.1500 
 17 C       -0.6850    -4.6770    -1.1290 C.ar  1 <1>  -0.1500 
 18 O       -4.9360    -4.6070    -1.4050 O.3   1 <1>  -0.5600 
 19 C       -4.2170    -6.8190    -1.0730 C.3   1 <1>   0.1200 
 20 C        0.4220    -6.5800     0.5540 C.ar  1 <1>   0.0830 
 21 C        0.6420    -5.0420    -1.2800 C.ar  1 <1>  -0.1500 
 22 O       -3.1610    -7.6840    -0.8040 O.3   1 <1>  -0.6800 
 23 O        0.8980    -7.5400     1.3820 O.3   1 <1>  -0.3630 
 24 C        1.2070    -5.9820    -0.4370 C.ar  1 <1>   0.0830 
 25 C        1.1520    -8.7930     0.7880 C.3   1 <1>   0.0400 
 26 O        2.5180    -6.2770    -0.6170 O.3   1 <1>  -0.3630 
 27 C        3.3870    -5.9330     0.4400 C.3   1 <1>   0.0400 
 28 H       -0.9240    -0.9590     3.0620 H     1 <1>   0.1500 
 29 H        0.1840     1.0950     2.0890 H     1 <1>   0.1500 
 30 H        0.7090     0.9940    -1.6140 H     1 <1>   0.0800 
 31 H       -0.7770     1.8850    -1.4440 H     1 <1>   0.0800 
 32 H        1.6960     2.2720     0.2690 H     1 <1>   0.0800 
 33 H        0.2010     3.1670     0.4410 H     1 <1>   0.0800 
 34 H        1.1640     3.3410    -1.0070 H     1 <1>   0.0800 
 35 H       -3.3340    -5.3270     0.9220 H     1 <1>   0.0800 
 36 H       -4.9980    -2.8380     0.5650 H     1 <1>   0.0800 
 37 H       -4.0670    -1.6270    -0.2720 H     1 <1>   0.0800 
 38 H       -3.1700    -5.2520    -2.0830 H     1 <1>   0.0800 
 39 H       -4.0310    -3.0400    -2.3100 H     1 <1>   0.0800 
 40 H       -5.6820    -2.7860    -1.7770 H     1 <1>   0.0800 
 41 H       -1.4810    -6.6530     1.4890 H     1 <1>   0.1500 
 42 H       -1.1030    -3.9330    -1.7840 H     1 <1>   0.1500 
 43 H       -4.6760    -7.1350    -1.9940 H     1 <1>   0.0800 
 44 H       -4.9270    -6.9210    -0.2710 H     1 <1>   0.0800 
 45 H        1.2470    -4.5920    -2.0450 H     1 <1>   0.1500 
 46 H       -2.4110    -7.5370    -1.4160 H     1 <1>   0.4000 
 47 H        1.4700    -9.4720     1.5570 H     1 <1>   0.0800 
 48 H        1.9250    -8.6840     0.0480 H     1 <1>   0.0800 
 49 H        0.2450    -9.1500     0.3320 H     1 <1>   0.0800 
 50 H        4.3980    -6.0810     0.1070 H     1 <1>   0.0800 
 51 H        3.1840    -6.5620     1.2870 H     1 <1>   0.0800 
 52 H        3.2290    -4.9000     0.6970 H     1 <1>   0.0800 
@<TRIPOS>BOND
  1   1   2  1   
  2   1   3  1   
  3   2   4  1   
  4   2   5  2   
  5   3   6  2   
  6   3   7  1   
  7   4   8  2   
  8   4   9  am  
  9   5   6  1   
 10   5  28  1   
 11   6  29  1   
 12   7  10  1   
 13   7  30  1   
 14   7  31  1   
 15   9  11  1   
 16   9  12  1   
 17  10  32  1   
 18  10  33  1   
 19  10  34  1   
 20  11  13  1   
 21  11  14  1   
 22  11  35  1   
 23  12  15  1   
 24  12  36  1   
 25  12  37  1   
 26  13  16  ar  
 27  13  17  ar  
 28  14  18  1   
 29  14  19  1   
 30  14  38  1   
 31  15  18  1   
 32  15  39  1   
 33  15  40  1   
 34  16  20  ar  
 35  16  41  1   
 36  17  21  ar  
 37  17  42  1   
 38  19  22  1   
 39  19  43  1   
 40  19  44  1   
 41  20  23  1   
 42  20  24  ar  
 43  21  24  ar  
 44  21  45  1   
 45  22  46  1   
 46  23  25  1   
 47  24  26  1   
 48  25  47  1   
 49  25  48  1   
 50  25  49  1   
 51  26  27  1   
 52  27  50  1   
 53  27  51  1   
 54  27  52  1   
@<TRIPOS>SUBSTRUCTURE
  1 ****  13 GROUP 4 **** **** 0

# MOE 2024.06 (io_trps.svl 2023.06)
