@<TRIPOS>MOLECULE
NONAME
56 60 1 0 0 
SMALL
USER_CHARGES


@<TRIPOS>ATOM
  1 O        0.2880     1.2630     1.6720 O.2   1 <1>  -0.5700 
  2 C       -0.3150     1.9670     0.8850 C.2   1 <1>   0.7030 
  3 N       -1.6920     1.8720     0.8350 N.am  1 <1>  -0.6600 
  4 C        0.4670     2.8630     0.0410 C.2   1 <1>   0.2770 
  5 C       -2.5820     2.9510     0.2920 C.3   1 <1>   0.1400 
  6 C       -2.3790     0.6970     1.4610 C.3   1 <1>   0.1400 
  7 N        0.0880     3.5340    -1.1160 N.pl3 1 <1>  -0.7000 
  8 C        1.7680     3.1850     0.2390 C.2   1 <1>   0.2000 
  9 C       -3.9490     3.0150     0.9940 C.3   1 <1>   0.1440 
 10 C       -3.7440     0.4460     0.8070 C.3   1 <1>  -0.1600 
 11 C        1.1330     4.2340    -1.5780 C.cat 1 <1>   0.7910 
 12 N        2.1910     4.0390    -0.7570 N.pl3 1 <1>  -0.6290 
 13 C       -4.7720     4.1320     0.3830 C.ar  1 <1>   0.1670 
 14 C       -4.6910     1.6630     0.8650 C.3   1 <1>  -0.1600 
 15 C       -3.8380     3.4670     2.4770 C.3   1 <1>  -0.1600 
 16 C        1.2420     5.0600    -2.7080 C.2   1 <1>  -0.1410 
 17 C        3.4010     4.6480    -1.0180 C.2   1 <1>   0.2410 
 18 N       -4.9200     4.3350    -0.9030 N.ar  1 <1>  -0.6200 
 19 C       -5.3350     4.9260     1.3340 C.ar  1 <1>  -0.1440 
 20 C       -4.9830     4.4660     2.7260 C.3   1 <1>  -0.0170 
 21 C        2.4340     5.6730    -2.9820 C.2   1 <1>  -0.1500 
 22 C        3.5240     5.4550    -2.1140 C.2   1 <1>  -0.1500 
 23 C        4.5530     4.3900    -0.0640 C.3   1 <1>  -0.1020 
 24 C       -5.6880     5.3800    -1.2250 C.ar  1 <1>   0.7200 
 25 C       -6.0990     5.9820     0.9090 C.ar  1 <1>   0.1600 
 26 N       -6.2790     6.2200    -0.3690 N.ar  1 <1>  -0.6200 
 27 N       -5.8830     5.6150    -2.5710 N.pl3 1 <1>  -0.8380 
 28 C       -5.9010     4.5060    -3.5650 C.3   1 <1>   0.1290 
 29 C       -6.4340     6.9090    -3.0590 C.3   1 <1>   0.1290 
 30 H       -2.7530     2.7600    -0.7540 H     1 <1>   0.0800 
 31 H       -2.1050     3.9110     0.3890 H     1 <1>   0.0800 
 32 H       -2.5020     0.8780     2.5150 H     1 <1>   0.0800 
 33 H       -1.7660    -0.1830     1.3490 H     1 <1>   0.0800 
 34 H       -0.8260     3.4800    -1.5710 H     1 <1>   0.4500 
 35 H        2.4090     2.8420     1.0360 H     1 <1>   0.1500 
 36 H       -4.2170    -0.3980     1.2790 H     1 <1>   0.0800 
 37 H       -3.5750     0.1760    -0.2210 H     1 <1>   0.0800 
 38 H       -5.2790     1.6640    -0.0370 H     1 <1>   0.0800 
 39 H       -5.3820     1.5510     1.6820 H     1 <1>   0.0800 
 40 H       -2.9050     3.9820     2.6270 H     1 <1>   0.0800 
 41 H       -3.8810     2.6440     3.1680 H     1 <1>   0.0800 
 42 H        0.3820     5.1940    -3.3370 H     1 <1>   0.1500 
 43 H       -4.6690     5.2840     3.3510 H     1 <1>   0.0800 
 44 H       -5.8320     3.9720     3.1680 H     1 <1>   0.0800 
 45 H        2.5610     6.3150    -3.8390 H     1 <1>   0.1500 
 46 H        4.4580     5.9420    -2.3410 H     1 <1>   0.1500 
 47 H        4.2950     4.7200     0.9260 H     1 <1>   0.0800 
 48 H        5.4330     4.9210    -0.3800 H     1 <1>   0.0800 
 49 H        4.7820     3.3400    -0.0380 H     1 <1>   0.0800 
 50 H       -6.5670     6.6400     1.6210 H     1 <1>   0.1500 
 51 H       -5.8910     3.5480    -3.0740 H     1 <1>   0.0800 
 52 H       -5.0390     4.5810    -4.2030 H     1 <1>   0.0800 
 53 H       -6.7920     4.5660    -4.1640 H     1 <1>   0.0800 
 54 H       -6.0830     7.7200    -2.4430 H     1 <1>   0.0800 
 55 H       -7.5090     6.8820    -3.0190 H     1 <1>   0.0800 
 56 H       -6.1180     7.0890    -4.0710 H     1 <1>   0.0800 
@<TRIPOS>BOND
  1   1   2  2   
  2   2   3  am  
  3   2   4  1   
  4   3   5  1   
  5   3   6  1   
  6   4   7  1   
  7   4   8  2   
  8   5   9  1   
  9   5  30  1   
 10   5  31  1   
 11   6  10  1   
 12   6  32  1   
 13   6  33  1   
 14   7  11  ar  
 15   7  34  1   
 16   8  12  1   
 17   8  35  1   
 18   9  13  1   
 19   9  14  1   
 20   9  15  1   
 21  10  14  1   
 22  10  36  1   
 23  10  37  1   
 24  11  12  ar  
 25  11  16  1   
 26  12  17  1   
 27  13  18  ar  
 28  13  19  ar  
 29  14  38  1   
 30  14  39  1   
 31  15  20  1   
 32  15  40  1   
 33  15  41  1   
 34  16  21  2   
 35  16  42  1   
 36  17  22  2   
 37  17  23  1   
 38  18  24  ar  
 39  19  20  1   
 40  19  25  ar  
 41  20  43  1   
 42  20  44  1   
 43  21  22  1   
 44  21  45  1   
 45  22  46  1   
 46  23  47  1   
 47  23  48  1   
 48  23  49  1   
 49  24  26  ar  
 50  24  27  1   
 51  25  26  ar  
 52  25  50  1   
 53  27  28  1   
 54  27  29  1   
 55  28  51  1   
 56  28  52  1   
 57  28  53  1   
 58  29  54  1   
 59  29  55  1   
 60  29  56  1   
@<TRIPOS>SUBSTRUCTURE
  1 ****   5 GROUP 4 **** **** 0

# MOE 2024.06 (io_trps.svl 2023.06)
