@<TRIPOS>MOLECULE
NONAME
53 55 1 0 0 
SMALL
USER_CHARGES


@<TRIPOS>ATOM
  1 CL       1.0270     4.2060     2.7210 Cl    1 <1>  -0.1770 
  2 C        0.5160     3.4850     1.2130 C.ar  1 <1>   0.1770 
  3 C        1.3230     2.5760     0.5370 C.ar  1 <1>  -0.1440 
  4 C       -0.7300     3.8440     0.7320 C.ar  1 <1>  -0.1500 
  5 C        0.8280     2.0100    -0.6340 C.ar  1 <1>  -0.1500 
  6 C        2.7110     2.1930     1.0510 C.3   1 <1>   0.3640 
  7 C       -1.2000     3.2830    -0.4420 C.ar  1 <1>  -0.1500 
  8 C       -0.4200     2.3630    -1.1200 C.ar  1 <1>  -0.1500 
  9 N        2.7050     0.7340     1.3120 N.am  1 <1>  -0.7300 
 10 C        3.8260     2.5740     0.0380 C.3   1 <1>   0.2610 
 11 C        3.7330    -0.0860     1.0040 C.2   1 <1>   0.5690 
 12 O        5.0380     1.8930     0.3330 O.3   1 <1>  -0.5600 
 13 C        4.0660     4.0920    -0.0210 C.2   1 <1>   0.5690 
 14 O        3.6860    -1.2590     1.2730 O.2   1 <1>  -0.5700 
 15 C        4.9540     0.4830     0.2730 C.3   1 <1>   0.1810 
 16 O        3.6830     4.7780     0.9010 O.2   1 <1>  -0.5700 
 17 N        4.7110     4.6690    -1.0960 N.am  1 <1>  -0.6600 
 18 C        4.8820     6.1490    -1.1690 C.3   1 <1>   0.1400 
 19 C        5.2290     3.9120    -2.2730 C.3   1 <1>   0.0600 
 20 C        5.9440     6.6410    -0.1640 C.3   1 <1>  -0.0800 
 21 C        6.1210     8.1640    -0.2560 C.3   1 <1>  -0.1600 
 22 C        7.3090     5.9520    -0.3350 C.3   1 <1>  -0.1600 
 23 C        7.1600     8.6610     0.7500 C.3   1 <1>   0.3430 
 24 C        8.3280     6.4850     0.6710 C.3   1 <1>   0.3430 
 25 N        8.4610     7.9650     0.5220 N.4   1 <1>  -0.9590 
 26 C        9.5150     8.4940     1.4380 C.3   1 <1>   0.2630 
 27 H       -1.3240     4.5550     1.2760 H     1 <1>   0.1500 
 28 H        1.4070     1.2820    -1.1760 H     1 <1>   0.1500 
 29 H        2.9190     2.6860     1.9840 H     1 <1>   0.0800 
 30 H       -2.1680     3.5580    -0.8230 H     1 <1>   0.1500 
 31 H       -0.7880     1.9180    -2.0290 H     1 <1>   0.1500 
 32 H        1.9080     0.3520     1.8230 H     1 <1>   0.3700 
 33 H        3.5160     2.2600    -0.9400 H     1 <1>   0.0800 
 34 H        4.9170     0.1900    -0.7600 H     1 <1>   0.0800 
 35 H        5.8480     0.0830     0.7140 H     1 <1>   0.0800 
 36 H        5.1550     6.4350    -2.1700 H     1 <1>   0.0800 
 37 H        3.9360     6.6140    -0.9430 H     1 <1>   0.0800 
 38 H        6.1330     4.3680    -2.6380 H     1 <1>   0.0800 
 39 H        4.4940     3.9180    -3.0590 H     1 <1>   0.0800 
 40 H        5.4580     2.8950    -2.0090 H     1 <1>   0.0800 
 41 H        5.5800     6.4230     0.8260 H     1 <1>   0.0800 
 42 H        5.1810     8.6450    -0.0430 H     1 <1>   0.0800 
 43 H        6.4150     8.4520    -1.2510 H     1 <1>   0.0800 
 44 H        7.6790     6.0870    -1.3360 H     1 <1>   0.0800 
 45 H        7.2010     4.8940    -0.1680 H     1 <1>   0.0800 
 46 H        6.8110     8.4620     1.7510 H     1 <1>   0.0800 
 47 H        7.2860     9.7270     0.6410 H     1 <1>   0.0800 
 48 H        9.2800     6.0080     0.5050 H     1 <1>   0.0800 
 49 H        7.9980     6.2470     1.6700 H     1 <1>   0.0800 
 50 H        8.7430     8.1510    -0.4510 H     1 <1>   0.4500 
 51 H        9.2430     8.3120     2.4650 H     1 <1>   0.0800 
 52 H        9.6350     9.5560     1.2960 H     1 <1>   0.0800 
 53 H       10.4590     8.0130     1.2400 H     1 <1>   0.0800 
@<TRIPOS>BOND
  1   1   2  1   
  2   2   3  ar  
  3   2   4  ar  
  4   3   5  ar  
  5   3   6  1   
  6   4   7  ar  
  7   4  27  1   
  8   5   8  ar  
  9   5  28  1   
 10   6   9  1   
 11   6  10  1   
 12   6  29  1   
 13   7   8  ar  
 14   7  30  1   
 15   8  31  1   
 16   9  11  am  
 17   9  32  1   
 18  10  12  1   
 19  10  13  1   
 20  10  33  1   
 21  11  14  2   
 22  11  15  1   
 23  12  15  1   
 24  13  16  2   
 25  13  17  am  
 26  15  34  1   
 27  15  35  1   
 28  17  18  1   
 29  17  19  1   
 30  18  20  1   
 31  18  36  1   
 32  18  37  1   
 33  19  38  1   
 34  19  39  1   
 35  19  40  1   
 36  20  21  1   
 37  20  22  1   
 38  20  41  1   
 39  21  23  1   
 40  21  42  1   
 41  21  43  1   
 42  22  24  1   
 43  22  44  1   
 44  22  45  1   
 45  23  25  1   
 46  23  46  1   
 47  23  47  1   
 48  24  25  1   
 49  24  48  1   
 50  24  49  1   
 51  25  26  1   
 52  25  50  1   
 53  26  51  1   
 54  26  52  1   
 55  26  53  1   
@<TRIPOS>SUBSTRUCTURE
  1 ****  13 GROUP 4 **** **** 0

# MOE 2024.06 (io_trps.svl 2023.06)
