@<TRIPOS>MOLECULE
NONAME
44 46 1 0 0 
SMALL
USER_CHARGES


@<TRIPOS>ATOM
  1 S       -1.3040     0.1790    -0.5600 S.3   1 <1>  -0.0800 
  2 C       -1.4030    -0.7600     0.9230 C.2   1 <1>  -0.1400 
  3 C       -1.5730     1.6750     0.3140 C.2   1 <1>  -0.1400 
  4 C       -1.6190     0.0490     1.9780 C.2   1 <1>  -0.1500 
  5 C       -1.2300    -2.2580     0.8090 C.3   1 <1>   0.5230 
  6 C       -1.7180     1.4330     1.6290 C.2   1 <1>  -0.1500 
  7 C       -1.5970     2.9580    -0.4910 C.3   1 <1>  -0.0600 
  8 N       -2.5530    -2.8780     0.5440 N.4   1 <1>  -0.9590 
  9 C       -3.2170    -2.4650    -0.7240 C.3   1 <1>   0.3430 
 10 C       -2.5590    -4.3690     0.5520 C.3   1 <1>   0.3430 
 11 C       -4.2890    -3.5330    -0.9280 C.3   1 <1>   0.2000 
 12 C       -3.5450    -4.8110    -0.5400 C.3   1 <1>  -0.0800 
 13 O       -5.3050    -3.3190     0.0090 O.3   1 <1>  -0.5600 
 14 C       -4.4440    -5.9870    -0.1090 C.3   1 <1>   0.0200 
 15 C       -6.3620    -2.5200    -0.4300 C.3   1 <1>   0.0400 
 16 C       -3.6110    -7.2220     0.1770 C.2   1 <1>  -0.0400 
 17 O       -2.7480    -7.2150     1.1580 O.3   1 <1>  -0.0190 
 18 C       -3.5530    -8.4260    -0.4110 C.2   1 <1>  -0.1500 
 19 N       -2.1050    -8.3380     1.2480 N.2   1 <1>  -0.4100 
 20 C       -2.5740    -9.0940     0.3200 C.2   1 <1>   0.1080 
 21 C       -2.1170   -10.5130     0.0650 C.3   1 <1>  -0.0590 
 22 H       -1.7130    -0.2540     3.0070 H     1 <1>   0.1500 
 23 H       -0.8340    -2.6370     1.7370 H     1 <1>   0.0800 
 24 H       -0.5340    -2.4890     0.0200 H     1 <1>   0.0800 
 25 H       -1.8910     2.1820     2.3840 H     1 <1>   0.1500 
 26 H       -1.7650     3.8000     0.1560 H     1 <1>   0.0800 
 27 H       -2.3840     2.9210    -1.2230 H     1 <1>   0.0800 
 28 H       -0.6570     3.0930    -0.9960 H     1 <1>   0.0800 
 29 H       -3.2010    -2.5750     1.2860 H     1 <1>   0.4500 
 30 H       -3.6470    -1.4790    -0.6510 H     1 <1>   0.0800 
 31 H       -2.5130    -2.4940    -1.5380 H     1 <1>   0.0800 
 32 H       -1.5800    -4.7690     0.3430 H     1 <1>   0.0800 
 33 H       -2.8840    -4.7290     1.5160 H     1 <1>   0.0800 
 34 H       -4.6960    -3.5650    -1.9260 H     1 <1>   0.0800 
 35 H       -2.9630    -5.1300    -1.3870 H     1 <1>   0.0800 
 36 H       -5.1460    -6.2100    -0.8930 H     1 <1>   0.0800 
 37 H       -5.0060    -5.7360     0.7750 H     1 <1>   0.0800 
 38 H       -7.0660    -2.4210     0.3780 H     1 <1>   0.0800 
 39 H       -6.8470    -2.9960    -1.2660 H     1 <1>   0.0800 
 40 H       -5.9950    -1.5470    -0.7080 H     1 <1>   0.0800 
 41 H       -4.1070    -8.8210    -1.2430 H     1 <1>   0.1500 
 42 H       -1.7120   -10.5960    -0.9260 H     1 <1>   0.0800 
 43 H       -2.9480   -11.1870     0.1660 H     1 <1>   0.0800 
 44 H       -1.3590   -10.7890     0.7760 H     1 <1>   0.0800 
@<TRIPOS>BOND
  1   1   2  1   
  2   1   3  1   
  3   2   4  2   
  4   2   5  1   
  5   3   6  2   
  6   3   7  1   
  7   4   6  1   
  8   4  22  1   
  9   5   8  1   
 10   5  23  1   
 11   5  24  1   
 12   6  25  1   
 13   7  26  1   
 14   7  27  1   
 15   7  28  1   
 16   8   9  1   
 17   8  10  1   
 18   8  29  1   
 19   9  11  1   
 20   9  30  1   
 21   9  31  1   
 22  10  12  1   
 23  10  32  1   
 24  10  33  1   
 25  11  12  1   
 26  11  13  1   
 27  11  34  1   
 28  12  14  1   
 29  12  35  1   
 30  13  15  1   
 31  14  16  1   
 32  14  36  1   
 33  14  37  1   
 34  15  38  1   
 35  15  39  1   
 36  15  40  1   
 37  16  17  1   
 38  16  18  2   
 39  17  19  1   
 40  18  20  1   
 41  18  41  1   
 42  19  20  2   
 43  20  21  1   
 44  21  42  1   
 45  21  43  1   
 46  21  44  1   
@<TRIPOS>SUBSTRUCTURE
  1 ****  10 GROUP 4 **** **** 0

# MOE 2024.06 (io_trps.svl 2023.06)
