@<TRIPOS>MOLECULE
NONAME
58 60 1 0 0 
SMALL
USER_CHARGES


@<TRIPOS>ATOM
  1 O        0.2040    -0.1340    -1.0750 O.3   1 <1>  -0.5600 
  2 C        1.4920    -0.6670    -1.2750 C.3   1 <1>   0.2000 
  3 C        0.1290     1.2610    -1.0410 C.3   1 <1>   0.1200 
  4 C        2.4870    -0.1440    -0.2030 C.3   1 <1>   0.5660 
  5 C        1.3990    -2.2010    -1.2180 C.3   1 <1>   0.1200 
  6 C        0.9800     1.8050     0.1200 C.3   1 <1>   0.3430 
  7 N        2.4010     1.3340     0.0260 N.4   1 <1>  -0.9590 
  8 C        3.9290    -0.4540    -0.5810 C.ar  1 <1>  -0.1430 
  9 O        1.2520    -2.6240     0.1010 O.3   1 <1>  -0.6800 
 10 C        3.2100     1.7440     1.2040 C.3   1 <1>   0.4870 
 11 C        4.6740    -1.2840     0.2450 C.ar  1 <1>  -0.1500 
 12 C        4.5240     0.0850    -1.7180 C.ar  1 <1>  -0.1500 
 13 C        3.5740     3.1970     1.0240 C.ar  1 <1>  -0.1430 
 14 C        5.9990    -1.5640    -0.0410 C.ar  1 <1>   0.0830 
 15 C        5.8510    -0.1850    -2.0040 C.ar  1 <1>  -0.1500 
 16 C        4.6700     3.5340     0.2460 C.ar  1 <1>   0.1600 
 17 C        2.8400     4.2100     1.6150 C.ar  1 <1>  -0.1500 
 18 O        6.6460    -2.3950     0.8100 O.3   1 <1>  -0.3630 
 19 C        6.6010    -0.9900    -1.1650 C.ar  1 <1>   0.0830 
 20 N        5.0630     4.7640    -0.0110 N.ar  1 <1>  -0.6200 
 21 C        3.2530     5.4970     1.3650 C.ar  1 <1>  -0.1500 
 22 C        7.1170    -3.6160     0.2780 C.3   1 <1>   0.0400 
 23 O        7.9020    -1.1800    -1.4870 O.3   1 <1>  -0.3630 
 24 C        4.3560     5.7390     0.5500 C.ar  1 <1>   0.4100 
 25 C        8.8600    -0.6370    -0.6040 C.3   1 <1>   0.0400 
 26 N        4.7550     7.0400     0.3010 N.pl3 1 <1>  -0.8380 
 27 C        6.1920     7.3260     0.0330 C.3   1 <1>   0.1290 
 28 C        3.8090     7.9880    -0.3420 C.3   1 <1>   0.1290 
 29 H        1.8100    -0.3760    -2.2610 H     1 <1>   0.0800 
 30 H        0.4550     1.6540    -1.9880 H     1 <1>   0.0800 
 31 H       -0.9040     1.5260    -0.8960 H     1 <1>   0.0800 
 32 H        2.2570    -0.6510     0.7200 H     1 <1>   0.0800 
 33 H        2.2970    -2.6500    -1.6090 H     1 <1>   0.0800 
 34 H        0.5540    -2.5430    -1.7920 H     1 <1>   0.0800 
 35 H        0.5430     1.4680     1.0450 H     1 <1>   0.0800 
 36 H        0.9490     2.8820     0.1090 H     1 <1>   0.0800 
 37 H        2.8350     1.7780    -0.7890 H     1 <1>   0.4500 
 38 H        0.9520    -3.5570     0.1320 H     1 <1>   0.4000 
 39 H        2.6560     1.5990     2.1170 H     1 <1>   0.0800 
 40 H        4.1180     1.1640     1.2610 H     1 <1>   0.0800 
 41 H        4.2400    -1.7350     1.1220 H     1 <1>   0.1500 
 42 H        3.9780     0.7170    -2.3970 H     1 <1>   0.1500 
 43 H        6.3200     0.2300    -2.8800 H     1 <1>   0.1500 
 44 H        5.2640     2.7520    -0.2000 H     1 <1>   0.1500 
 45 H        1.9910     4.0210     2.2500 H     1 <1>   0.1500 
 46 H        2.7440     6.3380     1.7990 H     1 <1>   0.1500 
 47 H        7.4760    -4.2210     1.0910 H     1 <1>   0.0800 
 48 H        7.9190    -3.4230    -0.4110 H     1 <1>   0.0800 
 49 H        6.3070    -4.1160    -0.2220 H     1 <1>   0.0800 
 50 H        9.8360    -0.8120    -1.0190 H     1 <1>   0.0800 
 51 H        8.7800    -1.1180     0.3540 H     1 <1>   0.0800 
 52 H        8.6860     0.4200    -0.5080 H     1 <1>   0.0800 
 53 H        6.4190     8.3450     0.2940 H     1 <1>   0.0800 
 54 H        6.4090     7.1660    -1.0090 H     1 <1>   0.0800 
 55 H        6.8130     6.6730     0.6210 H     1 <1>   0.0800 
 56 H        3.8170     8.9230     0.1920 H     1 <1>   0.0800 
 57 H        2.8090     7.5910    -0.3350 H     1 <1>   0.0800 
 58 H        4.1010     8.1620    -1.3630 H     1 <1>   0.0800 
@<TRIPOS>BOND
  1   1   2  1   
  2   1   3  1   
  3   2   4  1   
  4   2   5  1   
  5   2  29  1   
  6   3   6  1   
  7   3  30  1   
  8   3  31  1   
  9   4   7  1   
 10   4   8  1   
 11   4  32  1   
 12   5   9  1   
 13   5  33  1   
 14   5  34  1   
 15   6   7  1   
 16   6  35  1   
 17   6  36  1   
 18   7  10  1   
 19   7  37  1   
 20   8  11  ar  
 21   8  12  ar  
 22   9  38  1   
 23  10  13  1   
 24  10  39  1   
 25  10  40  1   
 26  11  14  ar  
 27  11  41  1   
 28  12  15  ar  
 29  12  42  1   
 30  13  16  ar  
 31  13  17  ar  
 32  14  18  1   
 33  14  19  ar  
 34  15  19  ar  
 35  15  43  1   
 36  16  20  ar  
 37  16  44  1   
 38  17  21  ar  
 39  17  45  1   
 40  18  22  1   
 41  19  23  1   
 42  20  24  ar  
 43  21  24  ar  
 44  21  46  1   
 45  22  47  1   
 46  22  48  1   
 47  22  49  1   
 48  23  25  1   
 49  24  26  1   
 50  25  50  1   
 51  25  51  1   
 52  25  52  1   
 53  26  27  1   
 54  26  28  1   
 55  27  53  1   
 56  27  54  1   
 57  27  55  1   
 58  28  56  1   
 59  28  57  1   
 60  28  58  1   
@<TRIPOS>SUBSTRUCTURE
  1 ****  10 GROUP 4 **** **** 0

# MOE 2024.06 (io_trps.svl 2023.06)
