@<TRIPOS>MOLECULE
NONAME
52 55 1 0 0 
SMALL
USER_CHARGES


@<TRIPOS>ATOM
  1 O       -0.3520     0.3080    -1.0390 O.2   1 <1>  -0.5700 
  2 C       -1.4260     0.8230    -0.7820 C.2   1 <1>   0.7150 
  3 N       -2.5610     0.0470    -0.8580 N.am  1 <1>  -0.6600 
  4 C       -1.4850     2.2070    -0.3980 C.2   1 <1>  -0.2370 
  5 C       -3.8060     0.3870    -0.1090 C.3   1 <1>   0.1400 
  6 C       -2.5180    -1.2710    -1.5560 C.3   1 <1>   0.1400 
  7 N       -0.5310     2.8390     0.3340 N.pl3 1 <1>   0.3140 
  8 C       -2.4240     3.1610    -0.6560 C.2   1 <1>  -0.1500 
  9 C       -4.5250    -0.8910     0.3190 C.3   1 <1>  -0.1600 
 10 C       -3.9130    -1.6890    -2.0320 C.3   1 <1>  -0.1600 
 11 N       -0.8360     4.1260     0.5650 N.2   1 <1>  -0.7070 
 12 C        0.7180     2.2690     0.8660 C.3   1 <1>   0.0160 
 13 C       -1.9700     4.3100    -0.0380 C.2   1 <1>   0.1390 
 14 C       -4.9790    -1.6970    -0.9130 C.3   1 <1>   0.4240 
 15 O       -6.0770    -1.0110    -1.4680 O.3   1 <1>  -0.5600 
 16 C       -5.3400    -3.1480    -0.5230 C.ar  1 <1>  -0.1430 
 17 C       -7.3460    -1.2710    -0.9510 C.3   1 <1>   0.1200 
 18 C       -6.6330    -3.6310    -0.6730 C.ar  1 <1>  -0.1430 
 19 C       -4.3680    -4.0030    -0.0140 C.ar  1 <1>  -0.1500 
 20 C       -7.7100    -2.7250    -1.2300 C.3   1 <1>  -0.0170 
 21 C       -6.9400    -4.9330    -0.3170 C.ar  1 <1>  -0.1500 
 22 C       -4.6600    -5.3180     0.3410 C.ar  1 <1>   0.0820 
 23 C       -5.9770    -5.7820     0.2000 C.ar  1 <1>   0.0820 
 24 O       -3.6860    -6.1550     0.8040 O.3   1 <1>  -0.3630 
 25 O       -6.4240    -7.0290     0.5230 O.3   1 <1>  -0.3630 
 26 C       -2.3170    -5.8970     0.5790 C.3   1 <1>   0.0400 
 27 C       -5.8600    -7.7500     1.5960 C.3   1 <1>   0.0400 
 28 H       -4.4530     0.9710    -0.7420 H     1 <1>   0.0800 
 29 H       -3.5610     0.9680     0.7640 H     1 <1>   0.0800 
 30 H       -2.1160    -2.0070    -0.8820 H     1 <1>   0.0800 
 31 H       -1.8580    -1.2060    -2.4050 H     1 <1>   0.0800 
 32 H       -3.3310     3.0670    -1.2250 H     1 <1>   0.1500 
 33 H       -5.3660    -0.6500     0.9390 H     1 <1>   0.0800 
 34 H       -3.8510    -1.4690     0.9210 H     1 <1>   0.0800 
 35 H       -3.8500    -2.6640    -2.4810 H     1 <1>   0.0800 
 36 H       -4.2030    -1.0050    -2.8090 H     1 <1>   0.0800 
 37 H        0.4960     1.3720     1.4120 H     1 <1>   0.0800 
 38 H        1.1860     2.9830     1.5160 H     1 <1>   0.0800 
 39 H        1.3750     2.0420     0.0470 H     1 <1>   0.0800 
 40 H       -2.4830     5.2580    -0.0470 H     1 <1>   0.1500 
 41 H       -8.0420    -0.6100    -1.4370 H     1 <1>   0.0800 
 42 H       -7.3500    -1.0700     0.1060 H     1 <1>   0.0800 
 43 H       -3.3720    -3.6300     0.1050 H     1 <1>   0.1500 
 44 H       -7.8000    -2.8750    -2.2910 H     1 <1>   0.0800 
 45 H       -8.6580    -2.9480    -0.7740 H     1 <1>   0.0800 
 46 H       -7.9410    -5.3070    -0.4340 H     1 <1>   0.1500 
 47 H       -1.7610    -6.7690     0.8730 H     1 <1>   0.0800 
 48 H       -2.0160    -5.0560     1.1780 H     1 <1>   0.0800 
 49 H       -2.1640    -5.7020    -0.4680 H     1 <1>   0.0800 
 50 H       -6.5650    -8.5010     1.9010 H     1 <1>   0.0800 
 51 H       -5.6640    -7.0740     2.4100 H     1 <1>   0.0800 
 52 H       -4.9530    -8.2180     1.2600 H     1 <1>   0.0800 
@<TRIPOS>BOND
  1   1   2  2   
  2   2   3  am  
  3   2   4  1   
  4   3   5  1   
  5   3   6  1   
  6   4   7  1   
  7   4   8  2   
  8   5   9  1   
  9   5  28  1   
 10   5  29  1   
 11   6  10  1   
 12   6  30  1   
 13   6  31  1   
 14   7  11  1   
 15   7  12  1   
 16   8  13  1   
 17   8  32  1   
 18   9  14  1   
 19   9  33  1   
 20   9  34  1   
 21  10  14  1   
 22  10  35  1   
 23  10  36  1   
 24  11  13  2   
 25  12  37  1   
 26  12  38  1   
 27  12  39  1   
 28  13  40  1   
 29  14  15  1   
 30  14  16  1   
 31  15  17  1   
 32  16  18  ar  
 33  16  19  ar  
 34  17  20  1   
 35  17  41  1   
 36  17  42  1   
 37  18  20  1   
 38  18  21  ar  
 39  19  22  ar  
 40  19  43  1   
 41  20  44  1   
 42  20  45  1   
 43  21  23  ar  
 44  21  46  1   
 45  22  23  ar  
 46  22  24  1   
 47  23  25  1   
 48  24  26  1   
 49  25  27  1   
 50  26  47  1   
 51  26  48  1   
 52  26  49  1   
 53  27  50  1   
 54  27  51  1   
 55  27  52  1   
@<TRIPOS>SUBSTRUCTURE
  1 ****   9 GROUP 4 **** **** 0

# MOE 2024.06 (io_trps.svl 2023.06)
