@<TRIPOS>MOLECULE
NONAME
46 48 1 0 0 
SMALL
USER_CHARGES


@<TRIPOS>ATOM
  1 S        0.6460     0.8060    -0.7440 S.3   1 <1>  -0.0800 
  2 C        1.8550     0.1060     0.3300 C.2   1 <1>  -0.1400 
  3 C       -0.6540     0.0080     0.1220 C.2   1 <1>  -0.1100 
  4 C        1.2590    -0.6650     1.2600 C.2   1 <1>  -0.1500 
  5 C        3.3190     0.4470     0.0940 C.3   1 <1>   0.4690 
  6 C       -0.1660    -0.7220     1.1420 C.2   1 <1>  -0.1500 
  7 N        3.4410     1.9060     0.1550 N.pl3 1 <1>  -0.8690 
  8 C        3.8260    -0.0320    -1.2730 C.3   1 <1>  -0.1600 
  9 C        4.4380     2.5900     0.8060 C.ar  1 <1>   0.4100 
 10 C        3.7350    -1.5570    -1.4460 C.3   1 <1>  -0.1600 
 11 N        5.5850     1.9300     0.9500 N.ar  1 <1>  -0.6200 
 12 C        4.2260     3.9040     1.2630 C.ar  1 <1>   0.0860 
 13 C        4.3030    -1.9910    -2.8000 C.3   1 <1>  -0.2400 
 14 C        6.5570     2.5680     1.5710 C.ar  1 <1>   0.1600 
 15 C        2.9590     4.5710     1.0910 C.2   1 <1>   0.5440 
 16 C        5.2710     4.5380     1.9200 C.ar  1 <1>  -0.1500 
 17 C        6.4560     3.8540     2.0710 C.ar  1 <1>  -0.1500 
 18 O        2.3660     4.9870     2.0700 O.2   1 <1>  -0.5700 
 19 N        2.3900     4.7690    -0.1490 N.am  1 <1>  -0.6600 
 20 C        1.0200     5.2980    -0.3270 C.3   1 <1>   0.1400 
 21 C        3.1110     4.7110    -1.4420 C.3   1 <1>   0.1400 
 22 C        0.9560     5.7410    -1.7850 C.3   1 <1>  -0.1600 
 23 C        2.0250     4.9110    -2.4920 C.3   1 <1>  -0.1600 
 24 H       -1.6570     0.1730    -0.2280 H     1 <1>   0.1500 
 25 H        1.7660    -1.2040     2.0420 H     1 <1>   0.1500 
 26 H        3.9140    -0.0010     0.8720 H     1 <1>   0.0800 
 27 H       -0.7530    -1.3070     1.8280 H     1 <1>   0.1500 
 28 H        2.5270     2.3670     0.0880 H     1 <1>   0.4000 
 29 H        4.8540     0.2700    -1.3680 H     1 <1>   0.0800 
 30 H        3.2620     0.4510    -2.0490 H     1 <1>   0.0800 
 31 H        2.7070    -1.8730    -1.3810 H     1 <1>   0.0800 
 32 H        4.2850    -2.0440    -0.6590 H     1 <1>   0.0800 
 33 H        3.7530    -1.5300    -3.6030 H     1 <1>   0.0800 
 34 H        4.2300    -3.0590    -2.9050 H     1 <1>   0.0800 
 35 H        5.3380    -1.7090    -2.8820 H     1 <1>   0.0800 
 36 H        7.4870     2.0400     1.6920 H     1 <1>   0.1500 
 37 H        5.1440     5.5370     2.3010 H     1 <1>   0.1500 
 38 H        7.2930     4.3070     2.5710 H     1 <1>   0.1500 
 39 H        0.8330     6.1190     0.3450 H     1 <1>   0.0800 
 40 H        0.3140     4.5080    -0.1370 H     1 <1>   0.0800 
 41 H        3.6200     3.7740    -1.5840 H     1 <1>   0.0800 
 42 H        3.8230     5.5180    -1.4820 H     1 <1>   0.0800 
 43 H        1.2070     6.7850    -1.8430 H     1 <1>   0.0800 
 44 H       -0.0230     5.5920    -2.2040 H     1 <1>   0.0800 
 45 H        1.6220     3.9490    -2.7610 H     1 <1>   0.0800 
 46 H        2.4050     5.3930    -3.3750 H     1 <1>   0.0800 
@<TRIPOS>BOND
  1   1   2  1   
  2   1   3  1   
  3   2   4  2   
  4   2   5  1   
  5   3   6  2   
  6   3  24  1   
  7   4   6  1   
  8   4  25  1   
  9   5   7  1   
 10   5   8  1   
 11   5  26  1   
 12   6  27  1   
 13   7   9  1   
 14   7  28  1   
 15   8  10  1   
 16   8  29  1   
 17   8  30  1   
 18   9  11  ar  
 19   9  12  ar  
 20  10  13  1   
 21  10  31  1   
 22  10  32  1   
 23  11  14  ar  
 24  12  15  1   
 25  12  16  ar  
 26  13  33  1   
 27  13  34  1   
 28  13  35  1   
 29  14  17  ar  
 30  14  36  1   
 31  15  18  2   
 32  15  19  am  
 33  16  17  ar  
 34  16  37  1   
 35  17  38  1   
 36  19  20  1   
 37  19  21  1   
 38  20  22  1   
 39  20  39  1   
 40  20  40  1   
 41  21  23  1   
 42  21  41  1   
 43  21  42  1   
 44  22  23  1   
 45  22  43  1   
 46  22  44  1   
 47  23  45  1   
 48  23  46  1   
@<TRIPOS>SUBSTRUCTURE
  1 ****   7 GROUP 4 **** **** 0

# MOE 2024.06 (io_trps.svl 2023.06)
