@<TRIPOS>MOLECULE
NONAME
39 40 1 0 0 
SMALL
USER_CHARGES


@<TRIPOS>ATOM
  1 S        0.1390     0.3910    -0.9330 S.3   1 <1>  -0.0800 
  2 C        1.4180    -0.5720    -0.1890 C.2   1 <1>  -0.0450 
  3 C       -0.6880    -1.0230    -1.5360 C.2   1 <1>  -0.1100 
  4 C        2.4760     0.1180     0.4980 C.2   1 <1>   0.5940 
  5 C        1.1550    -1.8870    -0.4240 C.2   1 <1>  -0.1500 
  6 C       -0.0340    -2.1440    -1.1750 C.2   1 <1>  -0.1810 
  7 O        2.5110     1.3090     0.6630 O.2   1 <1>  -0.5700 
  8 C        3.6230    -0.6920     1.0630 C.3   1 <1>  -0.1790 
  9 C       -0.4880    -3.5490    -1.5210 C.3   1 <1>   0.5240 
 10 N       -0.9930    -4.2060    -0.2830 N.4   1 <1>  -0.9590 
 11 C       -1.2240    -5.6650    -0.5240 C.3   1 <1>   0.3430 
 12 C       -2.2180    -3.5070     0.2330 C.3   1 <1>   0.2630 
 13 C       -1.4470    -6.4420     0.7750 C.3   1 <1>  -0.0170 
 14 C       -1.5730    -7.9140     0.4330 C.ar  1 <1>  -0.1430 
 15 C       -2.8080    -8.4500     0.1030 C.ar  1 <1>  -0.1500 
 16 C       -0.4530    -8.7320     0.4370 C.ar  1 <1>  -0.1500 
 17 C       -2.9210    -9.7890    -0.2280 C.ar  1 <1>  -0.1500 
 18 C       -0.5670   -10.0710     0.1060 C.ar  1 <1>  -0.1500 
 19 C       -1.8000   -10.6000    -0.2280 C.ar  1 <1>  -0.1500 
 20 H       -1.5890    -0.8490    -2.1020 H     1 <1>   0.1500 
 21 H        1.7890    -2.6890    -0.0850 H     1 <1>   0.1500 
 22 H        4.0500    -1.3090     0.2960 H     1 <1>   0.0800 
 23 H        3.2710    -1.3050     1.8710 H     1 <1>   0.0800 
 24 H        4.3840    -0.0310     1.4370 H     1 <1>   0.0800 
 25 H        0.3430    -4.1020    -1.9300 H     1 <1>   0.0800 
 26 H       -1.2690    -3.5090    -2.2640 H     1 <1>   0.0800 
 27 H       -0.2490    -4.0970     0.4190 H     1 <1>   0.4500 
 28 H       -0.3660    -6.0900    -1.0220 H     1 <1>   0.0800 
 29 H       -2.0770    -5.8040    -1.1690 H     1 <1>   0.0800 
 30 H       -3.0230    -3.5810    -0.4800 H     1 <1>   0.0800 
 31 H       -2.0090    -2.4630     0.4080 H     1 <1>   0.0800 
 32 H       -2.5400    -3.9450     1.1630 H     1 <1>   0.0800 
 33 H       -2.3470    -6.1200     1.2670 H     1 <1>   0.0800 
 34 H       -0.6170    -6.3010     1.4440 H     1 <1>   0.0800 
 35 H       -3.6950    -7.8410     0.1010 H     1 <1>   0.1500 
 36 H        0.5160    -8.3460     0.6990 H     1 <1>   0.1500 
 37 H       -3.8810   -10.2050    -0.4840 H     1 <1>   0.1500 
 38 H        0.3030   -10.7060     0.1110 H     1 <1>   0.1500 
 39 H       -1.8890   -11.6420    -0.4850 H     1 <1>   0.1500 
@<TRIPOS>BOND
  1   1   2  1   
  2   1   3  1   
  3   2   4  1   
  4   2   5  2   
  5   3   6  2   
  6   3  20  1   
  7   4   7  2   
  8   4   8  1   
  9   5   6  1   
 10   5  21  1   
 11   6   9  1   
 12   8  22  1   
 13   8  23  1   
 14   8  24  1   
 15   9  10  1   
 16   9  25  1   
 17   9  26  1   
 18  10  11  1   
 19  10  12  1   
 20  10  27  1   
 21  11  13  1   
 22  11  28  1   
 23  11  29  1   
 24  12  30  1   
 25  12  31  1   
 26  12  32  1   
 27  13  14  1   
 28  13  33  1   
 29  13  34  1   
 30  14  15  ar  
 31  14  16  ar  
 32  15  17  ar  
 33  15  35  1   
 34  16  18  ar  
 35  16  36  1   
 36  17  19  ar  
 37  17  37  1   
 38  18  19  ar  
 39  18  38  1   
 40  19  39  1   
@<TRIPOS>SUBSTRUCTURE
  1 ****  10 GROUP 4 **** **** 0

# MOE 2024.06 (io_trps.svl 2023.06)
