@<TRIPOS>MOLECULE
NONAME
42 44 1 0 0 
SMALL
USER_CHARGES


@<TRIPOS>ATOM
  1 O       -0.1090     0.6790    -0.8190 O.2   1 <1>  -0.5700 
  2 C        0.2310     1.4410     0.0500 C.2   1 <1>   0.4230 
  3 C        1.3840     2.3010    -0.0670 C.ar  1 <1>   0.0860 
  4 C       -0.6260     1.4590     1.3020 C.3   1 <1>  -0.1790 
  5 C        1.8440     3.1110     0.9750 C.ar  1 <1>   0.1600 
  6 C        2.1110     2.3670    -1.2540 C.ar  1 <1>  -0.1500 
  7 N        2.8860     3.9180     0.9390 N.ar  1 <1>  -0.6200 
  8 C        3.1940     3.2080    -1.3140 C.ar  1 <1>  -0.1500 
  9 C        3.5560     3.9710    -0.2070 C.ar  1 <1>   0.4100 
 10 N        4.6360     4.8160    -0.2750 N.pl3 1 <1>  -0.8380 
 11 C        4.7850     5.9640     0.6790 C.3   1 <1>   0.4690 
 12 C        5.9610     4.3010    -0.6850 C.3   1 <1>   0.2090 
 13 C        3.8960     7.1740     0.3450 C.2   1 <1>   0.2980 
 14 C        6.2880     6.2690     0.6520 C.3   1 <1>  -0.1600 
 15 C        6.9480     4.9460     0.2780 C.3   1 <1>  -0.1600 
 16 O        2.6010     6.9830     0.2640 O.3   1 <1>  -0.0190 
 17 N        4.2740     8.3810     0.1530 N.2   1 <1>  -0.5650 
 18 N        2.1190     8.1580    -0.0030 N.2   1 <1>  -0.4100 
 19 C        3.1030     8.9640    -0.0700 C.2   1 <1>   0.3350 
 20 C        3.0220    10.4630    -0.3620 C.3   1 <1>   0.1010 
 21 C        3.0290    11.2680     0.9450 C.3   1 <1>  -0.2400 
 22 C        1.7880    10.8340    -1.2020 C.3   1 <1>  -0.2400 
 23 H       -0.9810     2.4540     1.4940 H     1 <1>   0.0800 
 24 H       -0.0580     1.1040     2.1420 H     1 <1>   0.0800 
 25 H       -1.4760     0.8140     1.1690 H     1 <1>   0.0800 
 26 H        1.3140     3.0910     1.9100 H     1 <1>   0.1500 
 27 H        1.8190     1.7720    -2.1020 H     1 <1>   0.1500 
 28 H        3.7690     3.2970    -2.2150 H     1 <1>   0.1500 
 29 H        4.5330     5.6280     1.6690 H     1 <1>   0.0800 
 30 H        6.0010     3.2260    -0.6250 H     1 <1>   0.0800 
 31 H        6.1620     4.6170    -1.6950 H     1 <1>   0.0800 
 32 H        6.4950     6.9950    -0.1140 H     1 <1>   0.0800 
 33 H        6.6280     6.6520     1.5970 H     1 <1>   0.0800 
 34 H        7.0450     4.3230     1.1500 H     1 <1>   0.0800 
 35 H        7.9160     5.0810    -0.1710 H     1 <1>   0.0800 
 36 H        3.8980    10.7270    -0.9280 H     1 <1>   0.0800 
 37 H        2.1690    11.0180     1.5400 H     1 <1>   0.0800 
 38 H        3.0170    12.3230     0.7380 H     1 <1>   0.0800 
 39 H        3.9150    11.0390     1.5100 H     1 <1>   0.0800 
 40 H        0.8850    10.6060    -0.6630 H     1 <1>   0.0800 
 41 H        1.7890    10.2730    -2.1190 H     1 <1>   0.0800 
 42 H        1.7960    11.8820    -1.4390 H     1 <1>   0.0800 
@<TRIPOS>BOND
  1   1   2  2   
  2   2   3  1   
  3   2   4  1   
  4   3   5  ar  
  5   3   6  ar  
  6   4  23  1   
  7   4  24  1   
  8   4  25  1   
  9   5   7  ar  
 10   5  26  1   
 11   6   8  ar  
 12   6  27  1   
 13   7   9  ar  
 14   8   9  ar  
 15   8  28  1   
 16   9  10  1   
 17  10  11  1   
 18  10  12  1   
 19  11  13  1   
 20  11  14  1   
 21  11  29  1   
 22  12  15  1   
 23  12  30  1   
 24  12  31  1   
 25  13  16  1   
 26  13  17  2   
 27  14  15  1   
 28  14  32  1   
 29  14  33  1   
 30  15  34  1   
 31  15  35  1   
 32  16  18  1   
 33  17  19  1   
 34  18  19  2   
 35  19  20  1   
 36  20  21  1   
 37  20  22  1   
 38  20  36  1   
 39  21  37  1   
 40  21  38  1   
 41  21  39  1   
 42  22  40  1   
 43  22  41  1   
 44  22  42  1   
@<TRIPOS>SUBSTRUCTURE
  1 ****  16 GROUP 4 **** **** 0

# MOE 2024.06 (io_trps.svl 2023.06)
