@<TRIPOS>MOLECULE
NONAME
45 47 1 0 0 
SMALL
USER_CHARGES


@<TRIPOS>ATOM
  1 S        0.3680    -0.0530    -0.5870 S.o2  1 <1>   1.3330 
  2 O        1.7970     0.0020    -0.3780 O.2   1 <1>  -0.6500 
  3 O       -0.1580    -0.1030    -1.9330 O.2   1 <1>  -0.6500 
  4 N       -0.2280    -1.3950     0.2650 N.am  1 <1>  -0.8490 
  5 C       -0.4060     1.3290     0.2470 C.3   1 <1>  -0.0550 
  6 C       -0.2640    -2.6050    -0.5630 C.3   1 <1>   0.1160 
  7 C        0.4990    -1.6650     1.5100 C.3   1 <1>   0.1160 
  8 C       -0.0910     2.6890    -0.4050 C.3   1 <1>  -0.0800 
  9 C       -0.8660     3.8650     0.1940 C.3   1 <1>   0.2000 
 10 C        1.3810     3.1130    -0.3010 C.3   1 <1>   0.1400 
 11 O       -0.8330     3.7710     1.5780 O.3   1 <1>  -0.6800 
 12 C       -0.0480     5.0860    -0.2200 C.3   1 <1>   0.1400 
 13 N        1.3520     4.5960    -0.2480 N.am  1 <1>  -0.6600 
 14 C        2.4910     5.3820    -0.2920 C.2   1 <1>   0.7160 
 15 O        3.5600     4.7960    -0.2000 O.2   1 <1>  -0.5700 
 16 C        2.4660     6.8410    -0.4320 C.2   1 <1>   0.2030 
 17 N        1.4150     7.6300    -0.6460 N.2   1 <1>  -0.7070 
 18 C        3.6160     7.6400    -0.3600 C.2   1 <1>  -0.1810 
 19 N        1.8980     8.8860    -0.7050 N.pl3 1 <1>   0.3000 
 20 C        3.2280     8.8950    -0.5320 C.2   1 <1>  -0.3320 
 21 C        5.1020     7.5250    -0.1620 C.3   1 <1>   0.0210 
 22 C        4.3420     9.9010    -0.4900 C.3   1 <1>   0.0200 
 23 C        5.5650     9.0050    -0.1680 C.3   1 <1>  -0.1600 
 24 H       -1.4690     1.1840     0.2340 H     1 <1>   0.0800 
 25 H       -0.0950     1.3420     1.2730 H     1 <1>   0.0800 
 26 H       -0.6620    -3.4310     0.0000 H     1 <1>   0.0800 
 27 H        0.7270    -2.8530    -0.9060 H     1 <1>   0.0800 
 28 H       -0.8970    -2.4470    -1.4200 H     1 <1>   0.0800 
 29 H        0.0250    -2.4680     2.0480 H     1 <1>   0.0800 
 30 H        0.4980    -0.7910     2.1380 H     1 <1>   0.0800 
 31 H        1.5200    -1.9390     1.2990 H     1 <1>   0.0800 
 32 H       -0.3380     2.6330    -1.4520 H     1 <1>   0.0800 
 33 H       -1.8940     3.9130    -0.1250 H     1 <1>   0.0800 
 34 H        1.9540     2.7730    -1.1490 H     1 <1>   0.0800 
 35 H        1.8330     2.7390     0.6020 H     1 <1>   0.0800 
 36 H        0.0710     3.9970     1.8810 H     1 <1>   0.4000 
 37 H       -0.1770     5.9020     0.4720 H     1 <1>   0.0800 
 38 H       -0.3270     5.4060    -1.2090 H     1 <1>   0.0800 
 39 H        1.3030     9.7080    -0.8650 H     1 <1>   0.2700 
 40 H        5.3250     7.0420     0.7730 H     1 <1>   0.0800 
 41 H        5.5400     6.9710    -0.9740 H     1 <1>   0.0800 
 42 H        4.4540    10.3840    -1.4450 H     1 <1>   0.0800 
 43 H        4.1780    10.6320     0.2830 H     1 <1>   0.0800 
 44 H        6.3420     9.1520    -0.8980 H     1 <1>   0.0800 
 45 H        5.9510     9.2610     0.8020 H     1 <1>   0.0800 
@<TRIPOS>BOND
  1   1   2  2   
  2   1   3  2   
  3   1   4  am  
  4   1   5  1   
  5   4   6  1   
  6   4   7  1   
  7   5   8  1   
  8   5  24  1   
  9   5  25  1   
 10   6  26  1   
 11   6  27  1   
 12   6  28  1   
 13   7  29  1   
 14   7  30  1   
 15   7  31  1   
 16   8   9  1   
 17   8  10  1   
 18   8  32  1   
 19   9  11  1   
 20   9  12  1   
 21   9  33  1   
 22  10  13  1   
 23  10  34  1   
 24  10  35  1   
 25  11  36  1   
 26  12  13  1   
 27  12  37  1   
 28  12  38  1   
 29  13  14  am  
 30  14  15  2   
 31  14  16  1   
 32  16  17  2   
 33  16  18  1   
 34  17  19  1   
 35  18  20  2   
 36  18  21  1   
 37  19  20  1   
 38  19  39  1   
 39  20  22  1   
 40  21  23  1   
 41  21  40  1   
 42  21  41  1   
 43  22  23  1   
 44  22  42  1   
 45  22  43  1   
 46  23  44  1   
 47  23  45  1   
@<TRIPOS>SUBSTRUCTURE
  1 ****  13 GROUP 4 **** **** 0

# MOE 2024.06 (io_trps.svl 2023.06)
