@<TRIPOS>MOLECULE
NONAME
53 57 1 0 0 
SMALL
USER_CHARGES


@<TRIPOS>ATOM
  1 N        0.2190     0.0510     0.6030 N.ar  1 <1>  -0.6200 
  2 C       -0.7030     0.8940     1.0880 C.ar  1 <1>   0.6200 
  3 C        1.1070     0.5720    -0.2100 C.ar  1 <1>   0.1660 
  4 N       -0.7690     2.2040     0.8090 N.ar  1 <1>  -0.6200 
  5 C       -1.7090     0.3430     1.9880 C.ar  1 <1>   0.0000 
  6 C        1.1150     1.8930    -0.5390 C.ar  1 <1>  -0.1430 
  7 C        2.2490    -0.1820    -0.8720 C.3   1 <1>   0.1440 
  8 C        0.1420     2.6930    -0.0010 C.ar  1 <1>   0.1600 
  9 C       -1.4580    -0.7930     2.7640 C.ar  1 <1>  -0.1500 
 10 C       -2.9740     0.9250     2.1180 C.ar  1 <1>  -0.1500 
 11 C        2.2530     2.2400    -1.4630 C.3   1 <1>  -0.0160 
 12 C        3.3070    -0.4910     0.2050 C.3   1 <1>   0.2090 
 13 C        1.7840    -1.4980    -1.5520 C.3   1 <1>  -0.1600 
 14 C        2.7810     0.8630    -1.8980 C.3   1 <1>  -0.1600 
 15 C       -2.4100    -1.3180     3.6180 C.ar  1 <1>  -0.1500 
 16 C       -3.9310     0.4060     2.9710 C.ar  1 <1>  -0.1500 
 17 N        4.5200    -1.1610    -0.3660 N.pl3 1 <1>  -0.8380 
 18 C        2.8720    -2.5930    -1.5750 C.3   1 <1>  -0.1600 
 19 C       -3.6510    -0.7190     3.7240 C.ar  1 <1>  -0.1500 
 20 C        5.4760    -1.5370     0.5510 C.ar  1 <1>   0.4100 
 21 C        4.3010    -2.0380    -1.5560 C.3   1 <1>   0.2090 
 22 N        5.3650    -2.7530     1.0420 N.ar  1 <1>  -0.6200 
 23 C        6.4880    -0.6720     0.9580 C.ar  1 <1>  -0.1430 
 24 C        6.2630    -3.0820     1.9440 C.ar  1 <1>   0.4700 
 25 C        7.3550    -1.1380     1.9220 C.ar  1 <1>   0.1670 
 26 C        6.6150     0.7250     0.3460 C.3   1 <1>  -0.0970 
 27 N        7.2530    -2.3530     2.4220 N.ar  1 <1>  -0.6200 
 28 C        8.4920    -0.3050     2.4870 C.3   1 <1>  -0.0970 
 29 H        0.1090     3.7430    -0.2330 H     1 <1>   0.1500 
 30 H       -0.4980    -1.2750     2.6960 H     1 <1>   0.1500 
 31 H       -3.2120     1.8000     1.5400 H     1 <1>   0.1500 
 32 H        3.0080     2.7820    -0.9200 H     1 <1>   0.0800 
 33 H        1.9190     2.8200    -2.3060 H     1 <1>   0.0800 
 34 H        2.8720    -1.1350     0.9500 H     1 <1>   0.0800 
 35 H        3.6050     0.4200     0.6940 H     1 <1>   0.0800 
 36 H        1.4420    -1.3010    -2.5510 H     1 <1>   0.0800 
 37 H        0.9420    -1.9000    -1.0160 H     1 <1>   0.0800 
 38 H        2.3870     0.6530    -2.8760 H     1 <1>   0.0800 
 39 H        3.8540     0.8650    -1.9660 H     1 <1>   0.0800 
 40 H       -2.1850    -2.1940     4.2010 H     1 <1>   0.1500 
 41 H       -4.8950     0.8780     3.0480 H     1 <1>   0.1500 
 42 H        2.7400    -3.2180    -2.4400 H     1 <1>   0.0800 
 43 H        2.7620    -3.2210    -0.7080 H     1 <1>   0.0800 
 44 H       -4.3950    -1.1250     4.3890 H     1 <1>   0.1500 
 45 H        5.0040    -2.8540    -1.5450 H     1 <1>   0.0800 
 46 H        4.4800    -1.4650    -2.4490 H     1 <1>   0.0800 
 47 H        6.1790    -4.0770     2.3480 H     1 <1>   0.1500 
 48 H        6.2420     0.7340    -0.6620 H     1 <1>   0.0800 
 49 H        7.6400     1.0420     0.3070 H     1 <1>   0.0800 
 50 H        6.0490     1.4290     0.9280 H     1 <1>   0.0800 
 51 H        8.2030     0.7240     2.5880 H     1 <1>   0.0800 
 52 H        9.3470    -0.3780     1.8410 H     1 <1>   0.0800 
 53 H        8.7660    -0.6690     3.4620 H     1 <1>   0.0800 
@<TRIPOS>BOND
  1   1   2  ar  
  2   1   3  ar  
  3   2   4  ar  
  4   2   5  1   
  5   3   6  ar  
  6   3   7  1   
  7   4   8  ar  
  8   5   9  ar  
  9   5  10  ar  
 10   6   8  ar  
 11   6  11  1   
 12   7  12  1   
 13   7  13  1   
 14   7  14  1   
 15   8  29  1   
 16   9  15  ar  
 17   9  30  1   
 18  10  16  ar  
 19  10  31  1   
 20  11  14  1   
 21  11  32  1   
 22  11  33  1   
 23  12  17  1   
 24  12  34  1   
 25  12  35  1   
 26  13  18  1   
 27  13  36  1   
 28  13  37  1   
 29  14  38  1   
 30  14  39  1   
 31  15  19  ar  
 32  15  40  1   
 33  16  19  ar  
 34  16  41  1   
 35  17  20  1   
 36  17  21  1   
 37  18  21  1   
 38  18  42  1   
 39  18  43  1   
 40  19  44  1   
 41  20  22  ar  
 42  20  23  ar  
 43  21  45  1   
 44  21  46  1   
 45  22  24  ar  
 46  23  25  ar  
 47  23  26  1   
 48  24  27  ar  
 49  24  47  1   
 50  25  27  ar  
 51  25  28  1   
 52  26  48  1   
 53  26  49  1   
 54  26  50  1   
 55  28  51  1   
 56  28  52  1   
 57  28  53  1   
@<TRIPOS>SUBSTRUCTURE
  1 ****  12 GROUP 4 **** **** 0

# MOE 2024.06 (io_trps.svl 2023.06)
