@<TRIPOS>MOLECULE
NONAME
48 51 1 0 0 
SMALL
USER_CHARGES


@<TRIPOS>ATOM
  1 O       -3.9260    -0.2810    -2.5230 O.2   1 <1>  -0.5700 
  2 C       -3.5790    -0.7140    -1.4540 C.2   1 <1>   0.5690 
  3 N       -3.1020     0.0910    -0.4590 N.am  1 <1>  -0.6600 
  4 C       -3.7270    -2.1970    -1.2270 C.3   1 <1>  -0.0190 
  5 C       -2.7260    -0.4240     0.8880 C.3   1 <1>   0.2200 
  6 C       -2.8790     1.5530    -0.6850 C.3   1 <1>   0.0600 
  7 C       -2.3770    -2.8800    -0.9230 C.3   1 <1>   0.1200 
  8 C       -4.8660    -2.4340    -0.2310 C.3   1 <1>   0.3430 
  9 C       -1.5550    -1.4320     0.7890 C.3   1 <1>   0.1200 
 10 C       -3.9710    -0.9650     1.6430 C.3   1 <1>   0.3430 
 11 O       -1.9680    -2.7180     0.4080 O.3   1 <1>  -0.5600 
 12 N       -4.4530    -2.3230     1.2090 N.4   1 <1>  -0.9590 
 13 C       -5.4900    -2.8740     2.1190 C.3   1 <1>   0.5240 
 14 C       -5.6230    -4.3560     1.8790 C.2   1 <1>  -0.1810 
 15 C       -6.4980    -4.9470     1.0300 C.2   1 <1>  -0.0260 
 16 C       -4.9190    -5.3990     2.4580 C.2   1 <1>   0.1390 
 17 N       -7.4220    -4.3740     0.1860 N.2   1 <1>  -0.5760 
 18 N       -6.2910    -6.3040     1.1430 N.pl3 1 <1>   0.6010 
 19 N       -5.3000    -6.5660     2.0240 N.2   1 <1>  -0.7070 
 20 C       -8.1390    -5.1960    -0.5120 C.2   1 <1>   0.3750 
 21 C       -7.0650    -7.1700     0.3840 C.2   1 <1>  -0.1690 
 22 C       -7.9910    -6.6130    -0.4420 C.2   1 <1>  -0.1360 
 23 C       -9.1830    -4.6350    -1.4520 C.3   1 <1>  -0.1790 
 24 C       -6.8320    -8.6690     0.5260 C.3   1 <1>  -0.1020 
 25 H       -4.0610    -2.6010    -2.1660 H     1 <1>   0.0800 
 26 H       -2.3610     0.4160     1.4550 H     1 <1>   0.0800 
 27 H       -3.4770     2.1300    -0.0020 H     1 <1>   0.0800 
 28 H       -3.1480     1.8350    -1.6900 H     1 <1>   0.0800 
 29 H       -1.8400     1.7940    -0.5380 H     1 <1>   0.0800 
 30 H       -1.6020    -2.5080    -1.5740 H     1 <1>   0.0800 
 31 H       -2.4690    -3.9400    -1.0910 H     1 <1>   0.0800 
 32 H       -5.2360    -3.4290    -0.4100 H     1 <1>   0.0800 
 33 H       -5.6740    -1.7510    -0.4390 H     1 <1>   0.0800 
 34 H       -1.0940    -1.5330     1.7560 H     1 <1>   0.0800 
 35 H       -0.8040    -1.0820     0.1000 H     1 <1>   0.0800 
 36 H       -4.7690    -0.2470     1.5430 H     1 <1>   0.0800 
 37 H       -3.7130    -1.0190     2.6870 H     1 <1>   0.0800 
 38 H       -3.6190    -2.9390     1.2670 H     1 <1>   0.4500 
 39 H       -5.2170    -2.7050     3.1470 H     1 <1>   0.0800 
 40 H       -6.4390    -2.3970     1.9300 H     1 <1>   0.0800 
 41 H       -4.1350    -5.2910     3.1920 H     1 <1>   0.1500 
 42 H       -8.6320    -7.2140    -1.0600 H     1 <1>   0.1500 
 43 H      -10.1550    -5.0020    -1.1780 H     1 <1>   0.0800 
 44 H       -8.9640    -4.9320    -2.4620 H     1 <1>   0.0800 
 45 H       -9.1950    -3.5610    -1.4040 H     1 <1>   0.0800 
 46 H       -5.8170    -8.9120     0.2640 H     1 <1>   0.0800 
 47 H       -7.4950    -9.2240    -0.1130 H     1 <1>   0.0800 
 48 H       -7.0020    -8.9720     1.5440 H     1 <1>   0.0800 
@<TRIPOS>BOND
  1   1   2  2   
  2   2   3  am  
  3   2   4  1   
  4   3   5  1   
  5   3   6  1   
  6   4   7  1   
  7   4   8  1   
  8   4  25  1   
  9   5   9  1   
 10   5  10  1   
 11   5  26  1   
 12   6  27  1   
 13   6  28  1   
 14   6  29  1   
 15   7  11  1   
 16   7  30  1   
 17   7  31  1   
 18   8  12  1   
 19   8  32  1   
 20   8  33  1   
 21   9  11  1   
 22   9  34  1   
 23   9  35  1   
 24  10  12  1   
 25  10  36  1   
 26  10  37  1   
 27  12  13  1   
 28  12  38  1   
 29  13  14  1   
 30  13  39  1   
 31  13  40  1   
 32  14  15  2   
 33  14  16  1   
 34  15  17  1   
 35  15  18  1   
 36  16  19  2   
 37  16  41  1   
 38  17  20  2   
 39  18  19  1   
 40  18  21  1   
 41  20  22  1   
 42  20  23  1   
 43  21  22  2   
 44  21  24  1   
 45  22  42  1   
 46  23  43  1   
 47  23  44  1   
 48  23  45  1   
 49  24  46  1   
 50  24  47  1   
 51  24  48  1   
@<TRIPOS>SUBSTRUCTURE
  1 ****   8 GROUP 4 **** **** 0

# MOE 2024.06 (io_trps.svl 2023.06)
