@<TRIPOS>MOLECULE
NONAME
47 50 1 0 0 
SMALL
USER_CHARGES


@<TRIPOS>ATOM
  1 O       -0.2440     0.1020     0.4880 O.2   1 <1>  -0.5700 
  2 C       -1.2810     0.7340     0.5510 C.2   1 <1>   0.5440 
  3 N       -2.4740     0.0620     0.4030 N.am  1 <1>  -0.6600 
  4 C       -1.2390     2.1690     0.7570 C.ar  1 <1>   0.0860 
  5 C       -3.7630     0.7020     0.0390 C.3   1 <1>   0.1400 
  6 C       -2.5340    -1.4030     0.1710 C.3   1 <1>   0.1400 
  7 C       -0.4210     2.9770    -0.0320 C.ar  1 <1>  -0.1500 
  8 C       -2.0040     2.7920     1.7440 C.ar  1 <1>  -0.1500 
  9 C       -4.6020    -0.4210    -0.5700 C.3   1 <1>   0.2000 
 10 C       -4.0210    -1.7170    -0.0090 C.3   1 <1>  -0.0800 
 11 C       -0.3770     4.3510     0.1300 C.ar  1 <1>  -0.1440 
 12 C       -1.9740     4.1630     1.9160 C.ar  1 <1>  -0.1500 
 13 O       -5.9390    -0.3070    -0.2170 O.3   1 <1>  -0.6800 
 14 C       -4.3040    -2.9320    -0.9080 C.3   1 <1>  -0.0170 
 15 C       -1.1690     4.9470     1.1080 C.ar  1 <1>   0.0830 
 16 C        0.5300     5.1960    -0.7490 C.3   1 <1>  -0.0170 
 17 C       -3.7660    -4.2170    -0.3000 C.ar  1 <1>   0.1670 
 18 O       -1.1720     6.2830     1.3120 O.3   1 <1>  -0.3630 
 19 C        0.7660     6.5640    -0.1040 C.3   1 <1>  -0.1600 
 20 N       -2.4880    -4.4820    -0.5230 N.ar  1 <1>  -0.6200 
 21 C       -4.6080    -5.0310     0.4420 C.ar  1 <1>  -0.1500 
 22 C       -0.5660     7.1500     0.3730 C.3   1 <1>   0.1200 
 23 C       -2.0300    -5.5990     0.0180 C.ar  1 <1>   0.1600 
 24 C       -4.1190    -6.1930     0.9990 C.ar  1 <1>  -0.1500 
 25 C       -2.7890    -6.4760     0.7740 C.ar  1 <1>  -0.1500 
 26 H       -4.2300     1.0880     0.9270 H     1 <1>   0.0800 
 27 H       -3.6060     1.4920    -0.6750 H     1 <1>   0.0800 
 28 H       -1.9780    -1.6410    -0.7200 H     1 <1>   0.0800 
 29 H       -2.1110    -1.9410     1.0020 H     1 <1>   0.0800 
 30 H        0.1900     2.5030    -0.7820 H     1 <1>   0.1500 
 31 H       -2.6220     2.1890     2.3850 H     1 <1>   0.1500 
 32 H       -4.5280    -0.3900    -1.6440 H     1 <1>   0.0800 
 33 H       -4.4260    -1.8970     0.9710 H     1 <1>   0.0800 
 34 H       -2.5670     4.6370     2.6780 H     1 <1>   0.1500 
 35 H       -6.0390    -0.3620     0.7520 H     1 <1>   0.4000 
 36 H       -3.8570    -2.7880    -1.8760 H     1 <1>   0.0800 
 37 H       -5.3660    -3.0250    -1.0530 H     1 <1>   0.0800 
 38 H        1.4720     4.6980    -0.8980 H     1 <1>   0.0800 
 39 H        0.0580     5.3240    -1.7070 H     1 <1>   0.0800 
 40 H        1.2260     7.2280    -0.8130 H     1 <1>   0.0800 
 41 H        1.4250     6.4640     0.7400 H     1 <1>   0.0800 
 42 H       -5.6380    -4.7600     0.5860 H     1 <1>   0.1500 
 43 H       -1.2480     7.2710    -0.4490 H     1 <1>   0.0800 
 44 H       -0.4180     8.1000     0.8540 H     1 <1>   0.0800 
 45 H       -0.9920    -5.8300    -0.1520 H     1 <1>   0.1500 
 46 H       -4.7440    -6.8480     1.5810 H     1 <1>   0.1500 
 47 H       -2.3420    -7.3650     1.1800 H     1 <1>   0.1500 
@<TRIPOS>BOND
  1   1   2  2   
  2   2   3  am  
  3   2   4  1   
  4   3   5  1   
  5   3   6  1   
  6   4   7  ar  
  7   4   8  ar  
  8   5   9  1   
  9   5  26  1   
 10   5  27  1   
 11   6  10  1   
 12   6  28  1   
 13   6  29  1   
 14   7  11  ar  
 15   7  30  1   
 16   8  12  ar  
 17   8  31  1   
 18   9  10  1   
 19   9  13  1   
 20   9  32  1   
 21  10  14  1   
 22  10  33  1   
 23  11  15  ar  
 24  11  16  1   
 25  12  15  ar  
 26  12  34  1   
 27  13  35  1   
 28  14  17  1   
 29  14  36  1   
 30  14  37  1   
 31  15  18  1   
 32  16  19  1   
 33  16  38  1   
 34  16  39  1   
 35  17  20  ar  
 36  17  21  ar  
 37  18  22  1   
 38  19  22  1   
 39  19  40  1   
 40  19  41  1   
 41  20  23  ar  
 42  21  24  ar  
 43  21  42  1   
 44  22  43  1   
 45  22  44  1   
 46  23  25  ar  
 47  23  45  1   
 48  24  25  ar  
 49  24  46  1   
 50  25  47  1   
@<TRIPOS>SUBSTRUCTURE
  1 ****   3 GROUP 4 **** **** 0

# MOE 2024.06 (io_trps.svl 2023.06)
