@<TRIPOS>MOLECULE
NONAME
47 48 1 0 0 
SMALL
USER_CHARGES


@<TRIPOS>ATOM
  1 S        0.2380     0.3120    -0.8720 S.o2  1 <1>   1.3330 
  2 O       -0.7820     1.1820    -1.4130 O.2   1 <1>  -0.6500 
  3 O        0.4020    -1.0220    -1.4040 O.2   1 <1>  -0.6500 
  4 N       -0.0520     0.1760     0.7980 N.am  1 <1>  -0.8490 
  5 C        1.8250     1.1420    -0.9620 C.3   1 <1>  -0.0550 
  6 C       -0.9140    -0.9670     1.1160 C.3   1 <1>   0.1160 
  7 C       -0.6100     1.3960     1.3920 C.3   1 <1>   0.1160 
  8 C        3.0170     0.2930    -0.4690 C.3   1 <1>  -0.0800 
  9 C        4.3850     0.9160    -0.7050 C.3   1 <1>   0.2200 
 10 C        3.0330     0.0000     1.0370 C.3   1 <1>   0.1200 
 11 N        4.3660     2.3610    -0.3790 N.am  1 <1>  -0.7300 
 12 C        5.2090     0.1860     0.3460 C.3   1 <1>   0.1200 
 13 O        4.3660     0.0850     1.4520 O.3   1 <1>  -0.5600 
 14 C        4.3070     3.3620    -1.2880 C.2   1 <1>   0.5690 
 15 O        4.2510     3.1470    -2.4720 O.2   1 <1>  -0.5700 
 16 C        4.3040     4.7870    -0.8040 C.3   1 <1>  -0.0990 
 17 C        5.6490     5.4440    -1.1240 C.3   1 <1>   0.0960 
 18 N        5.6960     6.8040    -0.5640 N.pl3 1 <1>   0.3140 
 19 N        5.6970     7.0190     0.7640 N.2   1 <1>  -0.7070 
 20 C        5.7260     7.9650    -1.2480 C.2   1 <1>  -0.3020 
 21 C        5.7320     8.3070     0.8930 C.2   1 <1>   0.1080 
 22 C        5.7510     8.9580    -0.3350 C.2   1 <1>  -0.1500 
 23 C        5.7480     8.9850     2.2430 C.3   1 <1>  -0.0590 
 24 H        2.0080     1.4020    -1.9880 H     1 <1>   0.0800 
 25 H        1.7750     2.0570    -0.4070 H     1 <1>   0.0800 
 26 H       -1.0690    -1.0330     2.1790 H     1 <1>   0.0800 
 27 H       -0.4500    -1.8820     0.7880 H     1 <1>   0.0800 
 28 H       -1.8670    -0.8660     0.6230 H     1 <1>   0.0800 
 29 H       -0.6860     1.2850     2.4600 H     1 <1>   0.0800 
 30 H       -1.5890     1.5980     0.9900 H     1 <1>   0.0800 
 31 H        0.0280     2.2370     1.1840 H     1 <1>   0.0800 
 32 H        2.9950    -0.6540    -0.9820 H     1 <1>   0.0800 
 33 H        4.7530     0.7530    -1.7050 H     1 <1>   0.0800 
 34 H        2.6580    -0.9850     1.2570 H     1 <1>   0.0800 
 35 H        2.4750     0.7320     1.5950 H     1 <1>   0.0800 
 36 H        4.4090     2.5590     0.6250 H     1 <1>   0.3700 
 37 H        6.1060     0.7140     0.6170 H     1 <1>   0.0800 
 38 H        5.4510    -0.8110     0.0200 H     1 <1>   0.0800 
 39 H        3.5130     5.3200    -1.2980 H     1 <1>   0.0800 
 40 H        4.1280     4.8080     0.2560 H     1 <1>   0.0800 
 41 H        5.7970     5.4930    -2.1870 H     1 <1>   0.0800 
 42 H        6.4510     4.8770    -0.6860 H     1 <1>   0.0800 
 43 H        5.7280     8.0190    -2.3200 H     1 <1>   0.1500 
 44 H        5.7800    10.0210    -0.4930 H     1 <1>   0.1500 
 45 H        5.7710    10.0520     2.1270 H     1 <1>   0.0800 
 46 H        6.6160     8.6690     2.7900 H     1 <1>   0.0800 
 47 H        4.8680     8.7070     2.7930 H     1 <1>   0.0800 
@<TRIPOS>BOND
  1   1   2  2   
  2   1   3  2   
  3   1   4  am  
  4   1   5  1   
  5   4   6  1   
  6   4   7  1   
  7   5   8  1   
  8   5  24  1   
  9   5  25  1   
 10   6  26  1   
 11   6  27  1   
 12   6  28  1   
 13   7  29  1   
 14   7  30  1   
 15   7  31  1   
 16   8   9  1   
 17   8  10  1   
 18   8  32  1   
 19   9  11  1   
 20   9  12  1   
 21   9  33  1   
 22  10  13  1   
 23  10  34  1   
 24  10  35  1   
 25  11  14  am  
 26  11  36  1   
 27  12  13  1   
 28  12  37  1   
 29  12  38  1   
 30  14  15  2   
 31  14  16  1   
 32  16  17  1   
 33  16  39  1   
 34  16  40  1   
 35  17  18  1   
 36  17  41  1   
 37  17  42  1   
 38  18  19  1   
 39  18  20  1   
 40  19  21  2   
 41  20  22  2   
 42  20  43  1   
 43  21  22  1   
 44  21  23  1   
 45  22  44  1   
 46  23  45  1   
 47  23  46  1   
 48  23  47  1   
@<TRIPOS>SUBSTRUCTURE
  1 ****  11 GROUP 4 **** **** 0

# MOE 2024.06 (io_trps.svl 2023.06)
