@<TRIPOS>MOLECULE
NONAME
45 48 1 0 0 
SMALL
USER_CHARGES


@<TRIPOS>ATOM
  1 O        2.0590     1.2540     1.7650 O.3   1 <1>  -0.0190 
  2 N        1.2800     2.2610     1.5260 N.2   1 <1>  -0.4100 
  3 C        1.7290     0.3740     0.8550 C.2   1 <1>   0.2980 
  4 C        0.5500     1.9570     0.5290 C.2   1 <1>   0.3350 
  5 N        0.7870     0.7330     0.0620 N.2   1 <1>  -0.5650 
  6 C        2.4920    -0.9620     0.8680 C.3   1 <1>   0.4690 
  7 C       -0.5130     2.8590    -0.1050 C.3   1 <1>   0.1010 
  8 N        2.1680    -1.8940    -0.2650 N.pl3 1 <1>  -0.8380 
  9 C        4.0040    -0.7620     0.7680 C.3   1 <1>  -0.1600 
 10 C       -0.1750     4.3520     0.0390 C.3   1 <1>  -0.2400 
 11 C       -1.8940     2.5750     0.5000 C.3   1 <1>  -0.2400 
 12 C        0.9970    -2.5860    -0.3060 C.ar  1 <1>   0.7710 
 13 C        3.4250    -2.4590    -0.8360 C.3   1 <1>   0.2090 
 14 C        4.5250    -2.0440     0.1300 C.3   1 <1>  -0.1600 
 15 N       -0.1360    -1.8590    -0.5170 N.ar  1 <1>  -0.1790 
 16 N        0.9870    -3.8850    -0.1650 N.ar  1 <1>  -0.5670 
 17 C       -1.3570    -2.3970    -0.5960 C.ar  1 <1>   0.4610 
 18 C       -0.2350    -4.4730    -0.2350 C.ar  1 <1>   0.1050 
 19 N       -2.4340    -1.6210    -0.8070 N.pl3 1 <1>  -0.9000 
 20 C       -1.4080    -3.7870    -0.4450 C.ar  1 <1>   0.0000 
 21 N       -0.5660    -5.7840    -0.1240 N.pl3 1 <1>   0.3140 
 22 C       -2.3920    -4.7860    -0.4410 C.2   1 <1>   0.1390 
 23 N       -1.9030    -5.9640    -0.2520 N.2   1 <1>  -0.7070 
 24 C        0.3350    -6.9240     0.1040 C.3   1 <1>   0.0160 
 25 H        2.2760    -1.4680     1.7950 H     1 <1>   0.0800 
 26 H       -0.5460     2.6340    -1.1570 H     1 <1>   0.0800 
 27 H        4.2130     0.0740     0.1230 H     1 <1>   0.0800 
 28 H        4.4460    -0.5750     1.7310 H     1 <1>   0.0800 
 29 H       -0.1540     4.6360     1.0770 H     1 <1>   0.0800 
 30 H       -0.9060     4.9550    -0.4680 H     1 <1>   0.0800 
 31 H        0.7910     4.5540    -0.3880 H     1 <1>   0.0800 
 32 H       -1.8910     2.8040     1.5520 H     1 <1>   0.0800 
 33 H       -2.1540     1.5400     0.3770 H     1 <1>   0.0800 
 34 H       -2.6450     3.1790     0.0210 H     1 <1>   0.0800 
 35 H        3.3870    -3.5320    -0.9400 H     1 <1>   0.0800 
 36 H        3.6000    -2.0190    -1.8040 H     1 <1>   0.0800 
 37 H        4.6470    -2.8090     0.8770 H     1 <1>   0.0800 
 38 H        5.4650    -1.8980    -0.3750 H     1 <1>   0.0800 
 39 H        0.0250    -0.8550    -0.6050 H     1 <1>   0.4570 
 40 H       -2.4290    -0.6020    -0.9310 H     1 <1>   0.4000 
 41 H       -3.3850    -2.0060    -0.8740 H     1 <1>   0.4000 
 42 H       -3.4450    -4.6000    -0.5800 H     1 <1>   0.1500 
 43 H        1.3460    -6.5770     0.2060 H     1 <1>   0.0800 
 44 H        0.2630    -7.5970    -0.7300 H     1 <1>   0.0800 
 45 H        0.0330    -7.4330     1.0000 H     1 <1>   0.0800 
@<TRIPOS>BOND
  1   1   2  1   
  2   1   3  1   
  3   2   4  2   
  4   3   5  2   
  5   3   6  1   
  6   4   5  1   
  7   4   7  1   
  8   6   8  1   
  9   6   9  1   
 10   6  25  1   
 11   7  10  1   
 12   7  11  1   
 13   7  26  1   
 14   8  12  1   
 15   8  13  1   
 16   9  14  1   
 17   9  27  1   
 18   9  28  1   
 19  10  29  1   
 20  10  30  1   
 21  10  31  1   
 22  11  32  1   
 23  11  33  1   
 24  11  34  1   
 25  12  15  ar  
 26  12  16  ar  
 27  13  14  1   
 28  13  35  1   
 29  13  36  1   
 30  14  37  1   
 31  14  38  1   
 32  15  17  ar  
 33  15  39  1   
 34  16  18  ar  
 35  17  19  1   
 36  17  20  ar  
 37  18  20  ar  
 38  18  21  1   
 39  19  40  1   
 40  19  41  1   
 41  20  22  1   
 42  21  23  1   
 43  21  24  1   
 44  22  23  2   
 45  22  42  1   
 46  24  43  1   
 47  24  44  1   
 48  24  45  1   
@<TRIPOS>SUBSTRUCTURE
  1 ****  15 GROUP 4 **** **** 0

# MOE 2024.06 (io_trps.svl 2023.06)
