@<TRIPOS>MOLECULE
NONAME
47 49 1 0 0 
SMALL
USER_CHARGES


@<TRIPOS>ATOM
  1 S       -0.0940     0.8510    -0.7300 S.o2  1 <1>   1.3330 
  2 O       -0.4410    -0.5450    -0.8550 O.2   1 <1>  -0.6500 
  3 O       -0.4230     1.7610    -1.8040 O.2   1 <1>  -0.6500 
  4 N        1.5810     0.9350    -0.4700 N.am  1 <1>  -0.8490 
  5 C       -0.8430     1.4830     0.7850 C.3   1 <1>  -0.0550 
  6 C        2.3350     0.9840    -1.7270 C.3   1 <1>   0.1160 
  7 C        2.0980    -0.1620     0.3580 C.3   1 <1>   0.1160 
  8 C       -0.5440     2.9360     1.2400 C.3   1 <1>  -0.0800 
  9 C       -0.7330     4.0080     0.1500 C.3   1 <1>   0.2000 
 10 C        0.8890     3.1340     1.7700 C.3   1 <1>   0.1400 
 11 O       -1.2620     5.1580     0.7370 O.3   1 <1>  -0.6800 
 12 C        0.6840     4.3360    -0.3070 C.3   1 <1>   0.1400 
 13 N        1.4960     4.1920     0.9270 N.am  1 <1>  -0.6600 
 14 C        2.2800     5.1690     1.4810 C.2   1 <1>   0.6160 
 15 O        2.8660     4.9590     2.5220 O.2   1 <1>  -0.5700 
 16 C        2.3380     6.4690     0.9210 C.2   1 <1>   0.0290 
 17 C        3.4750     6.8290     0.1580 C.2   1 <1>   0.9370 
 18 C        1.3510     7.3780     1.0930 C.2   1 <1>   0.1910 
 19 O        4.3440     6.0380    -0.1370 O.2   1 <1>  -0.5700 
 20 N        3.5880     8.1460    -0.3330 N.pl3 1 <1>  -0.5760 
 21 N        1.4810     8.6320     0.5550 N.pl3 1 <1>  -0.6450 
 22 C        2.5790     9.0330    -0.1330 C.cat 1 <1>   0.7390 
 23 C        4.7080     8.5490    -1.0250 C.2   1 <1>   0.1910 
 24 C        2.6820    10.3370    -0.6350 C.2   1 <1>  -0.1800 
 25 C        4.8240     9.8180    -1.5200 C.2   1 <1>  -0.1500 
 26 C        3.7930    10.7410    -1.3280 C.2   1 <1>  -0.1500 
 27 H       -1.9060     1.4030     0.6640 H     1 <1>   0.0800 
 28 H       -0.5850     0.8230     1.5900 H     1 <1>   0.0800 
 29 H        3.3900     1.0630    -1.5250 H     1 <1>   0.0800 
 30 H        2.0400     1.8420    -2.3060 H     1 <1>   0.0800 
 31 H        2.1510     0.0960    -2.3090 H     1 <1>   0.0800 
 32 H        3.1440    -0.0060     0.5630 H     1 <1>   0.0800 
 33 H        1.9770    -1.1070    -0.1470 H     1 <1>   0.0800 
 34 H        1.5730    -0.2020     1.2960 H     1 <1>   0.0800 
 35 H       -1.2210     3.1360     2.0530 H     1 <1>   0.0800 
 36 H       -1.3790     3.7150    -0.6610 H     1 <1>   0.0800 
 37 H        1.4820     2.2400     1.7090 H     1 <1>   0.0800 
 38 H        0.8630     3.4530     2.7990 H     1 <1>   0.0800 
 39 H       -2.1980     5.0070     0.9800 H     1 <1>   0.4000 
 40 H        0.7320     5.3150    -0.7470 H     1 <1>   0.0800 
 41 H        1.0250     3.6180    -1.0290 H     1 <1>   0.0800 
 42 H        0.4540     7.1400     1.6500 H     1 <1>   0.1500 
 43 H        0.7280     9.3170     0.6890 H     1 <1>   0.4500 
 44 H        5.5120     7.8410    -1.1770 H     1 <1>   0.1500 
 45 H        1.8750    11.0270    -0.4720 H     1 <1>   0.1500 
 46 H        5.7060    10.1200    -2.0610 H     1 <1>   0.1500 
 47 H        3.8880    11.7420    -1.7210 H     1 <1>   0.1500 
@<TRIPOS>BOND
  1   1   2  2   
  2   1   3  2   
  3   1   4  am  
  4   1   5  1   
  5   4   6  1   
  6   4   7  1   
  7   5   8  1   
  8   5  27  1   
  9   5  28  1   
 10   6  29  1   
 11   6  30  1   
 12   6  31  1   
 13   7  32  1   
 14   7  33  1   
 15   7  34  1   
 16   8   9  1   
 17   8  10  1   
 18   8  35  1   
 19   9  11  1   
 20   9  12  1   
 21   9  36  1   
 22  10  13  1   
 23  10  37  1   
 24  10  38  1   
 25  11  39  1   
 26  12  13  1   
 27  12  40  1   
 28  12  41  1   
 29  13  14  am  
 30  14  15  2   
 31  14  16  1   
 32  16  17  1   
 33  16  18  2   
 34  17  19  2   
 35  17  20  1   
 36  18  21  1   
 37  18  42  1   
 38  20  22  ar  
 39  20  23  1   
 40  21  22  ar  
 41  21  43  1   
 42  22  24  1   
 43  23  25  2   
 44  23  44  1   
 45  24  26  2   
 46  24  45  1   
 47  25  26  1   
 48  25  46  1   
 49  26  47  1   
@<TRIPOS>SUBSTRUCTURE
  1 ****  13 GROUP 4 **** **** 0

# MOE 2024.06 (io_trps.svl 2023.06)
