@<TRIPOS>MOLECULE
NONAME
42 44 1 0 0 
SMALL
USER_CHARGES


@<TRIPOS>ATOM
  1 O       -0.6350     1.5920     0.1040 O.2   1 <1>  -0.5700 
  2 C       -1.3630     0.6120     0.0180 C.2   1 <1>   0.5440 
  3 N       -2.7290     0.7830    -0.0560 N.am  1 <1>  -0.4200 
  4 C       -0.8450    -0.7280     0.0090 C.ar  1 <1>   0.0860 
  5 C       -3.5450    -0.3210    -0.1110 C.2   1 <1>   0.4500 
  6 C       -3.3280     2.1440    -0.1120 C.3   1 <1>   0.1400 
  7 C       -1.7730    -1.7740    -0.0520 C.ar  1 <1>   0.1790 
  8 C        0.5180    -1.0360     0.0620 C.ar  1 <1>  -0.1500 
  9 N       -3.1320    -1.5300    -0.1080 N.2   1 <1>  -0.6290 
 10 C       -3.2470     2.8380     1.2550 C.3   1 <1>  -0.0990 
 11 C       -1.3220    -3.0890    -0.0590 C.ar  1 <1>  -0.1500 
 12 C        0.9510    -2.3450     0.0540 C.ar  1 <1>  -0.1500 
 13 C       -2.6150     4.2040     1.1190 C.2   1 <1>   0.5690 
 14 C        0.0260    -3.3780    -0.0060 C.ar  1 <1>  -0.1500 
 15 O       -3.3240     5.1690     1.2500 O.2   1 <1>  -0.5700 
 16 N       -1.2830     4.2580     0.8350 N.am  1 <1>  -0.4940 
 17 C       -0.4490     5.3680     0.6650 C.2   1 <1>   0.2040 
 18 O       -0.8760     6.5980     0.8260 O.3   1 <1>  -0.0190 
 19 C        0.8550     5.4300     0.3310 C.2   1 <1>  -0.1810 
 20 N        0.0730     7.4750     0.6160 N.2   1 <1>  -0.4100 
 21 C        1.1240     6.7980     0.3160 C.2   1 <1>   0.1080 
 22 C        1.8310     4.3040     0.0330 C.3   1 <1>  -0.0590 
 23 C        2.4610     7.4420    -0.0060 C.3   1 <1>   0.0210 
 24 C        2.6360     7.6340    -1.5160 C.3   1 <1>  -0.2400 
 25 H       -4.6030    -0.1310    -0.1580 H     1 <1>   0.0600 
 26 H       -4.3570     2.0820    -0.4240 H     1 <1>   0.0800 
 27 H       -2.8030     2.7170    -0.8600 H     1 <1>   0.0800 
 28 H        1.2350    -0.2340     0.1090 H     1 <1>   0.1500 
 29 H       -2.6730     2.2630     1.9590 H     1 <1>   0.0800 
 30 H       -4.2380     2.9550     1.6540 H     1 <1>   0.0800 
 31 H       -2.0470    -3.8820    -0.1070 H     1 <1>   0.1500 
 32 H        2.0030    -2.5730     0.0950 H     1 <1>   0.1500 
 33 H        0.3620    -4.4010    -0.0120 H     1 <1>   0.1500 
 34 H       -0.8320     3.3500     0.6660 H     1 <1>   0.3700 
 35 H        1.3520     3.3480     0.1350 H     1 <1>   0.0800 
 36 H        2.6590     4.3440     0.7180 H     1 <1>   0.0800 
 37 H        2.2020     4.3950    -0.9710 H     1 <1>   0.0800 
 38 H        3.2560     6.8320     0.3810 H     1 <1>   0.0800 
 39 H        2.5110     8.3990     0.4830 H     1 <1>   0.0800 
 40 H        2.5980     6.6870    -2.0230 H     1 <1>   0.0800 
 41 H        3.5810     8.1040    -1.7240 H     1 <1>   0.0800 
 42 H        1.8470     8.2590    -1.8980 H     1 <1>   0.0800 
@<TRIPOS>BOND
  1   1   2  2   
  2   2   3  am  
  3   2   4  1   
  4   3   5  1   
  5   3   6  1   
  6   4   7  ar  
  7   4   8  ar  
  8   5   9  2   
  9   5  25  1   
 10   6  10  1   
 11   6  26  1   
 12   6  27  1   
 13   7   9  1   
 14   7  11  ar  
 15   8  12  ar  
 16   8  28  1   
 17  10  13  1   
 18  10  29  1   
 19  10  30  1   
 20  11  14  ar  
 21  11  31  1   
 22  12  14  ar  
 23  12  32  1   
 24  13  15  2   
 25  13  16  am  
 26  14  33  1   
 27  16  17  1   
 28  16  34  1   
 29  17  18  1   
 30  17  19  2   
 31  18  20  1   
 32  19  21  1   
 33  19  22  1   
 34  20  21  2   
 35  21  23  1   
 36  22  35  1   
 37  22  36  1   
 38  22  37  1   
 39  23  24  1   
 40  23  38  1   
 41  23  39  1   
 42  24  40  1   
 43  24  41  1   
 44  24  42  1   
@<TRIPOS>SUBSTRUCTURE
  1 ****   1 GROUP 4 **** **** 0

# MOE 2024.06 (io_trps.svl 2023.06)
