@<TRIPOS>MOLECULE
NONAME
49 52 1 0 0 
SMALL
USER_CHARGES


@<TRIPOS>ATOM
  1 O        1.6290    -0.8930    -1.4530 O.3   1 <1>  -0.0190 
  2 N        1.8820     0.3830    -1.5190 N.2   1 <1>  -0.4100 
  3 C        1.6230    -1.3230    -0.2200 C.2   1 <1>  -0.0400 
  4 C        2.0410     0.7840    -0.3060 C.2   1 <1>   0.1080 
  5 C        1.8860    -0.2790     0.5820 C.2   1 <1>  -0.1500 
  6 C        1.3520    -2.7870     0.0840 C.3   1 <1>   0.2900 
  7 C        2.3580     2.2160     0.1100 C.3   1 <1>   0.1010 
  8 N        0.0070    -3.2110    -0.3460 N.3   1 <1>  -0.8100 
  9 C        1.2350     3.1760    -0.3200 C.3   1 <1>  -0.1600 
 10 C        3.7100     2.6710    -0.4650 C.3   1 <1>  -0.1600 
 11 C       -0.2060    -4.6500    -0.0700 C.3   1 <1>   0.1100 
 12 C       -1.0680    -2.4010     0.2750 C.3   1 <1>   0.1100 
 13 C        1.5510     4.6280     0.0690 C.3   1 <1>  -0.1600 
 14 C        4.0320     4.1220    -0.0760 C.3   1 <1>  -0.1600 
 15 C       -1.6000    -5.1360    -0.5110 C.3   1 <1>   0.2090 
 16 C       -2.4710    -2.8570    -0.1710 C.3   1 <1>   0.2090 
 17 C        2.9050     5.0710    -0.5040 C.3   1 <1>  -0.1600 
 18 N       -2.6770    -4.3080     0.1130 N.pl3 1 <1>  -0.8380 
 19 C       -3.9770    -4.7940     0.1430 C.ar  1 <1>   0.4100 
 20 N       -4.2990    -5.7230    -0.7500 N.ar  1 <1>  -0.6200 
 21 C       -4.9050    -4.3120     1.0840 C.ar  1 <1>   0.1600 
 22 C       -5.5600    -6.1090    -0.6520 C.ar  1 <1>   0.1600 
 23 N       -6.1660    -4.6910     1.1820 N.ar  1 <1>  -0.6200 
 24 C       -6.4640    -5.6120     0.2770 C.ar  1 <1>   0.1600 
 25 H        1.9650    -0.2350     1.6510 H     1 <1>   0.1500 
 26 H        1.4610    -2.9550     1.1410 H     1 <1>   0.0800 
 27 H        2.0880    -3.3810    -0.4300 H     1 <1>   0.0800 
 28 H        2.4260     2.2430     1.1830 H     1 <1>   0.0800 
 29 H        0.3090     2.8730     0.1360 H     1 <1>   0.0800 
 30 H        1.1090     3.1150    -1.3880 H     1 <1>   0.0800 
 31 H        3.6820     2.5900    -1.5390 H     1 <1>   0.0800 
 32 H        4.4890     2.0190    -0.1090 H     1 <1>   0.0800 
 33 H       -0.0990    -4.8400     0.9850 H     1 <1>   0.0800 
 34 H        0.5370    -5.2270    -0.5930 H     1 <1>   0.0800 
 35 H       -0.9500    -1.3690    -0.0050 H     1 <1>   0.0800 
 36 H       -1.0060    -2.4690     1.3470 H     1 <1>   0.0800 
 37 H        1.5720     4.7160     1.1410 H     1 <1>   0.0800 
 38 H        0.7750     5.2760    -0.3010 H     1 <1>   0.0800 
 39 H        4.9530     4.4240    -0.5440 H     1 <1>   0.0800 
 40 H        4.1670     4.1850     0.9900 H     1 <1>   0.0800 
 41 H       -1.7270    -6.1660    -0.2240 H     1 <1>   0.0800 
 42 H       -1.6770    -5.0750    -1.5830 H     1 <1>   0.0800 
 43 H       -2.5750    -2.6850    -1.2290 H     1 <1>   0.0800 
 44 H       -3.2140    -2.2690     0.3370 H     1 <1>   0.0800 
 45 H        3.1280     6.0700    -0.1700 H     1 <1>   0.0800 
 46 H        2.8460     5.0890    -1.5790 H     1 <1>   0.0800 
 47 H       -4.5550    -3.5760     1.7820 H     1 <1>   0.1500 
 48 H       -5.8960    -6.8590    -1.3450 H     1 <1>   0.1500 
 49 H       -7.4710    -5.9890     0.2760 H     1 <1>   0.1500 
@<TRIPOS>BOND
  1   1   2  1   
  2   1   3  1   
  3   2   4  2   
  4   3   5  2   
  5   3   6  1   
  6   4   5  1   
  7   4   7  1   
  8   5  25  1   
  9   6   8  1   
 10   6  26  1   
 11   6  27  1   
 12   7   9  1   
 13   7  10  1   
 14   7  28  1   
 15   8  11  1   
 16   8  12  1   
 17   9  13  1   
 18   9  29  1   
 19   9  30  1   
 20  10  14  1   
 21  10  31  1   
 22  10  32  1   
 23  11  15  1   
 24  11  33  1   
 25  11  34  1   
 26  12  16  1   
 27  12  35  1   
 28  12  36  1   
 29  13  17  1   
 30  13  37  1   
 31  13  38  1   
 32  14  17  1   
 33  14  39  1   
 34  14  40  1   
 35  15  18  1   
 36  15  41  1   
 37  15  42  1   
 38  16  18  1   
 39  16  43  1   
 40  16  44  1   
 41  17  45  1   
 42  17  46  1   
 43  18  19  1   
 44  19  20  ar  
 45  19  21  ar  
 46  20  22  ar  
 47  21  23  ar  
 48  21  47  1   
 49  22  24  ar  
 50  22  48  1   
 51  23  24  ar  
 52  24  49  1   
@<TRIPOS>SUBSTRUCTURE
  1 ****  12 GROUP 4 **** **** 0

# MOE 2024.06 (io_trps.svl 2023.06)
