@<TRIPOS>MOLECULE
NONAME
51 54 1 0 0 
SMALL
USER_CHARGES


@<TRIPOS>ATOM
  1 O       -1.8560     0.1780     2.0640 O.2   1 <1>  -0.5700 
  2 C       -2.4310     0.6560     1.1050 C.2   1 <1>   0.5440 
  3 N       -3.5410     0.0140     0.6090 N.am  1 <1>  -0.6600 
  4 C       -1.9450     1.8750     0.4810 C.ar  1 <1>   0.0860 
  5 C       -4.1950     0.3540    -0.6810 C.3   1 <1>   0.1400 
  6 C       -4.0010    -1.3100     1.0930 C.3   1 <1>   0.1400 
  7 C       -2.5160     3.1170     0.7890 C.ar  1 <1>  -0.1440 
  8 C       -0.9080     1.8330    -0.4590 C.ar  1 <1>  -0.1440 
  9 C       -5.2350    -0.7490    -0.8940 C.3   1 <1>   0.2000 
 10 C       -4.6890    -1.9520    -0.1180 C.3   1 <1>  -0.0800 
 11 C       -2.0760     4.2670     0.1580 C.ar  1 <1>  -0.1500 
 12 C       -3.6240     3.2230     1.8300 C.3   1 <1>  -0.0960 
 13 C       -0.4780     2.9930    -1.0810 C.ar  1 <1>  -0.1500 
 14 C       -0.2310     0.5130    -0.8070 C.3   1 <1>  -0.0970 
 15 O       -6.4230    -0.3570    -0.2990 O.3   1 <1>  -0.6800 
 16 C       -3.6900    -2.7520    -0.9780 C.3   1 <1>  -0.0170 
 17 C       -1.0610     4.2080    -0.7770 C.ar  1 <1>  -0.1500 
 18 C       -3.1580    -3.9780    -0.2420 C.ar  1 <1>  -0.1440 
 19 C       -3.9090    -5.1690    -0.1040 C.ar  1 <1>   0.0000 
 20 C       -1.9140    -3.9490     0.3180 C.ar  1 <1>  -0.1500 
 21 C       -3.3160    -6.2410     0.6070 C.ar  1 <1>   0.3100 
 22 C       -5.2080    -5.3620    -0.6300 C.ar  1 <1>  -0.1500 
 23 C       -1.4210    -5.0670     1.0020 C.ar  1 <1>   0.1600 
 24 N       -2.0750    -6.1740     1.1520 N.ar  1 <1>  -0.6200 
 25 C       -4.0380    -7.4350     0.7630 C.ar  1 <1>  -0.1500 
 26 C       -5.8850    -6.5390    -0.4600 C.ar  1 <1>  -0.1500 
 27 C       -5.2950    -7.5910     0.2450 C.ar  1 <1>  -0.1500 
 28 H       -4.6480     1.3300    -0.6510 H     1 <1>   0.0800 
 29 H       -3.4610     0.3250    -1.4660 H     1 <1>   0.0800 
 30 H       -3.1810    -1.8960     1.4690 H     1 <1>   0.0800 
 31 H       -4.7090    -1.1610     1.8900 H     1 <1>   0.0800 
 32 H       -5.4310    -0.9510    -1.9330 H     1 <1>   0.0800 
 33 H       -5.4850    -2.6030     0.1970 H     1 <1>   0.0800 
 34 H       -2.5160     5.2210     0.3920 H     1 <1>   0.1500 
 35 H       -3.8760     4.2500     2.0250 H     1 <1>   0.0800 
 36 H       -3.3040     2.7750     2.7550 H     1 <1>   0.0800 
 37 H       -4.5070     2.7150     1.4870 H     1 <1>   0.0800 
 38 H        0.3180     2.9620    -1.8050 H     1 <1>   0.1500 
 39 H        0.5610     0.6570    -1.5200 H     1 <1>   0.0800 
 40 H       -0.9450    -0.1730    -1.2250 H     1 <1>   0.0800 
 41 H        0.1910     0.0750     0.0800 H     1 <1>   0.0800 
 42 H       -6.2390    -0.0610     0.6150 H     1 <1>   0.4000 
 43 H       -2.8630    -2.1200    -1.2520 H     1 <1>   0.0800 
 44 H       -4.1570    -3.0640    -1.8950 H     1 <1>   0.0800 
 45 H       -0.7230     5.1060    -1.2640 H     1 <1>   0.1500 
 46 H       -1.2860    -3.0780     0.2580 H     1 <1>   0.1500 
 47 H       -5.6810    -4.5680    -1.1760 H     1 <1>   0.1500 
 48 H       -0.4360    -4.9990     1.4310 H     1 <1>   0.1500 
 49 H       -3.5640    -8.2300     1.3090 H     1 <1>   0.1500 
 50 H       -6.8740    -6.6720    -0.8650 H     1 <1>   0.1500 
 51 H       -5.8370    -8.5120     0.3720 H     1 <1>   0.1500 
@<TRIPOS>BOND
  1   1   2  2   
  2   2   3  am  
  3   2   4  1   
  4   3   5  1   
  5   3   6  1   
  6   4   7  ar  
  7   4   8  ar  
  8   5   9  1   
  9   5  28  1   
 10   5  29  1   
 11   6  10  1   
 12   6  30  1   
 13   6  31  1   
 14   7  11  ar  
 15   7  12  1   
 16   8  13  ar  
 17   8  14  1   
 18   9  10  1   
 19   9  15  1   
 20   9  32  1   
 21  10  16  1   
 22  10  33  1   
 23  11  17  ar  
 24  11  34  1   
 25  12  35  1   
 26  12  36  1   
 27  12  37  1   
 28  13  17  ar  
 29  13  38  1   
 30  14  39  1   
 31  14  40  1   
 32  14  41  1   
 33  15  42  1   
 34  16  18  1   
 35  16  43  1   
 36  16  44  1   
 37  17  45  1   
 38  18  19  ar  
 39  18  20  ar  
 40  19  21  ar  
 41  19  22  ar  
 42  20  23  ar  
 43  20  46  1   
 44  21  24  ar  
 45  21  25  ar  
 46  22  26  ar  
 47  22  47  1   
 48  23  24  ar  
 49  23  48  1   
 50  25  27  ar  
 51  25  49  1   
 52  26  27  ar  
 53  26  50  1   
 54  27  51  1   
@<TRIPOS>SUBSTRUCTURE
  1 ****   6 GROUP 4 **** **** 0

# MOE 2024.06 (io_trps.svl 2023.06)
