@<TRIPOS>MOLECULE
NONAME
54 56 1 0 0 
SMALL
USER_CHARGES


@<TRIPOS>ATOM
  1 O        0.5130     3.3510     1.5270 O.2   1 <1>  -0.5700 
  2 C       -0.5940     2.9540     1.2210 C.2   1 <1>   0.6900 
  3 N       -1.6720     3.8110     1.2360 N.am  1 <1>  -0.4200 
  4 N       -0.7650     1.6780     0.7650 N.am  1 <1>  -0.5390 
  5 C       -2.8400     3.4540     0.5910 C.2   1 <1>   0.6160 
  6 C       -1.5970     5.1110     1.9680 C.3   1 <1>   0.1400 
  7 C       -1.9540     1.2400     0.2180 C.2   1 <1>  -0.0290 
  8 O       -3.6910     4.3020     0.4010 O.2   1 <1>  -0.5700 
  9 C       -2.9790     2.1150     0.1220 C.2   1 <1>  -0.1360 
 10 C       -1.1180     6.2550     1.0580 C.3   1 <1>   0.3430 
 11 C       -2.0120    -0.2030    -0.2430 C.3   1 <1>  -0.1020 
 12 N        0.1550     5.8980     0.3520 N.4   1 <1>  -0.9590 
 13 C        1.2250     6.9330     0.5360 C.3   1 <1>   0.3430 
 14 C       -0.0900     5.5920    -1.0860 C.3   1 <1>   0.3430 
 15 C        2.5550     6.4880    -0.0920 C.3   1 <1>   0.1000 
 16 C        1.2050     5.0830    -1.7230 C.3   1 <1>  -0.1600 
 17 C        3.5680     7.6100     0.0410 C.2   1 <1>   0.2980 
 18 C        2.3570     6.0900    -1.5670 C.3   1 <1>  -0.1600 
 19 O        4.8170     7.3690    -0.2690 O.3   1 <1>  -0.0190 
 20 N        3.3170     8.7940     0.4340 N.2   1 <1>  -0.5650 
 21 N        5.4130     8.5000    -0.0570 N.2   1 <1>  -0.4100 
 22 C        4.5320     9.3230     0.3490 C.2   1 <1>   0.3350 
 23 C        4.8040    10.7720     0.7150 C.3   1 <1>   0.0210 
 24 C        4.8610    11.7040    -0.5120 C.3   1 <1>  -0.0800 
 25 C        5.2690    13.1210    -0.0880 C.3   1 <1>  -0.2400 
 26 C        3.5190    11.7580    -1.2580 C.3   1 <1>  -0.2400 
 27 H        0.0480     1.0630     0.8460 H     1 <1>   0.3700 
 28 H       -0.9290     5.0140     2.8070 H     1 <1>   0.0800 
 29 H       -2.5680     5.3570     2.3640 H     1 <1>   0.0800 
 30 H       -3.9320     1.8570    -0.3020 H     1 <1>   0.1500 
 31 H       -0.9710     7.1350     1.6620 H     1 <1>   0.0800 
 32 H       -1.8920     6.4770     0.3400 H     1 <1>   0.0800 
 33 H       -1.2710    -0.3820    -1.0020 H     1 <1>   0.0800 
 34 H       -2.9800    -0.4330    -0.6510 H     1 <1>   0.0800 
 35 H       -1.8270    -0.8640     0.5860 H     1 <1>   0.0800 
 36 H        0.5020     5.0170     0.7890 H     1 <1>   0.4500 
 37 H        1.3820     7.1230     1.5850 H     1 <1>   0.0800 
 38 H        0.9170     7.8580     0.0740 H     1 <1>   0.0800 
 39 H       -0.4210     6.4820    -1.5990 H     1 <1>   0.0800 
 40 H       -0.8580     4.8410    -1.1790 H     1 <1>   0.0800 
 41 H        2.9260     5.6430     0.4620 H     1 <1>   0.0800 
 42 H        1.0320     4.9020    -2.7700 H     1 <1>   0.0800 
 43 H        1.4740     4.1410    -1.2750 H     1 <1>   0.0800 
 44 H        3.2680     5.6620    -1.9530 H     1 <1>   0.0800 
 45 H        2.1400     6.9720    -2.1470 H     1 <1>   0.0800 
 46 H        5.7480    10.8080     1.2280 H     1 <1>   0.0800 
 47 H        4.0480    11.1100     1.4000 H     1 <1>   0.0800 
 48 H        5.6110    11.3260    -1.1880 H     1 <1>   0.0800 
 49 H        4.5440    13.5400     0.5880 H     1 <1>   0.0800 
 50 H        5.3440    13.7610    -0.9490 H     1 <1>   0.0800 
 51 H        6.2280    13.1050     0.4010 H     1 <1>   0.0800 
 52 H        2.7350    12.1000    -0.6060 H     1 <1>   0.0800 
 53 H        3.2560    10.7860    -1.6350 H     1 <1>   0.0800 
 54 H        3.5860    12.4310    -2.0950 H     1 <1>   0.0800 
@<TRIPOS>BOND
  1   1   2  2   
  2   2   3  am  
  3   2   4  am  
  4   3   5  am  
  5   3   6  1   
  6   4   7  1   
  7   4  27  1   
  8   5   8  2   
  9   5   9  1   
 10   6  10  1   
 11   6  28  1   
 12   6  29  1   
 13   7   9  2   
 14   7  11  1   
 15   9  30  1   
 16  10  12  1   
 17  10  31  1   
 18  10  32  1   
 19  11  33  1   
 20  11  34  1   
 21  11  35  1   
 22  12  13  1   
 23  12  14  1   
 24  12  36  1   
 25  13  15  1   
 26  13  37  1   
 27  13  38  1   
 28  14  16  1   
 29  14  39  1   
 30  14  40  1   
 31  15  17  1   
 32  15  18  1   
 33  15  41  1   
 34  16  18  1   
 35  16  42  1   
 36  16  43  1   
 37  17  19  1   
 38  17  20  2   
 39  18  44  1   
 40  18  45  1   
 41  19  21  1   
 42  20  22  1   
 43  21  22  2   
 44  22  23  1   
 45  23  24  1   
 46  23  46  1   
 47  23  47  1   
 48  24  25  1   
 49  24  26  1   
 50  24  48  1   
 51  25  49  1   
 52  25  50  1   
 53  25  51  1   
 54  26  52  1   
 55  26  53  1   
 56  26  54  1   
@<TRIPOS>SUBSTRUCTURE
  1 ****  13 GROUP 4 **** **** 0

# MOE 2024.06 (io_trps.svl 2023.06)
