@<TRIPOS>MOLECULE
NONAME
44 47 1 0 0 
SMALL
USER_CHARGES


@<TRIPOS>ATOM
  1 O       -0.7260     0.3470    -0.6790 O.2   1 <1>  -0.5700 
  2 C       -1.6010     0.9540    -0.0800 C.2   1 <1>   0.7160 
  3 N       -2.7110     0.2280     0.3170 N.am  1 <1>  -0.6600 
  4 C       -1.4300     2.3870     0.1610 C.2   1 <1>   0.1410 
  5 C       -2.7000    -1.2660     0.4120 C.3   1 <1>   0.1400 
  6 C       -4.0660     0.8220     0.5440 C.3   1 <1>   0.1400 
  7 N       -2.1480     3.1440     1.0480 N.2   1 <1>  -0.5650 
  8 C       -0.5110     3.2000    -0.4390 C.2   1 <1>  -0.3020 
  9 C       -3.8470    -1.8870    -0.4030 C.3   1 <1>   0.3430 
 10 C       -5.1510     0.0650    -0.2510 C.3   1 <1>   0.2950 
 11 C       -1.6550     4.3320     0.9510 C.2   1 <1>   0.0360 
 12 N       -0.6510     4.4340     0.0560 N.pl3 1 <1>   0.0480 
 13 O       -5.0700    -1.3120    -0.0240 O.3   1 <1>  -0.5600 
 14 C       -3.9030    -3.3980    -0.1920 C.ar  1 <1>  -0.1430 
 15 C       -6.5580     0.5140     0.1520 C.3   1 <1>  -0.1950 
 16 C        0.1340     5.6320    -0.2860 C.3   1 <1>   0.0160 
 17 C       -3.1920    -4.2340    -1.0420 C.ar  1 <1>  -0.1500 
 18 C       -4.6390    -3.9590     0.8430 C.ar  1 <1>  -0.1500 
 19 C       -7.7260     0.3230    -0.7640 C.3   1 <1>  -0.2000 
 20 C       -7.2020     1.7050    -0.4880 C.3   1 <1>  -0.2000 
 21 C       -3.2160    -5.6060    -0.8610 C.ar  1 <1>  -0.1500 
 22 C       -4.6640    -5.3310     1.0260 C.ar  1 <1>  -0.1500 
 23 C       -3.9520    -6.1560     0.1740 C.ar  1 <1>  -0.1500 
 24 H       -1.7650    -1.6670     0.0630 H     1 <1>   0.0800 
 25 H       -2.8100    -1.5540     1.4430 H     1 <1>   0.0800 
 26 H       -4.2950     0.7870     1.5940 H     1 <1>   0.0800 
 27 H       -4.0890     1.8490     0.2320 H     1 <1>   0.0800 
 28 H        0.2200     2.9310    -1.1800 H     1 <1>   0.1500 
 29 H       -3.6960    -1.6840    -1.4490 H     1 <1>   0.0800 
 30 H       -5.0100     0.2370    -1.3040 H     1 <1>   0.0800 
 31 H       -1.9950     5.1790     1.5220 H     1 <1>   0.1500 
 32 H       -6.7370     0.3730     1.2040 H     1 <1>   0.1000 
 33 H        0.6790     5.4570    -1.1950 H     1 <1>   0.0800 
 34 H        0.8230     5.8430     0.5110 H     1 <1>   0.0800 
 35 H       -0.5290     6.4670    -0.4220 H     1 <1>   0.0800 
 36 H       -2.6140    -3.8210    -1.8500 H     1 <1>   0.1500 
 37 H       -5.1990    -3.3250     1.5090 H     1 <1>   0.1500 
 38 H       -7.5540    -0.1210    -1.7290 H     1 <1>   0.1000 
 39 H       -8.6660     0.0230    -0.3350 H     1 <1>   0.1000 
 40 H       -7.7900     2.3670     0.1250 H     1 <1>   0.1000 
 41 H       -6.6910     2.2240    -1.2800 H     1 <1>   0.1000 
 42 H       -2.6630    -6.2470    -1.5250 H     1 <1>   0.1500 
 43 H       -5.2400    -5.7540     1.8300 H     1 <1>   0.1500 
 44 H       -3.9720    -7.2220     0.3150 H     1 <1>   0.1500 
@<TRIPOS>BOND
  1   1   2  2   
  2   2   3  am  
  3   2   4  1   
  4   3   5  1   
  5   3   6  1   
  6   4   7  1   
  7   4   8  2   
  8   5   9  1   
  9   5  24  1   
 10   5  25  1   
 11   6  10  1   
 12   6  26  1   
 13   6  27  1   
 14   7  11  2   
 15   8  12  1   
 16   8  28  1   
 17   9  13  1   
 18   9  14  1   
 19   9  29  1   
 20  10  13  1   
 21  10  15  1   
 22  10  30  1   
 23  11  12  1   
 24  11  31  1   
 25  12  16  1   
 26  14  17  ar  
 27  14  18  ar  
 28  15  19  1   
 29  15  20  1   
 30  15  32  1   
 31  16  33  1   
 32  16  34  1   
 33  16  35  1   
 34  17  21  ar  
 35  17  36  1   
 36  18  22  ar  
 37  18  37  1   
 38  19  20  1   
 39  19  38  1   
 40  19  39  1   
 41  20  40  1   
 42  20  41  1   
 43  21  23  ar  
 44  21  42  1   
 45  22  23  ar  
 46  22  43  1   
 47  23  44  1   
@<TRIPOS>SUBSTRUCTURE
  1 ****   3 GROUP 4 **** **** 0

# MOE 2024.06 (io_trps.svl 2023.06)
