@<TRIPOS>MOLECULE
NONAME
54 56 1 0 0 
SMALL
USER_CHARGES


@<TRIPOS>ATOM
  1 S       -0.4510     0.1130     1.3680 S.o2  1 <1>   1.4470 
  2 O       -0.2490    -1.2480     1.8270 O.2   1 <1>  -0.6500 
  3 O       -1.0850     1.0590     2.2560 O.2   1 <1>  -0.6500 
  4 N       -1.4140    -0.0140    -0.0340 N.am  1 <1>  -0.8490 
  5 C        1.1140     0.7980     0.7500 C.ar  1 <1>  -0.0090 
  6 C       -1.4830    -1.3660    -0.6100 C.3   1 <1>   0.1960 
  7 C       -2.7360     0.6290     0.0390 C.3   1 <1>   0.1960 
  8 C        1.1340     1.8640    -0.1410 C.ar  1 <1>  -0.1500 
  9 C        2.3390     0.2870     1.1600 C.ar  1 <1>  -0.1500 
 10 C       -2.4560    -2.2890     0.1820 C.3   1 <1>   0.4230 
 11 C       -3.7180    -0.2320     0.8490 C.3   1 <1>  -0.1600 
 12 C        2.3260     2.3910    -0.6050 C.ar  1 <1>  -0.1500 
 13 C        3.5330     0.8130     0.6960 C.ar  1 <1>  -0.1500 
 14 N       -2.4430    -3.7470    -0.2610 N.4   1 <1>  -0.9590 
 15 C       -3.8790    -1.6740     0.2910 C.3   1 <1>   0.0000 
 16 C        3.5590     1.8850    -0.1970 C.ar  1 <1>   0.0860 
 17 C       -3.6310    -4.5350     0.2050 C.3   1 <1>   0.3430 
 18 C       -2.2130    -3.9850    -1.7240 C.3   1 <1>   0.2630 
 19 C       -4.7250    -2.5100     1.2970 C.3   1 <1>  -0.1600 
 20 C       -4.5650    -1.6480    -1.1050 C.3   1 <1>   0.1200 
 21 C        4.8020     2.4570    -0.6890 C.2   1 <1>   0.5440 
 22 C       -4.2090    -3.9490     1.4930 C.3   1 <1>  -0.1600 
 23 O       -5.7300    -0.9010    -1.0890 O.3   1 <1>  -0.6800 
 24 O        4.8480     2.9770    -1.7860 O.2   1 <1>  -0.5700 
 25 N        5.9360     2.4350     0.0780 N.am  1 <1>  -0.7300 
 26 C        7.2610     2.9740    -0.3260 C.3   1 <1>   0.0600 
 27 H       -1.8030    -1.2760    -1.6320 H     1 <1>   0.0800 
 28 H       -0.4950    -1.7960    -0.6140 H     1 <1>   0.0800 
 29 H       -2.6520     1.6090     0.4810 H     1 <1>   0.0800 
 30 H       -3.1180     0.7700    -0.9580 H     1 <1>   0.0800 
 31 H        0.2040     2.2900    -0.4780 H     1 <1>   0.1500 
 32 H        2.3610    -0.5380     1.8540 H     1 <1>   0.1500 
 33 H       -2.0880    -2.2940     1.1930 H     1 <1>   0.0800 
 34 H       -3.3710    -0.2640     1.8680 H     1 <1>   0.0800 
 35 H       -4.6690     0.2720     0.8770 H     1 <1>   0.0800 
 36 H        2.3110     3.2150    -1.3000 H     1 <1>   0.1500 
 37 H        4.4600     0.3790     1.0280 H     1 <1>   0.1500 
 38 H       -1.6340    -4.1490     0.2390 H     1 <1>   0.4500 
 39 H       -4.3990    -4.5200    -0.5510 H     1 <1>   0.0800 
 40 H       -3.3470    -5.5640     0.3680 H     1 <1>   0.0800 
 41 H       -3.0100    -3.5530    -2.3070 H     1 <1>   0.0800 
 42 H       -2.1740    -5.0430    -1.9280 H     1 <1>   0.0800 
 43 H       -1.2780    -3.5480    -2.0370 H     1 <1>   0.0800 
 44 H       -4.7350    -2.0400     2.2670 H     1 <1>   0.0800 
 45 H       -5.7510    -2.5470     0.9750 H     1 <1>   0.0800 
 46 H       -4.8240    -2.6370    -1.4360 H     1 <1>   0.0800 
 47 H       -3.9310    -1.1980    -1.8470 H     1 <1>   0.0800 
 48 H       -5.0200    -4.5710     1.8330 H     1 <1>   0.0800 
 49 H       -3.4540    -3.9710     2.2600 H     1 <1>   0.0800 
 50 H       -6.4000    -1.2690    -0.4790 H     1 <1>   0.4000 
 51 H        5.8690     2.1060     1.0420 H     1 <1>   0.3700 
 52 H        7.2470     3.2760    -1.3600 H     1 <1>   0.0800 
 53 H        8.0170     2.2190    -0.1980 H     1 <1>   0.0800 
 54 H        7.5060     3.8300     0.2800 H     1 <1>   0.0800 
@<TRIPOS>BOND
  1   1   2  2   
  2   1   3  2   
  3   1   4  am  
  4   1   5  1   
  5   4   6  1   
  6   4   7  1   
  7   5   8  ar  
  8   5   9  ar  
  9   6  10  1   
 10   6  27  1   
 11   6  28  1   
 12   7  11  1   
 13   7  29  1   
 14   7  30  1   
 15   8  12  ar  
 16   8  31  1   
 17   9  13  ar  
 18   9  32  1   
 19  10  14  1   
 20  10  15  1   
 21  10  33  1   
 22  11  15  1   
 23  11  34  1   
 24  11  35  1   
 25  12  16  ar  
 26  12  36  1   
 27  13  16  ar  
 28  13  37  1   
 29  14  17  1   
 30  14  18  1   
 31  14  38  1   
 32  15  19  1   
 33  15  20  1   
 34  16  21  1   
 35  17  22  1   
 36  17  39  1   
 37  17  40  1   
 38  18  41  1   
 39  18  42  1   
 40  18  43  1   
 41  19  22  1   
 42  19  44  1   
 43  19  45  1   
 44  20  23  1   
 45  20  46  1   
 46  20  47  1   
 47  21  24  2   
 48  21  25  am  
 49  22  48  1   
 50  22  49  1   
 51  23  50  1   
 52  25  26  1   
 53  25  51  1   
 54  26  52  1   
 55  26  53  1   
 56  26  54  1   
@<TRIPOS>SUBSTRUCTURE
  1 ****   4 GROUP 4 **** **** 0

# MOE 2024.06 (io_trps.svl 2023.06)
