@<TRIPOS>MOLECULE
NONAME
50 53 1 0 0 
SMALL
USER_CHARGES


@<TRIPOS>ATOM
  1 O       -1.3580    -2.4670     0.2340 O.2   1 <1>  -0.5700 
  2 C       -0.2850    -3.0070     0.1130 C.2   1 <1>   0.5690 
  3 N        0.0070    -3.8870    -0.8930 N.am  1 <1>  -0.6600 
  4 C        0.8060    -2.7070     1.1210 C.3   1 <1>  -0.0990 
  5 C        1.3420    -4.5330    -0.9620 C.3   1 <1>   0.1400 
  6 C       -0.9900    -4.2920    -1.9190 C.3   1 <1>   0.0600 
  7 C        2.1440    -2.4600     0.4020 C.3   1 <1>  -0.0800 
  8 C        2.4510    -3.4920    -0.7090 C.3   1 <1>  -0.0800 
  9 C        3.3490    -2.4640     1.3530 C.3   1 <1>  -0.1600 
 10 C        3.7930    -4.1310    -0.3300 C.3   1 <1>  -0.1600 
 11 C        4.4800    -3.0730     0.5330 C.3   1 <1>   0.2200 
 12 N        5.5920    -3.5820     1.3930 N.am  1 <1>  -0.6600 
 13 C        6.7970    -2.9310     1.5520 C.2   1 <1>   0.5690 
 14 C        5.3740    -4.8810     2.1060 C.3   1 <1>   0.0600 
 15 O        7.7150    -3.4580     2.1370 O.2   1 <1>  -0.5700 
 16 C        7.0280    -1.5230     0.9980 C.3   1 <1>  -0.0190 
 17 C        7.5640    -1.5210    -0.4460 C.3   1 <1>  -0.0170 
 18 C        8.0180    -0.6480     1.7970 C.3   1 <1>  -0.0170 
 19 C        8.3120    -0.2130    -0.5200 C.ar  1 <1>  -0.1440 
 20 C        8.5640     0.2780     0.7380 C.ar  1 <1>  -0.1440 
 21 C        8.7280     0.4750    -1.6440 C.ar  1 <1>  -0.1500 
 22 C        9.2380     1.4720     0.9090 C.ar  1 <1>  -0.1500 
 23 C        9.4040     1.6750    -1.4830 C.ar  1 <1>  -0.1500 
 24 C        9.6580     2.1710    -0.2120 C.ar  1 <1>  -0.1500 
 25 H        0.5320    -1.8450     1.7010 H     1 <1>   0.0800 
 26 H        0.8790    -3.5500     1.7820 H     1 <1>   0.0800 
 27 H        1.3780    -5.3060    -0.2130 H     1 <1>   0.0800 
 28 H        1.4860    -4.9890    -1.9260 H     1 <1>   0.0800 
 29 H       -0.6290    -4.0350    -2.8990 H     1 <1>   0.0800 
 30 H       -1.9270    -3.7860    -1.7550 H     1 <1>   0.0800 
 31 H       -1.1590    -5.3530    -1.8660 H     1 <1>   0.0800 
 32 H        2.0850    -1.4920    -0.0690 H     1 <1>   0.0800 
 33 H        2.5930    -2.9450    -1.6270 H     1 <1>   0.0800 
 34 H        3.1430    -3.0810     2.2090 H     1 <1>   0.0800 
 35 H        3.5920    -1.4700     1.6830 H     1 <1>   0.0800 
 36 H        4.3800    -4.3700    -1.1990 H     1 <1>   0.0800 
 37 H        3.6060    -5.0250     0.2340 H     1 <1>   0.0800 
 38 H        4.8450    -2.3200    -0.1410 H     1 <1>   0.0800 
 39 H        4.3620    -4.9560     2.4610 H     1 <1>   0.0800 
 40 H        6.0300    -4.9640     2.9560 H     1 <1>   0.0800 
 41 H        5.5800    -5.6990     1.4370 H     1 <1>   0.0800 
 42 H        6.1010    -0.9830     1.0070 H     1 <1>   0.0800 
 43 H        6.7740    -1.5700    -1.1730 H     1 <1>   0.0800 
 44 H        8.2550    -2.3340    -0.5960 H     1 <1>   0.0800 
 45 H        8.8300    -1.2280     2.2010 H     1 <1>   0.0800 
 46 H        7.5240    -0.1120     2.5880 H     1 <1>   0.0800 
 47 H        8.5320     0.0870    -2.6270 H     1 <1>   0.1500 
 48 H        9.4340     1.8520     1.8960 H     1 <1>   0.1500 
 49 H        9.7350     2.2230    -2.3480 H     1 <1>   0.1500 
 50 H       10.1840     3.1020    -0.0960 H     1 <1>   0.1500 
@<TRIPOS>BOND
  1   1   2  2   
  2   2   3  am  
  3   2   4  1   
  4   3   5  1   
  5   3   6  1   
  6   4   7  1   
  7   4  25  1   
  8   4  26  1   
  9   5   8  1   
 10   5  27  1   
 11   5  28  1   
 12   6  29  1   
 13   6  30  1   
 14   6  31  1   
 15   7   8  1   
 16   7   9  1   
 17   7  32  1   
 18   8  10  1   
 19   8  33  1   
 20   9  11  1   
 21   9  34  1   
 22   9  35  1   
 23  10  11  1   
 24  10  36  1   
 25  10  37  1   
 26  11  12  1   
 27  11  38  1   
 28  12  13  am  
 29  12  14  1   
 30  13  15  2   
 31  13  16  1   
 32  14  39  1   
 33  14  40  1   
 34  14  41  1   
 35  16  17  1   
 36  16  18  1   
 37  16  42  1   
 38  17  19  1   
 39  17  43  1   
 40  17  44  1   
 41  18  20  1   
 42  18  45  1   
 43  18  46  1   
 44  19  20  ar  
 45  19  21  ar  
 46  20  22  ar  
 47  21  23  ar  
 48  21  47  1   
 49  22  24  ar  
 50  22  48  1   
 51  23  24  ar  
 52  23  49  1   
 53  24  50  1   
@<TRIPOS>SUBSTRUCTURE
  1 ****  11 GROUP 4 **** **** 0

# MOE 2024.06 (io_trps.svl 2023.06)
