@<TRIPOS>MOLECULE
Untitled Document
45 48 1 0 0 
SMALL
USER_CHARGES


@<TRIPOS>ATOM
  1 F       -0.4230    -0.7540     1.6340 F     1 <1>  -0.1900 
  2 C       -1.3880    -1.1650     0.8580 C.ar  1 <1>   0.1900 
  3 C       -1.3680    -2.4610     0.3870 C.ar  1 <1>  -0.1440 
  4 C       -2.4110    -0.2930     0.5300 C.ar  1 <1>  -0.1500 
  5 C       -2.4010    -2.9110    -0.4150 C.ar  1 <1>   0.0410 
  6 C       -0.3410    -3.5610     0.6280 C.3   1 <1>   0.5780 
  7 C       -3.4390    -0.7440    -0.2870 C.ar  1 <1>  -0.1500 
  8 C       -2.1480    -4.2860    -0.7220 C.2   1 <1>   0.3090 
  9 C       -3.4400    -2.0500    -0.7590 C.ar  1 <1>  -0.1500 
 10 N       -0.9840    -4.6690    -0.1230 N.pl3 1 <1>  -0.7640 
 11 C        1.0320    -3.2190     0.0290 C.3   1 <1>  -0.1600 
 12 C       -2.6220    -5.3730    -1.3800 C.2   1 <1>   0.2000 
 13 C       -0.7530    -5.9410    -0.3970 C.cat 1 <1>   0.6500 
 14 C        2.2080    -3.9070     0.7400 C.3   1 <1>   0.2000 
 15 N       -1.7350    -6.4020    -1.1640 N.pl3 1 <1>  -0.7000 
 16 O        1.9070    -5.2480     0.8830 O.3   1 <1>  -0.6800 
 17 C        3.5590    -3.7750    -0.0060 C.3   1 <1>  -0.0800 
 18 C        4.6870    -4.5650     0.7030 C.3   1 <1>  -0.1600 
 19 C        3.9750    -2.2930    -0.1610 C.3   1 <1>  -0.1600 
 20 C        6.0410    -4.4050    -0.0050 C.3   1 <1>  -0.1600 
 21 C        5.3330    -2.1400    -0.8640 C.3   1 <1>  -0.1600 
 22 C        6.4190    -2.9310    -0.1360 C.3   1 <1>   0.2000 
 23 O        7.5840    -2.8430    -0.8630 O.3   1 <1>  -0.6800 
 24 H       -2.4030     0.7150     0.9070 H     1 <1>   0.1500 
 25 H       -0.2780    -3.7910     1.6790 H     1 <1>   0.0800 
 26 H       -4.2420    -0.0750    -0.5510 H     1 <1>   0.1500 
 27 H       -4.2450    -2.3910    -1.3880 H     1 <1>   0.1500 
 28 H        1.1810    -2.1610     0.1280 H     1 <1>   0.0800 
 29 H        1.0440    -3.4380    -1.0230 H     1 <1>   0.0800 
 30 H       -3.5190    -5.4640    -1.9700 H     1 <1>   0.1500 
 31 H        0.0950    -6.5190    -0.0560 H     1 <1>   0.1500 
 32 H        2.3110    -3.5000     1.7330 H     1 <1>   0.0800 
 33 H       -1.8140    -7.3570    -1.5300 H     1 <1>   0.4500 
 34 H        2.6700    -5.7000     1.3020 H     1 <1>   0.4000 
 35 H        3.4340    -4.1820    -0.9960 H     1 <1>   0.0800 
 36 H        4.7840    -4.2210     1.7190 H     1 <1>   0.0800 
 37 H        4.4540    -5.6150     0.7280 H     1 <1>   0.0800 
 38 H        3.2450    -1.7550    -0.7390 H     1 <1>   0.0800 
 39 H        4.0330    -1.8310     0.8110 H     1 <1>   0.0800 
 40 H        5.9810    -4.8530    -0.9820 H     1 <1>   0.0800 
 41 H        6.8010    -4.9160     0.5600 H     1 <1>   0.0800 
 42 H        5.6070    -1.0990    -0.8860 H     1 <1>   0.0800 
 43 H        5.2440    -2.4920    -1.8770 H     1 <1>   0.0800 
 44 H        6.6050    -2.5040     0.8360 H     1 <1>   0.0800 
 45 H        7.4500    -3.2130    -1.7550 H     1 <1>   0.4000 
@<TRIPOS>BOND
  1   1   2  1   
  2   2   3  ar  
  3   2   4  ar  
  4   3   5  ar  
  5   3   6  1   
  6   4   7  ar  
  7   4  24  1   
  8   5   8  1   
  9   5   9  ar  
 10   6  10  1   
 11   6  11  1   
 12   6  25  1   
 13   7   9  ar  
 14   7  26  1   
 15   8  10  1   
 16   8  12  2   
 17   9  27  1   
 18  10  13  ar  
 19  11  14  1   
 20  11  28  1   
 21  11  29  1   
 22  12  15  1   
 23  12  30  1   
 24  13  15  ar  
 25  13  31  1   
 26  14  16  1   
 27  14  17  1   
 28  14  32  1   
 29  15  33  1   
 30  16  34  1   
 31  17  18  1   
 32  17  19  1   
 33  17  35  1   
 34  18  20  1   
 35  18  36  1   
 36  18  37  1   
 37  19  21  1   
 38  19  38  1   
 39  19  39  1   
 40  20  22  1   
 41  20  40  1   
 42  20  41  1   
 43  21  22  1   
 44  21  42  1   
 45  21  43  1   
 46  22  23  1   
 47  22  44  1   
 48  23  45  1   
@<TRIPOS>SUBSTRUCTURE
  1 ****  11 GROUP 4 **** **** 0

# MOE 2024.06 (io_trps.svl 2023.06)
