@<TRIPOS>MOLECULE
NONAME
46 49 1 0 0 
SMALL
USER_CHARGES


@<TRIPOS>ATOM
  1 S       -0.5000    -0.2460    -1.0240 S.3   1 <1>  -0.0800 
  2 C        0.2170     1.1560    -0.2200 C.ar  1 <1>   0.0400 
  3 C        0.8610    -1.2810    -0.5660 C.2   1 <1>  -0.1400 
  4 C        1.4340     0.8070     0.3430 C.ar  1 <1>   0.0000 
  5 C       -0.3200     2.4280    -0.1400 C.ar  1 <1>  -0.1500 
  6 C        1.7720    -0.5730     0.1280 C.2   1 <1>  -0.1500 
  7 C        0.8160    -2.7470    -1.0030 C.3   1 <1>   0.4970 
  8 C        2.1470     1.7920     1.0190 C.ar  1 <1>  -0.1500 
  9 C        0.4030     3.3930     0.5380 C.ar  1 <1>  -0.1500 
 10 N       -0.3800    -3.4410    -0.3770 N.4   1 <1>  -0.9590 
 11 C        2.1040    -3.5510    -0.6780 C.2   1 <1>   0.9060 
 12 C        1.6300     3.0740     1.1140 C.ar  1 <1>  -0.1500 
 13 C       -1.6070    -3.4680    -1.2140 C.3   1 <1>   0.3430 
 14 C       -0.5810    -3.0990     1.0490 C.3   1 <1>   0.3430 
 15 O        3.2240    -3.1380    -0.9930 O.co2 1 <1>  -0.9000 
 16 O        1.9300    -4.6410    -0.1020 O.co2 1 <1>  -0.9000 
 17 C       -2.8440    -3.8100    -0.3800 C.3   1 <1>  -0.1600 
 18 C       -1.4660    -4.1540     1.7150 C.3   1 <1>  -0.1600 
 19 C       -2.5220    -4.7720     0.7700 C.3   1 <1>   0.4240 
 20 O       -1.9240    -5.8820     0.1810 O.3   1 <1>  -0.6800 
 21 C       -3.8220    -5.1730     1.5150 C.ar  1 <1>   0.1670 
 22 N       -4.4140    -4.2080     2.2180 N.ar  1 <1>  -0.6200 
 23 C       -4.3400    -6.4630     1.4300 C.ar  1 <1>  -0.1500 
 24 C       -5.5270    -4.5370     2.8540 C.ar  1 <1>   0.1600 
 25 C       -5.5000    -6.7910     2.0990 C.ar  1 <1>  -0.1500 
 26 C       -6.1030    -5.7930     2.8300 C.ar  1 <1>  -0.1500 
 27 H       -1.2680     2.6520    -0.5950 H     1 <1>   0.1500 
 28 H        2.7040    -0.9630     0.5070 H     1 <1>   0.1500 
 29 H        0.7200    -2.7770    -2.0730 H     1 <1>   0.0800 
 30 H        3.0970     1.5490     1.4620 H     1 <1>   0.1500 
 31 H        0.0180     4.3950     0.6220 H     1 <1>   0.1500 
 32 H       -0.0010    -4.4160    -0.3230 H     1 <1>   0.4500 
 33 H        2.1830     3.8350     1.6370 H     1 <1>   0.1500 
 34 H       -1.4830    -4.2140    -1.9820 H     1 <1>   0.0800 
 35 H       -1.7540    -2.5130    -1.6910 H     1 <1>   0.0800 
 36 H       -1.0500    -2.1300     1.1180 H     1 <1>   0.0800 
 37 H        0.3700    -3.0530     1.5560 H     1 <1>   0.0800 
 38 H       -3.6000    -4.2370    -1.0130 H     1 <1>   0.0800 
 39 H       -3.2540    -2.9020     0.0260 H     1 <1>   0.0800 
 40 H       -1.9470    -3.6630     2.5400 H     1 <1>   0.0800 
 41 H       -0.8480    -4.9240     2.1400 H     1 <1>   0.0800 
 42 H       -1.6540    -6.5110     0.8780 H     1 <1>   0.4000 
 43 H       -3.8590    -7.2230     0.8420 H     1 <1>   0.1500 
 44 H       -6.0090    -3.7620     3.4260 H     1 <1>   0.1500 
 45 H       -5.9170    -7.7830     2.0490 H     1 <1>   0.1500 
 46 H       -7.0100    -5.9840     3.3740 H     1 <1>   0.1500 
@<TRIPOS>BOND
  1   1   2  1   
  2   1   3  1   
  3   2   4  ar  
  4   2   5  ar  
  5   3   6  2   
  6   3   7  1   
  7   4   6  1   
  8   4   8  ar  
  9   5   9  ar  
 10   5  27  1   
 11   6  28  1   
 12   7  10  1   
 13   7  11  1   
 14   7  29  1   
 15   8  12  ar  
 16   8  30  1   
 17   9  12  ar  
 18   9  31  1   
 19  10  13  1   
 20  10  14  1   
 21  10  32  1   
 22  11  15  ar  
 23  11  16  ar  
 24  12  33  1   
 25  13  17  1   
 26  13  34  1   
 27  13  35  1   
 28  14  18  1   
 29  14  36  1   
 30  14  37  1   
 31  17  19  1   
 32  17  38  1   
 33  17  39  1   
 34  18  19  1   
 35  18  40  1   
 36  18  41  1   
 37  19  20  1   
 38  19  21  1   
 39  20  42  1   
 40  21  22  ar  
 41  21  23  ar  
 42  22  24  ar  
 43  23  25  ar  
 44  23  43  1   
 45  24  26  ar  
 46  24  44  1   
 47  25  26  ar  
 48  25  45  1   
 49  26  46  1   
@<TRIPOS>SUBSTRUCTURE
  1 ****  14 GROUP 4 **** **** 0

# MOE 2024.06 (io_trps.svl 2023.06)
