@<TRIPOS>MOLECULE
NONAME
40 43 1 0 0 
SMALL
USER_CHARGES


@<TRIPOS>ATOM
  1 O       -0.4970     0.3630     0.7390 O.2   1 <1>  -0.5700 
  2 C       -1.5820     0.8830     0.5370 C.2   1 <1>   0.7160 
  3 N       -2.7110     0.1360     0.8230 N.am  1 <1>  -0.6600 
  4 C       -1.6240     2.2360     0.0070 C.2   1 <1>   0.1410 
  5 C       -2.6980    -1.3590     0.7810 C.3   1 <1>   0.1400 
  6 C       -4.0960     0.6780     0.9660 C.3   1 <1>   0.1400 
  7 N       -2.6020     2.7170    -0.7980 N.2   1 <1>  -0.2270 
  8 C       -0.7170     3.2300     0.1710 C.2   1 <1>  -0.3020 
  9 C       -3.7030    -1.8820    -0.2670 C.3   1 <1>   0.3440 
 10 C       -5.0090     0.0820    -0.1200 C.3   1 <1>   0.2950 
 11 N       -2.3340     3.9350    -1.1040 N.2   1 <1>  -0.4180 
 12 N       -1.1800     4.2630    -0.5220 N.pl3 1 <1>   0.3000 
 13 O       -4.9740    -1.3160    -0.0580 O.3   1 <1>  -0.5600 
 14 C       -3.8040    -3.4030    -0.2000 C.ar  1 <1>  -0.1440 
 15 C       -6.4640     0.5180     0.0680 C.3   1 <1>  -0.1950 
 16 C       -4.6900    -4.0310     0.6650 C.ar  1 <1>  -0.1500 
 17 C       -2.9870    -4.1810    -1.0080 C.ar  1 <1>  -0.1500 
 18 C       -7.4270     0.5210    -1.0770 C.3   1 <1>  -0.2000 
 19 C       -6.9510     1.8200    -0.4890 C.3   1 <1>  -0.2000 
 20 C       -4.7570    -5.4120     0.7240 C.ar  1 <1>  -0.1500 
 21 C       -3.0520    -5.5630    -0.9510 C.ar  1 <1>  -0.1500 
 22 C       -3.9370    -6.1790    -0.0840 C.ar  1 <1>  -0.1500 
 23 H       -1.7160    -1.7260     0.5370 H     1 <1>   0.0800 
 24 H       -2.9610    -1.7460     1.7500 H     1 <1>   0.0800 
 25 H       -4.4810     0.4030     1.9330 H     1 <1>   0.0800 
 26 H       -4.1100     1.7500     0.9130 H     1 <1>   0.0800 
 27 H        0.2010     3.2280     0.7290 H     1 <1>   0.1500 
 28 H       -3.3760    -1.5930    -1.2510 H     1 <1>   0.0800 
 29 H       -4.6650     0.3890    -1.0940 H     1 <1>   0.0800 
 30 H       -0.7520     5.1890    -0.6290 H     1 <1>   0.2700 
 31 H       -6.8510     0.2250     1.0290 H     1 <1>   0.1000 
 32 H       -5.3350    -3.4420     1.2950 H     1 <1>   0.1500 
 33 H       -2.2930    -3.7170    -1.6870 H     1 <1>   0.1500 
 34 H       -7.0730     0.2250    -2.0490 H     1 <1>   0.1000 
 35 H       -8.4390     0.2020    -0.8940 H     1 <1>   0.1000 
 36 H       -7.6430     2.4070     0.0900 H     1 <1>   0.1000 
 37 H       -6.2800     2.4300    -1.0710 H     1 <1>   0.1000 
 38 H       -5.4480    -5.8880     1.3970 H     1 <1>   0.1500 
 39 H       -2.4160    -6.1590    -1.5810 H     1 <1>   0.1500 
 40 H       -3.9890    -7.2530    -0.0390 H     1 <1>   0.1500 
@<TRIPOS>BOND
  1   1   2  2   
  2   2   3  am  
  3   2   4  1   
  4   3   5  1   
  5   3   6  1   
  6   4   7  1   
  7   4   8  2   
  8   5   9  1   
  9   5  23  1   
 10   5  24  1   
 11   6  10  1   
 12   6  25  1   
 13   6  26  1   
 14   7  11  2   
 15   8  12  1   
 16   8  27  1   
 17   9  13  1   
 18   9  14  1   
 19   9  28  1   
 20  10  13  1   
 21  10  15  1   
 22  10  29  1   
 23  11  12  1   
 24  12  30  1   
 25  14  16  ar  
 26  14  17  ar  
 27  15  18  1   
 28  15  19  1   
 29  15  31  1   
 30  16  20  ar  
 31  16  32  1   
 32  17  21  ar  
 33  17  33  1   
 34  18  19  1   
 35  18  34  1   
 36  18  35  1   
 37  19  36  1   
 38  19  37  1   
 39  20  22  ar  
 40  20  38  1   
 41  21  22  ar  
 42  21  39  1   
 43  22  40  1   
@<TRIPOS>SUBSTRUCTURE
  1 ****   9 GROUP 4 **** **** 0

# MOE 2024.06 (io_trps.svl 2023.06)
