@<TRIPOS>MOLECULE
NONAME
39 41 1 0 0 
SMALL
USER_CHARGES


@<TRIPOS>ATOM
  1 O       -0.2120    -1.2240    -1.8150 O.co2 1 <1>  -0.9000 
  2 C       -0.1010    -2.3670    -1.3440 C.2   1 <1>   1.0330 
  3 O       -1.1180    -3.0880    -1.3120 O.co2 1 <1>  -0.9000 
  4 C        1.1500    -2.8450    -0.8330 C.2   1 <1>  -0.2330 
  5 C        1.4500    -4.1920    -0.6370 C.2   1 <1>   0.3720 
  6 C        2.2890    -2.2120    -0.4340 C.2   1 <1>   0.0870 
  7 N        2.6380    -4.3550    -0.1730 N.2   1 <1>  -0.4100 
  8 N        0.5710    -5.2310    -0.9020 N.pl3 1 <1>  -0.8520 
  9 O        3.1310    -3.1510    -0.0620 O.3   1 <1>  -0.0190 
 10 C        2.7020    -0.8320    -0.3290 C.ar  1 <1>   0.0530 
 11 C        0.3320    -6.1740     0.1980 C.3   1 <1>   0.2890 
 12 C        1.8040     0.1990    -0.0550 C.ar  1 <1>  -0.1500 
 13 C        4.0450    -0.4790    -0.4790 C.ar  1 <1>  -0.1500 
 14 C       -0.3040    -7.4330    -0.3760 C.3   1 <1>  -0.1600 
 15 C       -0.7550    -5.6190     1.1130 C.3   1 <1>  -0.1600 
 16 C        2.2150     1.5140     0.0590 C.ar  1 <1>  -0.1500 
 17 C        4.4680     0.8320    -0.3620 C.ar  1 <1>  -0.1500 
 18 C       -1.7920    -7.1060    -0.5420 C.3   1 <1>  -0.1600 
 19 C       -2.0900    -5.9690     0.4430 C.3   1 <1>  -0.1600 
 20 C        3.5590     1.8420    -0.0940 C.ar  1 <1>   0.0820 
 21 O        4.0470     3.1020     0.0020 O.3   1 <1>  -0.3620 
 22 C        3.1870     4.2040     0.1920 C.3   1 <1>   0.0400 
 23 H       -0.3360    -4.7840    -1.1520 H     1 <1>   0.4000 
 24 H        1.2490    -6.3860     0.7240 H     1 <1>   0.0800 
 25 H        0.7620    -0.0350     0.0650 H     1 <1>   0.1500 
 26 H        4.7650    -1.2490    -0.6930 H     1 <1>   0.1500 
 27 H       -0.1940    -8.2280     0.3390 H     1 <1>   0.0800 
 28 H        0.1610    -7.7270    -1.3000 H     1 <1>   0.0800 
 29 H       -0.6470    -4.5610     1.2750 H     1 <1>   0.0800 
 30 H       -0.6940    -6.1230     2.0600 H     1 <1>   0.0800 
 31 H        1.4740     2.2620     0.2620 H     1 <1>   0.1500 
 32 H        5.5060     1.0820    -0.4820 H     1 <1>   0.1500 
 33 H       -2.4070    -7.9690    -0.3560 H     1 <1>   0.0800 
 34 H       -1.9700    -6.7560    -1.5450 H     1 <1>   0.0800 
 35 H       -2.4540    -5.1110    -0.1000 H     1 <1>   0.0800 
 36 H       -2.8250    -6.2560     1.1740 H     1 <1>   0.0800 
 37 H        3.7860     5.0960     0.2060 H     1 <1>   0.0800 
 38 H        2.6760     4.0890     1.1310 H     1 <1>   0.0800 
 39 H        2.4880     4.2440    -0.6250 H     1 <1>   0.0800 
@<TRIPOS>BOND
  1   1   2  ar  
  2   2   3  ar  
  3   2   4  1   
  4   4   5  1   
  5   4   6  2   
  6   5   7  2   
  7   5   8  1   
  8   6   9  1   
  9   6  10  1   
 10   7   9  1   
 11   8  11  1   
 12   8  23  1   
 13  10  12  ar  
 14  10  13  ar  
 15  11  14  1   
 16  11  15  1   
 17  11  24  1   
 18  12  16  ar  
 19  12  25  1   
 20  13  17  ar  
 21  13  26  1   
 22  14  18  1   
 23  14  27  1   
 24  14  28  1   
 25  15  19  1   
 26  15  29  1   
 27  15  30  1   
 28  16  20  ar  
 29  16  31  1   
 30  17  20  ar  
 31  17  32  1   
 32  18  19  1   
 33  18  33  1   
 34  18  34  1   
 35  19  35  1   
 36  19  36  1   
 37  20  21  1   
 38  21  22  1   
 39  22  37  1   
 40  22  38  1   
 41  22  39  1   
@<TRIPOS>SUBSTRUCTURE
  1 ****   4 GROUP 4 **** **** 0

# MOE 2024.06 (io_trps.svl 2023.06)
