@<TRIPOS>MOLECULE
Untitled Document
32 32 1 0 0 
SMALL
USER_CHARGES


@<TRIPOS>ATOM
  1 S       -0.4900     0.1120    -1.3700 S.3   1 <1>  -0.4600 
  2 C       -1.4170    -0.1200     0.1800 C.3   1 <1>   0.0700 
  3 C        1.1980    -0.3340    -0.8910 C.3   1 <1>  -0.0100 
  4 C       -2.8920     0.2620    -0.0010 C.3   1 <1>  -0.1860 
  5 C       -3.5290     0.2420     1.3730 C.2   1 <1>   0.9060 
  6 C       -3.6350    -0.6870    -0.9720 C.3   1 <1>  -0.0990 
  7 O       -3.3990    -0.7790     2.0610 O.co2 1 <1>  -0.9000 
  8 O       -4.1530     1.2270     1.7670 O.co2 1 <1>  -0.9000 
  9 C       -5.0370    -0.2060    -1.3450 C.2   1 <1>   0.4230 
 10 O       -5.0950     0.5890    -2.2520 O.2   1 <1>  -0.5700 
 11 C       -6.2350    -0.7450    -0.7190 C.ar  1 <1>   0.0860 
 12 C       -6.2370    -1.5400     0.4310 C.ar  1 <1>  -0.1500 
 13 C       -7.4860    -0.4840    -1.2870 C.ar  1 <1>  -0.1500 
 14 C       -7.4050    -2.0480     0.9700 C.ar  1 <1>  -0.1500 
 15 C       -8.6590    -0.9900    -0.7560 C.ar  1 <1>  -0.1500 
 16 C       -8.6260    -1.7820     0.3780 C.ar  1 <1>  -0.1440 
 17 C       -9.9060    -2.3370     0.9740 C.3   1 <1>  -0.0970 
 18 H       -0.9550     0.5090     0.9210 H     1 <1>   0.0800 
 19 H       -1.3180    -1.1510     0.4730 H     1 <1>   0.0800 
 20 H        1.8220    -0.2280    -1.7600 H     1 <1>   0.0800 
 21 H        1.1850    -1.3520    -0.5460 H     1 <1>   0.0800 
 22 H        1.5060     0.3370    -0.1100 H     1 <1>   0.0800 
 23 H       -2.9460     1.2680    -0.3710 H     1 <1>   0.0800 
 24 H       -3.6730    -1.6760    -0.5580 H     1 <1>   0.0800 
 25 H       -3.0790    -0.7560    -1.8880 H     1 <1>   0.0800 
 26 H       -5.3160    -1.7650     0.9370 H     1 <1>   0.1500 
 27 H       -7.5350     0.1330    -2.1660 H     1 <1>   0.1500 
 28 H       -7.3500    -2.6450     1.8620 H     1 <1>   0.1500 
 29 H       -9.5970    -0.7610    -1.2290 H     1 <1>   0.1500 
 30 H       -9.7230    -3.2990     1.4200 H     1 <1>   0.0800 
 31 H      -10.6590    -2.4500     0.2150 H     1 <1>   0.0800 
 32 H      -10.2710    -1.6670     1.7320 H     1 <1>   0.0800 
@<TRIPOS>BOND
  1   1   2  1   
  2   1   3  1   
  3   2   4  1   
  4   2  18  1   
  5   2  19  1   
  6   3  20  1   
  7   3  21  1   
  8   3  22  1   
  9   4   5  1   
 10   4   6  1   
 11   4  23  1   
 12   5   7  ar  
 13   5   8  ar  
 14   6   9  1   
 15   6  24  1   
 16   6  25  1   
 17   9  10  2   
 18   9  11  1   
 19  11  12  ar  
 20  11  13  ar  
 21  12  14  ar  
 22  12  26  1   
 23  13  15  ar  
 24  13  27  1   
 25  14  16  ar  
 26  14  28  1   
 27  15  16  ar  
 28  15  29  1   
 29  16  17  1   
 30  17  30  1   
 31  17  31  1   
 32  17  32  1   
@<TRIPOS>SUBSTRUCTURE
  1 ****   9 GROUP 4 **** **** 0

# MOE 2024.06 (io_trps.svl 2023.06)
