@<TRIPOS>MOLECULE
NONAME
42 43 1 0 0 
SMALL
USER_CHARGES


@<TRIPOS>ATOM
  1 F       -0.8120    -1.1560     0.3200 F     1 <1>  -0.1900 
  2 C       -1.9170    -1.8100     0.5750 C.ar  1 <1>   0.1900 
  3 C       -2.9850    -1.1700     1.1810 C.ar  1 <1>   0.1900 
  4 C       -1.9960    -3.1460     0.2280 C.ar  1 <1>  -0.1500 
  5 F       -2.9030     0.0950     1.5070 F     1 <1>  -0.1900 
  6 C       -4.1560    -1.8540     1.4530 C.ar  1 <1>  -0.1500 
  7 C       -3.1670    -3.8430     0.4970 C.ar  1 <1>  -0.1440 
  8 C       -4.2390    -3.1950     1.1050 C.ar  1 <1>  -0.1500 
  9 C       -3.2910    -5.3120     0.1300 C.3   1 <1>  -0.0160 
 10 C       -3.9540    -5.4720    -1.2430 C.3   1 <1>  -0.0990 
 11 C       -4.2560    -6.9360    -1.5280 C.2   1 <1>   0.5690 
 12 O       -3.3040    -7.6790    -1.5770 O.2   1 <1>  -0.5700 
 13 N       -5.5360    -7.4030    -1.6890 N.am  1 <1>  -0.6600 
 14 C       -5.8000    -8.8760    -1.7100 C.3   1 <1>   0.3210 
 15 C       -6.7560    -6.5410    -1.8570 C.3   1 <1>   0.1400 
 16 C       -6.5760    -9.2900    -0.4650 C.2   1 <1>   0.0460 
 17 C       -7.4820    -6.2040    -0.5370 C.3   1 <1>   0.1200 
 18 N       -7.8990    -9.5500    -0.5300 N.2   1 <1>  -0.5650 
 19 C       -6.1180    -9.4310     0.8030 C.2   1 <1>  -0.3320 
 20 O       -6.6050    -6.2050     0.5370 O.3   1 <1>  -0.6800 
 21 C       -8.2170    -9.8420     0.6890 C.2   1 <1>   0.0360 
 22 N       -7.1790    -9.7870     1.5490 N.pl3 1 <1>   0.0330 
 23 C       -4.7250    -9.2500     1.3820 C.3   1 <1>  -0.0600 
 24 H       -1.1560    -3.6260    -0.2420 H     1 <1>   0.1500 
 25 H       -4.9800    -1.3500     1.9230 H     1 <1>   0.1500 
 26 H       -5.1470    -3.7410     1.3100 H     1 <1>   0.1500 
 27 H       -3.8830    -5.8140     0.8760 H     1 <1>   0.0800 
 28 H       -2.3200    -5.7780     0.1210 H     1 <1>   0.0800 
 29 H       -3.2920    -5.1050    -2.0050 H     1 <1>   0.0800 
 30 H       -4.8400    -4.8740    -1.2610 H     1 <1>   0.0800 
 31 H       -4.8800    -9.4320    -1.7430 H     1 <1>   0.0800 
 32 H       -6.3660    -9.1320    -2.5880 H     1 <1>   0.0800 
 33 H       -7.4530    -7.0360    -2.5100 H     1 <1>   0.0800 
 34 H       -6.4870    -5.6260    -2.3520 H     1 <1>   0.0800 
 35 H       -8.2450    -6.9370    -0.3390 H     1 <1>   0.0800 
 36 H       -7.9480    -5.2370    -0.5970 H     1 <1>   0.0800 
 37 H       -6.1970    -7.1000     0.5700 H     1 <1>   0.4000 
 38 H       -9.2100   -10.1080     1.0080 H     1 <1>   0.1500 
 39 H       -7.2020    -9.9790     2.5540 H     1 <1>   0.2700 
 40 H       -4.0170    -9.0200     0.6060 H     1 <1>   0.0800 
 41 H       -4.4060   -10.1540     1.8700 H     1 <1>   0.0800 
 42 H       -4.7190    -8.4460     2.0970 H     1 <1>   0.0800 
@<TRIPOS>BOND
  1   1   2  1   
  2   2   3  ar  
  3   2   4  ar  
  4   3   5  1   
  5   3   6  ar  
  6   4   7  ar  
  7   4  24  1   
  8   6   8  ar  
  9   6  25  1   
 10   7   8  ar  
 11   7   9  1   
 12   8  26  1   
 13   9  10  1   
 14   9  27  1   
 15   9  28  1   
 16  10  11  1   
 17  10  29  1   
 18  10  30  1   
 19  11  12  2   
 20  11  13  am  
 21  13  14  1   
 22  13  15  1   
 23  14  16  1   
 24  14  31  1   
 25  14  32  1   
 26  15  17  1   
 27  15  33  1   
 28  15  34  1   
 29  16  18  1   
 30  16  19  2   
 31  17  20  1   
 32  17  35  1   
 33  17  36  1   
 34  18  21  2   
 35  19  22  1   
 36  19  23  1   
 37  20  37  1   
 38  21  22  1   
 39  21  38  1   
 40  22  39  1   
 41  23  40  1   
 42  23  41  1   
 43  23  42  1   
@<TRIPOS>SUBSTRUCTURE
  1 ****  10 GROUP 4 **** **** 0

# MOE 2024.06 (io_trps.svl 2023.06)
