@<TRIPOS>MOLECULE
NONAME
38 40 1 0 0 
SMALL
USER_CHARGES


@<TRIPOS>ATOM
  1 O       -0.7520     0.2160    -1.0750 O.2   1 <1>  -0.5700 
  2 C       -1.5940     0.7740    -0.3920 C.2   1 <1>   0.5440 
  3 N       -2.5100     0.0080     0.2840 N.am  1 <1>  -0.6600 
  4 C       -1.5890     2.2230    -0.3150 C.ar  1 <1>   0.0860 
  5 C       -3.4980     0.4820     1.2970 C.3   1 <1>   0.2350 
  6 C       -2.9210    -1.3480    -0.1780 C.3   1 <1>   0.2350 
  7 C       -0.4270     2.9150     0.0220 C.ar  1 <1>  -0.1500 
  8 C       -2.7310     2.9760    -0.5920 C.ar  1 <1>  -0.1500 
  9 C       -4.7910    -0.2260     0.9370 C.3   1 <1>  -0.2420 
 10 C       -4.4260    -1.3920     0.0490 C.3   1 <1>  -0.2420 
 11 C       -0.3980     4.2960     0.1020 C.ar  1 <1>  -0.1440 
 12 C       -2.7360     4.3570    -0.5120 C.ar  1 <1>  -0.1440 
 13 C       -5.8140    -0.0450     2.0600 C.2   1 <1>   0.9470 
 14 C       -5.3010    -0.2860    -0.4820 C.3   1 <1>  -0.2000 
 15 C       -4.9420    -2.8330     0.0250 C.2   1 <1>   0.9470 
 16 C       -1.5600     5.0140    -0.1620 C.ar  1 <1>   0.0820 
 17 C        0.8940     5.0100     0.4750 C.3   1 <1>  -0.0970 
 18 C       -4.0260     5.1130    -0.8030 C.3   1 <1>  -0.0970 
 19 O       -6.8820     0.5350     1.8190 O.co2 1 <1>  -0.9000 
 20 O       -5.4810    -0.3120     3.2230 O.co2 1 <1>  -0.9000 
 21 O       -5.8270    -3.1510    -0.7820 O.co2 1 <1>  -0.9000 
 22 O       -4.3600    -3.6900     0.7050 O.co2 1 <1>  -0.9000 
 23 O       -1.5480     6.3520    -0.0790 O.3   1 <1>  -0.5320 
 24 H       -3.1770     0.1670     2.2750 H     1 <1>   0.0800 
 25 H       -3.6320     1.5460     1.2980 H     1 <1>   0.0800 
 26 H       -2.6830    -1.5010    -1.2150 H     1 <1>   0.0800 
 27 H       -2.4290    -2.0930     0.4230 H     1 <1>   0.0800 
 28 H        0.4600     2.3400     0.2200 H     1 <1>   0.1500 
 29 H       -3.6270     2.4470    -0.8680 H     1 <1>   0.1500 
 30 H       -4.9100     0.3800    -1.2280 H     1 <1>   0.1000 
 31 H       -6.3460    -0.5040    -0.6320 H     1 <1>   0.1000 
 32 H        1.6940     4.3090     0.6320 H     1 <1>   0.0800 
 33 H        0.7480     5.5760     1.3770 H     1 <1>   0.0800 
 34 H        1.1760     5.6840    -0.3140 H     1 <1>   0.0800 
 35 H       -4.8260     4.4290    -1.0300 H     1 <1>   0.0800 
 36 H       -3.8910     5.7670    -1.6460 H     1 <1>   0.0800 
 37 H       -4.3180     5.6900     0.0560 H     1 <1>   0.0800 
 38 H       -2.4190     6.7390    -0.2660 H     1 <1>   0.4500 
@<TRIPOS>BOND
  1   1   2  2   
  2   2   3  am  
  3   2   4  1   
  4   3   5  1   
  5   3   6  1   
  6   4   7  ar  
  7   4   8  ar  
  8   5   9  1   
  9   5  24  1   
 10   5  25  1   
 11   6  10  1   
 12   6  26  1   
 13   6  27  1   
 14   7  11  ar  
 15   7  28  1   
 16   8  12  ar  
 17   8  29  1   
 18   9  10  1   
 19   9  13  1   
 20   9  14  1   
 21  10  14  1   
 22  10  15  1   
 23  11  16  ar  
 24  11  17  1   
 25  12  16  ar  
 26  12  18  1   
 27  13  19  ar  
 28  13  20  ar  
 29  14  30  1   
 30  14  31  1   
 31  15  21  ar  
 32  15  22  ar  
 33  16  23  1   
 34  17  32  1   
 35  17  33  1   
 36  17  34  1   
 37  18  35  1   
 38  18  36  1   
 39  18  37  1   
 40  23  38  1   
@<TRIPOS>SUBSTRUCTURE
  1 ****   5 GROUP 4 **** **** 0

# MOE 2024.06 (io_trps.svl 2023.06)
