@<TRIPOS>MOLECULE
NONAME
42 44 1 0 0 
SMALL
USER_CHARGES


@<TRIPOS>ATOM
  1 CL      -0.7560    -0.5020     0.4880 Cl    1 <1>  -0.1770 
  2 C       -2.1310     0.5740     0.4530 C.ar  1 <1>   0.1770 
  3 C       -3.3850     0.0970     0.8090 C.ar  1 <1>  -0.1440 
  4 C       -1.9380     1.8840     0.0590 C.ar  1 <1>  -0.1500 
  5 C       -4.4720     0.9620     0.7660 C.ar  1 <1>  -0.1500 
  6 C       -3.5690    -1.3450     1.2450 C.3   1 <1>   0.4870 
  7 C       -3.0320     2.7260     0.0230 C.ar  1 <1>   0.1770 
  8 C       -4.2950     2.2790     0.3710 C.ar  1 <1>  -0.1500 
  9 N       -3.4050    -2.2560     0.0760 N.4   1 <1>  -0.9590 
 10 CL      -2.8190     4.3830    -0.4740 Cl    1 <1>  -0.1770 
 11 C       -4.4400    -2.0070    -0.9720 C.3   1 <1>   0.3430 
 12 C       -3.5770    -3.6800     0.5000 C.3   1 <1>   0.3430 
 13 C       -5.6060    -2.9350    -0.6200 C.3   1 <1>   0.2000 
 14 C       -4.9140    -4.1830    -0.0750 C.3   1 <1>  -0.0800 
 15 O       -6.3430    -2.3560     0.4080 O.3   1 <1>  -0.6800 
 16 C       -4.6900    -5.2350    -1.1780 C.3   1 <1>   0.0210 
 17 C       -4.0710    -6.5000    -0.6170 C.2   1 <1>   0.1080 
 18 N       -2.8880    -6.5310    -0.0860 N.2   1 <1>  -0.7070 
 19 C       -4.6850    -7.7480    -0.6080 C.2   1 <1>  -0.1500 
 20 N       -2.7090    -7.8210     0.2700 N.pl3 1 <1>   0.3000 
 21 C       -3.7870    -8.5730    -0.0320 C.2   1 <1>  -0.3320 
 22 C       -3.8930   -10.0620     0.2480 C.3   1 <1>  -0.0600 
 23 H       -0.9620     2.2440    -0.2130 H     1 <1>   0.1500 
 24 H       -5.4600     0.6230     1.0390 H     1 <1>   0.1500 
 25 H       -4.5490    -1.4710     1.6760 H     1 <1>   0.0800 
 26 H       -2.8360    -1.5830     1.9990 H     1 <1>   0.0800 
 27 H       -5.1260     2.9620     0.3340 H     1 <1>   0.1500 
 28 H       -2.4580    -2.1060    -0.3020 H     1 <1>   0.4500 
 29 H       -4.7560    -0.9780    -1.0090 H     1 <1>   0.0800 
 30 H       -4.0470    -2.2900    -1.9350 H     1 <1>   0.0800 
 31 H       -2.7590    -4.2700     0.1200 H     1 <1>   0.0800 
 32 H       -3.5820    -3.7630     1.5740 H     1 <1>   0.0800 
 33 H       -6.2610    -3.1150    -1.4570 H     1 <1>   0.0800 
 34 H       -5.4990    -4.6430     0.7030 H     1 <1>   0.0800 
 35 H       -7.1710    -2.8570     0.5730 H     1 <1>   0.4000 
 36 H       -4.0430    -4.8530    -1.9470 H     1 <1>   0.0800 
 37 H       -5.6310    -5.4900    -1.6340 H     1 <1>   0.0800 
 38 H       -5.6640    -7.9850    -0.9870 H     1 <1>   0.1500 
 39 H       -1.8450    -8.1610     0.7120 H     1 <1>   0.2700 
 40 H       -4.8450   -10.4350    -0.0860 H     1 <1>   0.0800 
 41 H       -3.8030   -10.2510     1.3030 H     1 <1>   0.0800 
 42 H       -3.1160   -10.5950    -0.2720 H     1 <1>   0.0800 
@<TRIPOS>BOND
  1   1   2  1   
  2   2   3  ar  
  3   2   4  ar  
  4   3   5  ar  
  5   3   6  1   
  6   4   7  ar  
  7   4  23  1   
  8   5   8  ar  
  9   5  24  1   
 10   6   9  1   
 11   6  25  1   
 12   6  26  1   
 13   7   8  ar  
 14   7  10  1   
 15   8  27  1   
 16   9  11  1   
 17   9  12  1   
 18   9  28  1   
 19  11  13  1   
 20  11  29  1   
 21  11  30  1   
 22  12  14  1   
 23  12  31  1   
 24  12  32  1   
 25  13  14  1   
 26  13  15  1   
 27  13  33  1   
 28  14  16  1   
 29  14  34  1   
 30  15  35  1   
 31  16  17  1   
 32  16  36  1   
 33  16  37  1   
 34  17  18  2   
 35  17  19  1   
 36  18  20  1   
 37  19  21  2   
 38  19  38  1   
 39  20  21  1   
 40  20  39  1   
 41  21  22  1   
 42  22  40  1   
 43  22  41  1   
 44  22  42  1   
@<TRIPOS>SUBSTRUCTURE
  1 ****   9 GROUP 4 **** **** 0

# MOE 2024.06 (io_trps.svl 2023.06)
