@<TRIPOS>MOLECULE
NONAME
42 44 1 0 0 
SMALL
USER_CHARGES


@<TRIPOS>ATOM
  1 O       -2.6430     1.5600    -2.6200 O.2   1 <1>  -0.5700 
  2 C       -2.1760     1.5530    -1.5070 C.2   1 <1>   0.5690 
  3 N       -1.8380     0.3930    -0.8890 N.am  1 <1>  -0.7300 
  4 C       -1.9930     2.8750    -0.7910 C.3   1 <1>   0.1570 
  5 C       -1.8910    -0.9640    -1.4770 C.3   1 <1>   0.2200 
  6 N       -0.7780     2.8460     0.0370 N.pl3 1 <1>   0.3140 
  7 C       -2.9170    -1.8340    -0.7680 C.3   1 <1>  -0.0800 
  8 C       -0.6040    -1.7070    -1.1410 C.3   1 <1>   0.1200 
  9 N       -0.7290     2.1690     1.2030 N.2   1 <1>  -0.7070 
 10 C        0.4090     3.4230    -0.2400 C.2   1 <1>  -0.3020 
 11 C       -2.1420    -2.3460     0.4480 C.3   1 <1>   0.1200 
 12 C       -4.2530    -1.1500    -0.4240 C.3   1 <1>  -0.0160 
 13 O       -0.7830    -2.2260     0.1440 O.3   1 <1>  -0.5600 
 14 C        0.4820     2.3310     1.6320 C.2   1 <1>   0.1080 
 15 C        1.2450     3.1100     0.7720 C.2   1 <1>  -0.1500 
 16 C       -5.2300    -2.1440     0.1850 C.ar  1 <1>  -0.1440 
 17 C        0.9710     1.7200     2.9250 C.3   1 <1>  -0.0590 
 18 C       -5.9880    -2.9900    -0.5990 C.ar  1 <1>  -0.1500 
 19 C       -5.4080    -2.2560     1.5490 C.ar  1 <1>  -0.1500 
 20 C       -6.8600    -3.8830     0.0010 C.ar  1 <1>   0.1600 
 21 C       -6.3070    -3.1840     2.0490 C.ar  1 <1>   0.1600 
 22 N       -7.0370    -4.0020     1.3070 N.ar  1 <1>  -0.6200 
 23 H       -1.3900     0.4520     0.0420 H     1 <1>   0.3700 
 24 H       -2.8380     3.0550    -0.1560 H     1 <1>   0.0800 
 25 H       -1.9130     3.6670    -1.5090 H     1 <1>   0.0800 
 26 H       -2.0590    -0.9080    -2.5400 H     1 <1>   0.0800 
 27 H       -3.1230    -2.6810    -1.3990 H     1 <1>   0.0800 
 28 H        0.2620    -1.0680    -1.1560 H     1 <1>   0.0800 
 29 H       -0.4600    -2.5370    -1.8100 H     1 <1>   0.0800 
 30 H        0.5920     4.0070    -1.1230 H     1 <1>   0.1500 
 31 H       -2.3660    -3.3760     0.6650 H     1 <1>   0.0800 
 32 H       -2.3310    -1.7400     1.3170 H     1 <1>   0.0800 
 33 H       -4.6810    -0.7330    -1.3190 H     1 <1>   0.0800 
 34 H       -4.0940    -0.3400     0.2650 H     1 <1>   0.0800 
 35 H        2.2760     3.3870     0.9060 H     1 <1>   0.1500 
 36 H        1.9990     1.9790     3.0980 H     1 <1>   0.0800 
 37 H        0.8810     0.6500     2.8720 H     1 <1>   0.0800 
 38 H        0.3740     2.0810     3.7410 H     1 <1>   0.0800 
 39 H       -5.9100    -2.9620    -1.6700 H     1 <1>   0.1500 
 40 H       -4.8570    -1.6310     2.2290 H     1 <1>   0.1500 
 41 H       -7.4440    -4.5340    -0.6270 H     1 <1>   0.1500 
 42 H       -6.4320    -3.2570     3.1160 H     1 <1>   0.1500 
@<TRIPOS>BOND
  1   1   2  2   
  2   2   3  am  
  3   2   4  1   
  4   3   5  1   
  5   3  23  1   
  6   4   6  1   
  7   4  24  1   
  8   4  25  1   
  9   5   7  1   
 10   5   8  1   
 11   5  26  1   
 12   6   9  1   
 13   6  10  1   
 14   7  11  1   
 15   7  12  1   
 16   7  27  1   
 17   8  13  1   
 18   8  28  1   
 19   8  29  1   
 20   9  14  2   
 21  10  15  2   
 22  10  30  1   
 23  11  13  1   
 24  11  31  1   
 25  11  32  1   
 26  12  16  1   
 27  12  33  1   
 28  12  34  1   
 29  14  15  1   
 30  14  17  1   
 31  15  35  1   
 32  16  18  ar  
 33  16  19  ar  
 34  17  36  1   
 35  17  37  1   
 36  17  38  1   
 37  18  20  ar  
 38  18  39  1   
 39  19  21  ar  
 40  19  40  1   
 41  20  22  ar  
 42  20  41  1   
 43  21  22  ar  
 44  21  42  1   
@<TRIPOS>SUBSTRUCTURE
  1 ****   3 GROUP 4 **** **** 0

# MOE 2024.06 (io_trps.svl 2023.06)
