@<TRIPOS>MOLECULE
NONAME
51 54 1 0 0 
SMALL
USER_CHARGES


@<TRIPOS>ATOM
  1 O        2.1170    -1.1450     2.7990 O.2   1 <1>  -0.5700 
  2 C        2.0150    -1.3370     1.5930 C.2   1 <1>   0.6160 
  3 N        2.1600    -0.2950     0.6920 N.am  1 <1>  -0.4690 
  4 C        1.7470    -2.6330     1.0890 C.2   1 <1>  -0.1360 
  5 C        2.0400    -0.5370    -0.6610 C.2   1 <1>  -0.0410 
  6 C        2.4470     1.0810     1.1710 C.3   1 <1>   0.1400 
  7 C        1.6300    -2.8970    -0.2500 C.2   1 <1>   0.0140 
  8 C        1.7840    -1.7840    -1.1300 C.2   1 <1>  -0.1500 
  9 C        3.9570     1.3090     1.2030 C.3   1 <1>  -0.2400 
 10 C        1.3600    -4.2180    -0.7900 C.2   1 <1>   0.6160 
 11 O        0.9560    -4.3600    -1.9270 O.2   1 <1>  -0.5700 
 12 N        1.5450    -5.3350    -0.0310 N.am  1 <1>  -0.7300 
 13 C        1.2340    -6.7130    -0.4710 C.3   1 <1>   0.2200 
 14 C       -0.1780    -7.0600    -0.0330 C.3   1 <1>  -0.0800 
 15 C        2.0610    -7.7120     0.3280 C.3   1 <1>   0.1200 
 16 C        0.0300    -7.5610     1.4020 C.3   1 <1>   0.1200 
 17 C       -0.8040    -8.1320    -0.9460 C.3   1 <1>  -0.0170 
 18 O        1.3850    -7.8870     1.5350 O.3   1 <1>  -0.5600 
 19 C       -2.2630    -8.3900    -0.5810 C.ar  1 <1>  -0.1440 
 20 C       -3.2970    -7.4850    -0.9200 C.ar  1 <1>   0.0000 
 21 C       -2.6110    -9.5220     0.0950 C.ar  1 <1>  -0.1500 
 22 C       -4.6140    -7.8100    -0.5120 C.ar  1 <1>   0.3100 
 23 C       -3.1050    -6.2810    -1.6380 C.ar  1 <1>  -0.1500 
 24 C       -3.9480    -9.7520     0.4440 C.ar  1 <1>   0.1600 
 25 N       -4.9210    -8.9440     0.1670 N.ar  1 <1>  -0.6200 
 26 C       -5.6590    -6.9250    -0.8210 C.ar  1 <1>  -0.1500 
 27 C       -4.1470    -5.4410    -1.9240 C.ar  1 <1>  -0.1500 
 28 C       -5.4410    -5.7640    -1.5100 C.ar  1 <1>  -0.1500 
 29 H        1.6350    -3.3950     1.8350 H     1 <1>   0.1500 
 30 H        2.1580     0.3020    -1.3280 H     1 <1>   0.1500 
 31 H        1.9810     1.7930     0.5120 H     1 <1>   0.0800 
 32 H        2.0320     1.2210     2.1550 H     1 <1>   0.0800 
 33 H        1.6910    -1.9640    -2.1890 H     1 <1>   0.1500 
 34 H        4.3780     1.1860     0.2220 H     1 <1>   0.0800 
 35 H        4.4190     0.6140     1.8810 H     1 <1>   0.0800 
 36 H        4.1650     2.3060     1.5450 H     1 <1>   0.0800 
 37 H        1.8430    -5.2640     0.9430 H     1 <1>   0.3700 
 38 H        1.3900    -6.8110    -1.5320 H     1 <1>   0.0800 
 39 H       -0.8070    -6.1880    -0.0360 H     1 <1>   0.0800 
 40 H        3.0620    -7.3680     0.5180 H     1 <1>   0.0800 
 41 H        2.0920    -8.6650    -0.1700 H     1 <1>   0.0800 
 42 H       -0.5610    -8.4290     1.6330 H     1 <1>   0.0800 
 43 H       -0.1880    -6.7820     2.1120 H     1 <1>   0.0800 
 44 H       -0.2440    -9.0480    -0.8680 H     1 <1>   0.0800 
 45 H       -0.7500    -7.8190    -1.9740 H     1 <1>   0.0800 
 46 H       -1.8820   -10.2590     0.3790 H     1 <1>   0.1500 
 47 H       -2.1200    -6.0110    -1.9730 H     1 <1>   0.1500 
 48 H       -4.1790   -10.6580     0.9790 H     1 <1>   0.1500 
 49 H       -6.6460    -7.1960    -0.4940 H     1 <1>   0.1500 
 50 H       -3.9840    -4.5270    -2.4700 H     1 <1>   0.1500 
 51 H       -6.2530    -5.0950    -1.7400 H     1 <1>   0.1500 
@<TRIPOS>BOND
  1   1   2  2   
  2   2   3  am  
  3   2   4  1   
  4   3   5  1   
  5   3   6  1   
  6   4   7  2   
  7   4  29  1   
  8   5   8  2   
  9   5  30  1   
 10   6   9  1   
 11   6  31  1   
 12   6  32  1   
 13   7   8  1   
 14   7  10  1   
 15   8  33  1   
 16   9  34  1   
 17   9  35  1   
 18   9  36  1   
 19  10  11  2   
 20  10  12  am  
 21  12  13  1   
 22  12  37  1   
 23  13  14  1   
 24  13  15  1   
 25  13  38  1   
 26  14  16  1   
 27  14  17  1   
 28  14  39  1   
 29  15  18  1   
 30  15  40  1   
 31  15  41  1   
 32  16  18  1   
 33  16  42  1   
 34  16  43  1   
 35  17  19  1   
 36  17  44  1   
 37  17  45  1   
 38  19  20  ar  
 39  19  21  ar  
 40  20  22  ar  
 41  20  23  ar  
 42  21  24  ar  
 43  21  46  1   
 44  22  25  ar  
 45  22  26  ar  
 46  23  27  ar  
 47  23  47  1   
 48  24  25  ar  
 49  24  48  1   
 50  26  28  ar  
 51  26  49  1   
 52  27  28  ar  
 53  27  50  1   
 54  28  51  1   
@<TRIPOS>SUBSTRUCTURE
  1 ****  14 GROUP 4 **** **** 0

# MOE 2024.06 (io_trps.svl 2023.06)
