@<TRIPOS>MOLECULE
NONAME
43 45 1 0 0 
SMALL
USER_CHARGES


@<TRIPOS>ATOM
  1 F        0.0390    -0.7570    -0.4200 F     1 <1>  -0.1900 
  2 C       -0.6540    -1.8210    -0.1010 C.ar  1 <1>   0.1900 
  3 C       -0.0750    -2.9160     0.5500 C.ar  1 <1>   0.0820 
  4 C       -1.9940    -1.8060    -0.4370 C.ar  1 <1>  -0.1500 
  5 O        1.2290    -3.0490     0.9320 O.3   1 <1>  -0.3630 
  6 C       -0.8950    -3.9920     0.8480 C.ar  1 <1>  -0.1500 
  7 C       -2.7830    -2.8960    -0.1220 C.ar  1 <1>  -0.1500 
  8 C        2.2130    -2.0790     0.6530 C.3   1 <1>   0.0400 
  9 C       -2.2550    -4.0160     0.5240 C.ar  1 <1>   0.0530 
 10 C       -3.0720    -5.1610     0.8550 C.2   1 <1>   0.0870 
 11 O       -2.7130    -5.9720     1.8230 O.3   1 <1>  -0.0190 
 12 C       -4.2330    -5.6490     0.3520 C.2   1 <1>  -0.2330 
 13 N       -3.5560    -6.9570     2.0000 N.2   1 <1>  -0.4100 
 14 C       -4.4850    -6.7800     1.1280 C.2   1 <1>   0.3720 
 15 C       -5.0440    -5.1830    -0.7200 C.2   1 <1>   1.0330 
 16 N       -5.5700    -7.6540     1.0210 N.pl3 1 <1>  -0.8210 
 17 O       -4.9320    -5.6620    -1.8600 O.co2 1 <1>  -0.9000 
 18 O       -5.8790    -4.2820    -0.5250 O.co2 1 <1>  -0.9000 
 19 C       -5.4390    -8.6160    -0.1130 C.3   1 <1>   0.2090 
 20 C       -6.9100    -7.0100     1.0170 C.3   1 <1>   0.2090 
 21 C       -6.4570    -9.7530     0.0710 C.3   1 <1>   0.2000 
 22 C       -7.9740    -8.0900     1.2380 C.3   1 <1>  -0.1600 
 23 O       -6.3750   -10.6260    -1.0200 O.3   1 <1>  -0.5600 
 24 C       -7.8890    -9.1960     0.1690 C.3   1 <1>  -0.1600 
 25 C       -6.7670   -11.9360    -0.7620 C.3   1 <1>   0.0400 
 26 H       -2.4170    -0.9540    -0.9370 H     1 <1>   0.1500 
 27 H       -0.4620    -4.8420     1.3450 H     1 <1>   0.1500 
 28 H       -3.8280    -2.8730    -0.3820 H     1 <1>   0.1500 
 29 H        3.1540    -2.4400     1.0280 H     1 <1>   0.0800 
 30 H        1.9510    -1.1620     1.1490 H     1 <1>   0.0800 
 31 H        2.2750    -1.9400    -0.4120 H     1 <1>   0.0800 
 32 H       -4.4420    -9.0210    -0.1240 H     1 <1>   0.0800 
 33 H       -5.6190    -8.1040    -1.0440 H     1 <1>   0.0800 
 34 H       -7.0880    -6.5240     0.0720 H     1 <1>   0.0800 
 35 H       -6.9560    -6.2670     1.7960 H     1 <1>   0.0800 
 36 H       -6.1950   -10.2880     0.9670 H     1 <1>   0.0800 
 37 H       -8.9470    -7.6340     1.2110 H     1 <1>   0.0800 
 38 H       -7.8320    -8.5130     2.2170 H     1 <1>   0.0800 
 39 H       -8.5790    -9.9810     0.4150 H     1 <1>   0.0800 
 40 H       -8.1610    -8.7780    -0.7850 H     1 <1>   0.0800 
 41 H       -6.6430   -12.5040    -1.6670 H     1 <1>   0.0800 
 42 H       -7.8000   -11.9510    -0.4650 H     1 <1>   0.0800 
 43 H       -6.1420   -12.3470     0.0120 H     1 <1>   0.0800 
@<TRIPOS>BOND
  1   1   2  1   
  2   2   3  ar  
  3   2   4  ar  
  4   3   5  1   
  5   3   6  ar  
  6   4   7  ar  
  7   4  26  1   
  8   5   8  1   
  9   6   9  ar  
 10   6  27  1   
 11   7   9  ar  
 12   7  28  1   
 13   8  29  1   
 14   8  30  1   
 15   8  31  1   
 16   9  10  1   
 17  10  11  1   
 18  10  12  2   
 19  11  13  1   
 20  12  14  1   
 21  12  15  1   
 22  13  14  2   
 23  14  16  1   
 24  15  17  ar  
 25  15  18  ar  
 26  16  19  1   
 27  16  20  1   
 28  19  21  1   
 29  19  32  1   
 30  19  33  1   
 31  20  22  1   
 32  20  34  1   
 33  20  35  1   
 34  21  23  1   
 35  21  24  1   
 36  21  36  1   
 37  22  24  1   
 38  22  37  1   
 39  22  38  1   
 40  23  25  1   
 41  24  39  1   
 42  24  40  1   
 43  25  41  1   
 44  25  42  1   
 45  25  43  1   
@<TRIPOS>SUBSTRUCTURE
  1 ****  12 GROUP 4 **** **** 0

# MOE 2024.06 (io_trps.svl 2023.06)
