@<TRIPOS>MOLECULE
NONAME
40 41 1 0 0 
SMALL
USER_CHARGES


@<TRIPOS>ATOM
  1 S        0.2530    -0.0390    -0.1820 S.3   1 <1>  -0.4600 
  2 C       -1.3100    -0.7370     0.4160 C.3   1 <1>   0.2140 
  3 C        0.0780     1.7280     0.1750 C.3   1 <1>   0.0700 
  4 C       -1.3000    -2.2330     0.1530 C.ar  1 <1>  -0.1440 
  5 C        1.3520     2.4260    -0.3030 C.3   1 <1>  -0.0990 
  6 C       -0.6800    -3.0940     1.0450 C.ar  1 <1>  -0.1500 
  7 C       -1.9140    -2.7520    -0.9770 C.ar  1 <1>  -0.1500 
  8 C        1.3320     3.9250    -0.0550 C.2   1 <1>   0.5690 
  9 C       -0.6790    -4.4590     0.8150 C.ar  1 <1>  -0.1500 
 10 C       -1.9140    -4.1160    -1.2080 C.ar  1 <1>  -0.1500 
 11 O        0.3790     4.3990     0.5180 O.2   1 <1>  -0.5700 
 12 N        2.3800     4.7110    -0.4680 N.am  1 <1>  -0.6600 
 13 C       -1.2980    -4.9710    -0.3120 C.ar  1 <1>  -0.1500 
 14 C        2.3700     6.1890    -0.2400 C.3   1 <1>   0.1400 
 15 C        3.6380     4.2120    -1.0930 C.3   1 <1>   0.1400 
 16 C        3.5330     6.5850     0.6780 C.3   1 <1>   0.1200 
 17 C        4.8240     4.5710    -0.1900 C.3   1 <1>  -0.1600 
 18 C        3.5500     8.0650     0.8510 C.1   1 <1>   0.3570 
 19 C        4.8760     6.0790     0.1130 C.3   1 <1>  -0.1600 
 20 N        3.5650     9.1960     0.9670 N.1   1 <1>  -0.5570 
 21 H       -2.1070    -0.2460    -0.1150 H     1 <1>   0.0800 
 22 H       -1.3800    -0.5220     1.4670 H     1 <1>   0.0800 
 23 H       -0.0580     1.8370     1.2370 H     1 <1>   0.0800 
 24 H       -0.7900     2.0870    -0.3500 H     1 <1>   0.0800 
 25 H        1.4650     2.2520    -1.3560 H     1 <1>   0.0800 
 26 H        2.1920     2.0030     0.2160 H     1 <1>   0.0800 
 27 H       -0.1900    -2.7020     1.9200 H     1 <1>   0.1500 
 28 H       -2.3910    -2.0940    -1.6830 H     1 <1>   0.1500 
 29 H       -0.1950    -5.1210     1.5110 H     1 <1>   0.1500 
 30 H       -2.3920    -4.5130    -2.0870 H     1 <1>   0.1500 
 31 H       -1.2970    -6.0320    -0.4920 H     1 <1>   0.1500 
 32 H        1.4390     6.5020     0.2030 H     1 <1>   0.0800 
 33 H        2.4640     6.6880    -1.1890 H     1 <1>   0.0800 
 34 H        3.7580     4.6780    -2.0570 H     1 <1>   0.0800 
 35 H        3.6110     3.1480    -1.2440 H     1 <1>   0.0800 
 36 H        3.3630     6.1450     1.6450 H     1 <1>   0.0800 
 37 H        5.7380     4.2690    -0.6700 H     1 <1>   0.0800 
 38 H        4.7410     4.0170     0.7290 H     1 <1>   0.0800 
 39 H        5.6660     6.2790     0.8170 H     1 <1>   0.0800 
 40 H        5.1030     6.6110    -0.7960 H     1 <1>   0.0800 
@<TRIPOS>BOND
  1   1   2  1   
  2   1   3  1   
  3   2   4  1   
  4   2  21  1   
  5   2  22  1   
  6   3   5  1   
  7   3  23  1   
  8   3  24  1   
  9   4   6  ar  
 10   4   7  ar  
 11   5   8  1   
 12   5  25  1   
 13   5  26  1   
 14   6   9  ar  
 15   6  27  1   
 16   7  10  ar  
 17   7  28  1   
 18   8  11  2   
 19   8  12  am  
 20   9  13  ar  
 21   9  29  1   
 22  10  13  ar  
 23  10  30  1   
 24  12  14  1   
 25  12  15  1   
 26  13  31  1   
 27  14  16  1   
 28  14  32  1   
 29  14  33  1   
 30  15  17  1   
 31  15  34  1   
 32  15  35  1   
 33  16  18  1   
 34  16  19  1   
 35  16  36  1   
 36  17  19  1   
 37  17  37  1   
 38  17  38  1   
 39  18  20  3   
 40  19  39  1   
 41  19  40  1   
@<TRIPOS>SUBSTRUCTURE
  1 ****   5 GROUP 4 **** **** 0

# MOE 2024.06 (io_trps.svl 2023.06)
