@<TRIPOS>MOLECULE
NONAME
46 48 1 0 0 
SMALL
USER_CHARGES


@<TRIPOS>ATOM
  1 S        0.4380     0.8180     0.0060 S.o2  1 <1>   1.3330 
  2 O       -0.6290     1.7910    -0.0330 O.2   1 <1>  -0.6500 
  3 O        0.2720    -0.4560    -0.6580 O.2   1 <1>  -0.6500 
  4 N        0.7750     0.5080     1.6430 N.am  1 <1>  -0.8490 
  5 C        1.9430     1.5720    -0.6150 C.3   1 <1>  -0.0550 
  6 C       -0.0340    -0.5940     2.1720 C.3   1 <1>   0.1160 
  7 C        0.6240     1.6890     2.5010 C.3   1 <1>   0.1160 
  8 C        3.1630     0.6240    -0.6550 C.3   1 <1>  -0.0800 
  9 C        4.3850     1.1930    -1.3610 C.3   1 <1>   0.2200 
 10 C        3.7170     0.2230     0.7180 C.3   1 <1>   0.1200 
 11 N        4.5810     2.6150    -0.9950 N.am  1 <1>  -0.7300 
 12 C        5.4900     0.3650    -0.7240 C.3   1 <1>   0.1200 
 13 O        5.1110     0.2260     0.6110 O.3   1 <1>  -0.5600 
 14 C        4.3490     3.7040    -1.7890 C.2   1 <1>   0.5440 
 15 O        3.9480     3.5040    -2.9210 O.2   1 <1>  -0.5700 
 16 C        4.5600     5.0600    -1.2750 C.ar  1 <1>   0.3960 
 17 N        4.7780     5.2270     0.0420 N.ar  1 <1>  -0.6200 
 18 C        4.5290     6.1480    -2.1460 C.ar  1 <1>  -0.1500 
 19 C        4.9540     6.4640     0.4960 C.ar  1 <1>   0.2870 
 20 C        4.7220     7.4310    -1.6850 C.ar  1 <1>  -0.1500 
 21 N        5.1620     6.6250     1.8920 N.pl3 1 <1>   0.3260 
 22 C        4.9400     7.5810    -0.3360 C.ar  1 <1>  -0.1500 
 23 C        4.8760     7.6630     2.6940 C.2   1 <1>   0.0370 
 24 C        5.6790     5.7520     2.7690 C.2   1 <1>   0.0370 
 25 N        5.1960     7.4450     3.9200 N.2   1 <1>  -0.3380 
 26 N        5.7110     6.2160     3.9690 N.2   1 <1>  -0.3380 
 27 H        1.7570     1.9120    -1.6160 H     1 <1>   0.0800 
 28 H        2.1730     2.4360    -0.0240 H     1 <1>   0.0800 
 29 H        0.2100    -0.7750     3.2050 H     1 <1>   0.0800 
 30 H        0.1640    -1.4970     1.6180 H     1 <1>   0.0800 
 31 H       -1.0830    -0.3610     2.0890 H     1 <1>   0.0800 
 32 H        0.9330     1.4570     3.5060 H     1 <1>   0.0800 
 33 H       -0.4030     2.0150     2.5170 H     1 <1>   0.0800 
 34 H        1.2360     2.4960     2.1370 H     1 <1>   0.0800 
 35 H        2.8770    -0.2780    -1.1680 H     1 <1>   0.0800 
 36 H        4.3460     1.0730    -2.4310 H     1 <1>   0.0800 
 37 H        3.3900    -0.7610     1.0080 H     1 <1>   0.0800 
 38 H        3.4520     0.9320     1.4830 H     1 <1>   0.0800 
 39 H        4.9140     2.7670    -0.0380 H     1 <1>   0.3700 
 40 H        6.4550     0.8370    -0.7830 H     1 <1>   0.0800 
 41 H        5.5330    -0.6180    -1.1600 H     1 <1>   0.0800 
 42 H        4.3500     5.9770    -3.1940 H     1 <1>   0.1500 
 43 H        4.7040     8.2760    -2.3550 H     1 <1>   0.1500 
 44 H        5.1010     8.5670     0.0630 H     1 <1>   0.1500 
 45 H        4.4240     8.5680     2.3350 H     1 <1>   0.1500 
 46 H        6.0200     4.7780     2.4730 H     1 <1>   0.1500 
@<TRIPOS>BOND
  1   1   2  2   
  2   1   3  2   
  3   1   4  am  
  4   1   5  1   
  5   4   6  1   
  6   4   7  1   
  7   5   8  1   
  8   5  27  1   
  9   5  28  1   
 10   6  29  1   
 11   6  30  1   
 12   6  31  1   
 13   7  32  1   
 14   7  33  1   
 15   7  34  1   
 16   8   9  1   
 17   8  10  1   
 18   8  35  1   
 19   9  11  1   
 20   9  12  1   
 21   9  36  1   
 22  10  13  1   
 23  10  37  1   
 24  10  38  1   
 25  11  14  am  
 26  11  39  1   
 27  12  13  1   
 28  12  40  1   
 29  12  41  1   
 30  14  15  2   
 31  14  16  1   
 32  16  17  ar  
 33  16  18  ar  
 34  17  19  ar  
 35  18  20  ar  
 36  18  42  1   
 37  19  21  1   
 38  19  22  ar  
 39  20  22  ar  
 40  20  43  1   
 41  21  23  1   
 42  21  24  1   
 43  22  44  1   
 44  23  25  2   
 45  23  45  1   
 46  24  26  2   
 47  24  46  1   
 48  25  26  1   
@<TRIPOS>SUBSTRUCTURE
  1 ****  11 GROUP 4 **** **** 0

# MOE 2024.06 (io_trps.svl 2023.06)
