@<TRIPOS>MOLECULE
NONAME
46 48 1 0 0 
SMALL
USER_CHARGES


@<TRIPOS>ATOM
  1 CL       1.7430     0.9340     2.1420 Cl    1 <1>  -0.1770 
  2 C        2.0330     2.6140     1.7770 C.ar  1 <1>   0.1770 
  3 C        1.1670     3.3080     0.9520 C.ar  1 <1>   0.1600 
  4 C        3.1270     3.2520     2.3110 C.ar  1 <1>  -0.1500 
  5 N        1.3110     4.5830     0.6220 N.ar  1 <1>  -0.6200 
  6 C        3.2810     4.5820     1.9770 C.ar  1 <1>  -0.1500 
  7 C        2.3700     5.2360     1.1390 C.ar  1 <1>   0.3960 
  8 C        2.5790     6.6530     0.8100 C.2   1 <1>   0.5440 
  9 O        3.4040     7.3280     1.4060 O.2   1 <1>  -0.5700 
 10 N        1.9630     7.2880    -0.2550 N.am  1 <1>  -0.6600 
 11 C        2.1240     6.7340    -1.6360 C.3   1 <1>   0.1400 
 12 C        1.5600     8.7240    -0.1950 C.3   1 <1>   0.1400 
 13 C        3.5710     6.9340    -2.1340 C.3   1 <1>   0.3430 
 14 C        2.7350     9.6960    -0.4320 C.3   1 <1>  -0.1600 
 15 N        4.2620     8.0190    -1.3520 N.4   1 <1>  -0.9590 
 16 C        3.6810     9.3590    -1.5920 C.3   1 <1>   0.3430 
 17 C        5.7470     7.9160    -1.3630 C.3   1 <1>   0.5230 
 18 C        6.1630     6.7860    -0.4330 C.2   1 <1>   0.0060 
 19 N        5.8870     5.5450    -0.6520 N.2   1 <1>  -0.3380 
 20 N        6.8290     6.9430     0.7200 N.pl3 1 <1>   0.0480 
 21 N        6.3630     4.8480     0.3750 N.2   1 <1>  -0.3380 
 22 C        6.9180     5.6910     1.1730 C.2   1 <1>   0.0360 
 23 C        7.3620     8.1550     1.3810 C.3   1 <1>   0.0960 
 24 C        6.2440     8.9390     2.0740 C.3   1 <1>  -0.2400 
 25 H        0.3190     2.7800     0.5490 H     1 <1>   0.1500 
 26 H        3.8200     2.7340     2.9500 H     1 <1>   0.1500 
 27 H        4.1250     5.1250     2.3640 H     1 <1>   0.1500 
 28 H        1.4390     7.2230    -2.3060 H     1 <1>   0.0800 
 29 H        1.8840     5.6840    -1.6510 H     1 <1>   0.0800 
 30 H        1.1310     8.9220     0.7740 H     1 <1>   0.0800 
 31 H        0.7870     8.9000    -0.9250 H     1 <1>   0.0800 
 32 H        3.5730     7.1580    -3.1870 H     1 <1>   0.0800 
 33 H        4.0900     6.0000    -2.0030 H     1 <1>   0.0800 
 34 H        3.3050     9.7760     0.4750 H     1 <1>   0.0800 
 35 H        2.3220    10.6730    -0.6090 H     1 <1>   0.0800 
 36 H        3.9930     7.7980    -0.3680 H     1 <1>   0.4500 
 37 H        4.4610    10.1010    -1.6390 H     1 <1>   0.0800 
 38 H        3.1420     9.3720    -2.5260 H     1 <1>   0.0800 
 39 H        6.1820     8.8370    -1.0160 H     1 <1>   0.0800 
 40 H        6.1010     7.7170    -2.3600 H     1 <1>   0.0800 
 41 H        7.4010     5.4310     2.0990 H     1 <1>   0.1500 
 42 H        7.8550     8.7700     0.6500 H     1 <1>   0.0800 
 43 H        8.0940     7.8550     2.1110 H     1 <1>   0.0800 
 44 H        5.5230     9.2960     1.3630 H     1 <1>   0.0800 
 45 H        6.6600     9.7880     2.5880 H     1 <1>   0.0800 
 46 H        5.7450     8.3200     2.7990 H     1 <1>   0.0800 
@<TRIPOS>BOND
  1   1   2  1   
  2   2   3  ar  
  3   2   4  ar  
  4   3   5  ar  
  5   3  25  1   
  6   4   6  ar  
  7   4  26  1   
  8   5   7  ar  
  9   6   7  ar  
 10   6  27  1   
 11   7   8  1   
 12   8   9  2   
 13   8  10  am  
 14  10  11  1   
 15  10  12  1   
 16  11  13  1   
 17  11  28  1   
 18  11  29  1   
 19  12  14  1   
 20  12  30  1   
 21  12  31  1   
 22  13  15  1   
 23  13  32  1   
 24  13  33  1   
 25  14  16  1   
 26  14  34  1   
 27  14  35  1   
 28  15  16  1   
 29  15  17  1   
 30  15  36  1   
 31  16  37  1   
 32  16  38  1   
 33  17  18  1   
 34  17  39  1   
 35  17  40  1   
 36  18  19  2   
 37  18  20  1   
 38  19  21  1   
 39  20  22  1   
 40  20  23  1   
 41  21  22  2   
 42  22  41  1   
 43  23  24  1   
 44  23  42  1   
 45  23  43  1   
 46  24  44  1   
 47  24  45  1   
 48  24  46  1   
@<TRIPOS>SUBSTRUCTURE
  1 ****   8 GROUP 4 **** **** 0

# MOE 2024.06 (io_trps.svl 2023.06)
