@<TRIPOS>MOLECULE
NONAME
48 50 1 0 0 
SMALL
USER_CHARGES


@<TRIPOS>ATOM
  1 O        0.0090    -0.5380     0.8150 O.2   1 <1>  -0.5700 
  2 C        1.0190     0.0850     0.5800 C.2   1 <1>   0.5690 
  3 N        2.1540    -0.5230     0.1070 N.am  1 <1>  -0.6600 
  4 C        0.9940     1.5840     0.8330 C.3   1 <1>  -0.0990 
  5 C        3.3700     0.2130    -0.3380 C.3   1 <1>   0.1400 
  6 C        2.1880    -1.9950    -0.0970 C.3   1 <1>   0.1400 
  7 C        2.0830     2.3500     0.0700 C.3   1 <1>  -0.1600 
  8 C        3.4240     1.6320     0.2380 C.3   1 <1>  -0.1600 
  9 C        1.6930    -2.3400    -1.5000 C.3   1 <1>  -0.0990 
 10 C        1.3730    -3.8160    -1.5650 C.2   1 <1>   0.5690 
 11 O        2.2590    -4.5670    -1.8970 O.2   1 <1>  -0.5700 
 12 N        0.1280    -4.2680    -1.2270 N.am  1 <1>  -0.6600 
 13 C       -1.0080    -3.4430    -0.7330 C.3   1 <1>   0.1400 
 14 C       -0.2040    -5.7100    -1.1420 C.3   1 <1>   0.1400 
 15 C       -2.0940    -4.4510    -0.3550 C.3   1 <1>   0.2000 
 16 C       -1.3670    -5.7780    -0.1510 C.3   1 <1>  -0.0800 
 17 O       -2.7540    -4.0890     0.8090 O.3   1 <1>  -0.6800 
 18 C       -2.2880    -6.9940    -0.3390 C.3   1 <1>  -0.0170 
 19 C       -1.5410    -8.2980    -0.1160 C.ar  1 <1>   0.1670 
 20 N       -0.9550    -8.8360    -1.1740 N.ar  1 <1>  -0.6200 
 21 C       -1.4960    -8.8620     1.1580 C.ar  1 <1>   0.1600 
 22 C       -0.3260    -9.9600    -0.8760 C.ar  1 <1>   0.1600 
 23 N       -0.8660    -9.9850     1.4590 N.ar  1 <1>  -0.6200 
 24 C       -0.2820   -10.5150     0.3980 C.ar  1 <1>   0.1600 
 25 H        0.0270     1.9660     0.5620 H     1 <1>   0.0800 
 26 H        1.1230     1.7340     1.8880 H     1 <1>   0.0800 
 27 H        4.2510    -0.3250    -0.0320 H     1 <1>   0.0800 
 28 H        3.3630     0.2640    -1.4130 H     1 <1>   0.0800 
 29 H        3.1860    -2.3730     0.0470 H     1 <1>   0.0800 
 30 H        1.5550    -2.4660     0.6360 H     1 <1>   0.0800 
 31 H        1.8270     2.3930    -0.9760 H     1 <1>   0.0800 
 32 H        2.1490     3.3580     0.4420 H     1 <1>   0.0800 
 33 H        3.6820     1.5790     1.2820 H     1 <1>   0.0800 
 34 H        4.1990     2.1850    -0.2620 H     1 <1>   0.0800 
 35 H        2.4570    -2.1150    -2.2200 H     1 <1>   0.0800 
 36 H        0.8190    -1.7670    -1.7430 H     1 <1>   0.0800 
 37 H       -0.6950    -2.8770     0.1260 H     1 <1>   0.0800 
 38 H       -1.3560    -2.7810    -1.5070 H     1 <1>   0.0800 
 39 H       -0.5040    -6.0610    -2.1150 H     1 <1>   0.0800 
 40 H        0.6410    -6.2870    -0.8030 H     1 <1>   0.0800 
 41 H       -2.8190    -4.5230    -1.1490 H     1 <1>   0.0800 
 42 H       -0.9400    -5.8000     0.8370 H     1 <1>   0.0800 
 43 H       -2.1130    -3.8050     1.4890 H     1 <1>   0.4000 
 44 H       -2.7050    -6.9920    -1.3310 H     1 <1>   0.0800 
 45 H       -3.1070    -6.9280     0.3550 H     1 <1>   0.0800 
 46 H       -2.0000    -8.3590     1.9640 H     1 <1>   0.1500 
 47 H        0.1810   -10.4670    -1.6770 H     1 <1>   0.1500 
 48 H        0.2570   -11.4340     0.5420 H     1 <1>   0.1500 
@<TRIPOS>BOND
  1   1   2  2   
  2   2   3  am  
  3   2   4  1   
  4   3   5  1   
  5   3   6  1   
  6   4   7  1   
  7   4  25  1   
  8   4  26  1   
  9   5   8  1   
 10   5  27  1   
 11   5  28  1   
 12   6   9  1   
 13   6  29  1   
 14   6  30  1   
 15   7   8  1   
 16   7  31  1   
 17   7  32  1   
 18   8  33  1   
 19   8  34  1   
 20   9  10  1   
 21   9  35  1   
 22   9  36  1   
 23  10  11  2   
 24  10  12  am  
 25  12  13  1   
 26  12  14  1   
 27  13  15  1   
 28  13  37  1   
 29  13  38  1   
 30  14  16  1   
 31  14  39  1   
 32  14  40  1   
 33  15  16  1   
 34  15  17  1   
 35  15  41  1   
 36  16  18  1   
 37  16  42  1   
 38  17  43  1   
 39  18  19  1   
 40  18  44  1   
 41  18  45  1   
 42  19  20  ar  
 43  19  21  ar  
 44  20  22  ar  
 45  21  23  ar  
 46  21  46  1   
 47  22  24  ar  
 48  22  47  1   
 49  23  24  ar  
 50  24  48  1   
@<TRIPOS>SUBSTRUCTURE
  1 ****  12 GROUP 4 **** **** 0

# MOE 2024.06 (io_trps.svl 2023.06)
