@<TRIPOS>MOLECULE
NONAME
63 67 1 0 0 
SMALL
USER_CHARGES


@<TRIPOS>ATOM
  1 O       -2.5770    -0.0230    -2.3710 O.2   1 <1>  -0.5700 
  2 C       -2.2790     0.3960    -1.2680 C.2   1 <1>   0.5440 
  3 N       -2.0520    -0.5200    -0.2800 N.am  1 <1>  -0.7300 
  4 C       -2.1730     1.8190    -1.0130 C.ar  1 <1>   0.0860 
  5 C       -2.0620    -1.9940    -0.4530 C.3   1 <1>   0.2200 
  6 C       -1.9730     2.7210    -2.0600 C.ar  1 <1>  -0.1500 
  7 C       -2.2640     2.3590     0.2740 C.ar  1 <1>  -0.1500 
  8 C       -3.3400    -2.6120     0.1000 C.3   1 <1>  -0.0800 
  9 C       -1.0340    -2.5990     0.4910 C.3   1 <1>   0.1200 
 10 C       -1.8580     4.0790    -1.8390 C.ar  1 <1>  -0.1500 
 11 C       -2.1510     3.7170     0.4980 C.ar  1 <1>  -0.1500 
 12 C       -3.0390    -2.7030     1.6020 C.3   1 <1>   0.1200 
 13 C       -4.6390    -1.8560    -0.2530 C.3   1 <1>  -0.0160 
 14 O       -1.6500    -2.6080     1.7440 O.3   1 <1>  -0.5600 
 15 C       -1.9430     4.6020    -0.5530 C.ar  1 <1>   0.1000 
 16 C       -5.9560    -2.5080     0.1840 C.ar  1 <1>  -0.1430 
 17 N       -1.8280     5.9620    -0.3080 N.pl3 1 <1>  -0.8380 
 18 C       -7.1690    -1.7870     0.0480 C.ar  1 <1>   0.0000 
 19 C       -6.0430    -3.7710     0.7010 C.ar  1 <1>  -0.1500 
 20 C       -2.4680     6.9540    -1.2200 C.3   1 <1>   0.2090 
 21 C       -0.6610     6.4630     0.4760 C.3   1 <1>   0.2090 
 22 C       -8.3650    -2.4080     0.4860 C.ar  1 <1>   0.3100 
 23 C       -7.2670    -0.4880    -0.5050 C.ar  1 <1>  -0.1500 
 24 C       -7.2800    -4.2940     1.0950 C.ar  1 <1>   0.1600 
 25 C       -2.8000     8.2560    -0.4600 C.3   1 <1>   0.3430 
 26 C       -1.0180     7.7740     1.2080 C.3   1 <1>   0.3430 
 27 N       -8.4030    -3.6580     1.0080 N.ar  1 <1>  -0.6200 
 28 C       -9.5770    -1.7070     0.3770 C.ar  1 <1>  -0.1500 
 29 C       -8.4650     0.1660    -0.6010 C.ar  1 <1>  -0.1500 
 30 N       -1.6100     8.8170     0.2870 N.4   1 <1>  -0.9590 
 31 C       -9.6370    -0.4470    -0.1530 C.ar  1 <1>  -0.1500 
 32 C       -1.9820    10.0520     1.0400 C.3   1 <1>   0.2630 
 33 H       -1.7810    -0.2200     0.6580 H     1 <1>   0.3700 
 34 H       -1.8810    -2.2590    -1.4820 H     1 <1>   0.0800 
 35 H       -1.9040     2.3390    -3.0650 H     1 <1>   0.1500 
 36 H       -2.4360     1.7090     1.1130 H     1 <1>   0.1500 
 37 H       -3.4050    -3.6100    -0.2950 H     1 <1>   0.0800 
 38 H       -0.1210    -2.0310     0.5360 H     1 <1>   0.0800 
 39 H       -0.8190    -3.6180     0.2210 H     1 <1>   0.0800 
 40 H       -1.6940     4.7340    -2.6730 H     1 <1>   0.1500 
 41 H       -2.2340     4.1030     1.4960 H     1 <1>   0.1500 
 42 H       -3.3670    -3.6350     2.0270 H     1 <1>   0.0800 
 43 H       -3.4790    -1.8830     2.1430 H     1 <1>   0.0800 
 44 H       -4.6700    -1.7170    -1.3200 H     1 <1>   0.0800 
 45 H       -4.5910    -0.8800     0.1970 H     1 <1>   0.0800 
 46 H       -5.1910    -4.4080     0.8260 H     1 <1>   0.1500 
 47 H       -1.8060     7.1690    -2.0410 H     1 <1>   0.0800 
 48 H       -3.3750     6.5350    -1.6230 H     1 <1>   0.0800 
 49 H       -0.3610     5.7210     1.1960 H     1 <1>   0.0800 
 50 H        0.1690     6.6290    -0.1890 H     1 <1>   0.0800 
 51 H       -6.3830     0.0040    -0.8660 H     1 <1>   0.1500 
 52 H       -7.2970    -5.2920     1.5000 H     1 <1>   0.1500 
 53 H       -3.5910     8.0380     0.2390 H     1 <1>   0.0800 
 54 H       -3.1720     8.9860    -1.1600 H     1 <1>   0.0800 
 55 H       -0.1320     8.1640     1.6810 H     1 <1>   0.0800 
 56 H       -1.7280     7.5370     1.9830 H     1 <1>   0.0800 
 57 H      -10.4650    -2.2010     0.7250 H     1 <1>   0.1500 
 58 H       -8.5200     1.1550    -1.0230 H     1 <1>   0.1500 
 59 H       -0.8920     9.0540    -0.4120 H     1 <1>   0.4500 
 60 H      -10.5730     0.0780    -0.2310 H     1 <1>   0.1500 
 61 H       -2.7350     9.8270     1.7790 H     1 <1>   0.0800 
 62 H       -2.3720    10.7980     0.3680 H     1 <1>   0.0800 
 63 H       -1.1190    10.4600     1.5410 H     1 <1>   0.0800 
@<TRIPOS>BOND
  1   1   2  2   
  2   2   3  am  
  3   2   4  1   
  4   3   5  1   
  5   3  33  1   
  6   4   6  ar  
  7   4   7  ar  
  8   5   8  1   
  9   5   9  1   
 10   5  34  1   
 11   6  10  ar  
 12   6  35  1   
 13   7  11  ar  
 14   7  36  1   
 15   8  12  1   
 16   8  13  1   
 17   8  37  1   
 18   9  14  1   
 19   9  38  1   
 20   9  39  1   
 21  10  15  ar  
 22  10  40  1   
 23  11  15  ar  
 24  11  41  1   
 25  12  14  1   
 26  12  42  1   
 27  12  43  1   
 28  13  16  1   
 29  13  44  1   
 30  13  45  1   
 31  15  17  1   
 32  16  18  ar  
 33  16  19  ar  
 34  17  20  1   
 35  17  21  1   
 36  18  22  ar  
 37  18  23  ar  
 38  19  24  ar  
 39  19  46  1   
 40  20  25  1   
 41  20  47  1   
 42  20  48  1   
 43  21  26  1   
 44  21  49  1   
 45  21  50  1   
 46  22  27  ar  
 47  22  28  ar  
 48  23  29  ar  
 49  23  51  1   
 50  24  27  ar  
 51  24  52  1   
 52  25  30  1   
 53  25  53  1   
 54  25  54  1   
 55  26  30  1   
 56  26  55  1   
 57  26  56  1   
 58  28  31  ar  
 59  28  57  1   
 60  29  31  ar  
 61  29  58  1   
 62  30  32  1   
 63  30  59  1   
 64  31  60  1   
 65  32  61  1   
 66  32  62  1   
 67  32  63  1   
@<TRIPOS>SUBSTRUCTURE
  1 ****   7 GROUP 4 **** **** 0

# MOE 2024.06 (io_trps.svl 2023.06)
