@<TRIPOS>MOLECULE
NONAME
50 52 1 0 0 
SMALL
USER_CHARGES


@<TRIPOS>ATOM
  1 O        0.7250    -0.3600    -1.3980 O.3   1 <1>  -0.6800 
  2 C        2.1070    -0.4410    -1.2930 C.3   1 <1>   0.2000 
  3 C        2.5120    -1.5860    -0.3720 C.3   1 <1>  -0.0800 
  4 C        2.6800     0.8040    -0.6220 C.3   1 <1>   0.2090 
  5 C        3.8900    -1.1600     0.1400 C.3   1 <1>   0.2090 
  6 C        2.5080    -2.9600    -1.0630 C.3   1 <1>  -0.0170 
  7 N        3.9030     0.3340     0.0890 N.pl3 1 <1>  -0.8380 
  8 C        2.9580    -4.0650    -0.1210 C.ar  1 <1>   0.1660 
  9 C        5.0460     1.0640     0.1630 C.ar  1 <1>   0.4100 
 10 N        4.2630    -4.2750    -0.0420 N.ar  1 <1>  -0.6200 
 11 C        2.0110    -4.7820     0.5960 C.ar  1 <1>  -0.1500 
 12 N        6.1330     0.4810    -0.3010 N.ar  1 <1>  -0.6200 
 13 C        5.0710     2.3820     0.6960 C.ar  1 <1>  -0.1440 
 14 C        4.6390    -5.2410     0.7820 C.ar  1 <1>   0.1600 
 15 C        2.4170    -5.7830     1.4510 C.ar  1 <1>  -0.1500 
 16 C        7.2610     1.1650    -0.3230 C.ar  1 <1>   0.7710 
 17 C        6.2460     3.0710     0.6350 C.ar  1 <1>   0.2180 
 18 C        3.8120     2.9640     1.3500 C.3   1 <1>  -0.0970 
 19 C        3.7730    -6.0120     1.5390 C.ar  1 <1>  -0.1500 
 20 N        7.3190     2.4280     0.1180 N.ar  1 <1>  -0.1790 
 21 N        8.3930     0.5790    -0.8070 N.pl3 1 <1>  -0.8380 
 22 C        6.4750     4.5020     1.1080 C.3   1 <1>  -0.0970 
 23 C        8.4060    -0.8800    -1.1680 C.3   1 <1>   0.1290 
 24 C        9.7000     1.2440    -1.1070 C.3   1 <1>   0.1290 
 25 H        0.3700    -1.1370    -1.8690 H     1 <1>   0.4000 
 26 H        2.5300    -0.5510    -2.2760 H     1 <1>   0.0800 
 27 H        1.8510    -1.6070     0.4770 H     1 <1>   0.0800 
 28 H        1.9750     1.1850     0.0960 H     1 <1>   0.0800 
 29 H        2.9210     1.5580    -1.3500 H     1 <1>   0.0800 
 30 H        4.6600    -1.5560    -0.5020 H     1 <1>   0.0800 
 31 H        4.0580    -1.5110     1.1440 H     1 <1>   0.0800 
 32 H        3.1630    -2.9450    -1.9170 H     1 <1>   0.0800 
 33 H        1.5180    -3.1810    -1.4180 H     1 <1>   0.0800 
 34 H        0.9650    -4.5610     0.4900 H     1 <1>   0.1500 
 35 H        5.6960    -5.4300     0.8590 H     1 <1>   0.1500 
 36 H        1.7100    -6.3590     2.0230 H     1 <1>   0.1500 
 37 H        4.0450     3.7110     2.0860 H     1 <1>   0.0800 
 38 H        3.2690     2.1900     1.8640 H     1 <1>   0.0800 
 39 H        3.1700     3.3980     0.6050 H     1 <1>   0.0800 
 40 H        4.1580    -6.7790     2.1860 H     1 <1>   0.1500 
 41 H        8.2330     2.8530     0.0730 H     1 <1>   0.4570 
 42 H        5.5530     5.0500     1.1730 H     1 <1>   0.0800 
 43 H        7.1080     5.0320     0.4180 H     1 <1>   0.0800 
 44 H        6.9410     4.5000     2.0780 H     1 <1>   0.0800 
 45 H        9.3670    -1.3120    -0.9460 H     1 <1>   0.0800 
 46 H        8.2030    -0.9980    -2.2190 H     1 <1>   0.0800 
 47 H        7.6640    -1.4310    -0.6120 H     1 <1>   0.0800 
 48 H       10.0800     0.8860    -2.0500 H     1 <1>   0.0800 
 49 H       10.4170     1.0020    -0.3400 H     1 <1>   0.0800 
 50 H        9.6010     2.3110    -1.1800 H     1 <1>   0.0800 
@<TRIPOS>BOND
  1   1   2  1   
  2   1  25  1   
  3   2   3  1   
  4   2   4  1   
  5   2  26  1   
  6   3   5  1   
  7   3   6  1   
  8   3  27  1   
  9   4   7  1   
 10   4  28  1   
 11   4  29  1   
 12   5   7  1   
 13   5  30  1   
 14   5  31  1   
 15   6   8  1   
 16   6  32  1   
 17   6  33  1   
 18   7   9  1   
 19   8  10  ar  
 20   8  11  ar  
 21   9  12  ar  
 22   9  13  ar  
 23  10  14  ar  
 24  11  15  ar  
 25  11  34  1   
 26  12  16  ar  
 27  13  17  ar  
 28  13  18  1   
 29  14  19  ar  
 30  14  35  1   
 31  15  19  ar  
 32  15  36  1   
 33  16  20  ar  
 34  16  21  1   
 35  17  20  ar  
 36  17  22  1   
 37  18  37  1   
 38  18  38  1   
 39  18  39  1   
 40  19  40  1   
 41  20  41  1   
 42  21  23  1   
 43  21  24  1   
 44  22  42  1   
 45  22  43  1   
 46  22  44  1   
 47  23  45  1   
 48  23  46  1   
 49  23  47  1   
 50  24  48  1   
 51  24  49  1   
 52  24  50  1   
@<TRIPOS>SUBSTRUCTURE
  1 ****   5 GROUP 4 **** **** 0

# MOE 2024.06 (io_trps.svl 2023.06)
