@<TRIPOS>MOLECULE
NONAME
50 52 1 0 0 
SMALL
USER_CHARGES


@<TRIPOS>ATOM
  1 S        0.4150     0.5450    -0.4380 S.3   1 <1>  -0.0800 
  2 C       -1.0600    -0.0090     0.3500 C.2   1 <1>  -0.0450 
  3 C        1.1520     1.0860     1.0690 C.2   1 <1>  -0.0450 
  4 C       -2.1090    -0.5900    -0.4530 C.2   1 <1>   0.7150 
  5 C       -0.9430     0.2350     1.6820 C.2   1 <1>  -0.1500 
  6 C        2.4610     1.6730     1.0720 C.2   1 <1>   0.5940 
  7 C        0.2780     0.8360     2.0780 C.2   1 <1>  -0.1500 
  8 O       -2.1400    -0.4040    -1.6570 O.2   1 <1>  -0.5700 
  9 N       -3.0980    -1.3650     0.1230 N.am  1 <1>  -0.6600 
 10 O        3.0030     2.0440     2.0830 O.2   1 <1>  -0.5700 
 11 C        3.2220     1.8520    -0.2260 C.3   1 <1>  -0.1790 
 12 C       -4.4160    -1.5130    -0.5670 C.3   1 <1>   0.2200 
 13 C       -2.7150    -2.4290     1.0990 C.3   1 <1>   0.0600 
 14 C       -5.0570    -0.1540    -0.8580 C.3   1 <1>  -0.1600 
 15 C       -5.4850    -2.2210     0.2720 C.3   1 <1>  -0.1600 
 16 C       -6.5510    -0.4460    -1.0390 C.3   1 <1>  -0.0800 
 17 C       -6.8210    -1.7800    -0.3400 C.3   1 <1>  -0.0800 
 18 C       -7.5010     0.5680    -0.3880 C.3   1 <1>  -0.1600 
 19 C       -7.9500    -1.5080     0.6660 C.3   1 <1>  -0.1600 
 20 C       -8.6740    -0.2630     0.1420 C.3   1 <1>   0.4230 
 21 N       -9.6140    -0.6250    -0.9690 N.4   1 <1>  -0.9590 
 22 C      -10.2350     0.5760    -1.6170 C.3   1 <1>   0.2630 
 23 C      -10.7110    -1.5430    -0.5230 C.3   1 <1>   0.2630 
 24 H       -1.7050     0.0090     2.4070 H     1 <1>   0.1500 
 25 H        0.4780     1.0720     3.1100 H     1 <1>   0.1500 
 26 H        2.6630     2.4780    -0.8940 H     1 <1>   0.0800 
 27 H        3.3910     0.8950    -0.6840 H     1 <1>   0.0800 
 28 H        4.1720     2.3150    -0.0310 H     1 <1>   0.0800 
 29 H       -4.2750    -2.0470    -1.4940 H     1 <1>   0.0800 
 30 H       -3.2030    -2.2570     2.0420 H     1 <1>   0.0800 
 31 H       -1.6500    -2.4380     1.2580 H     1 <1>   0.0800 
 32 H       -2.9990    -3.3960     0.7210 H     1 <1>   0.0800 
 33 H       -4.8910     0.4980    -0.0180 H     1 <1>   0.0800 
 34 H       -4.6430     0.2960    -1.7440 H     1 <1>   0.0800 
 35 H       -5.3750    -3.2900     0.2370 H     1 <1>   0.0800 
 36 H       -5.4150    -1.8810     1.2900 H     1 <1>   0.0800 
 37 H       -6.7710    -0.5490    -2.0890 H     1 <1>   0.0800 
 38 H       -7.1350    -2.5020    -1.0760 H     1 <1>   0.0800 
 39 H       -7.7690     1.3650    -1.0540 H     1 <1>   0.0800 
 40 H       -7.0180     1.0150     0.4640 H     1 <1>   0.0800 
 41 H       -7.5260    -1.2480     1.6210 H     1 <1>   0.0800 
 42 H       -8.5750    -2.3660     0.8220 H     1 <1>   0.0800 
 43 H       -9.2010     0.2520     0.9300 H     1 <1>   0.0800 
 44 H       -9.0440    -1.1150    -1.6730 H     1 <1>   0.4500 
 45 H      -10.7610     1.1670    -0.8840 H     1 <1>   0.0800 
 46 H      -10.9350     0.2680    -2.3770 H     1 <1>   0.0800 
 47 H       -9.4840     1.1900    -2.0840 H     1 <1>   0.0800 
 48 H      -11.2710    -1.0950     0.2820 H     1 <1>   0.0800 
 49 H      -10.3100    -2.4830    -0.1830 H     1 <1>   0.0800 
 50 H      -11.3850    -1.7440    -1.3400 H     1 <1>   0.0800 
@<TRIPOS>BOND
  1   1   2  1   
  2   1   3  1   
  3   2   4  1   
  4   2   5  2   
  5   3   6  1   
  6   3   7  2   
  7   4   8  2   
  8   4   9  am  
  9   5   7  1   
 10   5  24  1   
 11   6  10  2   
 12   6  11  1   
 13   7  25  1   
 14   9  12  1   
 15   9  13  1   
 16  11  26  1   
 17  11  27  1   
 18  11  28  1   
 19  12  14  1   
 20  12  15  1   
 21  12  29  1   
 22  13  30  1   
 23  13  31  1   
 24  13  32  1   
 25  14  16  1   
 26  14  33  1   
 27  14  34  1   
 28  15  17  1   
 29  15  35  1   
 30  15  36  1   
 31  16  17  1   
 32  16  18  1   
 33  16  37  1   
 34  17  19  1   
 35  17  38  1   
 36  18  20  1   
 37  18  39  1   
 38  18  40  1   
 39  19  20  1   
 40  19  41  1   
 41  19  42  1   
 42  20  21  1   
 43  20  43  1   
 44  21  22  1   
 45  21  23  1   
 46  21  44  1   
 47  22  45  1   
 48  22  46  1   
 49  22  47  1   
 50  23  48  1   
 51  23  49  1   
 52  23  50  1   
@<TRIPOS>SUBSTRUCTURE
  1 ****   9 GROUP 4 **** **** 0

# MOE 2024.06 (io_trps.svl 2023.06)
