@<TRIPOS>MOLECULE
NONAME
57 60 1 0 0 
SMALL
USER_CHARGES


@<TRIPOS>ATOM
  1 O       -0.9950     0.3790     2.2100 O.2   1 <1>  -0.5700 
  2 C       -1.6320    -0.2080     1.3530 C.2   1 <1>   0.5440 
  3 N       -1.1620    -1.4210     0.9000 N.am  1 <1>  -0.6600 
  4 C       -2.8700     0.3340     0.8570 C.ar  1 <1>   0.0860 
  5 C       -1.7790    -2.2380    -0.1660 C.3   1 <1>   0.1400 
  6 C        0.1430    -1.9770     1.3160 C.3   1 <1>   0.1400 
  7 C       -2.9010     1.4170    -0.0420 C.ar  1 <1>   0.4100 
  8 C       -4.0800    -0.2080     1.2670 C.ar  1 <1>  -0.1500 
  9 C       -0.6420    -3.1190    -0.6680 C.3   1 <1>  -0.1600 
 10 C        0.2770    -3.2840     0.5400 C.3   1 <1>  -0.1600 
 11 N       -4.0280     1.9520    -0.5110 N.ar  1 <1>  -0.6200 
 12 N       -1.7540     2.0230    -0.5120 N.pl3 1 <1>  -0.8380 
 13 C       -5.2410     0.3440     0.7760 C.ar  1 <1>  -0.1500 
 14 C       -5.1570     1.4120    -0.0990 C.ar  1 <1>   0.1600 
 15 C       -1.5580     3.4880    -0.3470 C.3   1 <1>   0.2090 
 16 C       -0.7380     1.3190    -1.3300 C.3   1 <1>   0.2090 
 17 C       -0.1760     3.7620     0.2590 C.3   1 <1>   0.1000 
 18 C        0.6550     1.5800    -0.7450 C.3   1 <1>  -0.1600 
 19 C        0.0220     5.2650     0.3910 C.2   1 <1>   0.2980 
 20 C        0.9320     3.0840    -0.5780 C.3   1 <1>  -0.1600 
 21 O       -0.6420     5.8930     1.3320 O.3   1 <1>  -0.0190 
 22 N        0.7690     6.0040    -0.3320 N.2   1 <1>  -0.5650 
 23 N       -0.2870     7.1340     1.1960 N.2   1 <1>  -0.4100 
 24 C        0.5370     7.1830     0.2270 C.2   1 <1>   0.3350 
 25 C        1.2050     8.4490    -0.2800 C.3   1 <1>   0.0210 
 26 C        2.4410     8.8520     0.5500 C.3   1 <1>  -0.0800 
 27 C        2.9790    10.2100     0.0800 C.3   1 <1>  -0.2400 
 28 C        3.5570     7.8010     0.4670 C.3   1 <1>  -0.2400 
 29 H       -2.1860    -1.6260    -0.9520 H     1 <1>   0.0800 
 30 H       -2.5580    -2.8440     0.2650 H     1 <1>   0.0800 
 31 H        0.1640    -2.1380     2.3810 H     1 <1>   0.0800 
 32 H        0.9220    -1.2870     1.0420 H     1 <1>   0.0800 
 33 H       -4.0980    -1.0340     1.9560 H     1 <1>   0.1500 
 34 H       -0.1210    -2.6020    -1.4560 H     1 <1>   0.0800 
 35 H       -1.0010    -4.0610    -1.0430 H     1 <1>   0.0800 
 36 H       -0.0730    -4.0920     1.1590 H     1 <1>   0.0800 
 37 H        1.2970    -3.4770     0.2590 H     1 <1>   0.0800 
 38 H       -6.2010    -0.0420     1.0680 H     1 <1>   0.1500 
 39 H       -6.0680     1.8430    -0.4770 H     1 <1>   0.1500 
 40 H       -2.3240     3.8870     0.2960 H     1 <1>   0.0800 
 41 H       -1.6410     3.9640    -1.3080 H     1 <1>   0.0800 
 42 H       -0.7870     1.6900    -2.3390 H     1 <1>   0.0800 
 43 H       -0.9390     0.2630    -1.3510 H     1 <1>   0.0800 
 44 H       -0.1610     3.3410     1.2490 H     1 <1>   0.0800 
 45 H        1.3970     1.1440    -1.3890 H     1 <1>   0.0800 
 46 H        0.7250     1.0940     0.2120 H     1 <1>   0.0800 
 47 H        1.8840     3.2280    -0.0970 H     1 <1>   0.0800 
 48 H        0.9770     3.5450    -1.5500 H     1 <1>   0.0800 
 49 H        0.4790     9.2400    -0.2400 H     1 <1>   0.0800 
 50 H        1.4810     8.3090    -1.3090 H     1 <1>   0.0800 
 51 H        2.1390     8.9460     1.5800 H     1 <1>   0.0800 
 52 H        3.2960    10.1590    -0.9470 H     1 <1>   0.0800 
 53 H        3.8200    10.5060     0.6830 H     1 <1>   0.0800 
 54 H        2.2200    10.9670     0.1700 H     1 <1>   0.0800 
 55 H        3.8620     7.6490    -0.5530 H     1 <1>   0.0800 
 56 H        3.2210     6.8600     0.8660 H     1 <1>   0.0800 
 57 H        4.4120     8.1160     1.0390 H     1 <1>   0.0800 
@<TRIPOS>BOND
  1   1   2  2   
  2   2   3  am  
  3   2   4  1   
  4   3   5  1   
  5   3   6  1   
  6   4   7  ar  
  7   4   8  ar  
  8   5   9  1   
  9   5  29  1   
 10   5  30  1   
 11   6  10  1   
 12   6  31  1   
 13   6  32  1   
 14   7  11  ar  
 15   7  12  1   
 16   8  13  ar  
 17   8  33  1   
 18   9  10  1   
 19   9  34  1   
 20   9  35  1   
 21  10  36  1   
 22  10  37  1   
 23  11  14  ar  
 24  12  15  1   
 25  12  16  1   
 26  13  14  ar  
 27  13  38  1   
 28  14  39  1   
 29  15  17  1   
 30  15  40  1   
 31  15  41  1   
 32  16  18  1   
 33  16  42  1   
 34  16  43  1   
 35  17  19  1   
 36  17  20  1   
 37  17  44  1   
 38  18  20  1   
 39  18  45  1   
 40  18  46  1   
 41  19  21  1   
 42  19  22  2   
 43  20  47  1   
 44  20  48  1   
 45  21  23  1   
 46  22  24  1   
 47  23  24  2   
 48  24  25  1   
 49  25  26  1   
 50  25  49  1   
 51  25  50  1   
 52  26  27  1   
 53  26  28  1   
 54  26  51  1   
 55  27  52  1   
 56  27  53  1   
 57  27  54  1   
 58  28  55  1   
 59  28  56  1   
 60  28  57  1   
@<TRIPOS>SUBSTRUCTURE
  1 ****  17 GROUP 4 **** **** 0

# MOE 2024.06 (io_trps.svl 2023.06)
