@<TRIPOS>MOLECULE
NONAME
49 51 1 0 0 
SMALL
USER_CHARGES


@<TRIPOS>ATOM
  1 S        0.9460    -0.3680    -1.2760 S.o2  1 <1>   1.3330 
  2 O        2.2880    -0.8450    -1.0200 O.2   1 <1>  -0.6500 
  3 O        0.3920    -0.4830    -2.6050 O.2   1 <1>  -0.6500 
  4 N       -0.1100    -1.1910    -0.2300 N.am  1 <1>  -0.8490 
  5 C        0.8170     1.3450    -0.7380 C.3   1 <1>  -0.0550 
  6 C       -1.5130    -1.1430    -0.6590 C.3   1 <1>   0.1160 
  7 C        0.2930    -2.5850    -0.0180 C.3   1 <1>   0.1160 
  8 C        1.6130     1.7720     0.5170 C.3   1 <1>  -0.0800 
  9 C        3.1320     1.7330     0.3190 C.3   1 <1>   0.2200 
 10 C        1.3880     0.9580     1.7980 C.3   1 <1>   0.1200 
 11 N        3.6800     3.0920     0.5260 N.am  1 <1>  -0.7300 
 12 C        3.6000     0.7990     1.4330 C.3   1 <1>   0.1200 
 13 O        2.6300     0.9160     2.4220 O.3   1 <1>  -0.5600 
 14 C        3.7500     4.0480    -0.4390 C.2   1 <1>   0.7150 
 15 O        3.3460     3.7820    -1.5520 O.2   1 <1>  -0.5700 
 16 C        4.2780     5.3510    -0.1330 C.2   1 <1>  -0.2370 
 17 N        4.3770     5.8610     1.1410 N.pl3 1 <1>   0.0330 
 18 C        4.7480     6.3020    -0.9930 C.2   1 <1>  -0.1500 
 19 C        4.9130     7.1200     1.0820 C.ar  1 <1>  -0.1520 
 20 C        5.1580     7.4250    -0.2510 C.ar  1 <1>   0.0000 
 21 C        5.2070     8.0370     2.0940 C.ar  1 <1>  -0.1500 
 22 C        5.7090     8.6650    -0.5930 C.ar  1 <1>  -0.1500 
 23 C        5.7480     9.2530     1.7460 C.ar  1 <1>  -0.1500 
 24 C        6.0020     9.5740     0.4060 C.ar  1 <1>   0.0820 
 25 O        6.5390    10.8060     0.1830 O.3   1 <1>  -0.3630 
 26 C        6.8280    11.2320    -1.1300 C.3   1 <1>   0.0400 
 27 H        1.1510     1.9690    -1.5460 H     1 <1>   0.0800 
 28 H       -0.2170     1.5780    -0.5810 H     1 <1>   0.0800 
 29 H       -2.1440    -1.5940     0.0880 H     1 <1>   0.0800 
 30 H       -1.6410    -1.6710    -1.5900 H     1 <1>   0.0800 
 31 H       -1.8260    -0.1230    -0.7970 H     1 <1>   0.0800 
 32 H       -0.3910    -3.0750     0.6550 H     1 <1>   0.0800 
 33 H        1.2770    -2.6240     0.4200 H     1 <1>   0.0800 
 34 H        0.3110    -3.1160    -0.9550 H     1 <1>   0.0800 
 35 H        1.3140     2.7820     0.7360 H     1 <1>   0.0800 
 36 H        3.4330     1.3630    -0.6470 H     1 <1>   0.0800 
 37 H        1.0970    -0.0570     1.6080 H     1 <1>   0.0800 
 38 H        0.6790     1.4210     2.4620 H     1 <1>   0.0800 
 39 H        4.0360     3.2680     1.4620 H     1 <1>   0.3700 
 40 H        4.5640     1.0620     1.8300 H     1 <1>   0.0800 
 41 H        3.6090    -0.2240     1.0960 H     1 <1>   0.0800 
 42 H        4.0490     5.4120     2.0000 H     1 <1>   0.2700 
 43 H        4.8040     6.2300    -2.0650 H     1 <1>   0.1500 
 44 H        5.0120     7.7920     3.1220 H     1 <1>   0.1500 
 45 H        5.8840     8.8660    -1.6310 H     1 <1>   0.1500 
 46 H        5.9880     9.9830     2.4970 H     1 <1>   0.1500 
 47 H        7.2380    12.2240    -1.0760 H     1 <1>   0.0800 
 48 H        5.9160    11.2440    -1.7010 H     1 <1>   0.0800 
 49 H        7.5480    10.5620    -1.5640 H     1 <1>   0.0800 
@<TRIPOS>BOND
  1   1   2  2   
  2   1   3  2   
  3   1   4  am  
  4   1   5  1   
  5   4   6  1   
  6   4   7  1   
  7   5   8  1   
  8   5  27  1   
  9   5  28  1   
 10   6  29  1   
 11   6  30  1   
 12   6  31  1   
 13   7  32  1   
 14   7  33  1   
 15   7  34  1   
 16   8   9  1   
 17   8  10  1   
 18   8  35  1   
 19   9  11  1   
 20   9  12  1   
 21   9  36  1   
 22  10  13  1   
 23  10  37  1   
 24  10  38  1   
 25  11  14  am  
 26  11  39  1   
 27  12  13  1   
 28  12  40  1   
 29  12  41  1   
 30  14  15  2   
 31  14  16  1   
 32  16  17  1   
 33  16  18  2   
 34  17  19  1   
 35  17  42  1   
 36  18  20  1   
 37  18  43  1   
 38  19  20  ar  
 39  19  21  ar  
 40  20  22  ar  
 41  21  23  ar  
 42  21  44  1   
 43  22  24  ar  
 44  22  45  1   
 45  23  24  ar  
 46  23  46  1   
 47  24  25  1   
 48  25  26  1   
 49  26  47  1   
 50  26  48  1   
 51  26  49  1   
@<TRIPOS>SUBSTRUCTURE
  1 ****  14 GROUP 4 **** **** 0

# MOE 2024.06 (io_trps.svl 2023.06)
