@<TRIPOS>MOLECULE
NONAME
45 46 1 0 0 
SMALL
USER_CHARGES


@<TRIPOS>ATOM
  1 S        1.5660    -0.0040     0.4860 S.o2  1 <1>   1.3330 
  2 O        1.3450    -0.7200     1.7190 O.2   1 <1>  -0.6500 
  3 O        2.8650    -0.0430    -0.1430 O.2   1 <1>  -0.6500 
  4 N        0.5160    -0.6350    -0.6610 N.am  1 <1>  -0.9140 
  5 C        1.0340     1.6870     0.6600 C.3   1 <1>  -0.0550 
  6 C       -0.6850    -1.2700    -0.1200 C.3   1 <1>   0.1160 
  7 C        1.0110     2.3890    -0.6940 C.3   1 <1>   0.2090 
  8 N        1.1440     3.8610    -0.5000 N.pl3 1 <1>  -0.8690 
  9 C        2.3200     4.5000    -0.3060 C.ar  1 <1>   0.4100 
 10 N        3.3770     3.7360    -0.1400 N.ar  1 <1>  -0.6200 
 11 C        2.4060     5.9110    -0.2720 C.ar  1 <1>  -0.1430 
 12 C        4.5500     4.3030     0.0700 C.ar  1 <1>   0.7710 
 13 C        3.6260     6.4710    -0.0450 C.ar  1 <1>   0.2180 
 14 C        1.1550     6.7680    -0.4800 C.3   1 <1>  -0.0160 
 15 N        4.6820     5.6370     0.1150 N.ar  1 <1>  -0.1790 
 16 N        5.6440     3.5110     0.2480 N.pl3 1 <1>  -0.8380 
 17 C        3.8690     7.9750     0.0290 C.3   1 <1>  -0.0170 
 18 C        1.4890     8.2390    -0.7660 C.3   1 <1>  -0.1600 
 19 C        7.0080     3.9310     0.6980 C.3   1 <1>   0.1290 
 20 C        5.5410     2.0200     0.0620 C.3   1 <1>   0.1290 
 21 C        2.5620     8.7610     0.1940 C.3   1 <1>  -0.1600 
 22 H        1.0760    -1.3530    -1.1260 H     1 <1>   0.4200 
 23 H        1.7190     2.1900     1.3130 H     1 <1>   0.0800 
 24 H        0.0560     1.7230     1.0960 H     1 <1>   0.0800 
 25 H       -1.2550    -0.5610     0.4560 H     1 <1>   0.0800 
 26 H       -0.4200    -2.1010     0.5130 H     1 <1>   0.0800 
 27 H       -1.2990    -1.6330    -0.9270 H     1 <1>   0.0800 
 28 H        0.0990     2.1610    -1.2180 H     1 <1>   0.0800 
 29 H        1.8320     2.0430    -1.3010 H     1 <1>   0.0800 
 30 H        0.2740     4.3900    -0.6030 H     1 <1>   0.4000 
 31 H        0.5460     6.7080     0.4060 H     1 <1>   0.0800 
 32 H        0.5780     6.3860    -1.3050 H     1 <1>   0.0800 
 33 H        5.6250     5.9710     0.2540 H     1 <1>   0.4570 
 34 H        4.3560     8.2920    -0.8780 H     1 <1>   0.0800 
 35 H        4.5170     8.2100     0.8560 H     1 <1>   0.0800 
 36 H        0.5950     8.8330    -0.6720 H     1 <1>   0.0800 
 37 H        1.8380     8.3370    -1.7810 H     1 <1>   0.0800 
 38 H        7.0080     4.9220     1.1140 H     1 <1>   0.0800 
 39 H        7.6940     3.8920    -0.1320 H     1 <1>   0.0800 
 40 H        7.3600     3.2560     1.4620 H     1 <1>   0.0800 
 41 H        4.8200     1.7700    -0.6990 H     1 <1>   0.0800 
 42 H        5.2370     1.5540     0.9840 H     1 <1>   0.0800 
 43 H        6.4890     1.6090    -0.2390 H     1 <1>   0.0800 
 44 H        2.7420     9.8070     0.0070 H     1 <1>   0.0800 
 45 H        2.2060     8.6670     1.2070 H     1 <1>   0.0800 
@<TRIPOS>BOND
  1   1   2  2   
  2   1   3  2   
  3   1   4  am  
  4   1   5  1   
  5   4   6  1   
  6   4  22  1   
  7   5   7  1   
  8   5  23  1   
  9   5  24  1   
 10   6  25  1   
 11   6  26  1   
 12   6  27  1   
 13   7   8  1   
 14   7  28  1   
 15   7  29  1   
 16   8   9  1   
 17   8  30  1   
 18   9  10  ar  
 19   9  11  ar  
 20  10  12  ar  
 21  11  13  ar  
 22  11  14  1   
 23  12  15  ar  
 24  12  16  1   
 25  13  15  ar  
 26  13  17  1   
 27  14  18  1   
 28  14  31  1   
 29  14  32  1   
 30  15  33  1   
 31  16  19  1   
 32  16  20  1   
 33  17  21  1   
 34  17  34  1   
 35  17  35  1   
 36  18  21  1   
 37  18  36  1   
 38  18  37  1   
 39  19  38  1   
 40  19  39  1   
 41  19  40  1   
 42  20  41  1   
 43  20  42  1   
 44  20  43  1   
 45  21  44  1   
 46  21  45  1   
@<TRIPOS>SUBSTRUCTURE
  1 ****  10 GROUP 4 **** **** 0

# MOE 2024.06 (io_trps.svl 2023.06)
