@<TRIPOS>MOLECULE
NONAME
51 53 1 0 0 
SMALL
USER_CHARGES


@<TRIPOS>ATOM
  1 O       -0.5370     0.6210    -1.6250 O.2   1 <1>  -0.5700 
  2 C       -1.5300     1.1450    -1.1820 C.2   1 <1>   0.5690 
  3 N       -2.6330     0.4200    -0.8260 N.am  1 <1>  -0.6600 
  4 C       -1.5070     2.6510    -1.0070 C.3   1 <1>  -0.0990 
  5 C       -3.8830     0.9430    -0.2160 C.3   1 <1>   0.1400 
  6 C       -2.6810    -1.0570    -0.9270 C.3   1 <1>   0.1400 
  7 C       -0.9410     3.0340     0.3680 C.3   1 <1>  -0.0990 
  8 C       -4.7320    -0.2970     0.0770 C.3   1 <1>   0.2000 
  9 C       -3.7660    -1.4810     0.0630 C.3   1 <1>  -0.0800 
 10 C       -1.0380     4.5240     0.5940 C.2   1 <1>   0.5690 
 11 O       -5.3540    -0.2110     1.3130 O.3   1 <1>  -0.6800 
 12 C       -4.4620    -2.8070    -0.2890 C.3   1 <1>  -0.0160 
 13 O       -2.0690     4.9750     1.0280 O.2   1 <1>  -0.5700 
 14 N        0.0300     5.2970     0.2860 N.am  1 <1>  -0.7300 
 15 C       -3.4940    -3.9790    -0.2610 C.ar  1 <1>   0.1670 
 16 C        0.0910     6.7610     0.4310 C.3   1 <1>   0.2200 
 17 N       -2.7510    -4.1550    -1.3410 N.ar  1 <1>  -0.6200 
 18 C       -3.4220    -4.7980     0.8650 C.ar  1 <1>   0.1600 
 19 C        0.4130     7.3750    -0.9260 C.3   1 <1>  -0.1600 
 20 C        1.3060     7.1200     1.2760 C.3   1 <1>  -0.1600 
 21 C       -1.9360    -5.1900    -1.2210 C.ar  1 <1>   0.1600 
 22 N       -2.6090    -5.8340     0.9870 N.ar  1 <1>  -0.6200 
 23 C        1.9310     7.2470    -1.0930 C.3   1 <1>  -0.1600 
 24 C        2.5050     7.0860     0.3210 C.3   1 <1>  -0.1600 
 25 C       -1.8670    -6.0010    -0.0940 C.ar  1 <1>   0.1600 
 26 H       -0.8910     3.0760    -1.7780 H     1 <1>   0.0800 
 27 H       -2.4950     3.0540    -1.1260 H     1 <1>   0.0800 
 28 H       -3.6490     1.4760     0.6890 H     1 <1>   0.0800 
 29 H       -4.3920     1.5900    -0.9080 H     1 <1>   0.0800 
 30 H       -2.9480    -1.3320    -1.9340 H     1 <1>   0.0800 
 31 H       -1.7280    -1.4970    -0.6840 H     1 <1>   0.0800 
 32 H        0.0830     2.7180     0.4430 H     1 <1>   0.0800 
 33 H       -1.4970     2.5390     1.1430 H     1 <1>   0.0800 
 34 H       -5.4920    -0.4030    -0.6780 H     1 <1>   0.0800 
 35 H       -3.2950    -1.5700     1.0270 H     1 <1>   0.0800 
 36 H       -4.6920    -0.0880     2.0210 H     1 <1>   0.4000 
 37 H       -4.9040    -2.7430    -1.2680 H     1 <1>   0.0800 
 38 H       -5.2590    -2.9830     0.4130 H     1 <1>   0.0800 
 39 H        0.8790     4.8800    -0.0930 H     1 <1>   0.3700 
 40 H       -0.8270     7.1430     0.8480 H     1 <1>   0.0800 
 41 H       -4.0630    -4.5870     1.7020 H     1 <1>   0.1500 
 42 H       -0.1370     6.9090    -1.7240 H     1 <1>   0.0800 
 43 H        0.1520     8.4180    -0.8950 H     1 <1>   0.0800 
 44 H        1.1790     8.1240     1.6410 H     1 <1>   0.0800 
 45 H        1.4250     6.4620     2.1190 H     1 <1>   0.0800 
 46 H       -1.2910    -5.4070    -2.0530 H     1 <1>   0.1500 
 47 H        2.1630     6.3750    -1.6800 H     1 <1>   0.0800 
 48 H        2.3360     8.1140    -1.5860 H     1 <1>   0.0800 
 49 H        3.2020     7.8730     0.5540 H     1 <1>   0.0800 
 50 H        3.0120     6.1400     0.4010 H     1 <1>   0.0800 
 51 H       -1.1710    -6.8210    -0.0910 H     1 <1>   0.1500 
@<TRIPOS>BOND
  1   1   2  2   
  2   2   3  am  
  3   2   4  1   
  4   3   5  1   
  5   3   6  1   
  6   4   7  1   
  7   4  26  1   
  8   4  27  1   
  9   5   8  1   
 10   5  28  1   
 11   5  29  1   
 12   6   9  1   
 13   6  30  1   
 14   6  31  1   
 15   7  10  1   
 16   7  32  1   
 17   7  33  1   
 18   8   9  1   
 19   8  11  1   
 20   8  34  1   
 21   9  12  1   
 22   9  35  1   
 23  10  13  2   
 24  10  14  am  
 25  11  36  1   
 26  12  15  1   
 27  12  37  1   
 28  12  38  1   
 29  14  16  1   
 30  14  39  1   
 31  15  17  ar  
 32  15  18  ar  
 33  16  19  1   
 34  16  20  1   
 35  16  40  1   
 36  17  21  ar  
 37  18  22  ar  
 38  18  41  1   
 39  19  23  1   
 40  19  42  1   
 41  19  43  1   
 42  20  24  1   
 43  20  44  1   
 44  20  45  1   
 45  21  25  ar  
 46  21  46  1   
 47  22  25  ar  
 48  23  24  1   
 49  23  47  1   
 50  23  48  1   
 51  24  49  1   
 52  24  50  1   
 53  25  51  1   
@<TRIPOS>SUBSTRUCTURE
  1 ****   2 GROUP 4 **** **** 0

# MOE 2024.06 (io_trps.svl 2023.06)
