@<TRIPOS>MOLECULE
NONAME
43 45 1 0 0 
SMALL
USER_CHARGES


@<TRIPOS>ATOM
  1 CL       1.8500    -4.7830     0.6430 Cl    1 <1>  -0.1770 
  2 C        0.3250    -3.9840     0.3280 C.ar  1 <1>   0.1770 
  3 C       -0.0680    -2.9170     1.1230 C.ar  1 <1>   0.0830 
  4 C       -0.4730    -4.4300    -0.7090 C.ar  1 <1>  -0.1500 
  5 O        0.7060    -2.4840     2.1350 O.3   1 <1>  -0.5330 
  6 C       -1.2740    -2.2870     0.8710 C.ar  1 <1>  -0.1500 
  7 C       -1.6870    -3.8030    -0.9600 C.ar  1 <1>  -0.1440 
  8 C       -2.0780    -2.7290    -0.1680 C.ar  1 <1>  -0.1500 
  9 C       -2.5810    -4.2970    -2.0940 C.3   1 <1>   0.0440 
 10 C       -2.8380    -5.7970    -2.0400 C.2   1 <1>   0.5690 
 11 O       -2.4270    -6.4730    -2.9540 O.2   1 <1>  -0.5700 
 12 N       -3.5190    -6.3580    -0.9930 N.am  1 <1>  -0.6600 
 13 C       -4.0420    -5.6520     0.2040 C.3   1 <1>   0.1400 
 14 C       -3.7390    -7.8190    -0.8810 C.3   1 <1>   0.1400 
 15 C       -4.7960    -6.7250     0.9880 C.3   1 <1>   0.2000 
 16 C       -4.1610    -8.0500     0.5710 C.3   1 <1>  -0.0800 
 17 O       -4.6720    -6.5420     2.3550 O.3   1 <1>  -0.6800 
 18 C       -5.1010    -9.2510     0.7570 C.3   1 <1>   0.0200 
 19 C       -4.4570   -10.5280     0.2550 C.2   1 <1>  -0.0400 
 20 O       -3.3680   -10.9770     0.8200 O.3   1 <1>  -0.0190 
 21 C       -4.7860   -11.3710    -0.7350 C.2   1 <1>  -0.1500 
 22 N       -2.9490   -12.0730     0.2590 N.2   1 <1>  -0.4100 
 23 C       -3.7840   -12.3360    -0.6810 C.2   1 <1>   0.1080 
 24 C       -3.6810   -13.5320    -1.6010 C.3   1 <1>  -0.0590 
 25 H       -0.1440    -5.2610    -1.3090 H     1 <1>   0.1500 
 26 H        1.5390    -2.9910     2.2050 H     1 <1>   0.4500 
 27 H       -1.5750    -1.4560     1.4850 H     1 <1>   0.1500 
 28 H       -3.0120    -2.2260    -0.3540 H     1 <1>   0.1500 
 29 H       -2.1080    -4.0640    -3.0310 H     1 <1>   0.0800 
 30 H       -3.5280    -3.7910    -2.0780 H     1 <1>   0.0800 
 31 H       -3.2170    -5.2720     0.7800 H     1 <1>   0.0800 
 32 H       -4.7020    -4.8520    -0.0820 H     1 <1>   0.0800 
 33 H       -4.5190    -8.1070    -1.5640 H     1 <1>   0.0800 
 34 H       -2.8390    -8.3640    -1.1200 H     1 <1>   0.0800 
 35 H       -5.8420    -6.6930     0.7340 H     1 <1>   0.0800 
 36 H       -3.2620    -8.2110     1.1400 H     1 <1>   0.0800 
 37 H       -3.7370    -6.6200     2.6280 H     1 <1>   0.4000 
 38 H       -6.0200    -9.0850     0.2220 H     1 <1>   0.0800 
 39 H       -5.3380    -9.3650     1.8000 H     1 <1>   0.0800 
 40 H       -5.6100   -11.3430    -1.4240 H     1 <1>   0.1500 
 41 H       -4.5620   -14.1400    -1.5090 H     1 <1>   0.0800 
 42 H       -2.8210   -14.1230    -1.3390 H     1 <1>   0.0800 
 43 H       -3.5800   -13.2020    -2.6180 H     1 <1>   0.0800 
@<TRIPOS>BOND
  1   1   2  1   
  2   2   3  ar  
  3   2   4  ar  
  4   3   5  1   
  5   3   6  ar  
  6   4   7  ar  
  7   4  25  1   
  8   5  26  1   
  9   6   8  ar  
 10   6  27  1   
 11   7   8  ar  
 12   7   9  1   
 13   8  28  1   
 14   9  10  1   
 15   9  29  1   
 16   9  30  1   
 17  10  11  2   
 18  10  12  am  
 19  12  13  1   
 20  12  14  1   
 21  13  15  1   
 22  13  31  1   
 23  13  32  1   
 24  14  16  1   
 25  14  33  1   
 26  14  34  1   
 27  15  16  1   
 28  15  17  1   
 29  15  35  1   
 30  16  18  1   
 31  16  36  1   
 32  17  37  1   
 33  18  19  1   
 34  18  38  1   
 35  18  39  1   
 36  19  20  1   
 37  19  21  2   
 38  20  22  1   
 39  21  23  1   
 40  21  40  1   
 41  22  23  2   
 42  23  24  1   
 43  24  41  1   
 44  24  42  1   
 45  24  43  1   
@<TRIPOS>SUBSTRUCTURE
  1 ****  12 GROUP 4 **** **** 0

# MOE 2024.06 (io_trps.svl 2023.06)
