@<TRIPOS>MOLECULE
NONAME
49 51 1 0 0 
SMALL
USER_CHARGES


@<TRIPOS>ATOM
  1 S       -1.4740     0.7400    -0.7690 S.o2  1 <1>   1.2040 
  2 O       -1.7880     0.5070    -2.1600 O.2   1 <1>  -0.6500 
  3 O       -1.6950     2.0440    -0.1860 O.2   1 <1>  -0.6500 
  4 C       -2.2870    -0.5240     0.2410 C.ar  1 <1>  -0.0090 
  5 C        0.2490     0.3480    -0.5420 C.3   1 <1>  -0.1350 
  6 C       -2.2890    -1.8540    -0.1550 C.ar  1 <1>  -0.1500 
  7 C       -2.9100    -0.2030     1.4410 C.ar  1 <1>  -0.1500 
  8 C       -2.8780    -2.8640     0.6030 C.ar  1 <1>   0.0860 
  9 C       -3.5000    -1.1820     2.2210 C.ar  1 <1>  -0.1500 
 10 C       -2.8440    -4.2420     0.1490 C.2   1 <1>   0.5440 
 11 C       -3.4760    -2.4990     1.8060 C.ar  1 <1>  -0.1500 
 12 O       -1.7980    -4.6900    -0.2830 O.2   1 <1>  -0.5700 
 13 N       -3.9400    -5.0770     0.2170 N.am  1 <1>  -0.6600 
 14 C       -5.2820    -4.7900    -0.3700 C.3   1 <1>   0.2200 
 15 C       -3.7100    -6.5280     0.4680 C.3   1 <1>   0.0600 
 16 C       -6.3270    -4.4790     0.6930 C.3   1 <1>  -0.1600 
 17 C       -5.3780    -3.6130    -1.3390 C.3   1 <1>  -0.1600 
 18 C       -7.4870    -3.8400    -0.0840 C.3   1 <1>  -0.0800 
 19 C       -6.8810    -3.3150    -1.4080 C.3   1 <1>  -0.0800 
 20 C       -8.2470    -2.7840     0.7400 C.3   1 <1>   0.1400 
 21 C       -7.1980    -1.8340    -1.6950 C.3   1 <1>  -0.0990 
 22 N       -9.1190    -1.9830    -0.1550 N.am  1 <1>  -0.6600 
 23 C       -8.6400    -1.5190    -1.3500 C.2   1 <1>   0.5690 
 24 C      -10.4990    -1.7020     0.3210 C.3   1 <1>   0.0600 
 25 O       -9.3050    -0.8760    -2.1270 O.2   1 <1>  -0.5700 
 26 H        0.4580    -0.6450    -0.8890 H     1 <1>   0.0800 
 27 H        0.5160     0.4170     0.4950 H     1 <1>   0.0800 
 28 H        0.8570     1.0370    -1.0970 H     1 <1>   0.0800 
 29 H       -1.8200    -2.1290    -1.0860 H     1 <1>   0.1500 
 30 H       -2.9310     0.8230     1.7710 H     1 <1>   0.1500 
 31 H       -3.9720    -0.9160     3.1520 H     1 <1>   0.1500 
 32 H       -3.9180    -3.2640     2.4210 H     1 <1>   0.1500 
 33 H       -5.6090    -5.6640    -0.9100 H     1 <1>   0.0800 
 34 H       -4.5000    -6.9280     1.0800 H     1 <1>   0.0800 
 35 H       -2.7720    -6.6730     0.9780 H     1 <1>   0.0800 
 36 H       -3.6770    -7.0580    -0.4680 H     1 <1>   0.0800 
 37 H       -6.6400    -5.3670     1.2120 H     1 <1>   0.0800 
 38 H       -5.9240    -3.7730     1.3940 H     1 <1>   0.0800 
 39 H       -4.8780    -2.7490    -0.9500 H     1 <1>   0.0800 
 40 H       -4.9750    -3.8600    -2.3060 H     1 <1>   0.0800 
 41 H       -8.1890    -4.6180    -0.3350 H     1 <1>   0.0800 
 42 H       -7.3060    -3.9010    -2.2070 H     1 <1>   0.0800 
 43 H       -7.5540    -2.1180     1.2230 H     1 <1>   0.0800 
 44 H       -8.8380    -3.2710     1.4980 H     1 <1>   0.0800 
 45 H       -7.0170    -1.6110    -2.7310 H     1 <1>   0.0800 
 46 H       -6.5760    -1.1900    -1.1010 H     1 <1>   0.0800 
 47 H      -10.4620    -1.1800     1.2610 H     1 <1>   0.0800 
 48 H      -11.0360    -2.6260     0.4460 H     1 <1>   0.0800 
 49 H      -11.0270    -1.0910    -0.3910 H     1 <1>   0.0800 
@<TRIPOS>BOND
  1   1   2  2   
  2   1   3  2   
  3   1   4  1   
  4   1   5  1   
  5   4   6  ar  
  6   4   7  ar  
  7   5  26  1   
  8   5  27  1   
  9   5  28  1   
 10   6   8  ar  
 11   6  29  1   
 12   7   9  ar  
 13   7  30  1   
 14   8  10  1   
 15   8  11  ar  
 16   9  11  ar  
 17   9  31  1   
 18  10  12  2   
 19  10  13  am  
 20  11  32  1   
 21  13  14  1   
 22  13  15  1   
 23  14  16  1   
 24  14  17  1   
 25  14  33  1   
 26  15  34  1   
 27  15  35  1   
 28  15  36  1   
 29  16  18  1   
 30  16  37  1   
 31  16  38  1   
 32  17  19  1   
 33  17  39  1   
 34  17  40  1   
 35  18  19  1   
 36  18  20  1   
 37  18  41  1   
 38  19  21  1   
 39  19  42  1   
 40  20  22  1   
 41  20  43  1   
 42  20  44  1   
 43  21  23  1   
 44  21  45  1   
 45  21  46  1   
 46  22  23  am  
 47  22  24  1   
 48  23  25  2   
 49  24  47  1   
 50  24  48  1   
 51  24  49  1   
@<TRIPOS>SUBSTRUCTURE
  1 ****  17 GROUP 4 **** **** 0

# MOE 2024.06 (io_trps.svl 2023.06)
