@<TRIPOS>MOLECULE
NONAME
59 60 1 0 0 
SMALL
USER_CHARGES


@<TRIPOS>ATOM
  1 S        1.1340     0.0060     0.0500 S.o2  1 <1>   1.3330 
  2 O        2.2930     0.5510     0.7230 O.2   1 <1>  -0.6500 
  3 O        1.1990    -0.2430    -1.3700 O.2   1 <1>  -0.6500 
  4 N        0.6110    -1.3870     0.8570 N.am  1 <1>  -0.8490 
  5 C       -0.1780     1.1910     0.3330 C.3   1 <1>  -0.0550 
  6 C        1.7280    -2.2080     1.3400 C.3   1 <1>   0.1160 
  7 C       -0.3010    -2.2160     0.0600 C.3   1 <1>   0.1160 
  8 C        0.0890     2.5350    -0.3850 C.3   1 <1>  -0.0800 
  9 C       -0.9270     3.6400    -0.1040 C.3   1 <1>   0.2000 
 10 C        1.4300     3.1820    -0.0290 C.3   1 <1>   0.3430 
 11 O       -1.2490     3.6540     1.2490 O.3   1 <1>  -0.6800 
 12 C       -0.1850     4.9320    -0.4670 C.3   1 <1>   0.3430 
 13 N        1.2840     4.6270    -0.3620 N.4   1 <1>  -0.9590 
 14 C        2.0240     5.5200     0.5680 C.3   1 <1>   0.4810 
 15 C        2.2190     6.8600    -0.1200 C.2   1 <1>  -0.1670 
 16 C        1.0620     7.7250    -0.0890 C.ar  1 <1>   0.0280 
 17 C        3.3760     7.2050    -0.7150 C.2   1 <1>  -0.2880 
 18 C        0.4000     8.0220     1.1010 C.ar  1 <1>  -0.1500 
 19 C        0.5580     8.2670    -1.2680 C.ar  1 <1>  -0.1500 
 20 C        4.6580     6.3890    -0.8380 C.3   1 <1>  -0.0220 
 21 C       -0.7430     8.8010     1.1070 C.ar  1 <1>  -0.1500 
 22 C       -0.5830     9.0480    -1.2670 C.ar  1 <1>  -0.1500 
 23 C        5.7450     6.8730     0.1380 C.3   1 <1>  -0.0800 
 24 C       -1.2390     9.3110    -0.0790 C.ar  1 <1>  -0.1500 
 25 C        6.1770     8.3190    -0.1470 C.3   1 <1>  -0.2400 
 26 C        6.9680     5.9510     0.0670 C.3   1 <1>  -0.2400 
 27 H       -1.1070     0.7860    -0.0210 H     1 <1>   0.0800 
 28 H       -0.2740     1.3430     1.3900 H     1 <1>   0.0800 
 29 H        1.3570    -3.0670     1.8720 H     1 <1>   0.0800 
 30 H        2.3430    -1.6360     2.0150 H     1 <1>   0.0800 
 31 H        2.3360    -2.5390     0.5140 H     1 <1>   0.0800 
 32 H       -0.6630    -3.0410     0.6500 H     1 <1>   0.0800 
 33 H        0.2040    -2.6040    -0.8110 H     1 <1>   0.0800 
 34 H       -1.1480    -1.6350    -0.2630 H     1 <1>   0.0800 
 35 H        0.0980     2.3480    -1.4460 H     1 <1>   0.0800 
 36 H       -1.8430     3.5250    -0.6610 H     1 <1>   0.0800 
 37 H        2.2440     2.7280    -0.5740 H     1 <1>   0.0800 
 38 H        1.6130     3.0620     1.0270 H     1 <1>   0.0800 
 39 H       -0.4760     3.7870     1.8300 H     1 <1>   0.4000 
 40 H       -0.4870     5.7350     0.1870 H     1 <1>   0.0800 
 41 H       -0.4200     5.2070    -1.4820 H     1 <1>   0.0800 
 42 H        1.7040     4.8010    -1.2860 H     1 <1>   0.4500 
 43 H        1.4860     5.6420     1.4930 H     1 <1>   0.0800 
 44 H        2.9880     5.0960     0.7910 H     1 <1>   0.0800 
 45 H        3.4850     8.1730    -1.1800 H     1 <1>   0.1500 
 46 H        0.7790     7.6570     2.0390 H     1 <1>   0.1500 
 47 H        1.0630     8.0770    -2.1990 H     1 <1>   0.1500 
 48 H        4.4630     5.3490    -0.6520 H     1 <1>   0.0800 
 49 H        5.0250     6.4630    -1.8480 H     1 <1>   0.0800 
 50 H       -1.2460     9.0210     2.0340 H     1 <1>   0.1500 
 51 H       -0.9600     9.4580    -2.1890 H     1 <1>   0.1500 
 52 H        5.3510     6.8310     1.1400 H     1 <1>   0.0800 
 53 H       -2.1280     9.9200    -0.0760 H     1 <1>   0.1500 
 54 H        6.5370     8.4170    -1.1560 H     1 <1>   0.0800 
 55 H        6.9650     8.6120     0.5250 H     1 <1>   0.0800 
 56 H        5.3560     8.9990    -0.0050 H     1 <1>   0.0800 
 57 H        7.4030     5.9710    -0.9180 H     1 <1>   0.0800 
 58 H        6.6960     4.9380     0.3030 H     1 <1>   0.0800 
 59 H        7.7160     6.2680     0.7730 H     1 <1>   0.0800 
@<TRIPOS>BOND
  1   1   2  2   
  2   1   3  2   
  3   1   4  am  
  4   1   5  1   
  5   4   6  1   
  6   4   7  1   
  7   5   8  1   
  8   5  27  1   
  9   5  28  1   
 10   6  29  1   
 11   6  30  1   
 12   6  31  1   
 13   7  32  1   
 14   7  33  1   
 15   7  34  1   
 16   8   9  1   
 17   8  10  1   
 18   8  35  1   
 19   9  11  1   
 20   9  12  1   
 21   9  36  1   
 22  10  13  1   
 23  10  37  1   
 24  10  38  1   
 25  11  39  1   
 26  12  13  1   
 27  12  40  1   
 28  12  41  1   
 29  13  14  1   
 30  13  42  1   
 31  14  15  1   
 32  14  43  1   
 33  14  44  1   
 34  15  16  1   
 35  15  17  2   
 36  16  18  ar  
 37  16  19  ar  
 38  17  20  1   
 39  17  45  1   
 40  18  21  ar  
 41  18  46  1   
 42  19  22  ar  
 43  19  47  1   
 44  20  23  1   
 45  20  48  1   
 46  20  49  1   
 47  21  24  ar  
 48  21  50  1   
 49  22  24  ar  
 50  22  51  1   
 51  23  25  1   
 52  23  26  1   
 53  23  52  1   
 54  24  53  1   
 55  25  54  1   
 56  25  55  1   
 57  25  56  1   
 58  26  57  1   
 59  26  58  1   
 60  26  59  1   
@<TRIPOS>SUBSTRUCTURE
  1 ****  13 GROUP 4 **** **** 0

# MOE 2024.06 (io_trps.svl 2023.06)
