@<TRIPOS>MOLECULE
NONAME
49 52 1 0 0 
SMALL
USER_CHARGES


@<TRIPOS>ATOM
  1 CL      -0.2770    -1.1120    -2.7500 Cl    1 <1>  -0.1770 
  2 C       -1.1140    -2.4280    -1.9680 C.ar  1 <1>   0.1770 
  3 C       -2.1500    -2.1570    -1.0960 C.ar  1 <1>  -0.1500 
  4 C       -0.7290    -3.7290    -2.2300 C.ar  1 <1>  -0.1500 
  5 C       -2.8050    -3.2060    -0.4770 C.ar  1 <1>  -0.1500 
  6 C       -1.3950    -4.7690    -1.6070 C.ar  1 <1>  -0.1500 
  7 C       -2.4480    -4.5340    -0.7180 C.ar  1 <1>   0.0530 
  8 C       -3.1090    -5.6390    -0.0660 C.2   1 <1>   0.0870 
  9 O       -2.3810    -6.6560     0.3350 O.3   1 <1>  -0.0190 
 10 C       -4.4000    -5.9230     0.2630 C.2   1 <1>  -0.2330 
 11 N       -3.0840    -7.5880     0.9190 N.2   1 <1>  -0.4100 
 12 C       -4.2960    -7.1600     0.8980 C.2   1 <1>   0.3720 
 13 C       -5.6360    -5.2340     0.0260 C.2   1 <1>   1.0330 
 14 N       -5.3660    -7.8540     1.4380 N.pl3 1 <1>  -0.8520 
 15 O       -5.6580    -4.1080    -0.4940 O.co2 1 <1>  -0.9000 
 16 O       -6.7270    -5.7610     0.3240 O.co2 1 <1>  -0.9000 
 17 C       -5.5000    -9.2500     0.9870 C.3   1 <1>   0.2090 
 18 C       -6.9270    -9.7550     1.2420 C.3   1 <1>  -0.0800 
 19 C       -7.0010   -11.2800     1.0450 C.3   1 <1>  -0.1600 
 20 C       -7.9540    -9.0610     0.3260 C.3   1 <1>  -0.1600 
 21 C       -8.4220   -11.8000     1.2710 C.3   1 <1>   0.1400 
 22 C       -9.3680    -9.6180     0.5130 C.3   1 <1>   0.1400 
 23 N       -9.3580   -11.1010     0.3510 N.am  1 <1>  -0.6600 
 24 C      -10.1620   -11.7240    -0.5710 C.2   1 <1>   0.6300 
 25 O      -10.9720   -11.1180    -1.2340 O.2   1 <1>  -0.5700 
 26 C      -10.0690   -13.2330    -0.7830 C.3   1 <1>  -0.1000 
 27 C       -8.8590   -13.8640    -1.4140 C.3   1 <1>  -0.2000 
 28 C      -10.1530   -13.8260    -2.1610 C.3   1 <1>  -0.2000 
 29 H       -2.4440    -1.1410    -0.9050 H     1 <1>   0.1500 
 30 H        0.0790    -3.9200    -2.9130 H     1 <1>   0.1500 
 31 H       -3.6140    -2.9980     0.2020 H     1 <1>   0.1500 
 32 H       -1.1020    -5.7850    -1.8080 H     1 <1>   0.1500 
 33 H       -6.2130    -7.3020     1.1800 H     1 <1>   0.4000 
 34 H       -4.7930    -9.8490     1.5360 H     1 <1>   0.0800 
 35 H       -5.2620    -9.3190    -0.0620 H     1 <1>   0.0800 
 36 H       -7.1740    -9.5390     2.2680 H     1 <1>   0.0800 
 37 H       -6.3370   -11.7660     1.7380 H     1 <1>   0.0800 
 38 H       -6.6890   -11.5390     0.0490 H     1 <1>   0.0800 
 39 H       -7.6700    -9.1770    -0.7050 H     1 <1>   0.0800 
 40 H       -7.9780    -8.0050     0.5320 H     1 <1>   0.0800 
 41 H       -8.7230   -11.6020     2.2860 H     1 <1>   0.0800 
 42 H       -8.4460   -12.8640     1.1230 H     1 <1>   0.0800 
 43 H      -10.0280    -9.1590    -0.2030 H     1 <1>   0.0800 
 44 H       -9.7270    -9.3750     1.4980 H     1 <1>   0.0800 
 45 H      -10.5740   -13.7680     0.0000 H     1 <1>   0.1000 
 46 H       -8.5080   -14.8080    -1.0350 H     1 <1>   0.1000 
 47 H       -8.0580   -13.2260    -1.7480 H     1 <1>   0.1000 
 48 H      -10.2580   -13.1540    -2.9960 H     1 <1>   0.1000 
 49 H      -10.7120   -14.7360    -2.2930 H     1 <1>   0.1000 
@<TRIPOS>BOND
  1   1   2  1   
  2   2   3  ar  
  3   2   4  ar  
  4   3   5  ar  
  5   3  29  1   
  6   4   6  ar  
  7   4  30  1   
  8   5   7  ar  
  9   5  31  1   
 10   6   7  ar  
 11   6  32  1   
 12   7   8  1   
 13   8   9  1   
 14   8  10  2   
 15   9  11  1   
 16  10  12  1   
 17  10  13  1   
 18  11  12  2   
 19  12  14  1   
 20  13  15  ar  
 21  13  16  ar  
 22  14  17  1   
 23  14  33  1   
 24  17  18  1   
 25  17  34  1   
 26  17  35  1   
 27  18  19  1   
 28  18  20  1   
 29  18  36  1   
 30  19  21  1   
 31  19  37  1   
 32  19  38  1   
 33  20  22  1   
 34  20  39  1   
 35  20  40  1   
 36  21  23  1   
 37  21  41  1   
 38  21  42  1   
 39  22  23  1   
 40  22  43  1   
 41  22  44  1   
 42  23  24  am  
 43  24  25  2   
 44  24  26  1   
 45  26  27  1   
 46  26  28  1   
 47  26  45  1   
 48  27  28  1   
 49  27  46  1   
 50  27  47  1   
 51  28  48  1   
 52  28  49  1   
@<TRIPOS>SUBSTRUCTURE
  1 ****  14 GROUP 4 **** **** 0

# MOE 2024.06 (io_trps.svl 2023.06)
