@<TRIPOS>MOLECULE
NONAME
45 47 1 0 0 
SMALL
USER_CHARGES


@<TRIPOS>ATOM
  1 O        0.6530     1.1160     0.6110 O.2   1 <1>  -0.5700 
  2 C        0.5590     2.1800     0.0540 C.2   1 <1>   0.5690 
  3 N        0.4790     3.3250     0.7680 N.am  1 <1>  -0.7300 
  4 C        0.5020     2.2450    -1.4760 C.3   1 <1>   0.1810 
  5 C        0.3590     4.6680     0.1500 C.3   1 <1>   0.3640 
  6 O        0.7830     3.5330    -1.9830 O.3   1 <1>  -0.5600 
  7 C       -0.6990     5.4760     0.8950 C.ar  1 <1>  -0.1440 
  8 C        0.0420     4.5740    -1.3630 C.3   1 <1>   0.2610 
  9 C       -0.4550     6.8110     1.1840 C.ar  1 <1>  -0.1500 
 10 C       -1.9090     4.9140     1.2820 C.ar  1 <1>  -0.1500 
 11 C        0.2590     5.9360    -2.0380 C.2   1 <1>   0.5690 
 12 C       -1.4010     7.5730     1.8440 C.ar  1 <1>  -0.1500 
 13 C       -2.8550     5.6740     1.9480 C.ar  1 <1>  -0.1500 
 14 O       -0.7230     6.4750    -2.4950 O.2   1 <1>  -0.5700 
 15 N        1.4870     6.5600    -2.0980 N.am  1 <1>  -0.6600 
 16 C       -2.6020     7.0050     2.2290 C.ar  1 <1>  -0.1500 
 17 C        1.5520     8.0240    -2.4320 C.3   1 <1>   0.3210 
 18 C        2.8110     5.9310    -1.8140 C.3   1 <1>   0.0600 
 19 C        1.5560     8.9010    -1.1790 C.2   1 <1>   0.3350 
 20 N        0.6680     9.7720    -0.9000 N.2   1 <1>  -0.4100 
 21 N        2.5140     8.8180    -0.2570 N.2   1 <1>  -0.5650 
 22 O        0.9940    10.3070     0.2360 O.3   1 <1>  -0.0190 
 23 C        2.1020     9.6930     0.5690 C.2   1 <1>   0.2980 
 24 C        2.7770    10.0620     1.8770 C.3   1 <1>   0.0200 
 25 C        1.9430     9.6260     3.0900 C.3   1 <1>  -0.2400 
 26 H        0.4850     3.2780     1.7880 H     1 <1>   0.3700 
 27 H       -0.4780     1.9560    -1.8110 H     1 <1>   0.0800 
 28 H        1.2240     1.5650    -1.8900 H     1 <1>   0.0800 
 29 H        1.3050     5.1630     0.2740 H     1 <1>   0.0800 
 30 H       -0.9990     4.3300    -1.4770 H     1 <1>   0.0800 
 31 H        0.4710     7.2720     0.8900 H     1 <1>   0.1500 
 32 H       -2.1260     3.8810     1.0680 H     1 <1>   0.1500 
 33 H       -1.2040     8.6110     2.0510 H     1 <1>   0.1500 
 34 H       -3.7890     5.2310     2.2450 H     1 <1>   0.1500 
 35 H       -3.3390     7.5980     2.7420 H     1 <1>   0.1500 
 36 H        2.4430     8.2230    -2.9970 H     1 <1>   0.0800 
 37 H        0.7140     8.3040    -3.0440 H     1 <1>   0.0800 
 38 H        3.4980     6.1560    -2.6110 H     1 <1>   0.0800 
 39 H        2.7360     4.8630    -1.7360 H     1 <1>   0.0800 
 40 H        3.2110     6.3170    -0.8920 H     1 <1>   0.0800 
 41 H        3.7410     9.5870     1.9170 H     1 <1>   0.0800 
 42 H        2.9290    11.1260     1.9020 H     1 <1>   0.0800 
 43 H        1.7870     8.5620     3.0700 H     1 <1>   0.0800 
 44 H        0.9850    10.1160     3.0810 H     1 <1>   0.0800 
 45 H        2.4530     9.8830     4.0010 H     1 <1>   0.0800 
@<TRIPOS>BOND
  1   1   2  2   
  2   2   3  am  
  3   2   4  1   
  4   3   5  1   
  5   3  26  1   
  6   4   6  1   
  7   4  27  1   
  8   4  28  1   
  9   5   7  1   
 10   5   8  1   
 11   5  29  1   
 12   6   8  1   
 13   7   9  ar  
 14   7  10  ar  
 15   8  11  1   
 16   8  30  1   
 17   9  12  ar  
 18   9  31  1   
 19  10  13  ar  
 20  10  32  1   
 21  11  14  2   
 22  11  15  am  
 23  12  16  ar  
 24  12  33  1   
 25  13  16  ar  
 26  13  34  1   
 27  15  17  1   
 28  15  18  1   
 29  16  35  1   
 30  17  19  1   
 31  17  36  1   
 32  17  37  1   
 33  18  38  1   
 34  18  39  1   
 35  18  40  1   
 36  19  20  2   
 37  19  21  1   
 38  20  22  1   
 39  21  23  2   
 40  22  23  1   
 41  23  24  1   
 42  24  25  1   
 43  24  41  1   
 44  24  42  1   
 45  25  43  1   
 46  25  44  1   
 47  25  45  1   
@<TRIPOS>SUBSTRUCTURE
  1 ****   9 GROUP 4 **** **** 0

# MOE 2024.06 (io_trps.svl 2023.06)
