@<TRIPOS>MOLECULE
NONAME
45 47 1 0 0 
SMALL
USER_CHARGES


@<TRIPOS>ATOM
  1 O       -0.4460     0.2660     0.1430 O.2   1 <1>  -0.5700 
  2 C       -1.5200     0.8080     0.0250 C.2   1 <1>   0.5690 
  3 N       -2.6600     0.0890    -0.2010 N.am  1 <1>  -0.6600 
  4 C       -1.6060     2.3200     0.1310 C.3   1 <1>  -0.0990 
  5 C       -4.0350     0.6340    -0.3180 C.3   1 <1>   0.1400 
  6 C       -2.6710    -1.3890    -0.3020 C.3   1 <1>   0.1400 
  7 C       -0.2390     2.9750     0.3210 C.3   1 <1>   0.1200 
  8 C       -4.9350    -0.5900    -0.5070 C.3   1 <1>   0.2000 
  9 C       -4.1210    -1.7890    -0.0230 C.3   1 <1>  -0.0800 
 10 O       -0.4320     4.3500     0.4010 O.3   1 <1>  -0.5600 
 11 O       -6.1020    -0.4810     0.2340 O.3   1 <1>  -0.6800 
 12 C       -4.5460    -3.1040    -0.6960 C.3   1 <1>  -0.0170 
 13 C        0.7450     5.0700     0.5750 C.3   1 <1>   0.0400 
 14 C       -3.7070    -4.2720    -0.2080 C.ar  1 <1>   0.1670 
 15 N       -2.6160    -4.5380    -0.8590 N.ar  1 <1>  -0.6200 
 16 C       -4.1380    -4.9950     0.9160 C.ar  1 <1>  -0.1500 
 17 C       -1.8540    -5.5730    -0.4200 C.ar  1 <1>   0.3100 
 18 C       -3.3940    -6.0380     1.3770 C.ar  1 <1>  -0.1500 
 19 C       -2.2040    -6.3560     0.7010 C.ar  1 <1>   0.0000 
 20 C       -0.6660    -5.8790    -1.1040 C.ar  1 <1>  -0.1500 
 21 C       -1.3560    -7.4110     1.0920 C.ar  1 <1>  -0.1500 
 22 C        0.1460    -6.9080    -0.7080 C.ar  1 <1>  -0.1500 
 23 C       -0.2040    -7.6820     0.4030 C.ar  1 <1>  -0.1500 
 24 H       -2.0480     2.7030    -0.7690 H     1 <1>   0.0800 
 25 H       -2.2280     2.5700     0.9680 H     1 <1>   0.0800 
 26 H       -4.2890     1.1650     0.5820 H     1 <1>   0.0800 
 27 H       -4.1050     1.2880    -1.1700 H     1 <1>   0.0800 
 28 H       -2.3760    -1.6760    -1.2980 H     1 <1>   0.0800 
 29 H       -1.9930    -1.8350     0.4070 H     1 <1>   0.0800 
 30 H        0.4030     2.7580    -0.5160 H     1 <1>   0.0800 
 31 H        0.2210     2.6310     1.2330 H     1 <1>   0.0800 
 32 H       -5.2010    -0.6890    -1.5460 H     1 <1>   0.0800 
 33 H       -4.2200    -1.8850     1.0440 H     1 <1>   0.0800 
 34 H       -5.8940    -0.4160     1.1860 H     1 <1>   0.4000 
 35 H       -4.4390    -3.0200    -1.7640 H     1 <1>   0.0800 
 36 H       -5.5830    -3.2960    -0.4890 H     1 <1>   0.0800 
 37 H        0.4940     6.1150     0.6250 H     1 <1>   0.0800 
 38 H        1.3970     4.8930    -0.2620 H     1 <1>   0.0800 
 39 H        1.2150     4.7650     1.4940 H     1 <1>   0.0800 
 40 H       -5.0550    -4.7140     1.4020 H     1 <1>   0.1500 
 41 H       -3.6910    -6.6150     2.2340 H     1 <1>   0.1500 
 42 H       -0.4150    -5.2710    -1.9540 H     1 <1>   0.1500 
 43 H       -1.6300    -8.0010     1.9480 H     1 <1>   0.1500 
 44 H        1.0540    -7.1310    -1.2410 H     1 <1>   0.1500 
 45 H        0.4430    -8.4880     0.7040 H     1 <1>   0.1500 
@<TRIPOS>BOND
  1   1   2  2   
  2   2   3  am  
  3   2   4  1   
  4   3   5  1   
  5   3   6  1   
  6   4   7  1   
  7   4  24  1   
  8   4  25  1   
  9   5   8  1   
 10   5  26  1   
 11   5  27  1   
 12   6   9  1   
 13   6  28  1   
 14   6  29  1   
 15   7  10  1   
 16   7  30  1   
 17   7  31  1   
 18   8   9  1   
 19   8  11  1   
 20   8  32  1   
 21   9  12  1   
 22   9  33  1   
 23  10  13  1   
 24  11  34  1   
 25  12  14  1   
 26  12  35  1   
 27  12  36  1   
 28  13  37  1   
 29  13  38  1   
 30  13  39  1   
 31  14  15  ar  
 32  14  16  ar  
 33  15  17  ar  
 34  16  18  ar  
 35  16  40  1   
 36  17  19  ar  
 37  17  20  ar  
 38  18  19  ar  
 39  18  41  1   
 40  19  21  ar  
 41  20  22  ar  
 42  20  42  1   
 43  21  23  ar  
 44  21  43  1   
 45  22  23  ar  
 46  22  44  1   
 47  23  45  1   
@<TRIPOS>SUBSTRUCTURE
  1 ****   6 GROUP 4 **** **** 0

# MOE 2024.06 (io_trps.svl 2023.06)
