@<TRIPOS>MOLECULE
NONAME
55 58 1 0 0 
SMALL
USER_CHARGES


@<TRIPOS>ATOM
  1 S        0.0380     0.0640    -2.1130 S.o2  1 <1>   1.5010 
  2 O        0.3140     1.3820    -2.6450 O.2   1 <1>  -0.6500 
  3 O       -0.3260    -0.9980    -3.0270 O.2   1 <1>  -0.6500 
  4 N       -1.2510     0.2440    -1.0250 N.am  1 <1>  -0.8490 
  5 C        1.3830    -0.5020    -1.0420 C.2   1 <1>  -0.0630 
  6 C       -2.5240     0.4160    -1.7320 C.3   1 <1>   0.1960 
  7 C       -1.0330     1.3550    -0.0940 C.3   1 <1>   0.1960 
  8 C        1.3640    -1.7180    -0.3600 C.2   1 <1>   0.1080 
  9 C        2.5660     0.0560    -0.6630 C.2   1 <1>  -0.3320 
 10 C       -3.6800     0.3900    -0.7310 C.3   1 <1>  -0.1600 
 11 C       -2.1260     1.3510     0.9740 C.3   1 <1>  -0.1600 
 12 N        2.4160    -1.9030     0.3660 N.2   1 <1>  -0.7070 
 13 C        0.2570    -2.7510    -0.4170 C.3   1 <1>  -0.0590 
 14 N        3.1880    -0.8120     0.1800 N.pl3 1 <1>   0.5930 
 15 C        3.1720     1.4040    -1.0430 C.3   1 <1>  -0.0600 
 16 C       -3.5140     1.4700     0.3370 C.3   1 <1>   0.4180 
 17 C        4.4370    -0.6340     0.8350 C.ar  1 <1>  -0.0230 
 18 O       -3.6120     2.7020    -0.3360 O.3   1 <1>  -0.5600 
 19 C       -4.6180     1.3420     1.3830 C.2   1 <1>  -0.2880 
 20 C        5.6240    -0.5720     0.1100 C.ar  1 <1>  -0.1500 
 21 C        4.4940    -0.5170     2.2210 C.ar  1 <1>  -0.1500 
 22 C       -3.9250     3.8330     0.4270 C.3   1 <1>   0.1200 
 23 C       -5.4540     2.3290     1.7150 C.2   1 <1>  -0.2760 
 24 C        6.8340    -0.3800     0.7530 C.ar  1 <1>  -0.1500 
 25 C        5.7030    -0.3260     2.8650 C.ar  1 <1>  -0.1500 
 26 C       -5.3150     3.6910     1.0610 C.3   1 <1>  -0.0220 
 27 C       -6.5810     2.2000     2.7240 C.3   1 <1>  -0.1020 
 28 C        6.8740    -0.2550     2.1310 C.ar  1 <1>  -0.1500 
 29 H       -2.6640    -0.3860    -2.4390 H     1 <1>   0.0800 
 30 H       -2.5220     1.3470    -2.2770 H     1 <1>   0.0800 
 31 H       -1.0400     2.2940    -0.6270 H     1 <1>   0.0800 
 32 H       -0.0770     1.2490     0.3880 H     1 <1>   0.0800 
 33 H       -3.7110    -0.5780    -0.2670 H     1 <1>   0.0800 
 34 H       -4.6130     0.5390    -1.2420 H     1 <1>   0.0800 
 35 H       -1.9670     2.1500     1.6730 H     1 <1>   0.0800 
 36 H       -2.0640     0.4290     1.5230 H     1 <1>   0.0800 
 37 H       -0.6720    -2.3190    -0.0950 H     1 <1>   0.0800 
 38 H        0.4950    -3.5780     0.2280 H     1 <1>   0.0800 
 39 H        0.1490    -3.1200    -1.4200 H     1 <1>   0.0800 
 40 H        2.4850     2.0010    -1.6130 H     1 <1>   0.0800 
 41 H        4.0580     1.2600    -1.6350 H     1 <1>   0.0800 
 42 H        3.4370     1.9550    -0.1580 H     1 <1>   0.0800 
 43 H       -4.6620     0.3620     1.8230 H     1 <1>   0.1500 
 44 H        5.6000    -0.6780    -0.9610 H     1 <1>   0.1500 
 45 H        3.5840    -0.5810     2.7930 H     1 <1>   0.1500 
 46 H       -3.8990     4.6880    -0.2260 H     1 <1>   0.0800 
 47 H       -3.1760     3.9550     1.1880 H     1 <1>   0.0800 
 48 H        7.7460    -0.3320     0.1830 H     1 <1>   0.1500 
 49 H        5.7340    -0.2360     3.9370 H     1 <1>   0.1500 
 50 H       -6.0730     3.8120     0.3080 H     1 <1>   0.0800 
 51 H       -5.4390     4.4700     1.7910 H     1 <1>   0.0800 
 52 H       -6.4350     2.8890     3.5360 H     1 <1>   0.0800 
 53 H       -6.6170     1.2030     3.1250 H     1 <1>   0.0800 
 54 H       -7.5240     2.4120     2.2520 H     1 <1>   0.0800 
 55 H        7.8160    -0.1070     2.6310 H     1 <1>   0.1500 
@<TRIPOS>BOND
  1   1   2  2   
  2   1   3  2   
  3   1   4  am  
  4   1   5  1   
  5   4   6  1   
  6   4   7  1   
  7   5   8  1   
  8   5   9  2   
  9   6  10  1   
 10   6  29  1   
 11   6  30  1   
 12   7  11  1   
 13   7  31  1   
 14   7  32  1   
 15   8  12  2   
 16   8  13  1   
 17   9  14  1   
 18   9  15  1   
 19  10  16  1   
 20  10  33  1   
 21  10  34  1   
 22  11  16  1   
 23  11  35  1   
 24  11  36  1   
 25  12  14  1   
 26  13  37  1   
 27  13  38  1   
 28  13  39  1   
 29  14  17  1   
 30  15  40  1   
 31  15  41  1   
 32  15  42  1   
 33  16  18  1   
 34  16  19  1   
 35  17  20  ar  
 36  17  21  ar  
 37  18  22  1   
 38  19  23  2   
 39  19  43  1   
 40  20  24  ar  
 41  20  44  1   
 42  21  25  ar  
 43  21  45  1   
 44  22  26  1   
 45  22  46  1   
 46  22  47  1   
 47  23  26  1   
 48  23  27  1   
 49  24  28  ar  
 50  24  48  1   
 51  25  28  ar  
 52  25  49  1   
 53  26  50  1   
 54  26  51  1   
 55  27  52  1   
 56  27  53  1   
 57  27  54  1   
 58  28  55  1   
@<TRIPOS>SUBSTRUCTURE
  1 ****   7 GROUP 4 **** **** 0

# MOE 2024.06 (io_trps.svl 2023.06)
