@<TRIPOS>MOLECULE
NONAME
60 62 1 0 0 
SMALL
USER_CHARGES


@<TRIPOS>ATOM
  1 O        2.2830     2.0360     0.7250 O.3   1 <1>  -0.0190 
  2 N        3.0160     0.9690     0.6340 N.2   1 <1>  -0.4100 
  3 C        1.1700     1.9240     0.0510 C.2   1 <1>  -0.0400 
  4 C        2.3550     0.1430    -0.0960 C.2   1 <1>   0.1080 
  5 C        1.1480     0.7040    -0.5060 C.2   1 <1>  -0.1500 
  6 C        0.1910     3.0820     0.0160 C.3   1 <1>   0.0200 
  7 C        2.8340    -1.2470    -0.4560 C.3   1 <1>  -0.0590 
  8 C        0.7900     4.2800    -0.7480 C.3   1 <1>  -0.0800 
  9 C       -0.1030     5.5170    -0.8580 C.3   1 <1>   0.2000 
 10 C        2.0940     4.8060    -0.1310 C.3   1 <1>   0.3430 
 11 O       -0.6870     5.7910     0.3770 O.3   1 <1>  -0.6800 
 12 C        0.9120     6.6210    -1.1680 C.3   1 <1>   0.3430 
 13 N        2.1310     6.2810    -0.3670 N.4   1 <1>  -0.9590 
 14 C        2.1430     7.0170     0.9280 C.3   1 <1>   0.4860 
 15 C        2.2980     8.4990     0.6420 C.ar  1 <1>  -0.1430 
 16 C        3.5200     9.0670     0.2990 C.ar  1 <1>  -0.1430 
 17 C        1.1680     9.2980     0.7200 C.ar  1 <1>  -0.1500 
 18 C        3.5750    10.4210     0.0160 C.ar  1 <1>  -0.1500 
 19 C        4.8100     8.2570     0.2310 C.3   1 <1>  -0.0970 
 20 C        1.2140    10.6540     0.4370 C.ar  1 <1>  -0.1430 
 21 C        2.4350    11.2200     0.0760 C.ar  1 <1>   0.0830 
 22 C       -0.0710    11.4880     0.5320 C.3   1 <1>   0.0630 
 23 O        2.4690    12.5500    -0.2050 O.3   1 <1>  -0.3620 
 24 C       -0.6240    11.4830     1.9610 C.3   1 <1>  -0.2400 
 25 C       -1.1260    10.9870    -0.4600 C.3   1 <1>  -0.2400 
 26 C        3.6650    13.2380    -0.4810 C.3   1 <1>   0.1200 
 27 C        3.3240    14.7100    -0.6870 C.3   1 <1>  -0.2400 
 28 H        0.4070     0.2330    -1.1250 H     1 <1>   0.1500 
 29 H       -0.7140     2.7590    -0.4680 H     1 <1>   0.0800 
 30 H       -0.0500     3.3510     1.0300 H     1 <1>   0.0800 
 31 H        2.1310    -1.9780    -0.1010 H     1 <1>   0.0800 
 32 H        3.7900    -1.4360    -0.0010 H     1 <1>   0.0800 
 33 H        2.9320    -1.3370    -1.5220 H     1 <1>   0.0800 
 34 H        1.0240     3.9500    -1.7450 H     1 <1>   0.0800 
 35 H       -0.8740     5.4410    -1.6070 H     1 <1>   0.0800 
 36 H        2.9450     4.3150    -0.5750 H     1 <1>   0.0800 
 37 H        2.0950     4.6030     0.9280 H     1 <1>   0.0800 
 38 H       -1.5330     5.3050     0.4870 H     1 <1>   0.4000 
 39 H        0.5160     7.5950    -0.9340 H     1 <1>   0.0800 
 40 H        1.1540     6.5880    -2.2170 H     1 <1>   0.0800 
 41 H        2.9710     6.5730    -0.8810 H     1 <1>   0.4500 
 42 H        1.2240     6.8420     1.4640 H     1 <1>   0.0800 
 43 H        2.9630     6.6830     1.5420 H     1 <1>   0.0800 
 44 H        0.2270     8.8580     1.0050 H     1 <1>   0.1500 
 45 H        4.5200    10.8520    -0.2540 H     1 <1>   0.1500 
 46 H        5.6660     8.9090     0.2310 H     1 <1>   0.0800 
 47 H        4.8400     7.6720    -0.6690 H     1 <1>   0.0800 
 48 H        4.9020     7.6090     1.0840 H     1 <1>   0.0800 
 49 H        0.1360    12.5140     0.2790 H     1 <1>   0.0800 
 50 H       -0.9270    10.4960     2.2590 H     1 <1>   0.0800 
 51 H       -1.4740    12.1380     2.0310 H     1 <1>   0.0800 
 52 H        0.1310    11.8330     2.6420 H     1 <1>   0.0800 
 53 H       -1.4450     9.9890    -0.2200 H     1 <1>   0.0800 
 54 H       -0.7200    10.9930    -1.4560 H     1 <1>   0.0800 
 55 H       -1.9850    11.6340    -0.4410 H     1 <1>   0.0800 
 56 H        4.3310    13.1150     0.3560 H     1 <1>   0.0800 
 57 H        4.1010    12.8210    -1.3730 H     1 <1>   0.0800 
 58 H        2.8740    15.1120     0.2040 H     1 <1>   0.0800 
 59 H        2.6450    14.8200    -1.5130 H     1 <1>   0.0800 
 60 H        4.2180    15.2660    -0.9000 H     1 <1>   0.0800 
@<TRIPOS>BOND
  1   1   2  1   
  2   1   3  1   
  3   2   4  2   
  4   3   5  2   
  5   3   6  1   
  6   4   5  1   
  7   4   7  1   
  8   5  28  1   
  9   6   8  1   
 10   6  29  1   
 11   6  30  1   
 12   7  31  1   
 13   7  32  1   
 14   7  33  1   
 15   8   9  1   
 16   8  10  1   
 17   8  34  1   
 18   9  11  1   
 19   9  12  1   
 20   9  35  1   
 21  10  13  1   
 22  10  36  1   
 23  10  37  1   
 24  11  38  1   
 25  12  13  1   
 26  12  39  1   
 27  12  40  1   
 28  13  14  1   
 29  13  41  1   
 30  14  15  1   
 31  14  42  1   
 32  14  43  1   
 33  15  16  ar  
 34  15  17  ar  
 35  16  18  ar  
 36  16  19  1   
 37  17  20  ar  
 38  17  44  1   
 39  18  21  ar  
 40  18  45  1   
 41  19  46  1   
 42  19  47  1   
 43  19  48  1   
 44  20  21  ar  
 45  20  22  1   
 46  21  23  1   
 47  22  24  1   
 48  22  25  1   
 49  22  49  1   
 50  23  26  1   
 51  24  50  1   
 52  24  51  1   
 53  24  52  1   
 54  25  53  1   
 55  25  54  1   
 56  25  55  1   
 57  26  27  1   
 58  26  56  1   
 59  26  57  1   
 60  27  58  1   
 61  27  59  1   
 62  27  60  1   
@<TRIPOS>SUBSTRUCTURE
  1 ****  13 GROUP 4 **** **** 0

# MOE 2024.06 (io_trps.svl 2023.06)
