@<TRIPOS>MOLECULE
NONAME
49 52 1 0 0 
SMALL
USER_CHARGES


@<TRIPOS>ATOM
  1 CL      -1.4190    -1.7700    -2.5630 Cl    1 <1>  -0.1770 
  2 C       -2.3710    -0.7740    -1.4930 C.ar  1 <1>   0.1770 
  3 C       -3.6790    -0.4830    -1.8230 C.ar  1 <1>  -0.1500 
  4 C       -1.7980    -0.2950    -0.3300 C.ar  1 <1>  -0.1500 
  5 C       -4.4610     0.3030    -0.9800 C.ar  1 <1>   0.0860 
  6 C       -2.5560     0.4970     0.5150 C.ar  1 <1>  -0.1500 
  7 C       -5.8390     0.6030    -1.3190 C.2   1 <1>   0.5440 
  8 C       -3.8690     0.7920     0.1870 C.ar  1 <1>  -0.1500 
  9 O       -6.0820     1.1320    -2.3860 O.2   1 <1>  -0.5700 
 10 N       -6.8820     0.2980    -0.4690 N.am  1 <1>  -0.6600 
 11 C       -8.2820     0.7400    -0.7990 C.3   1 <1>   0.1400 
 12 C       -6.7170    -0.5730     0.7340 C.3   1 <1>   0.1400 
 13 C       -9.1400     0.9300     0.4660 C.3   1 <1>   0.1440 
 14 C       -8.0110    -1.3290     1.0470 C.3   1 <1>  -0.1600 
 15 C      -10.5090     1.4370     0.0430 C.ar  1 <1>   0.1670 
 16 C       -9.2180    -0.3960     1.2720 C.3   1 <1>  -0.1600 
 17 C       -8.6060     2.1170     1.3220 C.3   1 <1>  -0.1600 
 18 N      -11.4450     0.7170    -0.5250 N.ar  1 <1>  -0.6200 
 19 C      -10.6580     2.7660     0.3040 C.ar  1 <1>  -0.1430 
 20 C       -9.4250     3.3590     0.9320 C.3   1 <1>  -0.0170 
 21 C      -12.5720     1.3700    -0.8190 C.ar  1 <1>   0.7200 
 22 C      -11.8500     3.3540    -0.0330 C.ar  1 <1>   0.1600 
 23 N      -12.8160     2.6650    -0.5920 N.ar  1 <1>  -0.6200 
 24 N      -13.5810     0.6370    -1.4140 N.pl3 1 <1>  -0.8380 
 25 C      -13.3340    -0.7020    -2.0170 C.3   1 <1>   0.1290 
 26 C      -14.9730     1.1510    -1.5210 C.3   1 <1>   0.1290 
 27 H       -4.0980    -0.8620    -2.7390 H     1 <1>   0.1500 
 28 H       -0.7760    -0.5380    -0.0970 H     1 <1>   0.1500 
 29 H       -2.1220     0.8850     1.4210 H     1 <1>   0.1500 
 30 H       -4.4510     1.4180     0.8410 H     1 <1>   0.1500 
 31 H       -8.7400    -0.0020    -1.4300 H     1 <1>   0.0800 
 32 H       -8.2520     1.6640    -1.3520 H     1 <1>   0.0800 
 33 H       -6.4460     0.0380     1.5770 H     1 <1>   0.0800 
 34 H       -5.9270    -1.2850     0.5630 H     1 <1>   0.0800 
 35 H       -7.8690    -1.9480     1.9150 H     1 <1>   0.0800 
 36 H       -8.2210    -1.9850     0.2190 H     1 <1>   0.0800 
 37 H      -10.1000    -0.9410     0.9820 H     1 <1>   0.0800 
 38 H       -9.3260    -0.1880     2.3210 H     1 <1>   0.0800 
 39 H       -7.5530     2.2900     1.1830 H     1 <1>   0.0800 
 40 H       -8.7790     1.9280     2.3660 H     1 <1>   0.0800 
 41 H       -8.8970     3.9490     0.2020 H     1 <1>   0.0800 
 42 H       -9.6640     3.9630     1.7900 H     1 <1>   0.0800 
 43 H      -12.0140     4.4010     0.1550 H     1 <1>   0.1500 
 44 H      -12.3170    -0.7780    -2.3640 H     1 <1>   0.0800 
 45 H      -13.9890    -0.8580    -2.8550 H     1 <1>   0.0800 
 46 H      -13.5090    -1.4650    -1.2790 H     1 <1>   0.0800 
 47 H      -15.1930     1.8160    -0.7040 H     1 <1>   0.0800 
 48 H      -15.6730     0.3340    -1.4890 H     1 <1>   0.0800 
 49 H      -15.0880     1.6850    -2.4470 H     1 <1>   0.0800 
@<TRIPOS>BOND
  1   1   2  1   
  2   2   3  ar  
  3   2   4  ar  
  4   3   5  ar  
  5   3  27  1   
  6   4   6  ar  
  7   4  28  1   
  8   5   7  1   
  9   5   8  ar  
 10   6   8  ar  
 11   6  29  1   
 12   7   9  2   
 13   7  10  am  
 14   8  30  1   
 15  10  11  1   
 16  10  12  1   
 17  11  13  1   
 18  11  31  1   
 19  11  32  1   
 20  12  14  1   
 21  12  33  1   
 22  12  34  1   
 23  13  15  1   
 24  13  16  1   
 25  13  17  1   
 26  14  16  1   
 27  14  35  1   
 28  14  36  1   
 29  15  18  ar  
 30  15  19  ar  
 31  16  37  1   
 32  16  38  1   
 33  17  20  1   
 34  17  39  1   
 35  17  40  1   
 36  18  21  ar  
 37  19  20  1   
 38  19  22  ar  
 39  20  41  1   
 40  20  42  1   
 41  21  23  ar  
 42  21  24  1   
 43  22  23  ar  
 44  22  43  1   
 45  24  25  1   
 46  24  26  1   
 47  25  44  1   
 48  25  45  1   
 49  25  46  1   
 50  26  47  1   
 51  26  48  1   
 52  26  49  1   
@<TRIPOS>SUBSTRUCTURE
  1 ****  11 GROUP 4 **** **** 0

# MOE 2024.06 (io_trps.svl 2023.06)
