@<TRIPOS>MOLECULE
NONAME
51 53 1 0 0 
SMALL
USER_CHARGES


@<TRIPOS>ATOM
  1 O       -0.9130    -0.2010    -1.8210 O.2   1 <1>  -0.5700 
  2 C       -1.5940     0.6220    -1.2340 C.2   1 <1>   0.6160 
  3 N       -2.7650     0.2150    -0.6240 N.am  1 <1>  -0.6600 
  4 C       -1.2130     2.0000    -1.3070 C.2   1 <1>   0.0290 
  5 C       -3.2410    -1.2180    -0.7080 C.3   1 <1>   0.1400 
  6 C       -3.6630     1.1570     0.1230 C.3   1 <1>   0.1400 
  7 C       -0.6470     2.6490    -0.1690 C.2   1 <1>   0.4690 
  8 C       -1.3710     2.7070    -2.4680 C.2   1 <1>  -0.0500 
  9 C       -4.7620    -1.2450    -0.9230 C.3   1 <1>   0.2000 
 10 C       -4.6340     0.4040     1.0390 C.3   1 <1>  -0.1600 
 11 O       -0.4900     2.0560     0.8920 O.2   1 <1>  -0.5700 
 12 C       -0.2690     4.0380    -0.2750 C.ar  1 <1>   0.0860 
 13 N       -1.0230     4.0210    -2.5630 N.pl3 1 <1>  -0.6000 
 14 O       -5.0080    -0.4370    -2.0350 O.3   1 <1>  -0.6800 
 15 C       -5.4940    -0.7140     0.3510 C.3   1 <1>  -0.1060 
 16 C       -0.4720     4.7110    -1.4900 C.ar  1 <1>   0.1000 
 17 C        0.2910     4.7520     0.7910 C.ar  1 <1>  -0.1500 
 18 C       -5.6220    -1.9010     1.3400 C.2   1 <1>   0.9060 
 19 C       -6.9080    -0.1750    -0.0400 C.3   1 <1>  -0.1600 
 20 C       -0.1240     6.0530    -1.6160 C.ar  1 <1>  -0.1500 
 21 C        0.6370     6.0870     0.6590 C.ar  1 <1>   0.0830 
 22 O       -5.7850    -1.6740     2.5460 O.co2 1 <1>  -0.9000 
 23 O       -5.5330    -3.0660     0.9290 O.co2 1 <1>  -0.9000 
 24 C       -7.8770     0.1030     1.1250 C.3   1 <1>  -0.1600 
 25 C        0.4240     6.7330    -0.5520 C.ar  1 <1>  -0.1500 
 26 O        1.1830     6.8320     1.6540 O.3   1 <1>  -0.3630 
 27 C       -9.1840     0.7210     0.6180 C.3   1 <1>  -0.2400 
 28 C        1.4720     6.2660     2.9130 C.3   1 <1>   0.0400 
 29 H       -2.7630    -1.7360    -1.5210 H     1 <1>   0.0800 
 30 H       -2.9940    -1.7380     0.2020 H     1 <1>   0.0800 
 31 H       -3.0730     1.8200     0.7290 H     1 <1>   0.0800 
 32 H       -4.2250     1.7480    -0.5800 H     1 <1>   0.0800 
 33 H       -1.7760     2.2270    -3.3460 H     1 <1>   0.1500 
 34 H       -5.0960    -2.2350    -1.1850 H     1 <1>   0.0800 
 35 H       -4.0280    -0.0420     1.8100 H     1 <1>   0.0800 
 36 H       -5.2660     1.1110     1.5400 H     1 <1>   0.0800 
 37 H       -1.1350     4.5270    -3.4510 H     1 <1>   0.4000 
 38 H       -4.3410     0.2750    -1.9890 H     1 <1>   0.4000 
 39 H        0.4450     4.2290     1.7160 H     1 <1>   0.1500 
 40 H       -6.7930     0.7280    -0.6120 H     1 <1>   0.0800 
 41 H       -7.3740    -0.9050    -0.6810 H     1 <1>   0.0800 
 42 H       -0.2830     6.5600    -2.5500 H     1 <1>   0.1500 
 43 H       -8.1020    -0.8190     1.6340 H     1 <1>   0.0800 
 44 H       -7.4280     0.7650     1.8430 H     1 <1>   0.0800 
 45 H        0.6970     7.7700    -0.6400 H     1 <1>   0.1500 
 46 H       -9.6630     0.0550    -0.0780 H     1 <1>   0.0800 
 47 H       -8.9910     1.6590     0.1290 H     1 <1>   0.0800 
 48 H       -9.8510     0.8920     1.4440 H     1 <1>   0.0800 
 49 H        1.9090     7.0300     3.5310 H     1 <1>   0.0800 
 50 H        2.1710     5.4590     2.7820 H     1 <1>   0.0800 
 51 H        0.5580     5.9150     3.3580 H     1 <1>   0.0800 
@<TRIPOS>BOND
  1   1   2  2   
  2   2   3  am  
  3   2   4  1   
  4   3   5  1   
  5   3   6  1   
  6   4   7  1   
  7   4   8  2   
  8   5   9  1   
  9   5  29  1   
 10   5  30  1   
 11   6  10  1   
 12   6  31  1   
 13   6  32  1   
 14   7  11  2   
 15   7  12  1   
 16   8  13  1   
 17   8  33  1   
 18   9  14  1   
 19   9  15  1   
 20   9  34  1   
 21  10  15  1   
 22  10  35  1   
 23  10  36  1   
 24  12  16  ar  
 25  12  17  ar  
 26  13  16  1   
 27  13  37  1   
 28  14  38  1   
 29  15  18  1   
 30  15  19  1   
 31  16  20  ar  
 32  17  21  ar  
 33  17  39  1   
 34  18  22  ar  
 35  18  23  ar  
 36  19  24  1   
 37  19  40  1   
 38  19  41  1   
 39  20  25  ar  
 40  20  42  1   
 41  21  25  ar  
 42  21  26  1   
 43  24  27  1   
 44  24  43  1   
 45  24  44  1   
 46  25  45  1   
 47  26  28  1   
 48  27  46  1   
 49  27  47  1   
 50  27  48  1   
 51  28  49  1   
 52  28  50  1   
 53  28  51  1   
@<TRIPOS>SUBSTRUCTURE
  1 ****   6 GROUP 4 **** **** 0

# MOE 2024.06 (io_trps.svl 2023.06)
