@<TRIPOS>MOLECULE
NONAME
34 36 1 0 0 
SMALL
USER_CHARGES


@<TRIPOS>ATOM
  1 S        0.1520     0.2480    -0.6990 S.3   1 <1>  -0.4600 
  2 C        0.2120     2.0500    -0.5260 C.3   1 <1>   0.0700 
  3 C        1.8900    -0.1870    -0.9590 C.3   1 <1>   0.0700 
  4 C        1.2450     2.4150     0.5480 C.3   1 <1>   0.3430 
  5 C        2.7310     0.4310     0.1670 C.3   1 <1>   0.3430 
  6 N        2.6360     1.9330     0.2060 N.4   1 <1>  -0.9590 
  7 C        3.6520     2.4990     1.1490 C.3   1 <1>   0.5230 
  8 C        3.9110     3.9580     0.8270 C.2   1 <1>  -0.0400 
  9 O        2.9890     4.8420     1.0800 O.3   1 <1>  -0.0190 
 10 C        4.9590     4.6060     0.3000 C.2   1 <1>  -0.1500 
 11 N        3.3510     6.0360     0.7370 N.2   1 <1>  -0.4100 
 12 C        4.5550     5.9490     0.2620 C.2   1 <1>   0.2350 
 13 C        5.3330     7.0690    -0.2320 C.ar  1 <1>   0.0540 
 14 C        4.7370     8.3120    -0.4530 C.ar  1 <1>   0.1600 
 15 C        6.6920     6.9720    -0.5100 C.ar  1 <1>  -0.1500 
 16 N        5.3420     9.3970    -0.9110 N.ar  1 <1>  -0.6200 
 17 C        7.3420     8.0900    -0.9860 C.ar  1 <1>  -0.1500 
 18 C        6.6310     9.2630    -1.1680 C.ar  1 <1>   0.1600 
 19 H       -0.7750     2.3700    -0.2390 H     1 <1>   0.0800 
 20 H        0.4610     2.4690    -1.4850 H     1 <1>   0.0800 
 21 H        2.1810     0.1760    -1.9290 H     1 <1>   0.0800 
 22 H        1.9480    -1.2610    -0.9440 H     1 <1>   0.0800 
 23 H        0.9320     1.9890     1.4870 H     1 <1>   0.0800 
 24 H        1.2410     3.4860     0.6560 H     1 <1>   0.0800 
 25 H        3.7570     0.1360     0.0200 H     1 <1>   0.0800 
 26 H        2.4000     0.0200     1.1070 H     1 <1>   0.0800 
 27 H        2.8650     2.3000    -0.7270 H     1 <1>   0.4500 
 28 H        4.5800     1.9600     1.0460 H     1 <1>   0.0800 
 29 H        3.3160     2.4020     2.1690 H     1 <1>   0.0800 
 30 H        5.9080     4.2270    -0.0340 H     1 <1>   0.1500 
 31 H        3.6860     8.4140    -0.2380 H     1 <1>   0.1500 
 32 H        7.2380     6.0590    -0.3600 H     1 <1>   0.1500 
 33 H        8.3920     8.0590    -1.2140 H     1 <1>   0.1500 
 34 H        7.1470    10.1320    -1.5400 H     1 <1>   0.1500 
@<TRIPOS>BOND
  1   1   2  1   
  2   1   3  1   
  3   2   4  1   
  4   2  19  1   
  5   2  20  1   
  6   3   5  1   
  7   3  21  1   
  8   3  22  1   
  9   4   6  1   
 10   4  23  1   
 11   4  24  1   
 12   5   6  1   
 13   5  25  1   
 14   5  26  1   
 15   6   7  1   
 16   6  27  1   
 17   7   8  1   
 18   7  28  1   
 19   7  29  1   
 20   8   9  1   
 21   8  10  2   
 22   9  11  1   
 23  10  12  1   
 24  10  30  1   
 25  11  12  2   
 26  12  13  1   
 27  13  14  ar  
 28  13  15  ar  
 29  14  16  ar  
 30  14  31  1   
 31  15  17  ar  
 32  15  32  1   
 33  16  18  ar  
 34  17  18  ar  
 35  17  33  1   
 36  18  34  1   
@<TRIPOS>SUBSTRUCTURE
  1 ****   8 GROUP 4 **** **** 0

# MOE 2024.06 (io_trps.svl 2023.06)
