@<TRIPOS>MOLECULE
NONAME
62 65 1 0 0 
SMALL
USER_CHARGES


@<TRIPOS>ATOM
  1 O       -1.7530    -0.0690     1.6280 O.3   1 <1>  -0.3630 
  2 C       -2.5340    -1.1790     1.6790 C.ar  1 <1>   0.0830 
  3 C       -1.9320     1.0180     2.5100 C.3   1 <1>   0.0400 
  4 C       -2.2390    -2.2220     0.8040 C.ar  1 <1>  -0.1440 
  5 C       -3.6060    -1.2980     2.5600 C.ar  1 <1>  -0.1500 
  6 C       -3.0400    -3.3560     0.8090 C.ar  1 <1>  -0.1500 
  7 C       -1.0530    -2.1010    -0.1580 C.3   1 <1>   0.1220 
  8 C       -4.3900    -2.4360     2.5600 C.ar  1 <1>  -0.1500 
  9 C       -4.1170    -3.4670     1.6760 C.ar  1 <1>  -0.1440 
 10 C       -0.5010    -3.4480    -0.6040 C.2   1 <1>  -0.2880 
 11 C       -4.9970    -4.6990     1.6320 C.3   1 <1>   0.4860 
 12 C       -0.4860    -3.9010    -1.8610 C.2   1 <1>  -0.3000 
 13 N       -5.8140    -4.6180     0.3940 N.4   1 <1>  -0.9590 
 14 C       -6.7760    -3.4630     0.4630 C.3   1 <1>   0.3430 
 15 C       -6.5160    -5.8950     0.0920 C.3   1 <1>   0.3430 
 16 C       -7.5360    -3.2690    -0.8590 C.3   1 <1>   0.1440 
 17 C       -7.2420    -5.7780    -1.2530 C.3   1 <1>  -0.1600 
 18 C       -8.5650    -2.1880    -0.6450 C.ar  1 <1>   0.1670 
 19 C       -8.2170    -4.5860    -1.2860 C.3   1 <1>  -0.1600 
 20 C       -6.6470    -2.6710    -1.9840 C.3   1 <1>  -0.1600 
 21 N       -9.3800    -2.1420     0.3760 N.ar  1 <1>  -0.6200 
 22 C       -8.5300    -1.2480    -1.6270 C.ar  1 <1>  -0.1430 
 23 C       -7.4770    -1.5610    -2.6610 C.3   1 <1>  -0.0170 
 24 C      -10.2030    -1.0880     0.3890 C.ar  1 <1>   0.7200 
 25 C       -9.4110    -0.2010    -1.5310 C.ar  1 <1>   0.1600 
 26 N      -10.2490    -0.1130    -0.5250 N.ar  1 <1>  -0.6200 
 27 N      -11.0780    -0.9970     1.4500 N.pl3 1 <1>  -0.8380 
 28 C      -11.7940     0.2720     1.7630 C.3   1 <1>   0.1290 
 29 C      -11.5580    -2.1940     2.1930 C.3   1 <1>   0.1290 
 30 H       -1.1830     1.7560     2.2850 H     1 <1>   0.0800 
 31 H       -1.8100     0.6720     3.5210 H     1 <1>   0.0800 
 32 H       -2.9120     1.4350     2.3590 H     1 <1>   0.0800 
 33 H       -3.8450    -0.5120     3.2520 H     1 <1>   0.1500 
 34 H       -2.8200    -4.1590     0.1280 H     1 <1>   0.1500 
 35 H       -0.2520    -1.5610     0.3160 H     1 <1>   0.0800 
 36 H       -1.3630    -1.5300    -1.0150 H     1 <1>   0.0800 
 37 H       -5.2130    -2.5000     3.2530 H     1 <1>   0.1500 
 38 H       -0.1040    -4.0160     0.2220 H     1 <1>   0.1500 
 39 H       -5.6310    -4.7390     2.5020 H     1 <1>   0.0800 
 40 H       -4.3750    -5.5790     1.6140 H     1 <1>   0.0800 
 41 H       -0.0810    -4.8570    -2.1490 H     1 <1>   0.1500 
 42 H       -0.8660    -3.3580    -2.7090 H     1 <1>   0.1500 
 43 H       -5.1560    -4.4120    -0.3680 H     1 <1>   0.4500 
 44 H       -6.2530    -2.5500     0.6960 H     1 <1>   0.0800 
 45 H       -7.4960    -3.6380     1.2460 H     1 <1>   0.0800 
 46 H       -7.2340    -6.1090     0.8680 H     1 <1>   0.0800 
 47 H       -5.8090    -6.7090     0.0490 H     1 <1>   0.0800 
 48 H       -7.7930    -6.6860    -1.4300 H     1 <1>   0.0800 
 49 H       -6.5170    -5.6910    -2.0430 H     1 <1>   0.0800 
 50 H       -8.6430    -4.4810    -2.2690 H     1 <1>   0.0800 
 51 H       -9.0310    -4.7890    -0.6090 H     1 <1>   0.0800 
 52 H       -6.3280    -3.4040    -2.7040 H     1 <1>   0.0800 
 53 H       -5.7730    -2.2130    -1.5530 H     1 <1>   0.0800 
 54 H       -7.9490    -1.9260    -3.5570 H     1 <1>   0.0800 
 55 H       -6.8760    -0.6980    -2.8910 H     1 <1>   0.0800 
 56 H       -9.4300     0.5710    -2.2810 H     1 <1>   0.1500 
 57 H      -11.1840     1.1210     1.5040 H     1 <1>   0.0800 
 58 H      -12.0170     0.3220     2.8140 H     1 <1>   0.0800 
 59 H      -12.7100     0.3170     1.2010 H     1 <1>   0.0800 
 60 H      -11.3280    -3.0970     1.6540 H     1 <1>   0.0800 
 61 H      -12.6250    -2.1430     2.3220 H     1 <1>   0.0800 
 62 H      -11.0860    -2.2310     3.1590 H     1 <1>   0.0800 
@<TRIPOS>BOND
  1   1   2  1   
  2   1   3  1   
  3   2   4  ar  
  4   2   5  ar  
  5   3  30  1   
  6   3  31  1   
  7   3  32  1   
  8   4   6  ar  
  9   4   7  1   
 10   5   8  ar  
 11   5  33  1   
 12   6   9  ar  
 13   6  34  1   
 14   7  10  1   
 15   7  35  1   
 16   7  36  1   
 17   8   9  ar  
 18   8  37  1   
 19   9  11  1   
 20  10  12  2   
 21  10  38  1   
 22  11  13  1   
 23  11  39  1   
 24  11  40  1   
 25  12  41  1   
 26  12  42  1   
 27  13  14  1   
 28  13  15  1   
 29  13  43  1   
 30  14  16  1   
 31  14  44  1   
 32  14  45  1   
 33  15  17  1   
 34  15  46  1   
 35  15  47  1   
 36  16  18  1   
 37  16  19  1   
 38  16  20  1   
 39  17  19  1   
 40  17  48  1   
 41  17  49  1   
 42  18  21  ar  
 43  18  22  ar  
 44  19  50  1   
 45  19  51  1   
 46  20  23  1   
 47  20  52  1   
 48  20  53  1   
 49  21  24  ar  
 50  22  23  1   
 51  22  25  ar  
 52  23  54  1   
 53  23  55  1   
 54  24  26  ar  
 55  24  27  1   
 56  25  26  ar  
 57  25  56  1   
 58  27  28  1   
 59  27  29  1   
 60  28  57  1   
 61  28  58  1   
 62  28  59  1   
 63  29  60  1   
 64  29  61  1   
 65  29  62  1   
@<TRIPOS>SUBSTRUCTURE
  1 ****  14 GROUP 4 **** **** 0

# MOE 2024.06 (io_trps.svl 2023.06)
