@<TRIPOS>MOLECULE
NONAME
57 59 1 0 0 
SMALL
USER_CHARGES


@<TRIPOS>ATOM
  1 O       -0.4310     0.9300     1.3570 O.2   1 <1>  -0.5700 
  2 C        0.4820     0.1520     1.5130 C.2   1 <1>   0.5690 
  3 N        1.7880     0.5620     1.5940 N.am  1 <1>  -0.4940 
  4 C        0.2140    -1.3780     1.5600 C.3   1 <1>   0.2510 
  5 C        2.3630     1.8220     1.3280 C.2   1 <1>  -0.0880 
  6 N        0.2490    -2.0770     0.2310 N.3   1 <1>  -0.8100 
  7 C       -1.1360    -1.6880     2.2200 C.3   1 <1>  -0.2400 
  8 N        1.9020     3.0500     1.6890 N.pl3 1 <1>   0.3140 
  9 C        3.5290     2.0210     0.6540 C.2   1 <1>  -0.0540 
 10 C        0.6000    -3.5100     0.3350 C.3   1 <1>   0.1100 
 11 C        1.0690    -1.3920    -0.7970 C.3   1 <1>   0.1100 
 12 N        2.7420     4.0260     1.2790 N.2   1 <1>  -0.7070 
 13 C        0.7090     3.3930     2.4740 C.3   1 <1>   0.0160 
 14 C        4.3920     1.0380     0.0470 C.ar  1 <1>   0.0540 
 15 C        3.7000     3.4090     0.6730 C.2   1 <1>   0.1080 
 16 C        0.5050    -4.2190    -1.0330 C.3   1 <1>   0.3430 
 17 C        0.9970    -2.0860    -2.1680 C.3   1 <1>   0.3430 
 18 C        4.1340     0.3880    -1.1750 C.ar  1 <1>   0.0820 
 19 C        5.5530     0.6920     0.7330 C.ar  1 <1>  -0.1500 
 20 C        4.8660     4.1560     0.0620 C.3   1 <1>  -0.0590 
 21 N        1.3550    -3.5440    -2.0740 N.4   1 <1>  -0.9590 
 22 O        3.0410     0.6110    -1.9550 O.3   1 <1>  -0.3630 
 23 C        5.0160    -0.5670    -1.6560 C.ar  1 <1>  -0.1500 
 24 C        6.4280    -0.2610     0.2470 C.ar  1 <1>  -0.1500 
 25 C        1.2270    -4.2140    -3.4010 C.3   1 <1>   0.2630 
 26 C        2.5650     1.9270    -2.1630 C.3   1 <1>   0.0400 
 27 C        6.1600    -0.8950    -0.9520 C.ar  1 <1>  -0.1500 
 28 H        2.4750    -0.1890     1.6540 H     1 <1>   0.3700 
 29 H        0.9840    -1.7970     2.1850 H     1 <1>   0.0800 
 30 H       -1.9380    -1.3410     1.5920 H     1 <1>   0.0800 
 31 H       -1.2060    -1.1770     3.1630 H     1 <1>   0.0800 
 32 H       -1.2560    -2.7390     2.4020 H     1 <1>   0.0800 
 33 H       -0.0760    -4.0000     1.0130 H     1 <1>   0.0800 
 34 H        1.5970    -3.6180     0.7280 H     1 <1>   0.0800 
 35 H        2.0950    -1.3450    -0.4770 H     1 <1>   0.0800 
 36 H        0.7140    -0.3840    -0.9350 H     1 <1>   0.0800 
 37 H        0.5230     2.6230     3.1980 H     1 <1>   0.0800 
 38 H       -0.1310     3.4810     1.8120 H     1 <1>   0.0800 
 39 H        0.8740     4.3290     2.9750 H     1 <1>   0.0800 
 40 H       -0.5260    -4.2090    -1.3460 H     1 <1>   0.0800 
 41 H        0.8080    -5.2460    -0.9210 H     1 <1>   0.0800 
 42 H        1.6660    -1.5830    -2.8480 H     1 <1>   0.0800 
 43 H       -0.0060    -1.9800    -2.5470 H     1 <1>   0.0800 
 44 H        5.7710     1.1820     1.6670 H     1 <1>   0.1500 
 45 H        5.3630     3.5530    -0.6750 H     1 <1>   0.0800 
 46 H        5.5640     4.4200     0.8330 H     1 <1>   0.0800 
 47 H        4.5100     5.0560    -0.4060 H     1 <1>   0.0800 
 48 H        2.3330    -3.5920    -1.7590 H     1 <1>   0.4500 
 49 H        4.8130    -1.0460    -2.5960 H     1 <1>   0.1500 
 50 H        7.3200    -0.5070     0.7990 H     1 <1>   0.1500 
 51 H        0.2070    -4.1640    -3.7480 H     1 <1>   0.0800 
 52 H        1.5160    -5.2500    -3.3280 H     1 <1>   0.0800 
 53 H        1.8610    -3.7320    -4.1270 H     1 <1>   0.0800 
 54 H        2.0360     1.9520    -3.0980 H     1 <1>   0.0800 
 55 H        3.3980     2.6070    -2.2000 H     1 <1>   0.0800 
 56 H        1.8930     2.1930    -1.3650 H     1 <1>   0.0800 
 57 H        6.8440    -1.6320    -1.3360 H     1 <1>   0.1500 
@<TRIPOS>BOND
  1   1   2  2   
  2   2   3  am  
  3   2   4  1   
  4   3   5  1   
  5   3  28  1   
  6   4   6  1   
  7   4   7  1   
  8   4  29  1   
  9   5   8  1   
 10   5   9  2   
 11   6  10  1   
 12   6  11  1   
 13   7  30  1   
 14   7  31  1   
 15   7  32  1   
 16   8  12  1   
 17   8  13  1   
 18   9  14  1   
 19   9  15  1   
 20  10  16  1   
 21  10  33  1   
 22  10  34  1   
 23  11  17  1   
 24  11  35  1   
 25  11  36  1   
 26  12  15  2   
 27  13  37  1   
 28  13  38  1   
 29  13  39  1   
 30  14  18  ar  
 31  14  19  ar  
 32  15  20  1   
 33  16  21  1   
 34  16  40  1   
 35  16  41  1   
 36  17  21  1   
 37  17  42  1   
 38  17  43  1   
 39  18  22  1   
 40  18  23  ar  
 41  19  24  ar  
 42  19  44  1   
 43  20  45  1   
 44  20  46  1   
 45  20  47  1   
 46  21  25  1   
 47  21  48  1   
 48  22  26  1   
 49  23  27  ar  
 50  23  49  1   
 51  24  27  ar  
 52  24  50  1   
 53  25  51  1   
 54  25  52  1   
 55  25  53  1   
 56  26  54  1   
 57  26  55  1   
 58  26  56  1   
 59  27  57  1   
@<TRIPOS>SUBSTRUCTURE
  1 ****   3 GROUP 4 **** **** 0

# MOE 2024.06 (io_trps.svl 2023.06)
