@<TRIPOS>MOLECULE
NONAME
53 57 1 0 0 
SMALL
USER_CHARGES


@<TRIPOS>ATOM
  1 O        1.5180     0.8860     2.6050 O.2   1 <1>  -0.5700 
  2 C        1.7270     0.9300     1.4050 C.2   1 <1>   0.5440 
  3 N        1.0840     1.8980     0.6640 N.am  1 <1>  -0.6600 
  4 C        2.6630     0.0310     0.7850 C.ar  1 <1>   0.0860 
  5 C        0.0240     2.7590     1.2280 C.3   1 <1>   0.1400 
  6 C        1.2320     2.1100    -0.7920 C.3   1 <1>   0.1400 
  7 C        2.3360    -1.3070     0.4870 C.ar  1 <1>   0.4100 
  8 C        3.9330     0.4830     0.4550 C.ar  1 <1>  -0.1500 
  9 C       -0.4360     3.6300     0.0620 C.3   1 <1>  -0.1600 
 10 C       -0.0350     2.8550    -1.1920 C.3   1 <1>  -0.1600 
 11 N        3.1810    -2.1500    -0.1110 N.ar  1 <1>  -0.6200 
 12 N        1.1010    -1.8500     0.7900 N.pl3 1 <1>  -0.8380 
 13 C        4.8010    -0.3940    -0.1540 C.ar  1 <1>  -0.1500 
 14 C        4.3760    -1.6840    -0.4110 C.ar  1 <1>   0.1600 
 15 C        0.9790    -3.2590     1.2780 C.3   1 <1>   0.2090 
 16 C       -0.1620    -1.3510     0.1630 C.3   1 <1>   0.2090 
 17 C        0.4950    -4.2080     0.1630 C.3   1 <1>   0.2090 
 18 C       -0.6530    -2.2980    -0.9510 C.3   1 <1>   0.2090 
 19 N       -0.7680    -3.7160    -0.4810 N.pl3 1 <1>  -0.8380 
 20 C       -1.9820    -4.2340    -0.0940 C.ar  1 <1>   0.4100 
 21 N       -2.8030    -3.4250     0.5150 N.ar  1 <1>  -0.6200 
 22 C       -2.3080    -5.5940    -0.3310 C.ar  1 <1>   0.0000 
 23 C       -3.9420    -3.9610     0.9630 C.ar  1 <1>   0.4700 
 24 C       -3.5240    -6.0350     0.2010 C.ar  1 <1>   0.3100 
 25 C       -1.5250    -6.5100    -1.0640 C.ar  1 <1>  -0.1500 
 26 N       -4.3410    -5.1880     0.8610 N.ar  1 <1>  -0.6200 
 27 C       -3.9020    -7.3740     0.0350 C.ar  1 <1>  -0.1500 
 28 C       -1.9160    -7.8150    -1.2220 C.ar  1 <1>  -0.1500 
 29 C       -3.1160    -8.2550    -0.6620 C.ar  1 <1>  -0.1500 
 30 H        0.4080     3.3490     2.0430 H     1 <1>   0.0800 
 31 H       -0.7800     2.1360     1.5830 H     1 <1>   0.0800 
 32 H        1.3310     1.1790    -1.3230 H     1 <1>   0.0800 
 33 H        2.0980     2.7250    -0.9690 H     1 <1>   0.0800 
 34 H        4.2210     1.4950     0.6780 H     1 <1>   0.1500 
 35 H        0.0960     4.5650     0.0990 H     1 <1>   0.0800 
 36 H       -1.4920     3.8270     0.1050 H     1 <1>   0.0800 
 37 H       -0.8000     2.1390    -1.4380 H     1 <1>   0.0800 
 38 H        0.1280     3.4990    -2.0380 H     1 <1>   0.0800 
 39 H        5.7950    -0.0870    -0.4240 H     1 <1>   0.1500 
 40 H        5.0600    -2.3660    -0.8880 H     1 <1>   0.1500 
 41 H        0.2750    -3.2860     2.0910 H     1 <1>   0.0800 
 42 H        1.9280    -3.6000     1.6530 H     1 <1>   0.0800 
 43 H       -0.0110    -0.3760    -0.2550 H     1 <1>   0.0800 
 44 H       -0.9230    -1.2730     0.9200 H     1 <1>   0.0800 
 45 H        0.3370    -5.1840     0.5850 H     1 <1>   0.0800 
 46 H        1.2650    -4.2860    -0.5830 H     1 <1>   0.0800 
 47 H        0.0420    -2.2590    -1.7700 H     1 <1>   0.0800 
 48 H       -1.6080    -1.9570    -1.3120 H     1 <1>   0.0800 
 49 H       -4.5950    -3.2740     1.4760 H     1 <1>   0.1500 
 50 H       -0.6090    -6.1630    -1.5080 H     1 <1>   0.1500 
 51 H       -4.8340    -7.6870     0.4680 H     1 <1>   0.1500 
 52 H       -1.3080    -8.5080    -1.7790 H     1 <1>   0.1500 
 53 H       -3.4140    -9.2820    -0.7870 H     1 <1>   0.1500 
@<TRIPOS>BOND
  1   1   2  2   
  2   2   3  am  
  3   2   4  1   
  4   3   5  1   
  5   3   6  1   
  6   4   7  ar  
  7   4   8  ar  
  8   5   9  1   
  9   5  30  1   
 10   5  31  1   
 11   6  10  1   
 12   6  32  1   
 13   6  33  1   
 14   7  11  ar  
 15   7  12  1   
 16   8  13  ar  
 17   8  34  1   
 18   9  10  1   
 19   9  35  1   
 20   9  36  1   
 21  10  37  1   
 22  10  38  1   
 23  11  14  ar  
 24  12  15  1   
 25  12  16  1   
 26  13  14  ar  
 27  13  39  1   
 28  14  40  1   
 29  15  17  1   
 30  15  41  1   
 31  15  42  1   
 32  16  18  1   
 33  16  43  1   
 34  16  44  1   
 35  17  19  1   
 36  17  45  1   
 37  17  46  1   
 38  18  19  1   
 39  18  47  1   
 40  18  48  1   
 41  19  20  1   
 42  20  21  ar  
 43  20  22  ar  
 44  21  23  ar  
 45  22  24  ar  
 46  22  25  ar  
 47  23  26  ar  
 48  23  49  1   
 49  24  26  ar  
 50  24  27  ar  
 51  25  28  ar  
 52  25  50  1   
 53  27  29  ar  
 54  27  51  1   
 55  28  29  ar  
 56  28  52  1   
 57  29  53  1   
@<TRIPOS>SUBSTRUCTURE
  1 ****  16 GROUP 4 **** **** 0

# MOE 2024.06 (io_trps.svl 2023.06)
