@<TRIPOS>MOLECULE
NONAME
50 52 1 0 0 
SMALL
USER_CHARGES


@<TRIPOS>ATOM
  1 O       -1.1450     1.4420    -2.3430 O.2   1 <1>  -0.5700 
  2 C       -1.4980     1.9220    -1.2750 C.2   1 <1>   0.7150 
  3 N       -2.4180     1.2080    -0.5220 N.am  1 <1>  -0.6600 
  4 C       -0.9190     3.2030    -0.8920 C.2   1 <1>   0.1020 
  5 C       -3.2190     0.0960    -1.1200 C.3   1 <1>   0.1400 
  6 C       -2.6660     1.4660     0.9250 C.3   1 <1>   0.1400 
  7 N       -1.2610     4.0350     0.0720 N.2   1 <1>  -0.5650 
  8 N        0.1280     3.6930    -1.6060 N.pl3 1 <1>   0.0330 
  9 C       -4.7300     0.3540    -1.0220 C.3   1 <1>   0.1400 
 10 C       -3.9340     2.3100     1.0880 C.3   1 <1>  -0.1600 
 11 C       -0.4070     5.0610    -0.0380 C.2   1 <1>   0.0770 
 12 C        0.4530     4.8720    -1.0610 C.2   1 <1>  -0.3020 
 13 N       -5.2170     0.2280     0.3870 N.am  1 <1>  -0.6600 
 14 C       -5.2360     1.5000     1.1750 C.3   1 <1>   0.1400 
 15 C       -5.6770    -0.9410     0.9530 C.2   1 <1>   0.5690 
 16 O       -6.1230    -0.9590     2.0770 O.2   1 <1>  -0.5700 
 17 C       -5.6510    -2.2690     0.1810 C.3   1 <1>  -0.0190 
 18 C       -6.9690    -2.4900    -0.5830 C.3   1 <1>  -0.1600 
 19 C       -5.3770    -3.4810     1.0970 C.3   1 <1>  -0.1600 
 20 C       -6.9560    -3.8090    -1.3610 C.3   1 <1>   0.1400 
 21 C       -5.3720    -4.7930     0.3090 C.3   1 <1>   0.1400 
 22 N       -6.6570    -4.9340    -0.4320 N.am  1 <1>  -0.6600 
 23 C       -7.5360    -5.9770    -0.2910 C.2   1 <1>   0.5690 
 24 O       -8.5450    -6.0640    -0.9490 O.2   1 <1>  -0.5700 
 25 C       -7.2740    -7.0790     0.7090 C.3   1 <1>  -0.1790 
 26 H       -2.9690    -0.8250    -0.6250 H     1 <1>   0.0800 
 27 H       -2.9710    -0.0200    -2.1600 H     1 <1>   0.0800 
 28 H       -1.8250     1.9820     1.3530 H     1 <1>   0.0800 
 29 H       -2.7640     0.5340     1.4560 H     1 <1>   0.0800 
 30 H        0.5420     3.2160    -2.4150 H     1 <1>   0.2700 
 31 H       -5.2490    -0.3470    -1.6480 H     1 <1>   0.0800 
 32 H       -4.9520     1.3360    -1.4020 H     1 <1>   0.0800 
 33 H       -3.9970     3.0260     0.2880 H     1 <1>   0.0800 
 34 H       -3.8460     2.8780     1.9960 H     1 <1>   0.0800 
 35 H       -0.4500     5.9040     0.6330 H     1 <1>   0.1500 
 36 H        1.2510     5.4980    -1.4160 H     1 <1>   0.1500 
 37 H       -6.0600     2.1080     0.8420 H     1 <1>   0.0800 
 38 H       -5.4110     1.2750     2.2140 H     1 <1>   0.0800 
 39 H       -4.8480    -2.2410    -0.5300 H     1 <1>   0.0800 
 40 H       -7.1420    -1.6790    -1.2660 H     1 <1>   0.0800 
 41 H       -7.7910    -2.5070     0.1130 H     1 <1>   0.0800 
 42 H       -6.1340    -3.5420     1.8610 H     1 <1>   0.0800 
 43 H       -4.4290    -3.3540     1.5880 H     1 <1>   0.0800 
 44 H       -6.2050    -3.7800    -2.1300 H     1 <1>   0.0800 
 45 H       -7.9120    -3.9510    -1.8370 H     1 <1>   0.0800 
 46 H       -5.2160    -5.6130     0.9850 H     1 <1>   0.0800 
 47 H       -4.5610    -4.7910    -0.3990 H     1 <1>   0.0800 
 48 H       -7.1950    -6.6650     1.6960 H     1 <1>   0.0800 
 49 H       -6.3700    -7.5970     0.4530 H     1 <1>   0.0800 
 50 H       -8.0880    -7.7800     0.6960 H     1 <1>   0.0800 
@<TRIPOS>BOND
  1   1   2  2   
  2   2   3  am  
  3   2   4  1   
  4   3   5  1   
  5   3   6  1   
  6   4   7  2   
  7   4   8  1   
  8   5   9  1   
  9   5  26  1   
 10   5  27  1   
 11   6  10  1   
 12   6  28  1   
 13   6  29  1   
 14   7  11  1   
 15   8  12  1   
 16   8  30  1   
 17   9  13  1   
 18   9  31  1   
 19   9  32  1   
 20  10  14  1   
 21  10  33  1   
 22  10  34  1   
 23  11  12  2   
 24  11  35  1   
 25  12  36  1   
 26  13  14  1   
 27  13  15  am  
 28  14  37  1   
 29  14  38  1   
 30  15  16  2   
 31  15  17  1   
 32  17  18  1   
 33  17  19  1   
 34  17  39  1   
 35  18  20  1   
 36  18  40  1   
 37  18  41  1   
 38  19  21  1   
 39  19  42  1   
 40  19  43  1   
 41  20  22  1   
 42  20  44  1   
 43  20  45  1   
 44  21  22  1   
 45  21  46  1   
 46  21  47  1   
 47  22  23  am  
 48  23  24  2   
 49  23  25  1   
 50  25  48  1   
 51  25  49  1   
 52  25  50  1   
@<TRIPOS>SUBSTRUCTURE
  1 ****   9 GROUP 4 **** **** 0

# MOE 2024.06 (io_trps.svl 2023.06)
