@<TRIPOS>MOLECULE
NONAME
47 48 1 0 0 
SMALL
USER_CHARGES


@<TRIPOS>ATOM
  1 O        1.0100    -0.3670     0.8930 O.2   1 <1>  -0.5700 
  2 C        0.8420    -0.8780    -0.1910 C.2   1 <1>   0.5690 
  3 N        1.3870    -0.3430    -1.3210 N.am  1 <1>  -0.7300 
  4 C        0.0680    -2.2030    -0.2820 C.3   1 <1>   0.2610 
  5 C        2.4110     0.7250    -1.3210 C.3   1 <1>   0.1400 
  6 O        0.7820    -3.1260    -1.1030 O.3   1 <1>  -0.3620 
  7 C       -1.3590    -2.0320    -0.8580 C.3   1 <1>  -0.0800 
  8 C        3.8070     0.0930    -1.2880 C.3   1 <1>   0.0200 
  9 C        2.0790    -3.4360    -0.8500 C.ar  1 <1>   0.0820 
 10 C       -2.2100    -1.0890     0.0090 C.3   1 <1>  -0.2400 
 11 C       -2.0920    -3.3780    -0.9910 C.3   1 <1>  -0.2400 
 12 C        4.7780     0.9770    -0.5300 C.2   1 <1>   0.0060 
 13 C        2.6760    -3.2960     0.4000 C.ar  1 <1>  -0.1500 
 14 C        2.8340    -3.8890    -1.9200 C.ar  1 <1>  -0.1500 
 15 N        5.6750     1.7070    -1.0860 N.2   1 <1>  -0.5650 
 16 N        4.8100     1.0950     0.8070 N.pl3 1 <1>   0.3140 
 17 C        4.0230    -3.5760     0.5680 C.ar  1 <1>  -0.1440 
 18 C        4.1760    -4.1740    -1.7550 C.ar  1 <1>  -0.1500 
 19 C        6.2540     2.2740    -0.0200 C.2   1 <1>   0.3660 
 20 N        5.7740     1.9420     1.1320 N.2   1 <1>  -0.7070 
 21 C        3.9560     0.4610     1.8240 C.3   1 <1>   0.0160 
 22 C        4.7690    -4.0130    -0.5140 C.ar  1 <1>  -0.1500 
 23 C        4.6910    -3.4140     1.9220 C.3   1 <1>  -0.0970 
 24 H        1.3110    -0.8900    -2.1830 H     1 <1>   0.3700 
 25 H       -0.0060    -2.6340     0.6990 H     1 <1>   0.0800 
 26 H        2.2660     1.3480    -0.4550 H     1 <1>   0.0800 
 27 H        2.3040     1.3450    -2.1940 H     1 <1>   0.0800 
 28 H       -1.2740    -1.5920    -1.8380 H     1 <1>   0.0800 
 29 H        4.1610    -0.0460    -2.2930 H     1 <1>   0.0800 
 30 H        3.7800    -0.8700    -0.8110 H     1 <1>   0.0800 
 31 H       -2.2990    -1.4700     1.0110 H     1 <1>   0.0800 
 32 H       -3.1980    -0.9870    -0.4060 H     1 <1>   0.0800 
 33 H       -1.7710    -0.1070     0.0560 H     1 <1>   0.0800 
 34 H       -2.1790    -3.8600    -0.0330 H     1 <1>   0.0800 
 35 H       -1.5610    -4.0370    -1.6570 H     1 <1>   0.0800 
 36 H       -3.0790    -3.2300    -1.3920 H     1 <1>   0.0800 
 37 H        2.1050    -2.9690     1.2480 H     1 <1>   0.1500 
 38 H        2.3670    -4.0130    -2.8800 H     1 <1>   0.1500 
 39 H        4.7610    -4.5220    -2.5890 H     1 <1>   0.1500 
 40 H        7.0730     2.9650    -0.1420 H     1 <1>   0.1500 
 41 H        3.7050    -0.5370     1.5180 H     1 <1>   0.0800 
 42 H        3.0590     1.0390     1.9400 H     1 <1>   0.0800 
 43 H        4.4860     0.4290     2.7580 H     1 <1>   0.0800 
 44 H        5.8160    -4.2340    -0.3940 H     1 <1>   0.1500 
 45 H        3.9940    -3.0510     2.6560 H     1 <1>   0.0800 
 46 H        5.5060    -2.7160     1.8470 H     1 <1>   0.0800 
 47 H        5.0750    -4.3610     2.2540 H     1 <1>   0.0800 
@<TRIPOS>BOND
  1   1   2  2   
  2   2   3  am  
  3   2   4  1   
  4   3   5  1   
  5   3  24  1   
  6   4   6  1   
  7   4   7  1   
  8   4  25  1   
  9   5   8  1   
 10   5  26  1   
 11   5  27  1   
 12   6   9  1   
 13   7  10  1   
 14   7  11  1   
 15   7  28  1   
 16   8  12  1   
 17   8  29  1   
 18   8  30  1   
 19   9  13  ar  
 20   9  14  ar  
 21  10  31  1   
 22  10  32  1   
 23  10  33  1   
 24  11  34  1   
 25  11  35  1   
 26  11  36  1   
 27  12  15  2   
 28  12  16  1   
 29  13  17  ar  
 30  13  37  1   
 31  14  18  ar  
 32  14  38  1   
 33  15  19  1   
 34  16  20  1   
 35  16  21  1   
 36  17  22  ar  
 37  17  23  1   
 38  18  22  ar  
 39  18  39  1   
 40  19  20  2   
 41  19  40  1   
 42  21  41  1   
 43  21  42  1   
 44  21  43  1   
 45  22  44  1   
 46  23  45  1   
 47  23  46  1   
 48  23  47  1   
@<TRIPOS>SUBSTRUCTURE
  1 ****   2 GROUP 4 **** **** 0

# MOE 2024.06 (io_trps.svl 2023.06)
