@<TRIPOS>MOLECULE
NONAME
47 49 1 0 0 
SMALL
USER_CHARGES


@<TRIPOS>ATOM
  1 O       -0.8850     0.0950    -0.4450 O.2   1 <1>  -0.5700 
  2 C       -1.9310    -0.0240     0.1660 C.2   1 <1>   0.7150 
  3 N       -2.2700    -1.2900     0.6190 N.am  1 <1>  -0.6600 
  4 C       -2.7770     1.1410     0.3390 C.2   1 <1>   0.0550 
  5 C       -3.4060    -1.5800     1.5440 C.3   1 <1>   0.1400 
  6 C       -1.5240    -2.4960     0.1730 C.3   1 <1>   0.1400 
  7 O       -4.1000     1.0520     0.4900 O.3   1 <1>  -0.2800 
  8 C       -2.4370     2.4600     0.3420 C.2   1 <1>  -0.1500 
  9 C       -4.6690    -2.0180     0.7770 C.3   1 <1>   0.3430 
 10 C       -2.1100    -3.0160    -1.1450 C.3   1 <1>  -0.1600 
 11 C       -4.5970     2.2650     0.5990 C.2   1 <1>  -0.0100 
 12 C       -3.6150     3.1860     0.5160 C.2   1 <1>  -0.1500 
 13 N       -4.4180    -3.1350    -0.2050 N.4   1 <1>  -0.9590 
 14 C       -3.5960    -2.7140    -1.3730 C.3   1 <1>   0.3430 
 15 C       -5.6950    -3.7950    -0.5980 C.3   1 <1>   0.5230 
 16 C       -6.1860    -4.6460     0.5640 C.2   1 <1>   0.0060 
 17 N       -5.4280    -4.9690     1.5590 N.2   1 <1>  -0.3380 
 18 N       -7.4220    -5.1550     0.7000 N.pl3 1 <1>   0.0480 
 19 N       -6.1610    -5.6990     2.3890 N.2   1 <1>  -0.3380 
 20 C       -7.3320    -5.8010     1.8660 C.2   1 <1>   0.0360 
 21 C       -8.6450    -5.0840    -0.1450 C.3   1 <1>   0.1760 
 22 C       -8.3770    -5.6120    -1.5600 C.3   1 <1>  -0.2400 
 23 C       -9.2060    -3.6580    -0.1760 C.3   1 <1>  -0.2400 
 24 H       -3.6300    -0.7110     2.1400 H     1 <1>   0.0800 
 25 H       -3.1230    -2.3570     2.2340 H     1 <1>   0.0800 
 26 H       -1.5860    -3.2590     0.9310 H     1 <1>   0.0800 
 27 H       -0.4790    -2.2630     0.0440 H     1 <1>   0.0800 
 28 H       -1.4520     2.8780     0.2290 H     1 <1>   0.1500 
 29 H       -5.0740    -1.1630     0.2600 H     1 <1>   0.0800 
 30 H       -5.3990    -2.3350     1.5040 H     1 <1>   0.0800 
 31 H       -1.9320    -4.0730    -1.2200 H     1 <1>   0.0800 
 32 H       -1.5600    -2.5570    -1.9490 H     1 <1>   0.0800 
 33 H       -5.6580     2.3950     0.7330 H     1 <1>   0.1500 
 34 H       -3.6910     4.2590     0.5660 H     1 <1>   0.1500 
 35 H       -3.9170    -3.8700     0.3200 H     1 <1>   0.4500 
 36 H       -3.9170    -3.2310    -2.2630 H     1 <1>   0.0800 
 37 H       -3.7210    -1.6560    -1.5410 H     1 <1>   0.0800 
 38 H       -5.5290    -4.4380    -1.4460 H     1 <1>   0.0800 
 39 H       -6.4300    -3.0530    -0.8620 H     1 <1>   0.0800 
 40 H       -8.1510    -6.3410     2.3080 H     1 <1>   0.1500 
 41 H       -9.3850    -5.7220     0.3090 H     1 <1>   0.0800 
 42 H       -7.7260    -4.9640    -2.1160 H     1 <1>   0.0800 
 43 H       -9.3070    -5.6800    -2.0980 H     1 <1>   0.0800 
 44 H       -7.9510    -6.6000    -1.5160 H     1 <1>   0.0800 
 45 H       -8.5430    -2.9770    -0.6740 H     1 <1>   0.0800 
 46 H       -9.3910    -3.3090     0.8250 H     1 <1>   0.0800 
 47 H      -10.1440    -3.6520    -0.7030 H     1 <1>   0.0800 
@<TRIPOS>BOND
  1   1   2  2   
  2   2   3  am  
  3   2   4  1   
  4   3   5  1   
  5   3   6  1   
  6   4   7  1   
  7   4   8  2   
  8   5   9  1   
  9   5  24  1   
 10   5  25  1   
 11   6  10  1   
 12   6  26  1   
 13   6  27  1   
 14   7  11  1   
 15   8  12  1   
 16   8  28  1   
 17   9  13  1   
 18   9  29  1   
 19   9  30  1   
 20  10  14  1   
 21  10  31  1   
 22  10  32  1   
 23  11  12  2   
 24  11  33  1   
 25  12  34  1   
 26  13  14  1   
 27  13  15  1   
 28  13  35  1   
 29  14  36  1   
 30  14  37  1   
 31  15  16  1   
 32  15  38  1   
 33  15  39  1   
 34  16  17  2   
 35  16  18  1   
 36  17  19  1   
 37  18  20  1   
 38  18  21  1   
 39  19  20  2   
 40  20  40  1   
 41  21  22  1   
 42  21  23  1   
 43  21  41  1   
 44  22  42  1   
 45  22  43  1   
 46  22  44  1   
 47  23  45  1   
 48  23  46  1   
 49  23  47  1   
@<TRIPOS>SUBSTRUCTURE
  1 ****   9 GROUP 4 **** **** 0

# MOE 2024.06 (io_trps.svl 2023.06)
