@<TRIPOS>MOLECULE
NONAME
45 47 1 0 0 
SMALL
USER_CHARGES


@<TRIPOS>ATOM
  1 O        0.8180    -2.1660     0.6270 O.3   1 <1>  -0.5600 
  2 C        0.1570    -2.2760    -0.6150 C.3   1 <1>   0.4180 
  3 C        0.6170    -0.9830     1.3600 C.3   1 <1>   0.1200 
  4 C       -1.2540    -1.7100    -0.5330 C.2   1 <1>  -0.2880 
  5 C        0.1040    -3.7770    -0.9320 C.3   1 <1>  -0.1600 
  6 C        0.9990    -1.5710    -1.6850 C.3   1 <1>  -0.1600 
  7 C       -0.8590    -0.8260     1.7440 C.3   1 <1>  -0.0220 
  8 C       -1.7380    -1.0650     0.5300 C.2   1 <1>  -0.2760 
  9 C        1.4520    -4.3660    -1.3660 C.3   1 <1>   0.3430 
 10 C        2.4260    -2.1260    -1.7740 C.3   1 <1>   0.3430 
 11 C       -3.1560    -0.5330     0.6410 C.3   1 <1>  -0.1020 
 12 N        2.5480    -3.4210    -1.0300 N.4   1 <1>  -0.9590 
 13 C        3.9060    -4.0270    -1.0680 C.3   1 <1>   0.4860 
 14 C        4.9070    -3.0350    -0.5240 C.ar  1 <1>  -0.1430 
 15 C        4.9580    -2.7170     0.8150 C.ar  1 <1>   0.1600 
 16 C        5.8020    -2.3970    -1.3510 C.ar  1 <1>   0.1600 
 17 N        5.7990    -1.8330     1.2910 N.ar  1 <1>  -0.6200 
 18 N        6.6510    -1.5070    -0.9040 N.ar  1 <1>  -0.6200 
 19 C        6.6120    -1.2670     0.4000 C.ar  1 <1>   0.7030 
 20 O        7.4930    -0.3530     0.8300 O.3   1 <1>  -0.3630 
 21 C        7.6130    -0.0030     2.1950 C.3   1 <1>   0.0400 
 22 H        0.9380    -0.1470     0.7630 H     1 <1>   0.0800 
 23 H        1.2270    -1.0300     2.2460 H     1 <1>   0.0800 
 24 H       -1.8390    -1.8860    -1.4190 H     1 <1>   0.1500 
 25 H       -0.6010    -3.9520    -1.7250 H     1 <1>   0.0800 
 26 H       -0.2680    -4.3010    -0.0700 H     1 <1>   0.0800 
 27 H        1.0280    -0.5130    -1.4990 H     1 <1>   0.0800 
 28 H        0.5210    -1.6970    -2.6390 H     1 <1>   0.0800 
 29 H       -1.0100     0.1690     2.1220 H     1 <1>   0.0800 
 30 H       -1.1140    -1.5220     2.5240 H     1 <1>   0.0800 
 31 H        1.4440    -4.5450    -2.4290 H     1 <1>   0.0800 
 32 H        1.6020    -5.3090    -0.8640 H     1 <1>   0.0800 
 33 H        3.1030    -1.4050    -1.3430 H     1 <1>   0.0800 
 34 H        2.6970    -2.2610    -2.8090 H     1 <1>   0.0800 
 35 H       -3.6570    -0.9850     1.4790 H     1 <1>   0.0800 
 36 H       -3.7160    -0.7550    -0.2490 H     1 <1>   0.0800 
 37 H       -3.1450     0.5340     0.7780 H     1 <1>   0.0800 
 38 H        2.3410    -3.1440    -0.0480 H     1 <1>   0.4500 
 39 H        4.1640    -4.2920    -2.0810 H     1 <1>   0.0800 
 40 H        3.9270    -4.9220    -0.4670 H     1 <1>   0.0800 
 41 H        4.2940    -3.1910     1.5210 H     1 <1>   0.1500 
 42 H        5.8300    -2.6080    -2.4080 H     1 <1>   0.1500 
 43 H        8.3840     0.7410     2.2850 H     1 <1>   0.0800 
 44 H        7.8800    -0.8800     2.7580 H     1 <1>   0.0800 
 45 H        6.6740     0.3950     2.5380 H     1 <1>   0.0800 
@<TRIPOS>BOND
  1   1   2  1   
  2   1   3  1   
  3   2   4  1   
  4   2   5  1   
  5   2   6  1   
  6   3   7  1   
  7   3  22  1   
  8   3  23  1   
  9   4   8  2   
 10   4  24  1   
 11   5   9  1   
 12   5  25  1   
 13   5  26  1   
 14   6  10  1   
 15   6  27  1   
 16   6  28  1   
 17   7   8  1   
 18   7  29  1   
 19   7  30  1   
 20   8  11  1   
 21   9  12  1   
 22   9  31  1   
 23   9  32  1   
 24  10  12  1   
 25  10  33  1   
 26  10  34  1   
 27  11  35  1   
 28  11  36  1   
 29  11  37  1   
 30  12  13  1   
 31  12  38  1   
 32  13  14  1   
 33  13  39  1   
 34  13  40  1   
 35  14  15  ar  
 36  14  16  ar  
 37  15  17  ar  
 38  15  41  1   
 39  16  18  ar  
 40  16  42  1   
 41  17  19  ar  
 42  18  19  ar  
 43  19  20  1   
 44  20  21  1   
 45  21  43  1   
 46  21  44  1   
 47  21  45  1   
@<TRIPOS>SUBSTRUCTURE
  1 ****  12 GROUP 4 **** **** 0

# MOE 2024.06 (io_trps.svl 2023.06)
