@<TRIPOS>MOLECULE
NONAME
56 59 1 0 0 
SMALL
USER_CHARGES


@<TRIPOS>ATOM
  1 O        1.3330    -1.3110     2.1940 O.2   1 <1>  -0.5700 
  2 C        1.5060    -1.9950     1.1990 C.2   1 <1>   0.5440 
  3 N        1.1530    -1.4390    -0.0180 N.am  1 <1>  -0.6600 
  4 C        2.0980    -3.3270     1.3550 C.ar  1 <1>   0.3960 
  5 C        0.6540    -0.0520    -0.1500 C.3   1 <1>   0.1400 
  6 C        1.3820    -2.0430    -1.3520 C.3   1 <1>   0.1400 
  7 N        1.7620    -4.3450     0.5420 N.ar  1 <1>  -0.6200 
  8 C        3.0200    -3.5020     2.3930 C.ar  1 <1>   0.1600 
  9 C        0.9350     0.3230    -1.6000 C.3   1 <1>  -0.1600 
 10 C        0.8880    -1.0030    -2.3530 C.3   1 <1>  -0.1600 
 11 C        2.3810    -5.4710     0.8210 C.ar  1 <1>   0.4100 
 12 N        3.6630    -4.6280     2.6780 N.ar  1 <1>  -0.6200 
 13 N        2.0180    -6.5080     0.0050 N.pl3 1 <1>  -0.8690 
 14 C        3.3190    -5.5970     1.8570 C.ar  1 <1>   0.1600 
 15 C        1.5320    -7.7760     0.5720 C.3   1 <1>   0.2890 
 16 C        1.7480    -8.8860    -0.4530 C.3   1 <1>  -0.1600 
 17 C        0.0510    -7.6320     0.9250 C.3   1 <1>  -0.1600 
 18 C        1.1600   -10.2070     0.0470 C.3   1 <1>   0.1400 
 19 C       -0.5160    -8.9630     1.4200 C.3   1 <1>   0.1400 
 20 N       -0.2790   -10.0130     0.3890 N.am  1 <1>  -0.6600 
 21 C       -1.2560   -10.7520    -0.2440 C.2   1 <1>   0.5690 
 22 O       -0.9640   -11.5840    -1.0730 O.2   1 <1>  -0.5700 
 23 C       -2.7450   -10.5390     0.0720 C.3   1 <1>  -0.0190 
 24 C       -3.6930   -11.6470    -0.4010 C.3   1 <1>  -0.1600 
 25 C       -3.3380    -9.2870    -0.5840 C.3   1 <1>  -0.1600 
 26 C       -5.0810   -11.0060    -0.3790 C.3   1 <1>  -0.1600 
 27 C       -4.8550    -9.5050    -0.5920 C.3   1 <1>  -0.1600 
 28 H        1.1560     0.6110     0.5350 H     1 <1>   0.0800 
 29 H       -0.4040    -0.0420     0.0480 H     1 <1>   0.0800 
 30 H        0.8330    -2.9630    -1.4560 H     1 <1>   0.0800 
 31 H        2.4340    -2.2290    -1.4830 H     1 <1>   0.0800 
 32 H        3.2380    -2.6550     3.0200 H     1 <1>   0.1500 
 33 H        1.9210     0.7480    -1.6640 H     1 <1>   0.0800 
 34 H        0.2200     1.0350    -1.9730 H     1 <1>   0.0800 
 35 H       -0.1280    -1.2340    -2.6210 H     1 <1>   0.0800 
 36 H        1.4900    -0.9900    -3.2440 H     1 <1>   0.0800 
 37 H        1.4030    -6.1740    -0.7410 H     1 <1>   0.4000 
 38 H        3.7940    -6.5510     1.9880 H     1 <1>   0.1500 
 39 H        2.0870    -8.0140     1.4640 H     1 <1>   0.0800 
 40 H        2.8010    -9.0120    -0.6320 H     1 <1>   0.0800 
 41 H        1.2740    -8.6300    -1.3840 H     1 <1>   0.0800 
 42 H       -0.5060    -7.3160     0.0610 H     1 <1>   0.0800 
 43 H       -0.0660    -6.8910     1.6950 H     1 <1>   0.0800 
 44 H        1.6880   -10.5410     0.9240 H     1 <1>   0.0800 
 45 H        1.2800   -10.9610    -0.7130 H     1 <1>   0.0800 
 46 H       -1.5610    -8.8430     1.6360 H     1 <1>   0.0800 
 47 H       -0.0240    -9.2540     2.3320 H     1 <1>   0.0800 
 48 H       -2.8640   -10.4690     1.1370 H     1 <1>   0.0800 
 49 H       -3.6350   -12.5210     0.2240 H     1 <1>   0.0800 
 50 H       -3.4540   -11.9250    -1.4140 H     1 <1>   0.0800 
 51 H       -2.9860    -9.2260    -1.6000 H     1 <1>   0.0800 
 52 H       -3.0670    -8.3840    -0.0670 H     1 <1>   0.0800 
 53 H       -5.5370   -11.1680     0.5830 H     1 <1>   0.0800 
 54 H       -5.7150   -11.4260    -1.1410 H     1 <1>   0.0800 
 55 H       -5.2760    -9.1800    -1.5280 H     1 <1>   0.0800 
 56 H       -5.3170    -8.9510     0.2070 H     1 <1>   0.0800 
@<TRIPOS>BOND
  1   1   2  2   
  2   2   3  am  
  3   2   4  1   
  4   3   5  1   
  5   3   6  1   
  6   4   7  ar  
  7   4   8  ar  
  8   5   9  1   
  9   5  28  1   
 10   5  29  1   
 11   6  10  1   
 12   6  30  1   
 13   6  31  1   
 14   7  11  ar  
 15   8  12  ar  
 16   8  32  1   
 17   9  10  1   
 18   9  33  1   
 19   9  34  1   
 20  10  35  1   
 21  10  36  1   
 22  11  13  1   
 23  11  14  ar  
 24  12  14  ar  
 25  13  15  1   
 26  13  37  1   
 27  14  38  1   
 28  15  16  1   
 29  15  17  1   
 30  15  39  1   
 31  16  18  1   
 32  16  40  1   
 33  16  41  1   
 34  17  19  1   
 35  17  42  1   
 36  17  43  1   
 37  18  20  1   
 38  18  44  1   
 39  18  45  1   
 40  19  20  1   
 41  19  46  1   
 42  19  47  1   
 43  20  21  am  
 44  21  22  2   
 45  21  23  1   
 46  23  24  1   
 47  23  25  1   
 48  23  48  1   
 49  24  26  1   
 50  24  49  1   
 51  24  50  1   
 52  25  27  1   
 53  25  51  1   
 54  25  52  1   
 55  26  27  1   
 56  26  53  1   
 57  26  54  1   
 58  27  55  1   
 59  27  56  1   
@<TRIPOS>SUBSTRUCTURE
  1 ****  17 GROUP 4 **** **** 0

# MOE 2024.06 (io_trps.svl 2023.06)
