@<TRIPOS>MOLECULE
NONAME
51 54 1 0 0 
SMALL
USER_CHARGES


@<TRIPOS>ATOM
  1 O        4.0580    -2.2060     2.9800 O.2   1 <1>  -0.5700 
  2 C        3.1050    -2.4210     2.2640 C.2   1 <1>   0.5690 
  3 N        3.2100    -2.5750     0.9040 N.am  1 <1>  -0.4770 
  4 C        1.7220    -2.4900     2.9000 C.3   1 <1>   0.1810 
  5 C        2.0650    -2.9550     0.1560 C.ar  1 <1>   0.1170 
  6 C        4.5730    -2.5370     0.2630 C.3   1 <1>   0.2010 
  7 O        0.8390    -3.3500     2.1930 O.3   1 <1>  -0.3630 
  8 C        0.9030    -3.3490     0.8360 C.ar  1 <1>   0.0830 
  9 C        2.0330    -2.9720    -1.2370 C.ar  1 <1>  -0.1500 
 10 C        4.8650    -1.2840    -0.5710 C.2   1 <1>   0.5690 
 11 C       -0.2230    -3.7600     0.1470 C.ar  1 <1>  -0.1500 
 12 C        0.9030    -3.3730    -1.9320 C.ar  1 <1>  -0.1440 
 13 O        5.0380    -1.4370    -1.7590 O.2   1 <1>  -0.5700 
 14 N        4.9720    -0.0380    -0.0070 N.am  1 <1>  -0.6600 
 15 C       -0.2250    -3.7720    -1.2360 C.ar  1 <1>  -0.1500 
 16 C        0.9050    -3.3800    -3.4500 C.3   1 <1>  -0.0970 
 17 C        5.2910     1.1750    -0.7990 C.3   1 <1>   0.1400 
 18 C        4.9660     0.2830     1.4390 C.3   1 <1>   0.1400 
 19 C        6.0250     2.0770     0.1840 C.3   1 <1>   0.1760 
 20 C        5.3960     1.7470     1.5400 C.3   1 <1>  -0.1600 
 21 N        5.9120     3.5120    -0.1820 N.pl3 1 <1>   0.3140 
 22 N        4.7170     4.1170    -0.3490 N.2   1 <1>  -0.7070 
 23 C        6.9280     4.3840    -0.3930 C.2   1 <1>  -0.3320 
 24 C        4.9970     5.3420    -0.6580 C.2   1 <1>   0.1080 
 25 C        6.3660     5.5710    -0.7020 C.2   1 <1>  -0.1500 
 26 C        8.4090     4.0570    -0.2940 C.3   1 <1>  -0.0600 
 27 C        3.9280     6.3720    -0.9330 C.3   1 <1>  -0.0590 
 28 H        1.2860    -1.5090     2.9100 H     1 <1>   0.0800 
 29 H        1.7990    -2.8550     3.9070 H     1 <1>   0.0800 
 30 H        4.6700    -3.3960    -0.3750 H     1 <1>   0.0800 
 31 H        5.3390    -2.6230     1.0100 H     1 <1>   0.0800 
 32 H        2.8900    -2.6720    -1.8070 H     1 <1>   0.1500 
 33 H       -1.0950    -4.0670     0.6950 H     1 <1>   0.1500 
 34 H       -1.1060    -4.0920    -1.7650 H     1 <1>   0.1500 
 35 H        1.5750    -2.6300    -3.8300 H     1 <1>   0.0800 
 36 H       -0.0800    -3.1750    -3.8290 H     1 <1>   0.0800 
 37 H        1.2220    -4.3420    -3.8100 H     1 <1>   0.0800 
 38 H        4.3690     1.6280    -1.1240 H     1 <1>   0.0800 
 39 H        5.9050     0.9380    -1.6500 H     1 <1>   0.0800 
 40 H        5.6610    -0.3550     1.9590 H     1 <1>   0.0800 
 41 H        3.9780     0.1560     1.8480 H     1 <1>   0.0800 
 42 H        7.0600     1.7940     0.1910 H     1 <1>   0.0800 
 43 H        6.0830     1.9000     2.3510 H     1 <1>   0.0800 
 44 H        4.5180     2.3500     1.7010 H     1 <1>   0.0800 
 45 H        6.8440     6.5050    -0.9360 H     1 <1>   0.1500 
 46 H        8.6710     3.2940    -1.0050 H     1 <1>   0.0800 
 47 H        8.6500     3.7170     0.6970 H     1 <1>   0.0800 
 48 H        8.9950     4.9340    -0.5050 H     1 <1>   0.0800 
 49 H        3.3300     6.0520    -1.7670 H     1 <1>   0.0800 
 50 H        4.3710     7.3230    -1.1590 H     1 <1>   0.0800 
 51 H        3.2970     6.4700    -0.0690 H     1 <1>   0.0800 
@<TRIPOS>BOND
  1   1   2  2   
  2   2   3  am  
  3   2   4  1   
  4   3   5  1   
  5   3   6  1   
  6   4   7  1   
  7   4  28  1   
  8   4  29  1   
  9   5   8  ar  
 10   5   9  ar  
 11   6  10  1   
 12   6  30  1   
 13   6  31  1   
 14   7   8  1   
 15   8  11  ar  
 16   9  12  ar  
 17   9  32  1   
 18  10  13  2   
 19  10  14  am  
 20  11  15  ar  
 21  11  33  1   
 22  12  15  ar  
 23  12  16  1   
 24  14  17  1   
 25  14  18  1   
 26  15  34  1   
 27  16  35  1   
 28  16  36  1   
 29  16  37  1   
 30  17  19  1   
 31  17  38  1   
 32  17  39  1   
 33  18  20  1   
 34  18  40  1   
 35  18  41  1   
 36  19  20  1   
 37  19  21  1   
 38  19  42  1   
 39  20  43  1   
 40  20  44  1   
 41  21  22  1   
 42  21  23  1   
 43  22  24  2   
 44  23  25  2   
 45  23  26  1   
 46  24  25  1   
 47  24  27  1   
 48  25  45  1   
 49  26  46  1   
 50  26  47  1   
 51  26  48  1   
 52  27  49  1   
 53  27  50  1   
 54  27  51  1   
@<TRIPOS>SUBSTRUCTURE
  1 ****  14 GROUP 4 **** **** 0

# MOE 2024.06 (io_trps.svl 2023.06)
