@<TRIPOS>MOLECULE
NONAME
47 50 1 0 0 
SMALL
USER_CHARGES


@<TRIPOS>ATOM
  1 S       -0.1650     0.3670     0.2640 S.3   1 <1>  -0.2860 
  2 C       -1.4840    -0.2330     1.3160 C.2   1 <1>   0.2420 
  3 C       -0.3310     2.2040     0.4260 C.3   1 <1>   0.2500 
  4 N       -2.2910     0.5160     1.9790 N.2   1 <1>  -0.3380 
  5 N       -1.7140    -1.5280     1.4770 N.pl3 1 <1>   0.0330 
  6 C        0.7400     2.8990    -0.3980 C.2   1 <1>  -0.0400 
  7 N       -3.1120    -0.3220     2.6260 N.2   1 <1>  -0.3380 
  8 C       -2.7530    -1.5230     2.3150 C.2   1 <1>   0.0360 
  9 O        0.7840     4.2120    -0.3690 O.3   1 <1>  -0.2800 
 10 C        1.7140     2.4230    -1.2060 C.2   1 <1>  -0.1500 
 11 C        1.7770     4.6380    -1.1450 C.2   1 <1>   0.0550 
 12 C        2.3830     3.5460    -1.6920 C.2   1 <1>  -0.1500 
 13 C        2.0540     6.0520    -1.2990 C.2   1 <1>   0.7150 
 14 O        1.1370     6.8530    -1.3650 O.2   1 <1>  -0.5700 
 15 N        3.3490     6.5300    -1.3890 N.am  1 <1>  -0.6600 
 16 C        3.6380     7.9130    -1.8710 C.3   1 <1>   0.1400 
 17 C        4.5160     5.8520    -0.7610 C.3   1 <1>   0.1400 
 18 C        4.1190     8.7870    -0.7030 C.3   1 <1>  -0.0190 
 19 C        5.0320     6.6980     0.4090 C.3   1 <1>  -0.1600 
 20 C        4.4440    10.2070    -1.1780 C.2   1 <1>   0.4230 
 21 C        5.3380     8.1430    -0.0150 C.3   1 <1>  -0.1600 
 22 O        4.9360    10.3260    -2.2770 O.2   1 <1>  -0.5700 
 23 C        4.1700    11.3420    -0.3090 C.ar  1 <1>   0.3960 
 24 N        3.8270    11.1360     0.9740 N.ar  1 <1>  -0.6200 
 25 C        4.2750    12.6380    -0.8230 C.ar  1 <1>  -0.1500 
 26 C        3.5890    12.2000     1.7180 C.ar  1 <1>   0.1600 
 27 C        4.0260    13.7420    -0.0390 C.ar  1 <1>  -0.1500 
 28 C        3.6710    13.5060     1.2700 C.ar  1 <1>  -0.1500 
 29 H       -0.2300     2.4440     1.4700 H     1 <1>   0.0800 
 30 H       -1.3150     2.4700     0.0840 H     1 <1>   0.0800 
 31 H       -1.2080    -2.3080     1.0560 H     1 <1>   0.2700 
 32 H       -3.2240    -2.4190     2.6780 H     1 <1>   0.1500 
 33 H        1.9480     1.4020    -1.4480 H     1 <1>   0.1500 
 34 H        3.2130     3.5310    -2.3750 H     1 <1>   0.1500 
 35 H        2.7620     8.3520    -2.3170 H     1 <1>   0.0800 
 36 H        4.4000     7.8630    -2.6300 H     1 <1>   0.0800 
 37 H        5.2920     5.7340    -1.4990 H     1 <1>   0.0800 
 38 H        4.2470     4.8770    -0.3940 H     1 <1>   0.0800 
 39 H        3.3050     8.8340    -0.0010 H     1 <1>   0.0800 
 40 H        5.9200     6.2440     0.8100 H     1 <1>   0.0800 
 41 H        4.2880     6.7010     1.1870 H     1 <1>   0.0800 
 42 H        5.6120     8.7210     0.8520 H     1 <1>   0.0800 
 43 H        6.1730     8.1470    -0.6950 H     1 <1>   0.0800 
 44 H        4.5570    12.7720    -1.8530 H     1 <1>   0.1500 
 45 H        3.3110    12.0260     2.7440 H     1 <1>   0.1500 
 46 H        4.1040    14.7420    -0.4310 H     1 <1>   0.1500 
 47 H        3.4610    14.3220     1.9380 H     1 <1>   0.1500 
@<TRIPOS>BOND
  1   1   2  1   
  2   1   3  1   
  3   2   4  2   
  4   2   5  1   
  5   3   6  1   
  6   3  29  1   
  7   3  30  1   
  8   4   7  1   
  9   5   8  1   
 10   5  31  1   
 11   6   9  1   
 12   6  10  2   
 13   7   8  2   
 14   8  32  1   
 15   9  11  1   
 16  10  12  1   
 17  10  33  1   
 18  11  12  2   
 19  11  13  1   
 20  12  34  1   
 21  13  14  2   
 22  13  15  am  
 23  15  16  1   
 24  15  17  1   
 25  16  18  1   
 26  16  35  1   
 27  16  36  1   
 28  17  19  1   
 29  17  37  1   
 30  17  38  1   
 31  18  20  1   
 32  18  21  1   
 33  18  39  1   
 34  19  21  1   
 35  19  40  1   
 36  19  41  1   
 37  20  22  2   
 38  20  23  1   
 39  21  42  1   
 40  21  43  1   
 41  23  24  ar  
 42  23  25  ar  
 43  24  26  ar  
 44  25  27  ar  
 45  25  44  1   
 46  26  28  ar  
 47  26  45  1   
 48  27  28  ar  
 49  27  46  1   
 50  28  47  1   
@<TRIPOS>SUBSTRUCTURE
  1 ****  13 GROUP 4 **** **** 0

# MOE 2024.06 (io_trps.svl 2023.06)
