@<TRIPOS>MOLECULE
NONAME
41 43 1 0 0 
SMALL
USER_CHARGES


@<TRIPOS>ATOM
  1 O       -0.7060    -0.1840     2.4540 O.3   1 <1>  -0.5600 
  2 C        0.5190     0.3410     2.0380 C.3   1 <1>   0.1200 
  3 C       -1.6580     0.0180     1.4630 C.3   1 <1>   0.1200 
  4 C        0.2110     1.4330     1.0100 C.3   1 <1>   0.2890 
  5 C       -1.3030     1.3640     0.8430 C.3   1 <1>  -0.0800 
  6 N        0.6120     2.7710     1.4900 N.pl3 1 <1>  -0.8690 
  7 C       -1.7580     1.5200    -0.6160 C.3   1 <1>  -0.0170 
  8 C        0.8250     3.8340     0.6850 C.ar  1 <1>   0.7200 
  9 C       -3.2640     1.3560    -0.7420 C.ar  1 <1>  -0.1440 
 10 N        1.1090     3.6090    -0.5930 N.ar  1 <1>  -0.6200 
 11 N        0.7030     5.0030     1.2900 N.ar  1 <1>  -0.6200 
 12 C       -3.8420     0.2090    -1.2480 C.ar  1 <1>  -0.1500 
 13 C       -4.1330     2.3540    -0.3500 C.ar  1 <1>  -0.1500 
 14 C        1.3080     4.6760    -1.3260 C.ar  1 <1>   0.1670 
 15 C        0.9050     6.0560     0.5390 C.ar  1 <1>   0.1670 
 16 C       -5.2220     0.1180    -1.3310 C.ar  1 <1>   0.1600 
 17 C       -5.4990     2.1620    -0.4750 C.ar  1 <1>   0.1600 
 18 C        1.2170     5.9420    -0.7970 C.ar  1 <1>  -0.1500 
 19 C        1.6440     4.4550    -2.7850 C.3   1 <1>  -0.0970 
 20 C        0.7830     7.4090     1.2050 C.3   1 <1>  -0.0970 
 21 N       -6.0650     1.0660    -0.9540 N.ar  1 <1>  -0.6200 
 22 H        1.0430     0.7230     2.8960 H     1 <1>   0.0800 
 23 H        1.0820    -0.4550     1.5850 H     1 <1>   0.0800 
 24 H       -1.5720    -0.7830     0.7500 H     1 <1>   0.0800 
 25 H       -2.6400     0.0160     1.9060 H     1 <1>   0.0800 
 26 H        0.7250     1.1970     0.0930 H     1 <1>   0.0800 
 27 H       -1.7690     2.1260     1.4430 H     1 <1>   0.0800 
 28 H        0.2530     3.0420     2.4040 H     1 <1>   0.4000 
 29 H       -1.2600     0.7950    -1.2370 H     1 <1>   0.0800 
 30 H       -1.4780     2.4960    -0.9730 H     1 <1>   0.0800 
 31 H       -3.2360    -0.6130    -1.5790 H     1 <1>   0.1500 
 32 H       -3.7590     3.2790     0.0520 H     1 <1>   0.1500 
 33 H       -5.6550    -0.7840    -1.7280 H     1 <1>   0.1500 
 34 H       -6.1600     2.9510    -0.1620 H     1 <1>   0.1500 
 35 H        1.3830     6.8110    -1.4040 H     1 <1>   0.1500 
 36 H        1.7930     5.3890    -3.2940 H     1 <1>   0.0800 
 37 H        0.8420     3.9220    -3.2620 H     1 <1>   0.0800 
 38 H        2.5420     3.8690    -2.8610 H     1 <1>   0.0800 
 39 H        0.9700     8.2040     0.5070 H     1 <1>   0.0800 
 40 H        1.4920     7.4780     2.0100 H     1 <1>   0.0800 
 41 H       -0.2070     7.5230     1.6080 H     1 <1>   0.0800 
@<TRIPOS>BOND
  1   1   2  1   
  2   1   3  1   
  3   2   4  1   
  4   2  22  1   
  5   2  23  1   
  6   3   5  1   
  7   3  24  1   
  8   3  25  1   
  9   4   5  1   
 10   4   6  1   
 11   4  26  1   
 12   5   7  1   
 13   5  27  1   
 14   6   8  1   
 15   6  28  1   
 16   7   9  1   
 17   7  29  1   
 18   7  30  1   
 19   8  10  ar  
 20   8  11  ar  
 21   9  12  ar  
 22   9  13  ar  
 23  10  14  ar  
 24  11  15  ar  
 25  12  16  ar  
 26  12  31  1   
 27  13  17  ar  
 28  13  32  1   
 29  14  18  ar  
 30  14  19  1   
 31  15  18  ar  
 32  15  20  1   
 33  16  21  ar  
 34  16  33  1   
 35  17  21  ar  
 36  17  34  1   
 37  18  35  1   
 38  19  36  1   
 39  19  37  1   
 40  19  38  1   
 41  20  39  1   
 42  20  40  1   
 43  20  41  1   
@<TRIPOS>SUBSTRUCTURE
  1 ****   7 GROUP 4 **** **** 0

# MOE 2024.06 (io_trps.svl 2023.06)
