@<TRIPOS>MOLECULE
NONAME
56 58 1 0 0 
SMALL
USER_CHARGES


@<TRIPOS>ATOM
  1 F        0.5770     0.9490     1.7280 F     1 <1>  -0.1900 
  2 C        1.6240     1.4330     1.1180 C.ar  1 <1>   0.1900 
  3 C        1.5180     1.7810    -0.2140 C.ar  1 <1>  -0.1500 
  4 C        2.8000     1.5790     1.8260 C.ar  1 <1>  -0.1500 
  5 C        2.6300     2.2980    -0.8570 C.ar  1 <1>  -0.1500 
  6 C        3.9080     2.0980     1.1770 C.ar  1 <1>  -0.1500 
  7 C        3.8250     2.4660    -0.1630 C.ar  1 <1>  -0.1430 
  8 C        5.0350     3.0520    -0.8670 C.3   1 <1>   0.4870 
  9 N        5.2170     4.4580    -0.4060 N.4   1 <1>  -0.9590 
 10 C        4.0640     5.3180    -0.8170 C.3   1 <1>   0.3430 
 11 C        6.5320     5.0070    -0.8500 C.3   1 <1>   0.3430 
 12 C        4.2360     6.7210    -0.2440 C.3   1 <1>  -0.1600 
 13 C        6.7310     6.4110    -0.2790 C.3   1 <1>  -0.1600 
 14 C        5.5710     7.3140    -0.6870 C.3   1 <1>   0.2200 
 15 N        5.7330     8.6440    -0.0850 N.am  1 <1>  -0.7300 
 16 C        5.3460     9.7930    -0.7020 C.2   1 <1>   0.5690 
 17 O        4.8020     9.7610    -1.7790 O.2   1 <1>  -0.5700 
 18 C        5.6080    11.1290    -0.0010 C.3   1 <1>  -0.0190 
 19 C        4.7560    12.2870    -0.5630 C.3   1 <1>  -0.1600 
 20 C        7.1120    11.4910    -0.0440 C.3   1 <1>  -0.1600 
 21 C        4.9230    13.5900     0.2490 C.3   1 <1>   0.2000 
 22 C        7.4020    12.9880     0.1880 C.3   1 <1>  -0.1600 
 23 O        4.8150    14.6830    -0.6300 O.3   1 <1>  -0.5600 
 24 C        6.2860    13.6660     0.9870 C.3   1 <1>   0.2000 
 25 C        3.5170    14.9990    -1.0300 C.3   1 <1>   0.0400 
 26 O        6.6310    14.9890     1.1680 O.3   1 <1>  -0.6800 
 27 H        0.5830     1.6430    -0.7300 H     1 <1>   0.1500 
 28 H        2.8400     1.2880     2.8620 H     1 <1>   0.1500 
 29 H        2.5480     2.5640    -1.8980 H     1 <1>   0.1500 
 30 H        4.8270     2.2030     1.7290 H     1 <1>   0.1500 
 31 H        4.8930     3.0230    -1.9350 H     1 <1>   0.0800 
 32 H        5.9040     2.4640    -0.6210 H     1 <1>   0.0800 
 33 H        5.2050     4.4220     0.6220 H     1 <1>   0.4500 
 34 H        4.0120     5.3740    -1.8920 H     1 <1>   0.0800 
 35 H        3.1380     4.8990    -0.4550 H     1 <1>   0.0800 
 36 H        7.3340     4.3680    -0.5150 H     1 <1>   0.0800 
 37 H        6.5620     5.0530    -1.9270 H     1 <1>   0.0800 
 38 H        4.1720     6.6860     0.8290 H     1 <1>   0.0800 
 39 H        3.4370     7.3430    -0.6080 H     1 <1>   0.0800 
 40 H        7.6490     6.8160    -0.6660 H     1 <1>   0.0800 
 41 H        6.8090     6.3550     0.7920 H     1 <1>   0.0800 
 42 H        5.5690     7.4170    -1.7620 H     1 <1>   0.0800 
 43 H        6.1790     8.6950     0.8310 H     1 <1>   0.3700 
 44 H        5.3220    10.9980     1.0280 H     1 <1>   0.0800 
 45 H        3.7190    12.0020    -0.5650 H     1 <1>   0.0800 
 46 H        5.0570    12.4610    -1.5830 H     1 <1>   0.0800 
 47 H        7.6300    10.9110     0.7000 H     1 <1>   0.0800 
 48 H        7.5200    11.2190    -1.0030 H     1 <1>   0.0800 
 49 H        4.1450    13.6670     0.9900 H     1 <1>   0.0800 
 50 H        7.4790    13.4790    -0.7670 H     1 <1>   0.0800 
 51 H        8.3410    13.1020     0.7010 H     1 <1>   0.0800 
 52 H        6.2120    13.2100     1.9590 H     1 <1>   0.0800 
 53 H        3.5670    15.8640    -1.6680 H     1 <1>   0.0800 
 54 H        2.9210    15.2240    -0.1630 H     1 <1>   0.0800 
 55 H        3.0970    14.1740    -1.5780 H     1 <1>   0.0800 
 56 H        6.2440    15.4710     0.4020 H     1 <1>   0.4000 
@<TRIPOS>BOND
  1   1   2  1   
  2   2   3  ar  
  3   2   4  ar  
  4   3   5  ar  
  5   3  27  1   
  6   4   6  ar  
  7   4  28  1   
  8   5   7  ar  
  9   5  29  1   
 10   6   7  ar  
 11   6  30  1   
 12   7   8  1   
 13   8   9  1   
 14   8  31  1   
 15   8  32  1   
 16   9  10  1   
 17   9  11  1   
 18   9  33  1   
 19  10  12  1   
 20  10  34  1   
 21  10  35  1   
 22  11  13  1   
 23  11  36  1   
 24  11  37  1   
 25  12  14  1   
 26  12  38  1   
 27  12  39  1   
 28  13  14  1   
 29  13  40  1   
 30  13  41  1   
 31  14  15  1   
 32  14  42  1   
 33  15  16  am  
 34  15  43  1   
 35  16  17  2   
 36  16  18  1   
 37  18  19  1   
 38  18  20  1   
 39  18  44  1   
 40  19  21  1   
 41  19  45  1   
 42  19  46  1   
 43  20  22  1   
 44  20  47  1   
 45  20  48  1   
 46  21  23  1   
 47  21  24  1   
 48  21  49  1   
 49  22  24  1   
 50  22  50  1   
 51  22  51  1   
 52  23  25  1   
 53  24  26  1   
 54  24  52  1   
 55  25  53  1   
 56  25  54  1   
 57  25  55  1   
 58  26  56  1   
@<TRIPOS>SUBSTRUCTURE
  1 ****  12 GROUP 4 **** **** 0

# MOE 2024.06 (io_trps.svl 2023.06)
