@<TRIPOS>MOLECULE
NONAME
53 55 1 0 0 
SMALL
USER_CHARGES


@<TRIPOS>ATOM
  1 F        0.1420     0.0980     1.7440 F     1 <1>  -0.1900 
  2 C        1.1940     0.6430     1.1970 C.ar  1 <1>   0.1900 
  3 C        2.2520    -0.1730     0.8100 C.ar  1 <1>   0.0860 
  4 C        1.1880     2.0130     1.0190 C.ar  1 <1>  -0.1500 
  5 C        3.3190     0.4880     0.2070 C.ar  1 <1>   0.1900 
  6 C        2.2430    -1.5940     1.0190 C.2   1 <1>   0.5440 
  7 C        2.2780     2.6310     0.4240 C.ar  1 <1>   0.0830 
  8 F        4.3380    -0.2110    -0.2130 F     1 <1>  -0.1900 
  9 C        3.3580     1.8550     0.0100 C.ar  1 <1>  -0.1500 
 10 O        2.6520    -2.0390     2.0730 O.2   1 <1>  -0.5700 
 11 N        1.7870    -2.4560     0.0480 N.am  1 <1>  -0.6600 
 12 O        2.2170     3.9720     0.2790 O.3   1 <1>  -0.3630 
 13 C        1.7350    -3.9390     0.2870 C.3   1 <1>   0.3640 
 14 C        1.2460    -1.9800    -1.2620 C.3   1 <1>   0.1400 
 15 C        3.2890     4.7140    -0.2630 C.3   1 <1>   0.0400 
 16 C        2.9500    -4.6650    -0.3230 C.ar  1 <1>  -0.1440 
 17 C        0.3820    -4.5300    -0.2280 C.3   1 <1>   0.2000 
 18 C        0.7440    -3.1380    -2.1390 C.3   1 <1>   0.1200 
 19 C        3.0730    -6.0350    -0.1160 C.ar  1 <1>  -0.1500 
 20 C        3.9430    -4.0200    -1.0560 C.ar  1 <1>  -0.1500 
 21 O       -0.1310    -3.9390    -1.4060 O.3   1 <1>  -0.5600 
 22 C       -0.7130    -4.3980     0.8380 C.3   1 <1>   0.1200 
 23 C        4.1300    -6.7540    -0.6480 C.ar  1 <1>   0.0830 
 24 C        5.0160    -4.7250    -1.5760 C.ar  1 <1>  -0.1500 
 25 O       -0.4920    -5.3070     1.8690 O.3   1 <1>  -0.6800 
 26 O        4.1380    -8.0940    -0.4370 O.3   1 <1>  -0.3630 
 27 C        5.1250    -6.0870    -1.3690 C.ar  1 <1>   0.0830 
 28 C        4.0510    -8.9140    -1.5820 C.3   1 <1>   0.0400 
 29 O        6.2170    -6.7130    -1.8700 O.3   1 <1>  -0.3630 
 30 C        7.1400    -7.1960    -0.9200 C.3   1 <1>   0.0400 
 31 H        0.3470     2.6010     1.3390 H     1 <1>   0.1500 
 32 H        4.2220     2.2880    -0.4590 H     1 <1>   0.1500 
 33 H        1.7830    -4.1270     1.3470 H     1 <1>   0.0800 
 34 H        0.4260    -1.3070    -1.0830 H     1 <1>   0.0800 
 35 H        2.0120    -1.4440    -1.7940 H     1 <1>   0.0800 
 36 H        3.0120     5.7530    -0.2550 H     1 <1>   0.0800 
 37 H        3.4630     4.3920    -1.2740 H     1 <1>   0.0800 
 38 H        4.1620     4.5650     0.3460 H     1 <1>   0.0800 
 39 H        0.5030    -5.5730    -0.4500 H     1 <1>   0.0800 
 40 H        1.5570    -3.7450    -2.4950 H     1 <1>   0.0800 
 41 H        0.2060    -2.7550    -2.9880 H     1 <1>   0.0800 
 42 H        2.3450    -6.5690     0.4660 H     1 <1>   0.1500 
 43 H        3.9090    -2.9600    -1.2230 H     1 <1>   0.1500 
 44 H       -1.6810    -4.6030     0.4160 H     1 <1>   0.0800 
 45 H       -0.7050    -3.4080     1.2600 H     1 <1>   0.0800 
 46 H        5.7790    -4.2160    -2.1370 H     1 <1>   0.1500 
 47 H       -0.7620    -6.2080     1.6030 H     1 <1>   0.4000 
 48 H        3.9060    -9.9290    -1.2580 H     1 <1>   0.0800 
 49 H        4.9610    -8.8380    -2.1470 H     1 <1>   0.0800 
 50 H        3.2140    -8.5930    -2.1770 H     1 <1>   0.0800 
 51 H        7.9880    -7.5960    -1.4460 H     1 <1>   0.0800 
 52 H        6.6750    -7.9670    -0.3320 H     1 <1>   0.0800 
 53 H        7.4470    -6.3810    -0.2890 H     1 <1>   0.0800 
@<TRIPOS>BOND
  1   1   2  1   
  2   2   3  ar  
  3   2   4  ar  
  4   3   5  ar  
  5   3   6  1   
  6   4   7  ar  
  7   4  31  1   
  8   5   8  1   
  9   5   9  ar  
 10   6  10  2   
 11   6  11  am  
 12   7   9  ar  
 13   7  12  1   
 14   9  32  1   
 15  11  13  1   
 16  11  14  1   
 17  12  15  1   
 18  13  16  1   
 19  13  17  1   
 20  13  33  1   
 21  14  18  1   
 22  14  34  1   
 23  14  35  1   
 24  15  36  1   
 25  15  37  1   
 26  15  38  1   
 27  16  19  ar  
 28  16  20  ar  
 29  17  21  1   
 30  17  22  1   
 31  17  39  1   
 32  18  21  1   
 33  18  40  1   
 34  18  41  1   
 35  19  23  ar  
 36  19  42  1   
 37  20  24  ar  
 38  20  43  1   
 39  22  25  1   
 40  22  44  1   
 41  22  45  1   
 42  23  26  1   
 43  23  27  ar  
 44  24  27  ar  
 45  24  46  1   
 46  25  47  1   
 47  26  28  1   
 48  27  29  1   
 49  28  48  1   
 50  28  49  1   
 51  28  50  1   
 52  29  30  1   
 53  30  51  1   
 54  30  52  1   
 55  30  53  1   
@<TRIPOS>SUBSTRUCTURE
  1 ****  11 GROUP 4 **** **** 0

# MOE 2024.06 (io_trps.svl 2023.06)
