@<TRIPOS>MOLECULE
NONAME
47 50 1 0 0 
SMALL
USER_CHARGES


@<TRIPOS>ATOM
  1 O       -0.4250     0.3200     0.2090 O.2   1 <1>  -0.5700 
  2 C       -1.4860     0.8590     0.0020 C.2   1 <1>   0.5690 
  3 N       -2.6090     0.1450    -0.3030 N.am  1 <1>  -0.6600 
  4 C       -1.5630     2.3720     0.0860 C.3   1 <1>  -0.0990 
  5 C       -3.9700     0.6900    -0.5360 C.3   1 <1>   0.1400 
  6 C       -2.6170    -1.3350    -0.3930 C.3   1 <1>   0.1400 
  7 C       -0.1950     3.0070     0.3750 C.3   1 <1>   0.0960 
  8 C       -4.8530    -0.5330    -0.7960 C.3   1 <1>   0.2000 
  9 C       -4.0860    -1.7300    -0.2370 C.3   1 <1>  -0.0800 
 10 N       -0.3210     4.4730     0.4430 N.pl3 1 <1>   0.0480 
 11 O       -6.0790    -0.4160    -0.1620 O.3   1 <1>  -0.6800 
 12 C       -4.4550    -3.0500    -0.9360 C.3   1 <1>  -0.0170 
 13 C       -0.5860     5.2390     1.5020 C.2   1 <1>   0.0370 
 14 C       -0.2260     5.3650    -0.5450 C.2   1 <1>   0.0360 
 15 C       -3.6630    -4.2160    -0.3690 C.ar  1 <1>   0.1660 
 16 N       -0.6530     6.4860     1.1870 N.2   1 <1>  -0.3380 
 17 N       -0.4220     6.5660    -0.1250 N.2   1 <1>  -0.3380 
 18 N       -2.5100    -4.4710    -0.9060 N.ar  1 <1>  -0.6200 
 19 C       -4.2040    -4.9480     0.7000 C.ar  1 <1>  -0.1500 
 20 C       -1.7900    -5.5030    -0.3960 C.ar  1 <1>   0.3100 
 21 C       -3.5040    -5.9900     1.2290 C.ar  1 <1>  -0.1500 
 22 C       -2.2490    -6.2960     0.6790 C.ar  1 <1>   0.0000 
 23 C       -0.5350    -5.7970    -0.9540 C.ar  1 <1>  -0.1500 
 24 C       -1.4380    -7.3470     1.1500 C.ar  1 <1>  -0.1500 
 25 C        0.2390    -6.8240    -0.4810 C.ar  1 <1>  -0.1500 
 26 C       -0.2190    -7.6070     0.5830 C.ar  1 <1>  -0.1500 
 27 H       -1.9360     2.7440    -0.8500 H     1 <1>   0.0800 
 28 H       -2.2500     2.6320     0.8700 H     1 <1>   0.0800 
 29 H       -4.3000     1.2210     0.3400 H     1 <1>   0.0800 
 30 H       -3.9710     1.3420    -1.3910 H     1 <1>   0.0800 
 31 H       -2.2390    -1.6320    -1.3570 H     1 <1>   0.0800 
 32 H       -2.0030    -1.7780     0.3750 H     1 <1>   0.0800 
 33 H        0.5040     2.7500    -0.4010 H     1 <1>   0.0800 
 34 H        0.1920     2.6450     1.3120 H     1 <1>   0.0800 
 35 H       -5.0260    -0.6370    -1.8540 H     1 <1>   0.0800 
 36 H       -4.2780    -1.8210     0.8180 H     1 <1>   0.0800 
 37 H       -5.9620    -0.3920     0.8080 H     1 <1>   0.4000 
 38 H       -4.2560    -2.9740    -1.9910 H     1 <1>   0.0800 
 39 H       -5.5070    -3.2380    -0.8180 H     1 <1>   0.0800 
 40 H       -0.7280     4.8490     2.4930 H     1 <1>   0.1500 
 41 H       -0.0140     5.0980    -1.5640 H     1 <1>   0.1500 
 42 H       -5.1680    -4.6770     1.0900 H     1 <1>   0.1500 
 43 H       -3.8850    -6.5740     2.0480 H     1 <1>   0.1500 
 44 H       -0.2010    -5.1830    -1.7690 H     1 <1>   0.1500 
 45 H       -1.7950    -7.9460     1.9690 H     1 <1>   0.1500 
 46 H        1.1990    -7.0370    -0.9180 H     1 <1>   0.1500 
 47 H        0.3990    -8.4110     0.9450 H     1 <1>   0.1500 
@<TRIPOS>BOND
  1   1   2  2   
  2   2   3  am  
  3   2   4  1   
  4   3   5  1   
  5   3   6  1   
  6   4   7  1   
  7   4  27  1   
  8   4  28  1   
  9   5   8  1   
 10   5  29  1   
 11   5  30  1   
 12   6   9  1   
 13   6  31  1   
 14   6  32  1   
 15   7  10  1   
 16   7  33  1   
 17   7  34  1   
 18   8   9  1   
 19   8  11  1   
 20   8  35  1   
 21   9  12  1   
 22   9  36  1   
 23  10  13  1   
 24  10  14  1   
 25  11  37  1   
 26  12  15  1   
 27  12  38  1   
 28  12  39  1   
 29  13  16  2   
 30  13  40  1   
 31  14  17  2   
 32  14  41  1   
 33  15  18  ar  
 34  15  19  ar  
 35  16  17  1   
 36  18  20  ar  
 37  19  21  ar  
 38  19  42  1   
 39  20  22  ar  
 40  20  23  ar  
 41  21  22  ar  
 42  21  43  1   
 43  22  24  ar  
 44  23  25  ar  
 45  23  44  1   
 46  24  26  ar  
 47  24  45  1   
 48  25  26  ar  
 49  25  46  1   
 50  26  47  1   
@<TRIPOS>SUBSTRUCTURE
  1 ****   6 GROUP 4 **** **** 0

# MOE 2024.06 (io_trps.svl 2023.06)
