@<TRIPOS>MOLECULE
NONAME
43 45 1 0 0 
SMALL
USER_CHARGES


@<TRIPOS>ATOM
  1 S       -0.0740    -0.5370    -1.2790 S.3   1 <1>  -0.0800 
  2 C       -0.4080     1.0360    -0.6610 C.2   1 <1>   0.4340 
  3 C       -1.3660    -1.0950    -0.2590 C.2   1 <1>   0.4420 
  4 S        0.5970     2.3790    -1.2680 S.3   1 <1>  -0.2860 
  5 N       -1.3510     1.0870     0.1870 N.2   1 <1>  -0.3380 
  6 N       -1.9040    -0.1440     0.4210 N.2   1 <1>  -0.3380 
  7 N       -1.6330    -2.4500    -0.3000 N.am  1 <1>  -0.4940 
  8 C       -0.1590     3.8590    -0.4390 C.3   1 <1>   0.1310 
  9 C       -2.6450    -3.1620     0.2960 C.2   1 <1>   0.5440 
 10 C        0.6950     5.0990    -0.6590 C.2   1 <1>   0.5690 
 11 O       -3.5520    -2.5780     0.8500 O.2   1 <1>  -0.5700 
 12 C       -2.6380    -4.6100     0.2190 C.ar  1 <1>   0.0860 
 13 O        0.2360     5.9530    -1.3830 O.2   1 <1>  -0.5700 
 14 N        1.9210     5.2510    -0.0460 N.am  1 <1>  -0.6600 
 15 C       -3.8360    -5.3250     0.1520 C.ar  1 <1>  -0.1500 
 16 C       -1.4500    -5.3470     0.2070 C.ar  1 <1>  -0.1500 
 17 C        2.5570     4.2530     0.8590 C.3   1 <1>   0.0600 
 18 C        2.7660     6.4530    -0.3000 C.3   1 <1>   0.0600 
 19 C       -3.8620    -6.7040     0.0540 C.ar  1 <1>  -0.1430 
 20 C       -1.4610    -6.7250     0.1050 C.ar  1 <1>  -0.1500 
 21 C       -2.6620    -7.4080     0.0210 C.ar  1 <1>   0.0830 
 22 C       -5.1890    -7.4420    -0.0130 C.3   1 <1>  -0.0170 
 23 O       -2.6210    -8.7550    -0.0760 O.3   1 <1>  -0.3630 
 24 C       -4.9940    -8.9160     0.3530 C.3   1 <1>  -0.1600 
 25 C       -3.7890    -9.4840    -0.4000 C.3   1 <1>   0.1200 
 26 H       -1.0170    -2.9940    -0.8950 H     1 <1>   0.3700 
 27 H       -0.2590     3.6400     0.6070 H     1 <1>   0.0800 
 28 H       -1.1330     3.9950    -0.8710 H     1 <1>   0.0800 
 29 H       -4.7620    -4.7750     0.1790 H     1 <1>   0.1500 
 30 H       -0.5030    -4.8440     0.2880 H     1 <1>   0.1500 
 31 H        1.8650     3.4890     1.1600 H     1 <1>   0.0800 
 32 H        2.9200     4.7460     1.7440 H     1 <1>   0.0800 
 33 H        3.3860     3.7880     0.3540 H     1 <1>   0.0800 
 34 H        2.2860     7.1270    -0.9880 H     1 <1>   0.0800 
 35 H        3.7090     6.1510    -0.7220 H     1 <1>   0.0800 
 36 H        2.9410     6.9750     0.6240 H     1 <1>   0.0800 
 37 H       -0.5440    -7.2860     0.0960 H     1 <1>   0.1500 
 38 H       -5.5750    -7.3670    -1.0150 H     1 <1>   0.0800 
 39 H       -5.9000    -6.9930     0.6580 H     1 <1>   0.0800 
 40 H       -5.8790    -9.4740     0.1050 H     1 <1>   0.0800 
 41 H       -4.8220    -9.0120     1.4110 H     1 <1>   0.0800 
 42 H       -3.6170   -10.5120    -0.1330 H     1 <1>   0.0800 
 43 H       -3.9340    -9.4140    -1.4640 H     1 <1>   0.0800 
@<TRIPOS>BOND
  1   1   2  1   
  2   1   3  1   
  3   2   4  1   
  4   2   5  2   
  5   3   6  2   
  6   3   7  1   
  7   4   8  1   
  8   5   6  1   
  9   7   9  am  
 10   7  26  1   
 11   8  10  1   
 12   8  27  1   
 13   8  28  1   
 14   9  11  2   
 15   9  12  1   
 16  10  13  2   
 17  10  14  am  
 18  12  15  ar  
 19  12  16  ar  
 20  14  17  1   
 21  14  18  1   
 22  15  19  ar  
 23  15  29  1   
 24  16  20  ar  
 25  16  30  1   
 26  17  31  1   
 27  17  32  1   
 28  17  33  1   
 29  18  34  1   
 30  18  35  1   
 31  18  36  1   
 32  19  21  ar  
 33  19  22  1   
 34  20  21  ar  
 35  20  37  1   
 36  21  23  1   
 37  22  24  1   
 38  22  38  1   
 39  22  39  1   
 40  23  25  1   
 41  24  25  1   
 42  24  40  1   
 43  24  41  1   
 44  25  42  1   
 45  25  43  1   
@<TRIPOS>SUBSTRUCTURE
  1 ****   7 GROUP 4 **** **** 0

# MOE 2024.06 (io_trps.svl 2023.06)
