@<TRIPOS>MOLECULE
NONAME
39 41 1 0 0 
SMALL
USER_CHARGES


@<TRIPOS>ATOM
  1 F       -0.8600    -0.6310     1.6850 F     1 <1>  -0.3400 
  2 C        0.0760    -1.3780     1.1080 C.3   1 <1>   1.2010 
  3 F        0.2880    -0.8330    -0.0880 F     1 <1>  -0.3400 
  4 F        1.1950    -1.1770     1.7990 F     1 <1>  -0.3400 
  5 C       -0.3180    -2.8800     1.0150 C.2   1 <1>   0.1080 
  6 N       -0.5710    -3.6820     2.0280 N.2   1 <1>  -0.7070 
  7 C       -0.4530    -3.5620    -0.1890 C.2   1 <1>  -0.1500 
  8 N       -0.8650    -4.8660     1.4730 N.pl3 1 <1>   0.3000 
  9 C       -0.7980    -4.8400     0.1240 C.2   1 <1>  -0.2370 
 10 C       -1.0680    -5.9610    -0.7230 C.2   1 <1>   0.7150 
 11 O       -1.3270    -5.7990    -1.8970 O.2   1 <1>  -0.5700 
 12 N       -1.0480    -7.2260    -0.2240 N.am  1 <1>  -0.7300 
 13 C       -1.2890    -8.4580    -1.0120 C.3   1 <1>   0.2200 
 14 C       -2.6230    -9.0930    -0.6380 C.3   1 <1>  -0.0800 
 15 C       -0.3280    -9.5280    -0.5170 C.3   1 <1>   0.1200 
 16 C       -2.2750    -9.9290     0.6020 C.3   1 <1>   0.1200 
 17 C       -3.8000    -8.1200    -0.4420 C.3   1 <1>  -0.0160 
 18 O       -0.8790    -9.9480     0.6920 O.3   1 <1>  -0.5600 
 19 C       -5.0890    -8.8760    -0.1650 C.ar  1 <1>  -0.1430 
 20 C       -5.8310    -9.4390    -1.1840 C.ar  1 <1>  -0.1500 
 21 C       -5.5860    -9.0400     1.1130 C.ar  1 <1>  -0.1500 
 22 C       -6.9970   -10.1250    -0.8840 C.ar  1 <1>   0.1600 
 23 C       -6.7630    -9.7440     1.3040 C.ar  1 <1>   0.1600 
 24 N       -7.4790   -10.2930     0.3370 N.ar  1 <1>  -0.6200 
 25 H       -0.3130    -3.1590    -1.1800 H     1 <1>   0.1500 
 26 H       -1.1270    -5.6800     2.0420 H     1 <1>   0.2700 
 27 H       -0.6700    -7.4250     0.7020 H     1 <1>   0.3700 
 28 H       -1.1920    -8.2730    -2.0690 H     1 <1>   0.0800 
 29 H       -2.8880    -9.7810    -1.4220 H     1 <1>   0.0800 
 30 H        0.6700    -9.1590    -0.3580 H     1 <1>   0.0800 
 31 H       -0.3070   -10.3710    -1.1870 H     1 <1>   0.0800 
 32 H       -2.6330   -10.9400     0.5110 H     1 <1>   0.0800 
 33 H       -2.6560    -9.4900     1.5070 H     1 <1>   0.0800 
 34 H       -3.9210    -7.5230    -1.3300 H     1 <1>   0.0800 
 35 H       -3.6030    -7.4470     0.3740 H     1 <1>   0.0800 
 36 H       -5.5150    -9.3500    -2.2070 H     1 <1>   0.1500 
 37 H       -5.0730    -8.6290     1.9620 H     1 <1>   0.1500 
 38 H       -7.5630   -10.5570    -1.6910 H     1 <1>   0.1500 
 39 H       -7.1360    -9.8630     2.3070 H     1 <1>   0.1500 
@<TRIPOS>BOND
  1   1   2  1   
  2   2   3  1   
  3   2   4  1   
  4   2   5  1   
  5   5   6  2   
  6   5   7  1   
  7   6   8  1   
  8   7   9  2   
  9   7  25  1   
 10   8   9  1   
 11   8  26  1   
 12   9  10  1   
 13  10  11  2   
 14  10  12  am  
 15  12  13  1   
 16  12  27  1   
 17  13  14  1   
 18  13  15  1   
 19  13  28  1   
 20  14  16  1   
 21  14  17  1   
 22  14  29  1   
 23  15  18  1   
 24  15  30  1   
 25  15  31  1   
 26  16  18  1   
 27  16  32  1   
 28  16  33  1   
 29  17  19  1   
 30  17  34  1   
 31  17  35  1   
 32  19  20  ar  
 33  19  21  ar  
 34  20  22  ar  
 35  20  36  1   
 36  21  23  ar  
 37  21  37  1   
 38  22  24  ar  
 39  22  38  1   
 40  23  24  ar  
 41  23  39  1   
@<TRIPOS>SUBSTRUCTURE
  1 ****  12 GROUP 4 **** **** 0

# MOE 2024.06 (io_trps.svl 2023.06)
