@<TRIPOS>MOLECULE
NONAME
57 61 1 0 0 
SMALL
USER_CHARGES


@<TRIPOS>ATOM
  1 S       -3.3440     2.5310     3.1110 S.3   1 <1>  -0.0800 
  2 C       -3.4990     1.2600     1.8930 C.2   1 <1>  -0.0450 
  3 C       -1.7760     3.0210     2.5100 C.2   1 <1>  -0.1100 
  4 C       -4.6940     0.4520     1.8840 C.2   1 <1>   0.7150 
  5 C       -2.3810     1.2680     1.1190 C.2   1 <1>  -0.1500 
  6 C       -1.4150     2.2580     1.4630 C.2   1 <1>  -0.1500 
  7 O       -5.3230     0.2550     2.9070 O.2   1 <1>  -0.5700 
  8 N       -5.1810    -0.0990     0.7130 N.am  1 <1>  -0.6600 
  9 C       -6.1190    -1.2490     0.7550 C.3   1 <1>   0.1400 
 10 C       -5.1840     0.6560    -0.5620 C.3   1 <1>   0.1400 
 11 C       -7.5410    -0.7180     0.5810 C.3   1 <1>  -0.1600 
 12 C       -6.5900     1.2240    -0.7720 C.3   1 <1>  -0.1600 
 13 C       -7.6510     0.1160    -0.7070 C.3   1 <1>   0.4230 
 14 N       -9.0100     0.7100    -0.8870 N.4   1 <1>  -0.9590 
 15 C       -9.4750     1.5360     0.2900 C.3   1 <1>   0.3430 
 16 C      -10.0260    -0.3330    -1.2230 C.3   1 <1>   0.3430 
 17 C      -10.8050     2.2540     0.0060 C.3   1 <1>   0.1430 
 18 C      -11.3570     0.3320    -1.5850 C.3   1 <1>  -0.1600 
 19 C      -11.2520     2.9410     1.2740 C.ar  1 <1>   0.1670 
 20 C      -11.8730     1.2400    -0.4550 C.3   1 <1>  -0.1600 
 21 C      -10.6600     3.4420    -0.9840 C.3   1 <1>  -0.1600 
 22 N      -11.2630     2.3760     2.4580 N.ar  1 <1>  -0.6200 
 23 C      -11.6280     4.2290     1.0500 C.ar  1 <1>  -0.1430 
 24 C      -11.4950     4.6030    -0.4050 C.3   1 <1>  -0.0170 
 25 C      -11.6890     3.1720     3.4320 C.ar  1 <1>   0.4770 
 26 C      -12.0490     4.9640     2.1300 C.ar  1 <1>   0.1600 
 27 N      -12.0810     4.4360     3.3370 N.ar  1 <1>  -0.6200 
 28 C      -11.7240     2.5740     4.8180 C.3   1 <1>  -0.0970 
 29 H       -1.2820     3.8350     3.0110 H     1 <1>   0.1500 
 30 H       -2.1990     0.5880     0.3040 H     1 <1>   0.1500 
 31 H       -0.4940     2.3520     0.9140 H     1 <1>   0.1500 
 32 H       -6.0300    -1.7680     1.6970 H     1 <1>   0.0800 
 33 H       -5.8680    -1.9430    -0.0290 H     1 <1>   0.0800 
 34 H       -4.9110    -0.0040    -1.3690 H     1 <1>   0.0800 
 35 H       -4.4720     1.4630    -0.5330 H     1 <1>   0.0800 
 36 H       -7.7690    -0.1300     1.4520 H     1 <1>   0.0800 
 37 H       -8.2120    -1.5560     0.5490 H     1 <1>   0.0800 
 38 H       -6.6230     1.7090    -1.7310 H     1 <1>   0.0800 
 39 H       -6.7580     1.9630    -0.0090 H     1 <1>   0.0800 
 40 H       -7.4590    -0.5490    -1.5350 H     1 <1>   0.0800 
 41 H       -8.9570     1.3430    -1.6940 H     1 <1>   0.4500 
 42 H       -8.7350     2.2710     0.5550 H     1 <1>   0.0800 
 43 H       -9.6180     0.8960     1.1460 H     1 <1>   0.0800 
 44 H      -10.1730    -0.9850    -0.3760 H     1 <1>   0.0800 
 45 H       -9.6850    -0.9290    -2.0550 H     1 <1>   0.0800 
 46 H      -12.0870    -0.4360    -1.7760 H     1 <1>   0.0800 
 47 H      -11.2430     0.8920    -2.4970 H     1 <1>   0.0800 
 48 H      -12.7640     1.7570    -0.7700 H     1 <1>   0.0800 
 49 H      -12.1480     0.6220     0.3850 H     1 <1>   0.0800 
 50 H      -10.9780     3.2020    -1.9830 H     1 <1>   0.0800 
 51 H       -9.6330     3.7620    -1.0180 H     1 <1>   0.0800 
 52 H      -12.4710     4.6380    -0.8580 H     1 <1>   0.0800 
 53 H      -11.0010     5.5520    -0.5300 H     1 <1>   0.0800 
 54 H      -12.3610     5.9880     2.0120 H     1 <1>   0.1500 
 55 H      -11.8180     1.5060     4.7620 H     1 <1>   0.0800 
 56 H      -12.5600     2.9680     5.3650 H     1 <1>   0.0800 
 57 H      -10.8170     2.8230     5.3350 H     1 <1>   0.0800 
@<TRIPOS>BOND
  1   1   2  1   
  2   1   3  1   
  3   2   4  1   
  4   2   5  2   
  5   3   6  2   
  6   3  29  1   
  7   4   7  2   
  8   4   8  am  
  9   5   6  1   
 10   5  30  1   
 11   6  31  1   
 12   8   9  1   
 13   8  10  1   
 14   9  11  1   
 15   9  32  1   
 16   9  33  1   
 17  10  12  1   
 18  10  34  1   
 19  10  35  1   
 20  11  13  1   
 21  11  36  1   
 22  11  37  1   
 23  12  13  1   
 24  12  38  1   
 25  12  39  1   
 26  13  14  1   
 27  13  40  1   
 28  14  15  1   
 29  14  16  1   
 30  14  41  1   
 31  15  17  1   
 32  15  42  1   
 33  15  43  1   
 34  16  18  1   
 35  16  44  1   
 36  16  45  1   
 37  17  19  1   
 38  17  20  1   
 39  17  21  1   
 40  18  20  1   
 41  18  46  1   
 42  18  47  1   
 43  19  22  ar  
 44  19  23  ar  
 45  20  48  1   
 46  20  49  1   
 47  21  24  1   
 48  21  50  1   
 49  21  51  1   
 50  22  25  ar  
 51  23  24  1   
 52  23  26  ar  
 53  24  52  1   
 54  24  53  1   
 55  25  27  ar  
 56  25  28  1   
 57  26  27  ar  
 58  26  54  1   
 59  28  55  1   
 60  28  56  1   
 61  28  57  1   
@<TRIPOS>SUBSTRUCTURE
  1 ****  15 GROUP 4 **** **** 0

# MOE 2024.06 (io_trps.svl 2023.06)
