@<TRIPOS>MOLECULE
NONAME
51 54 1 0 0 
SMALL
USER_CHARGES


@<TRIPOS>ATOM
  1 S       -0.7760    -0.0570     0.1440 S.3   1 <1>  -0.3320 
  2 C       -0.5720    -1.8460     0.0740 C.ar  1 <1>   0.1020 
  3 C        0.9080     0.6880     0.0090 C.3   1 <1>  -0.0100 
  4 C       -1.6960    -2.6190     0.1500 C.ar  1 <1>  -0.1500 
  5 C        0.6910    -2.4340    -0.0530 C.ar  1 <1>  -0.1500 
  6 C       -1.6210    -4.0190     0.1020 C.ar  1 <1>   0.3100 
  7 C        0.7920    -3.7990    -0.1020 C.ar  1 <1>  -0.1500 
  8 N       -2.7790    -4.7140     0.1810 N.ar  1 <1>  -0.6200 
  9 C       -0.3480    -4.6280    -0.0270 C.ar  1 <1>   0.0000 
 10 C       -2.7070    -6.0130     0.1260 C.ar  1 <1>   0.4100 
 11 C       -0.3030    -6.0400    -0.0710 C.ar  1 <1>  -0.1430 
 12 N       -3.8820    -6.7370     0.1800 N.pl3 1 <1>  -0.8380 
 13 C       -1.4870    -6.7050     0.0080 C.ar  1 <1>  -0.1500 
 14 C        1.0110    -6.7960    -0.1960 C.3   1 <1>  -0.0970 
 15 C       -5.0450    -6.1690     0.9090 C.3   1 <1>   0.2090 
 16 C       -4.2610    -7.5500    -0.9990 C.3   1 <1>   0.2090 
 17 C       -5.8890    -7.3250     1.4440 C.3   1 <1>  -0.1600 
 18 C       -5.0760    -8.7470    -0.5120 C.3   1 <1>  -0.1600 
 19 C       -6.2920    -8.2920     0.3160 C.3   1 <1>   0.3610 
 20 N       -6.9900    -9.4800     0.8890 N.am  1 <1>  -0.6600 
 21 C       -7.4160    -7.7160    -0.5700 C.2   1 <1>   0.5690 
 22 C       -8.2620    -9.5340     0.4050 C.2   1 <1>   0.6900 
 23 C       -6.3860   -10.4380     1.8540 C.3   1 <1>   0.0600 
 24 O       -7.3400    -6.7290    -1.2650 O.2   1 <1>  -0.5700 
 25 N       -8.5210    -8.5040    -0.4510 N.am  1 <1>  -0.4200 
 26 O       -9.0720   -10.3910     0.6960 O.2   1 <1>  -0.5700 
 27 C       -9.8180    -8.2940    -1.1340 C.3   1 <1>   0.0600 
 28 H        0.7930     1.7570     0.0460 H     1 <1>   0.0800 
 29 H        1.3320     0.3840    -0.9310 H     1 <1>   0.0800 
 30 H        1.4940     0.3390     0.8390 H     1 <1>   0.0800 
 31 H       -2.6650    -2.1690     0.2470 H     1 <1>   0.1500 
 32 H        1.5720    -1.8270    -0.1120 H     1 <1>   0.1500 
 33 H        1.7620    -4.2490    -0.2000 H     1 <1>   0.1500 
 34 H       -1.5320    -7.7760    -0.0060 H     1 <1>   0.1500 
 35 H        1.5090    -6.5230    -1.1100 H     1 <1>   0.0800 
 36 H        0.8420    -7.8580    -0.2070 H     1 <1>   0.0800 
 37 H        1.6500    -6.5650     0.6370 H     1 <1>   0.0800 
 38 H       -5.6160    -5.5420     0.2430 H     1 <1>   0.0800 
 39 H       -4.7010    -5.5610     1.7290 H     1 <1>   0.0800 
 40 H       -3.3810    -7.8890    -1.5180 H     1 <1>   0.0800 
 41 H       -4.8350    -6.9430    -1.6800 H     1 <1>   0.0800 
 42 H       -6.7660    -6.9310     1.9240 H     1 <1>   0.0800 
 43 H       -5.2990    -7.8400     2.1790 H     1 <1>   0.0800 
 44 H       -4.4290    -9.3590     0.0880 H     1 <1>   0.0800 
 45 H       -5.4040    -9.3220    -1.3590 H     1 <1>   0.0800 
 46 H       -5.5190   -10.9050     1.4210 H     1 <1>   0.0800 
 47 H       -7.1000   -11.2050     2.1040 H     1 <1>   0.0800 
 48 H       -6.1040    -9.9260     2.7570 H     1 <1>   0.0800 
 49 H       -9.7590    -7.4450    -1.7920 H     1 <1>   0.0800 
 50 H      -10.5850    -8.1230    -0.3990 H     1 <1>   0.0800 
 51 H      -10.0680    -9.1710    -1.7050 H     1 <1>   0.0800 
@<TRIPOS>BOND
  1   1   2  1   
  2   1   3  1   
  3   2   4  ar  
  4   2   5  ar  
  5   3  28  1   
  6   3  29  1   
  7   3  30  1   
  8   4   6  ar  
  9   4  31  1   
 10   5   7  ar  
 11   5  32  1   
 12   6   8  ar  
 13   6   9  ar  
 14   7   9  ar  
 15   7  33  1   
 16   8  10  ar  
 17   9  11  ar  
 18  10  12  1   
 19  10  13  ar  
 20  11  13  ar  
 21  11  14  1   
 22  12  15  1   
 23  12  16  1   
 24  13  34  1   
 25  14  35  1   
 26  14  36  1   
 27  14  37  1   
 28  15  17  1   
 29  15  38  1   
 30  15  39  1   
 31  16  18  1   
 32  16  40  1   
 33  16  41  1   
 34  17  19  1   
 35  17  42  1   
 36  17  43  1   
 37  18  19  1   
 38  18  44  1   
 39  18  45  1   
 40  19  20  1   
 41  19  21  1   
 42  20  22  am  
 43  20  23  1   
 44  21  24  2   
 45  21  25  am  
 46  22  25  am  
 47  22  26  2   
 48  23  46  1   
 49  23  47  1   
 50  23  48  1   
 51  25  27  1   
 52  27  49  1   
 53  27  50  1   
 54  27  51  1   
@<TRIPOS>SUBSTRUCTURE
  1 ****  12 GROUP 4 **** **** 0

# MOE 2024.06 (io_trps.svl 2023.06)
