@<TRIPOS>MOLECULE
NONAME
58 60 1 0 0 
SMALL
USER_CHARGES


@<TRIPOS>ATOM
  1 O        1.0060     0.0160    -1.6470 O.2   1 <1>  -0.5700 
  2 C        1.7550    -0.4400    -0.8030 C.2   1 <1>   0.5440 
  3 N        2.5400     0.4220    -0.0620 N.am  1 <1>  -0.6600 
  4 C        1.8130    -1.8740    -0.6230 C.ar  1 <1>   0.0860 
  5 C        3.3980    -0.0430     1.0680 C.3   1 <1>   0.1400 
  6 C        2.6210     1.8730    -0.3920 C.3   1 <1>   0.1400 
  7 C        1.2360    -2.5520     0.4630 C.ar  1 <1>   0.0830 
  8 C        2.5040    -2.6340    -1.5670 C.ar  1 <1>  -0.1500 
  9 C        4.7790    -0.4950     0.5700 C.3   1 <1>   0.1100 
 10 C        4.0580     2.4120    -0.3830 C.3   1 <1>  -0.1600 
 11 O        0.5120    -1.9470     1.4320 O.3   1 <1>  -0.3630 
 12 C        1.4040    -3.9210     0.6030 C.ar  1 <1>  -0.1500 
 13 C        2.6560    -4.0010    -1.4310 C.ar  1 <1>  -0.1500 
 14 N        5.6650     0.6190     0.1660 N.3   1 <1>  -0.8100 
 15 C        5.1030     1.4350    -0.9320 C.3   1 <1>   0.1100 
 16 C       -0.4850    -1.0020     1.1040 C.3   1 <1>   0.1200 
 17 C        2.1100    -4.6470    -0.3370 C.ar  1 <1>  -0.1500 
 18 C        7.0100     0.0840    -0.2150 C.3   1 <1>   0.1710 
 19 C       -1.5420    -1.0320     2.2030 C.3   1 <1>  -0.2400 
 20 C        8.1210     1.1360    -0.1830 C.2   1 <1>   0.5690 
 21 O        9.1280     0.9460    -0.8250 O.2   1 <1>  -0.5700 
 22 N        7.8810     2.2400     0.5740 N.am  1 <1>  -0.4930 
 23 C        8.6210     3.4310     0.7830 C.2   1 <1>   0.0630 
 24 C       10.0000     3.6660     0.8370 C.2   1 <1>   0.1080 
 25 C        8.0680     4.6400     1.0050 C.2   1 <1>  -0.3020 
 26 N       10.2740     4.9140     1.0660 N.2   1 <1>  -0.7070 
 27 C       11.0990     2.6390     0.6760 C.3   1 <1>  -0.0590 
 28 N        9.0800     5.5160     1.1650 N.pl3 1 <1>   0.3140 
 29 C        8.9680     6.9550     1.4270 C.3   1 <1>   0.0160 
 30 H        2.9210    -0.8670     1.5670 H     1 <1>   0.0800 
 31 H        3.5110     0.7400     1.7970 H     1 <1>   0.0800 
 32 H        2.0200     2.4270     0.3070 H     1 <1>   0.0800 
 33 H        2.2090     2.0380    -1.3740 H     1 <1>   0.0800 
 34 H        2.9290    -2.1330    -2.4210 H     1 <1>   0.1500 
 35 H        4.6560    -1.1860    -0.2460 H     1 <1>   0.0800 
 36 H        5.2520    -1.0260     1.3790 H     1 <1>   0.0800 
 37 H        4.3310     2.7200     0.6100 H     1 <1>   0.0800 
 38 H        4.0680     3.2970    -0.9940 H     1 <1>   0.0800 
 39 H        0.9690    -4.4160     1.4530 H     1 <1>   0.1500 
 40 H        3.1970    -4.5630    -2.1730 H     1 <1>   0.1500 
 41 H        5.8880     2.0180    -1.3830 H     1 <1>   0.0800 
 42 H        4.6800     0.8070    -1.7000 H     1 <1>   0.0800 
 43 H       -0.9150    -1.2630     0.1520 H     1 <1>   0.0800 
 44 H       -0.0310    -0.0280     1.0470 H     1 <1>   0.0800 
 45 H        2.2280    -5.7110    -0.2220 H     1 <1>   0.1500 
 46 H        6.9680    -0.3500    -1.1990 H     1 <1>   0.0800 
 47 H        7.2990    -0.6890     0.4740 H     1 <1>   0.0800 
 48 H       -1.9840    -2.0100     2.2620 H     1 <1>   0.0800 
 49 H       -2.3140    -0.3180     1.9810 H     1 <1>   0.0800 
 50 H       -1.0990    -0.7780     3.1490 H     1 <1>   0.0800 
 51 H        6.9250     2.2400     0.9450 H     1 <1>   0.3700 
 52 H        7.0340     4.9210     1.0550 H     1 <1>   0.1500 
 53 H       10.8120     1.7150     1.1410 H     1 <1>   0.0800 
 54 H       12.0020     2.9960     1.1360 H     1 <1>   0.0800 
 55 H       11.2820     2.4710    -0.3680 H     1 <1>   0.0800 
 56 H        8.0430     7.3220     1.0250 H     1 <1>   0.0800 
 57 H        9.7930     7.4580     0.9600 H     1 <1>   0.0800 
 58 H        9.0000     7.1190     2.4880 H     1 <1>   0.0800 
@<TRIPOS>BOND
  1   1   2  2   
  2   2   3  am  
  3   2   4  1   
  4   3   5  1   
  5   3   6  1   
  6   4   7  ar  
  7   4   8  ar  
  8   5   9  1   
  9   5  30  1   
 10   5  31  1   
 11   6  10  1   
 12   6  32  1   
 13   6  33  1   
 14   7  11  1   
 15   7  12  ar  
 16   8  13  ar  
 17   8  34  1   
 18   9  14  1   
 19   9  35  1   
 20   9  36  1   
 21  10  15  1   
 22  10  37  1   
 23  10  38  1   
 24  11  16  1   
 25  12  17  ar  
 26  12  39  1   
 27  13  17  ar  
 28  13  40  1   
 29  14  15  1   
 30  14  18  1   
 31  15  41  1   
 32  15  42  1   
 33  16  19  1   
 34  16  43  1   
 35  16  44  1   
 36  17  45  1   
 37  18  20  1   
 38  18  46  1   
 39  18  47  1   
 40  19  48  1   
 41  19  49  1   
 42  19  50  1   
 43  20  21  2   
 44  20  22  am  
 45  22  23  1   
 46  22  51  1   
 47  23  24  1   
 48  23  25  2   
 49  24  26  2   
 50  24  27  1   
 51  25  28  1   
 52  25  52  1   
 53  26  28  1   
 54  27  53  1   
 55  27  54  1   
 56  27  55  1   
 57  28  29  1   
 58  29  56  1   
 59  29  57  1   
 60  29  58  1   
@<TRIPOS>SUBSTRUCTURE
  1 ****  14 GROUP 4 **** **** 0

# MOE 2024.06 (io_trps.svl 2023.06)
