@<TRIPOS>MOLECULE
NONAME
51 53 1 0 0 
SMALL
USER_CHARGES


@<TRIPOS>ATOM
  1 O        4.1820    -0.1030     2.3180 O.co2 1 <1>  -0.9000 
  2 C        3.5410    -0.3570     1.2920 C.2   1 <1>   0.9060 
  3 O        3.4000    -1.5200     0.8850 O.co2 1 <1>  -0.9000 
  4 C        2.9500     0.7800     0.4370 C.3   1 <1>  -0.1060 
  5 C        3.7430     0.6580    -0.8920 C.3   1 <1>   0.2000 
  6 C        3.2080     2.1820     1.0770 C.3   1 <1>  -0.1600 
  7 C        1.4040     0.5620     0.3250 C.3   1 <1>  -0.1600 
  8 O        3.1960    -0.3320    -1.6910 O.3   1 <1>  -0.6800 
  9 C        3.8930     1.9810    -1.6580 C.3   1 <1>   0.1400 
 10 C        4.5610     2.7680     0.6690 C.3   1 <1>   0.1400 
 11 C        0.6450     1.4160    -0.7100 C.3   1 <1>  -0.1600 
 12 N        4.5610     3.0270    -0.8070 N.am  1 <1>  -0.6600 
 13 C       -0.8610     1.1480    -0.6350 C.3   1 <1>  -0.2400 
 14 C        5.1590     4.1110    -1.4010 C.2   1 <1>   0.6300 
 15 O        5.1280     4.2670    -2.6030 O.2   1 <1>  -0.5700 
 16 C        5.8870     5.1770    -0.5670 C.3   1 <1>   0.0320 
 17 C        7.2980     4.7540    -0.1780 C.ar  1 <1>  -0.0320 
 18 C        5.1040     6.1180     0.3130 C.3   1 <1>  -0.2000 
 19 C        5.7170     6.6250    -0.9490 C.3   1 <1>  -0.2000 
 20 C        7.6180     4.4030     1.1240 C.ar  1 <1>  -0.1500 
 21 C        8.2860     4.7120    -1.1490 C.ar  1 <1>  -0.1500 
 22 C        8.9080     4.0210     1.4510 C.ar  1 <1>  -0.1500 
 23 C        9.5770     4.3330    -0.8230 C.ar  1 <1>  -0.1500 
 24 C        9.8950     3.9860     0.4800 C.ar  1 <1>  -0.1440 
 25 C       11.3080     3.5640     0.8380 C.3   1 <1>  -0.0970 
 26 H        4.7450     0.3270    -0.6690 H     1 <1>   0.0800 
 27 H        3.1590     2.1100     2.1490 H     1 <1>   0.0800 
 28 H        2.4570     2.8910     0.7900 H     1 <1>   0.0800 
 29 H        1.2190    -0.4720     0.0890 H     1 <1>   0.0800 
 30 H        0.9780     0.7280     1.2990 H     1 <1>   0.0800 
 31 H        3.1120    -1.1220    -1.0970 H     1 <1>   0.4000 
 32 H        2.9280     2.3440    -1.9570 H     1 <1>   0.0800 
 33 H        4.4850     1.8070    -2.5390 H     1 <1>   0.0800 
 34 H        5.3490     2.0760     0.9180 H     1 <1>   0.0800 
 35 H        4.7240     3.6750     1.2190 H     1 <1>   0.0800 
 36 H        0.8180     2.4640    -0.5510 H     1 <1>   0.0800 
 37 H        0.9870     1.1670    -1.6990 H     1 <1>   0.0800 
 38 H       -1.2390     1.4050     0.3380 H     1 <1>   0.0800 
 39 H       -1.0620     0.1080    -0.8220 H     1 <1>   0.0800 
 40 H       -1.3760     1.7360    -1.3730 H     1 <1>   0.0800 
 41 H        4.0350     6.0060     0.3570 H     1 <1>   0.1000 
 42 H        5.5260     6.4370     1.2490 H     1 <1>   0.1000 
 43 H        6.5740     7.2730    -0.8890 H     1 <1>   0.1000 
 44 H        5.0800     6.8590    -1.7850 H     1 <1>   0.1000 
 45 H        6.8650     4.4220     1.8900 H     1 <1>   0.1500 
 46 H        8.0430     4.9740    -2.1640 H     1 <1>   0.1500 
 47 H        9.1370     3.7460     2.4650 H     1 <1>   0.1500 
 48 H       10.3290     4.3050    -1.5910 H     1 <1>   0.1500 
 49 H       11.5330     3.8300     1.8550 H     1 <1>   0.0800 
 50 H       12.0200     4.0490     0.1950 H     1 <1>   0.0800 
 51 H       11.4070     2.4990     0.7260 H     1 <1>   0.0800 
@<TRIPOS>BOND
  1   1   2  ar  
  2   2   3  ar  
  3   2   4  1   
  4   4   5  1   
  5   4   6  1   
  6   4   7  1   
  7   5   8  1   
  8   5   9  1   
  9   5  26  1   
 10   6  10  1   
 11   6  27  1   
 12   6  28  1   
 13   7  11  1   
 14   7  29  1   
 15   7  30  1   
 16   8  31  1   
 17   9  12  1   
 18   9  32  1   
 19   9  33  1   
 20  10  12  1   
 21  10  34  1   
 22  10  35  1   
 23  11  13  1   
 24  11  36  1   
 25  11  37  1   
 26  12  14  am  
 27  13  38  1   
 28  13  39  1   
 29  13  40  1   
 30  14  15  2   
 31  14  16  1   
 32  16  17  1   
 33  16  18  1   
 34  16  19  1   
 35  17  20  ar  
 36  17  21  ar  
 37  18  19  1   
 38  18  41  1   
 39  18  42  1   
 40  19  43  1   
 41  19  44  1   
 42  20  22  ar  
 43  20  45  1   
 44  21  23  ar  
 45  21  46  1   
 46  22  24  ar  
 47  22  47  1   
 48  23  24  ar  
 49  23  48  1   
 50  24  25  1   
 51  25  49  1   
 52  25  50  1   
 53  25  51  1   
@<TRIPOS>SUBSTRUCTURE
  1 ****  12 GROUP 4 **** **** 0

# MOE 2024.06 (io_trps.svl 2023.06)
