@<TRIPOS>MOLECULE
NONAME
41 43 1 0 0 
SMALL
USER_CHARGES


@<TRIPOS>ATOM
  1 S       -0.6880    -0.8580     0.0420 S.3   1 <1>  -0.0800 
  2 C       -1.7440     0.2260     0.9200 C.2   1 <1>   0.1980 
  3 C       -2.0870    -1.5490    -0.7250 C.2   1 <1>  -0.1100 
  4 N       -2.9810     0.0770     0.6640 N.2   1 <1>  -0.5650 
  5 C       -1.0990     1.2070     1.8700 C.3   1 <1>  -0.0600 
  6 C       -3.1870    -0.9280    -0.2680 C.2   1 <1>   0.0460 
  7 C       -4.6290    -1.2030    -0.6600 C.3   1 <1>   0.0820 
  8 C       -4.8000    -2.5450    -1.3440 C.2   1 <1>   0.5690 
  9 O       -5.1430    -2.5840    -2.5000 O.2   1 <1>  -0.5700 
 10 N       -4.5760    -3.6810    -0.6350 N.am  1 <1>  -0.7300 
 11 C       -4.6480    -5.0560    -1.1810 C.3   1 <1>   0.2200 
 12 C       -5.8760    -5.7950    -0.6660 C.3   1 <1>  -0.0800 
 13 C       -3.5390    -5.8900    -0.5570 C.3   1 <1>   0.1200 
 14 C       -5.4080    -6.3410     0.6880 C.3   1 <1>   0.1200 
 15 C       -7.1780    -4.9750    -0.6040 C.3   1 <1>  -0.0160 
 16 O       -4.0140    -6.2320     0.7090 O.3   1 <1>  -0.5600 
 17 C       -8.3480    -5.8490    -0.1770 C.ar  1 <1>  -0.1430 
 18 C       -9.0140    -6.6560    -1.0760 C.ar  1 <1>  -0.1500 
 19 C       -8.8030    -5.8830     1.1260 C.ar  1 <1>  -0.1500 
 20 C      -10.0700    -7.4400    -0.6410 C.ar  1 <1>   0.1600 
 21 C       -9.8680    -6.7030     1.4570 C.ar  1 <1>   0.1600 
 22 N      -10.5110    -7.4850     0.6050 N.ar  1 <1>  -0.6200 
 23 H       -1.9330    -2.3410    -1.4350 H     1 <1>   0.1500 
 24 H       -1.8560     1.8070     2.3410 H     1 <1>   0.0800 
 25 H       -0.4280     1.8490     1.3300 H     1 <1>   0.0800 
 26 H       -0.5520     0.6750     2.6260 H     1 <1>   0.0800 
 27 H       -4.9700    -0.4200    -1.3100 H     1 <1>   0.0800 
 28 H       -5.2410    -1.1930     0.2220 H     1 <1>   0.0800 
 29 H       -4.2690    -3.6380     0.3420 H     1 <1>   0.3700 
 30 H       -4.5930    -5.0420    -2.2570 H     1 <1>   0.0800 
 31 H       -6.0430    -6.6390    -1.3100 H     1 <1>   0.0800 
 32 H       -2.6110    -5.3530    -0.4660 H     1 <1>   0.0800 
 33 H       -3.3850    -6.8000    -1.1100 H     1 <1>   0.0800 
 34 H       -5.6810    -7.3750     0.8170 H     1 <1>   0.0800 
 35 H       -5.7910    -5.7600     1.5090 H     1 <1>   0.0800 
 36 H       -7.3810    -4.5560    -1.5740 H     1 <1>   0.0800 
 37 H       -7.0760    -4.1560     0.0860 H     1 <1>   0.0800 
 38 H       -8.7240    -6.6830    -2.1110 H     1 <1>   0.1500 
 39 H       -8.3420    -5.2800     1.8860 H     1 <1>   0.1500 
 40 H      -10.5780    -8.0640    -1.3570 H     1 <1>   0.1500 
 41 H      -10.2100    -6.7180     2.4780 H     1 <1>   0.1500 
@<TRIPOS>BOND
  1   1   2  1   
  2   1   3  1   
  3   2   4  2   
  4   2   5  1   
  5   3   6  2   
  6   3  23  1   
  7   4   6  1   
  8   5  24  1   
  9   5  25  1   
 10   5  26  1   
 11   6   7  1   
 12   7   8  1   
 13   7  27  1   
 14   7  28  1   
 15   8   9  2   
 16   8  10  am  
 17  10  11  1   
 18  10  29  1   
 19  11  12  1   
 20  11  13  1   
 21  11  30  1   
 22  12  14  1   
 23  12  15  1   
 24  12  31  1   
 25  13  16  1   
 26  13  32  1   
 27  13  33  1   
 28  14  16  1   
 29  14  34  1   
 30  14  35  1   
 31  15  17  1   
 32  15  36  1   
 33  15  37  1   
 34  17  18  ar  
 35  17  19  ar  
 36  18  20  ar  
 37  18  38  1   
 38  19  21  ar  
 39  19  39  1   
 40  20  22  ar  
 41  20  40  1   
 42  21  22  ar  
 43  21  41  1   
@<TRIPOS>SUBSTRUCTURE
  1 ****  10 GROUP 4 **** **** 0

# MOE 2024.06 (io_trps.svl 2023.06)
