@<TRIPOS>MOLECULE
NONAME
51 53 1 0 0 
SMALL
USER_CHARGES


@<TRIPOS>ATOM
  1 S       -1.6030    -1.1960    -0.7230 S.3   1 <1>  -0.0800 
  2 C       -1.3040    -1.8180     0.8650 C.2   1 <1>   0.4420 
  3 C       -0.7510     0.2330    -0.2430 C.2   1 <1>   0.1980 
  4 N       -0.6530    -0.9900     1.5990 N.2   1 <1>  -0.3380 
  5 N       -1.7870    -3.0780     1.1300 N.am  1 <1>  -0.4940 
  6 N       -0.3400     0.1780     0.9600 N.2   1 <1>  -0.3380 
  7 C       -0.5990     1.3640    -1.2460 C.3   1 <1>   0.3000 
  8 C       -1.8080    -3.8140     2.2750 C.2   1 <1>   0.5690 
  9 O       -0.1890     0.8670    -2.4880 O.3   1 <1>  -0.5600 
 10 O       -1.3860    -3.4390     3.3390 O.2   1 <1>  -0.5700 
 11 C       -2.4250    -5.2090     2.1570 C.3   1 <1>   0.1710 
 12 C        0.0280     1.8470    -3.4520 C.3   1 <1>   0.0400 
 13 N       -3.2690    -5.3810     0.9300 N.3   1 <1>  -0.8100 
 14 C       -3.3890    -6.8140     0.5840 C.3   1 <1>   0.1100 
 15 C       -4.5840    -4.7410     1.1090 C.3   1 <1>   0.1100 
 16 C       -4.1250    -7.0830    -0.7440 C.3   1 <1>   0.2090 
 17 C       -5.1920    -4.4190    -0.2570 C.3   1 <1>  -0.1600 
 18 N       -5.6120    -6.9110    -0.6170 N.pl3 1 <1>  -0.8380 
 19 C       -6.1110    -5.5130    -0.8140 C.3   1 <1>   0.2090 
 20 C       -6.4610    -7.9710    -0.4770 C.ar  1 <1>   0.1000 
 21 C       -7.7730    -7.9440    -0.9790 C.ar  1 <1>  -0.1500 
 22 C       -6.0740    -9.1520     0.1720 C.ar  1 <1>  -0.1500 
 23 C       -8.6220    -9.0110    -0.8340 C.ar  1 <1>   0.2180 
 24 C       -6.9390   -10.2060     0.3030 C.ar  1 <1>   0.2110 
 25 N       -8.1970   -10.1270    -0.1950 N.ar  1 <1>  -0.1790 
 26 C      -10.0420    -8.9870    -1.3760 C.3   1 <1>  -0.0970 
 27 H       -2.2480    -3.5670     0.3600 H     1 <1>   0.3700 
 28 H        0.1400     2.0610    -0.8910 H     1 <1>   0.0800 
 29 H       -1.5420     1.8660    -1.3720 H     1 <1>   0.0800 
 30 H       -3.0050    -5.4130     3.0400 H     1 <1>   0.0800 
 31 H       -1.6060    -5.9050     2.1340 H     1 <1>   0.0800 
 32 H        0.3330     1.3590    -4.3610 H     1 <1>   0.0800 
 33 H        0.8100     2.5090    -3.1180 H     1 <1>   0.0800 
 34 H       -0.8850     2.3910    -3.6220 H     1 <1>   0.0800 
 35 H       -3.8830    -7.3440     1.3790 H     1 <1>   0.0800 
 36 H       -2.3970    -7.2190     0.4840 H     1 <1>   0.0800 
 37 H       -4.4610    -3.8120     1.6420 H     1 <1>   0.0800 
 38 H       -5.2420    -5.3670     1.6890 H     1 <1>   0.0800 
 39 H       -3.9160    -8.0900    -1.0550 H     1 <1>   0.0800 
 40 H       -3.7370    -6.4340    -1.5110 H     1 <1>   0.0800 
 41 H       -4.4160    -4.1900    -0.9650 H     1 <1>   0.0800 
 42 H       -5.7880    -3.5290    -0.1580 H     1 <1>   0.0800 
 43 H       -6.2640    -5.3400    -1.8660 H     1 <1>   0.0800 
 44 H       -7.0640    -5.4190    -0.3220 H     1 <1>   0.0800 
 45 H       -8.1080    -7.0660    -1.4990 H     1 <1>   0.1500 
 46 H       -5.0840    -9.2250     0.5810 H     1 <1>   0.1500 
 47 H       -6.6370   -11.1120     0.8050 H     1 <1>   0.1500 
 48 H       -8.8370   -10.9210    -0.0920 H     1 <1>   0.4570 
 49 H      -10.2460    -8.0480    -1.8590 H     1 <1>   0.0800 
 50 H      -10.7510    -9.1130    -0.5770 H     1 <1>   0.0800 
 51 H      -10.1810    -9.7710    -2.0990 H     1 <1>   0.0800 
@<TRIPOS>BOND
  1   1   2  1   
  2   1   3  1   
  3   2   4  2   
  4   2   5  1   
  5   3   6  2   
  6   3   7  1   
  7   4   6  1   
  8   5   8  am  
  9   5  27  1   
 10   7   9  1   
 11   7  28  1   
 12   7  29  1   
 13   8  10  2   
 14   8  11  1   
 15   9  12  1   
 16  11  13  1   
 17  11  30  1   
 18  11  31  1   
 19  12  32  1   
 20  12  33  1   
 21  12  34  1   
 22  13  14  1   
 23  13  15  1   
 24  14  16  1   
 25  14  35  1   
 26  14  36  1   
 27  15  17  1   
 28  15  37  1   
 29  15  38  1   
 30  16  18  1   
 31  16  39  1   
 32  16  40  1   
 33  17  19  1   
 34  17  41  1   
 35  17  42  1   
 36  18  19  1   
 37  18  20  1   
 38  19  43  1   
 39  19  44  1   
 40  20  21  ar  
 41  20  22  ar  
 42  21  23  ar  
 43  21  45  1   
 44  22  24  ar  
 45  22  46  1   
 46  23  25  ar  
 47  23  26  1   
 48  24  25  ar  
 49  24  47  1   
 50  25  48  1   
 51  26  49  1   
 52  26  50  1   
 53  26  51  1   
@<TRIPOS>SUBSTRUCTURE
  1 ****  13 GROUP 4 **** **** 0

# MOE 2024.06 (io_trps.svl 2023.06)
