@<TRIPOS>MOLECULE
NONAME
50 53 1 0 0 
SMALL
USER_CHARGES


@<TRIPOS>ATOM
  1 O        2.7370    -0.0490    -2.2330 O.2   1 <1>  -0.5700 
  2 C        2.1740    -0.4140    -1.2310 C.2   1 <1>   0.5690 
  3 N        1.6700     0.4620    -0.3400 N.am  1 <1>  -0.7300 
  4 C        2.0170    -1.8910    -0.9680 C.3   1 <1>  -0.0990 
  5 C        1.6540     1.9240    -0.5060 C.3   1 <1>   0.4950 
  6 C        0.7570    -2.4290    -1.6530 C.3   1 <1>   0.0200 
  7 C        2.6820     2.5390     0.4420 C.2   1 <1>   0.0060 
  8 C        0.2290     2.4640    -0.2620 C.3   1 <1>  -0.1950 
  9 C        0.5620    -3.8930    -1.3170 C.2   1 <1>   0.0070 
 10 N        2.4380     3.0870     1.5850 N.2   1 <1>  -0.5650 
 11 N        3.9950     2.5630     0.1700 N.pl3 1 <1>   0.3140 
 12 C       -0.7260     1.9020     0.7510 C.3   1 <1>  -0.2000 
 13 C       -1.0110     1.7530    -0.7180 C.3   1 <1>  -0.2000 
 14 N       -0.0110    -4.3010    -0.2420 N.2   1 <1>  -0.5650 
 15 N        0.9870    -4.8960    -2.1260 N.pl3 1 <1>   0.0330 
 16 C        3.6640     3.4430     1.9820 C.2   1 <1>   0.3660 
 17 N        4.6270     3.1540     1.1730 N.2   1 <1>  -0.7070 
 18 C        4.7330     2.0420    -0.9920 C.3   1 <1>   0.0160 
 19 C        0.0240    -5.6650    -0.3260 C.ar  1 <1>   0.2270 
 20 C        0.6480    -6.0480    -1.4980 C.ar  1 <1>  -0.1520 
 21 C       -0.4570    -6.6330     0.5670 C.ar  1 <1>  -0.1430 
 22 C        0.8190    -7.3920    -1.8240 C.ar  1 <1>  -0.1500 
 23 C       -0.2820    -7.9720     0.2540 C.ar  1 <1>  -0.1430 
 24 C       -1.1460    -6.1600     1.8420 C.3   1 <1>  -0.0970 
 25 C        0.3520    -8.3390    -0.9430 C.ar  1 <1>  -0.1500 
 26 C       -0.7570    -9.0850     1.1780 C.3   1 <1>  -0.0970 
 27 H        1.2280     0.1530     0.5250 H     1 <1>   0.3700 
 28 H        1.9550    -2.0660     0.0910 H     1 <1>   0.0800 
 29 H        2.8830    -2.4070    -1.3400 H     1 <1>   0.0800 
 30 H        1.9250     2.1730    -1.5180 H     1 <1>   0.0800 
 31 H        0.8270    -2.2950    -2.7180 H     1 <1>   0.0800 
 32 H       -0.1010    -1.8820    -1.3040 H     1 <1>   0.0800 
 33 H        0.2230     3.5360    -0.3540 H     1 <1>   0.1000 
 34 H       -1.3100     2.5960     1.3310 H     1 <1>   0.1000 
 35 H       -0.4550     1.0310     1.3200 H     1 <1>   0.1000 
 36 H       -0.9370     0.7730    -1.1570 H     1 <1>   0.1000 
 37 H       -1.8090     2.3330    -1.1490 H     1 <1>   0.1000 
 38 H        1.4620    -4.8140    -3.0270 H     1 <1>   0.2700 
 39 H        3.8150     3.9430     2.9260 H     1 <1>   0.1500 
 40 H        4.2030     2.2720    -1.8970 H     1 <1>   0.0800 
 41 H        4.8390     0.9780    -0.8940 H     1 <1>   0.0800 
 42 H        5.7070     2.4950    -1.0240 H     1 <1>   0.0800 
 43 H        1.3040    -7.6740    -2.7420 H     1 <1>   0.1500 
 44 H       -1.6430    -5.2220     1.6700 H     1 <1>   0.0800 
 45 H       -0.4140    -6.0200     2.6160 H     1 <1>   0.0800 
 46 H       -1.8850    -6.8640     2.1760 H     1 <1>   0.0800 
 47 H        0.4750    -9.3810    -1.1770 H     1 <1>   0.1500 
 48 H       -0.4640    -8.8780     2.1910 H     1 <1>   0.0800 
 49 H       -0.3310   -10.0300     0.8960 H     1 <1>   0.0800 
 50 H       -1.8280    -9.1640     1.1300 H     1 <1>   0.0800 
@<TRIPOS>BOND
  1   1   2  2   
  2   2   3  am  
  3   2   4  1   
  4   3   5  1   
  5   3  27  1   
  6   4   6  1   
  7   4  28  1   
  8   4  29  1   
  9   5   7  1   
 10   5   8  1   
 11   5  30  1   
 12   6   9  1   
 13   6  31  1   
 14   6  32  1   
 15   7  10  2   
 16   7  11  1   
 17   8  12  1   
 18   8  13  1   
 19   8  33  1   
 20   9  14  2   
 21   9  15  1   
 22  10  16  1   
 23  11  17  1   
 24  11  18  1   
 25  12  13  1   
 26  12  34  1   
 27  12  35  1   
 28  13  36  1   
 29  13  37  1   
 30  14  19  1   
 31  15  20  1   
 32  15  38  1   
 33  16  17  2   
 34  16  39  1   
 35  18  40  1   
 36  18  41  1   
 37  18  42  1   
 38  19  20  ar  
 39  19  21  ar  
 40  20  22  ar  
 41  21  23  ar  
 42  21  24  1   
 43  22  25  ar  
 44  22  43  1   
 45  23  25  ar  
 46  23  26  1   
 47  24  44  1   
 48  24  45  1   
 49  24  46  1   
 50  25  47  1   
 51  26  48  1   
 52  26  49  1   
 53  26  50  1   
@<TRIPOS>SUBSTRUCTURE
  1 ****   4 GROUP 4 **** **** 0

# MOE 2024.06 (io_trps.svl 2023.06)
