@<TRIPOS>MOLECULE
NONAME
60 62 1 0 0 
SMALL
USER_CHARGES


@<TRIPOS>ATOM
  1 O        0.0770     2.8880    -2.1460 O.2   1 <1>  -0.5700 
  2 C       -0.5290     3.8950    -1.8580 C.2   1 <1>   0.5690 
  3 N       -1.0570     4.1400    -0.6210 N.am  1 <1>  -0.5090 
  4 C       -0.7530     4.9530    -2.9330 C.3   1 <1>   0.1810 
  5 C       -1.9310     5.3350    -0.4270 C.3   1 <1>   0.3640 
  6 C       -0.9600     3.2080     0.5240 C.3   1 <1>   0.0490 
  7 O       -0.6360     6.2450    -2.3950 O.3   1 <1>  -0.5600 
  8 C       -3.4090     5.0090    -0.6760 C.ar  1 <1>  -0.1440 
  9 C       -1.4910     6.5540    -1.2910 C.3   1 <1>   0.2610 
 10 C       -0.2940     3.6930     1.7740 C.3   1 <1>  -0.2000 
 11 C        0.3720     2.6580     0.9250 C.3   1 <1>  -0.2000 
 12 C       -3.8470     3.9050    -1.4010 C.ar  1 <1>  -0.1500 
 13 C       -4.3600     5.8730    -0.1450 C.ar  1 <1>  -0.1500 
 14 C       -0.8090     7.5540    -0.3600 C.2   1 <1>   0.5690 
 15 C       -5.1980     3.6810    -1.5940 C.ar  1 <1>  -0.1500 
 16 C       -5.7120     5.6510    -0.3370 C.ar  1 <1>  -0.1500 
 17 O       -1.4890     8.1380     0.4530 O.2   1 <1>  -0.5700 
 18 N        0.5370     7.7080    -0.4590 N.am  1 <1>  -0.7300 
 19 C       -6.1400     4.5480    -1.0680 C.ar  1 <1>   0.0830 
 20 C        1.4960     8.3990     0.4040 C.3   1 <1>   0.3000 
 21 O       -7.4430     4.2560    -1.3060 O.3   1 <1>  -0.3620 
 22 C        2.9200     8.1120    -0.1360 C.3   1 <1>  -0.1600 
 23 C        1.2240     9.9020     0.2940 C.3   1 <1>  -0.2400 
 24 C        1.3030     7.9430     1.8510 C.3   1 <1>  -0.2400 
 25 C       -8.4800     5.0660    -0.8000 C.3   1 <1>   0.0400 
 26 C        3.5440     6.6880    -0.1320 C.3   1 <1>  -0.0800 
 27 C        2.6620     5.5860    -0.7350 C.3   1 <1>  -0.2400 
 28 C        4.0670     6.2520     1.2440 C.3   1 <1>  -0.2400 
 29 H       -1.7310     4.8440    -3.3650 H     1 <1>   0.0800 
 30 H       -0.0120     4.8470    -3.7040 H     1 <1>   0.0800 
 31 H       -1.8620     5.6200     0.6090 H     1 <1>   0.0800 
 32 H       -1.8230     2.5690     0.6120 H     1 <1>   0.1000 
 33 H       -2.3620     7.0370    -1.6940 H     1 <1>   0.0800 
 34 H        0.1370     4.6780     1.7990 H     1 <1>   0.1000 
 35 H       -0.6880     3.3870     2.7260 H     1 <1>   0.1000 
 36 H        0.4180     1.6460     1.2860 H     1 <1>   0.1000 
 37 H        1.2340     2.9260     0.3400 H     1 <1>   0.1000 
 38 H       -3.1530     3.1990    -1.8210 H     1 <1>   0.1500 
 39 H       -4.0520     6.7340     0.4270 H     1 <1>   0.1500 
 40 H       -5.5330     2.8270    -2.1550 H     1 <1>   0.1500 
 41 H       -6.4140     6.3430     0.0890 H     1 <1>   0.1500 
 42 H        0.9890     7.1800    -1.2100 H     1 <1>   0.3700 
 43 H        2.9440     8.4600    -1.1540 H     1 <1>   0.0800 
 44 H        3.6000     8.7510     0.3990 H     1 <1>   0.0800 
 45 H        1.9250    10.4510     0.8950 H     1 <1>   0.0800 
 46 H        0.2340    10.1350     0.6440 H     1 <1>   0.0800 
 47 H        1.3160    10.2300    -0.7250 H     1 <1>   0.0800 
 48 H        2.1110     8.2980     2.4630 H     1 <1>   0.0800 
 49 H        1.2610     6.8730     1.9090 H     1 <1>   0.0800 
 50 H        0.3870     8.3370     2.2530 H     1 <1>   0.0800 
 51 H       -9.4180     4.6400    -1.1090 H     1 <1>   0.0800 
 52 H       -8.3790     6.0570    -1.2050 H     1 <1>   0.0800 
 53 H       -8.4210     5.0790     0.2740 H     1 <1>   0.0800 
 54 H        4.4150     6.7550    -0.7630 H     1 <1>   0.0800 
 55 H        1.8040     5.3950    -0.1160 H     1 <1>   0.0800 
 56 H        3.2200     4.6690    -0.8150 H     1 <1>   0.0800 
 57 H        2.3350     5.8590    -1.7220 H     1 <1>   0.0800 
 58 H        3.2690     5.9960     1.9140 H     1 <1>   0.0800 
 59 H        4.6580     7.0320     1.6900 H     1 <1>   0.0800 
 60 H        4.6920     5.3830     1.1360 H     1 <1>   0.0800 
@<TRIPOS>BOND
  1   1   2  2   
  2   2   3  am  
  3   2   4  1   
  4   3   5  1   
  5   3   6  1   
  6   4   7  1   
  7   4  29  1   
  8   4  30  1   
  9   5   8  1   
 10   5   9  1   
 11   5  31  1   
 12   6  10  1   
 13   6  11  1   
 14   6  32  1   
 15   7   9  1   
 16   8  12  ar  
 17   8  13  ar  
 18   9  14  1   
 19   9  33  1   
 20  10  11  1   
 21  10  34  1   
 22  10  35  1   
 23  11  36  1   
 24  11  37  1   
 25  12  15  ar  
 26  12  38  1   
 27  13  16  ar  
 28  13  39  1   
 29  14  17  2   
 30  14  18  am  
 31  15  19  ar  
 32  15  40  1   
 33  16  19  ar  
 34  16  41  1   
 35  18  20  1   
 36  18  42  1   
 37  19  21  1   
 38  20  22  1   
 39  20  23  1   
 40  20  24  1   
 41  21  25  1   
 42  22  26  1   
 43  22  43  1   
 44  22  44  1   
 45  23  45  1   
 46  23  46  1   
 47  23  47  1   
 48  24  48  1   
 49  24  49  1   
 50  24  50  1   
 51  25  51  1   
 52  25  52  1   
 53  25  53  1   
 54  26  27  1   
 55  26  28  1   
 56  26  54  1   
 57  27  55  1   
 58  27  56  1   
 59  27  57  1   
 60  28  58  1   
 61  28  59  1   
 62  28  60  1   
@<TRIPOS>SUBSTRUCTURE
  1 ****   5 GROUP 4 **** **** 0

# MOE 2024.06 (io_trps.svl 2023.06)
