@<TRIPOS>MOLECULE
NONAME
55 57 1 0 0 
SMALL
USER_CHARGES


@<TRIPOS>ATOM
  1 S       -3.4680    -1.1380     0.1420 S.3   1 <1>  -0.0800 
  2 C       -3.3620     0.1880     1.2910 C.2   1 <1>  -0.1400 
  3 C       -3.5810    -2.3120     1.4410 C.2   1 <1>  -0.1100 
  4 C       -3.4160    -0.2780     2.5540 C.2   1 <1>  -0.1500 
  5 C       -3.2430     1.5880     0.7260 C.3   1 <1>   0.3890 
  6 C       -3.5410    -1.7010     2.6390 C.2   1 <1>  -0.1500 
  7 N       -4.5370     1.9150     0.1060 N.pl3 1 <1>  -0.8690 
  8 C       -4.6430     2.9080    -0.8570 C.ar  1 <1>   0.1000 
  9 C       -5.2390     2.6460    -2.1040 C.ar  1 <1>   0.0860 
 10 C       -4.1700     4.1880    -0.5780 C.ar  1 <1>  -0.1500 
 11 C       -5.7340     1.3340    -2.4650 C.2   1 <1>   0.5440 
 12 C       -5.3120     3.6870    -3.0310 C.ar  1 <1>  -0.1500 
 13 C       -4.2610     5.2020    -1.5090 C.ar  1 <1>  -0.1500 
 14 O       -5.2860     0.7960    -3.4610 O.2   1 <1>  -0.5700 
 15 N       -6.6970     0.6490    -1.7420 N.am  1 <1>  -0.6600 
 16 C       -4.8330     4.9500    -2.7440 C.ar  1 <1>  -0.1500 
 17 C       -7.0430    -0.7590    -2.1230 C.3   1 <1>   0.1400 
 18 C       -7.5230     1.2550    -0.6560 C.3   1 <1>   0.1400 
 19 C       -8.2550    -1.2960    -1.3410 C.3   1 <1>   0.2000 
 20 C       -7.5430     0.2910     0.5370 C.3   1 <1>  -0.1600 
 21 O       -8.4810    -2.6240    -1.6940 O.3   1 <1>  -0.6800 
 22 C       -8.1180    -1.1230     0.2050 C.3   1 <1>   0.0000 
 23 C       -7.1500    -2.2090     0.7550 C.3   1 <1>   0.1200 
 24 C       -9.5000    -1.3210     0.8940 C.3   1 <1>  -0.1600 
 25 O       -6.8940    -2.0470     2.1110 O.3   1 <1>  -0.6800 
 26 C      -10.6210    -0.3460     0.4820 C.3   1 <1>  -0.1600 
 27 C      -11.8750    -0.5760     1.3290 C.3   1 <1>  -0.2400 
 28 H       -3.6670    -3.3500     1.1690 H     1 <1>   0.1500 
 29 H       -3.3750     0.3220     3.4460 H     1 <1>   0.1500 
 30 H       -2.4560     1.6310    -0.0080 H     1 <1>   0.0800 
 31 H       -3.0330     2.2900     1.5140 H     1 <1>   0.0800 
 32 H       -3.5960    -2.1970     3.5930 H     1 <1>   0.1500 
 33 H       -4.9930     1.0340    -0.1740 H     1 <1>   0.4000 
 34 H       -3.7350     4.3880     0.3840 H     1 <1>   0.1500 
 35 H       -5.7490     3.4880    -3.9940 H     1 <1>   0.1500 
 36 H       -3.8890     6.1860    -1.2790 H     1 <1>   0.1500 
 37 H       -4.9020     5.7370    -3.4760 H     1 <1>   0.1500 
 38 H       -7.2670    -0.7880    -3.1760 H     1 <1>   0.0800 
 39 H       -6.1820    -1.3780    -1.9420 H     1 <1>   0.0800 
 40 H       -7.1280     2.2070    -0.3500 H     1 <1>   0.0800 
 41 H       -8.5230     1.4210    -1.0190 H     1 <1>   0.0800 
 42 H       -9.1090    -0.7490    -1.6950 H     1 <1>   0.0800 
 43 H       -6.5300     0.2110     0.8850 H     1 <1>   0.0800 
 44 H       -8.0950     0.7430     1.3420 H     1 <1>   0.0800 
 45 H       -7.6980    -3.1730    -1.5050 H     1 <1>   0.4000 
 46 H       -6.2070    -2.1800     0.2390 H     1 <1>   0.0800 
 47 H       -7.5790    -3.1890     0.6340 H     1 <1>   0.0800 
 48 H       -9.8410    -2.3240     0.7000 H     1 <1>   0.0800 
 49 H       -9.3660    -1.2440     1.9600 H     1 <1>   0.0800 
 50 H       -6.3200    -1.2690     2.2580 H     1 <1>   0.4000 
 51 H      -10.3050     0.6730     0.6090 H     1 <1>   0.0800 
 52 H      -10.8840    -0.4930    -0.5510 H     1 <1>   0.0800 
 53 H      -11.6630    -0.4090     2.3710 H     1 <1>   0.0800 
 54 H      -12.2310    -1.5840     1.2060 H     1 <1>   0.0800 
 55 H      -12.6540     0.1010     1.0260 H     1 <1>   0.0800 
@<TRIPOS>BOND
  1   1   2  1   
  2   1   3  1   
  3   2   4  2   
  4   2   5  1   
  5   3   6  2   
  6   3  28  1   
  7   4   6  1   
  8   4  29  1   
  9   5   7  1   
 10   5  30  1   
 11   5  31  1   
 12   6  32  1   
 13   7   8  1   
 14   7  33  1   
 15   8   9  ar  
 16   8  10  ar  
 17   9  11  1   
 18   9  12  ar  
 19  10  13  ar  
 20  10  34  1   
 21  11  14  2   
 22  11  15  am  
 23  12  16  ar  
 24  12  35  1   
 25  13  16  ar  
 26  13  36  1   
 27  15  17  1   
 28  15  18  1   
 29  16  37  1   
 30  17  19  1   
 31  17  38  1   
 32  17  39  1   
 33  18  20  1   
 34  18  40  1   
 35  18  41  1   
 36  19  21  1   
 37  19  22  1   
 38  19  42  1   
 39  20  22  1   
 40  20  43  1   
 41  20  44  1   
 42  21  45  1   
 43  22  23  1   
 44  22  24  1   
 45  23  25  1   
 46  23  46  1   
 47  23  47  1   
 48  24  26  1   
 49  24  48  1   
 50  24  49  1   
 51  25  50  1   
 52  26  27  1   
 53  26  51  1   
 54  26  52  1   
 55  27  53  1   
 56  27  54  1   
 57  27  55  1   
@<TRIPOS>SUBSTRUCTURE
  1 ****  15 GROUP 4 **** **** 0

# MOE 2024.06 (io_trps.svl 2023.06)
