@<TRIPOS>MOLECULE
NONAME
53 55 1 0 0 
SMALL
USER_CHARGES


@<TRIPOS>ATOM
  1 S        0.0470     0.4410     0.1190 S.3   1 <1>  -0.4600 
  2 C        0.1600    -1.3500     0.3700 C.3   1 <1>   0.1500 
  3 C        1.7750     0.9710     0.0070 C.3   1 <1>   0.0700 
  4 C        0.5130    -2.0110    -0.9680 C.3   1 <1>  -0.1600 
  5 C       -1.1940    -1.8280     0.9040 C.3   1 <1>  -0.1600 
  6 C        1.7860     2.4970    -0.0730 C.3   1 <1>  -0.1600 
  7 C        0.4740    -3.5420    -0.8510 C.3   1 <1>  -0.1600 
  8 C       -1.2300    -3.3580     1.0220 C.3   1 <1>  -0.1600 
  9 C        3.2130     3.0200    -0.2040 C.3   1 <1>   0.2090 
 10 C       -0.8820    -4.0250    -0.3170 C.3   1 <1>  -0.1600 
 11 N        3.1830     4.4950    -0.2440 N.pl3 1 <1>  -0.8690 
 12 C        4.3230     5.2350    -0.4530 C.ar  1 <1>   0.4100 
 13 N        5.4870     4.6020    -0.3820 N.ar  1 <1>  -0.6200 
 14 C        4.2080     6.5900    -0.7250 C.ar  1 <1>  -0.1500 
 15 C        6.5580     5.3420    -0.6000 C.ar  1 <1>   0.1600 
 16 C        5.3270     7.3720    -0.9380 C.ar  1 <1>   0.0860 
 17 C        6.5370     6.6940    -0.8770 C.ar  1 <1>  -0.1500 
 18 C        5.2300     8.7920    -1.2120 C.2   1 <1>   0.5440 
 19 O        4.4440     9.1880    -2.0510 O.2   1 <1>  -0.5700 
 20 N        6.0000     9.7120    -0.5370 N.am  1 <1>  -0.6600 
 21 C        6.6730     9.4650     0.7580 C.3   1 <1>   0.1400 
 22 C        5.9120    11.1630    -0.8170 C.3   1 <1>   0.1400 
 23 C        6.7370    10.8330     1.4270 C.3   1 <1>  -0.1600 
 24 C        6.7530    11.8260     0.2690 C.3   1 <1>  -0.1600 
 25 H        0.9310    -1.5240     1.0990 H     1 <1>   0.0800 
 26 H        2.1950     0.5230    -0.8760 H     1 <1>   0.0800 
 27 H        2.2800     0.6150     0.8880 H     1 <1>   0.0800 
 28 H        1.4920    -1.7020    -1.2830 H     1 <1>   0.0800 
 29 H       -0.1960    -1.6960    -1.7140 H     1 <1>   0.0800 
 30 H       -1.9720    -1.5070     0.2340 H     1 <1>   0.0800 
 31 H       -1.3770    -1.3840     1.8670 H     1 <1>   0.0800 
 32 H        1.3400     2.8990     0.8200 H     1 <1>   0.0800 
 33 H        1.2110     2.8070    -0.9270 H     1 <1>   0.0800 
 34 H        1.2550    -3.8680    -0.1860 H     1 <1>   0.0800 
 35 H        0.6580    -3.9820    -1.8160 H     1 <1>   0.0800 
 36 H       -2.2100    -3.6720     1.3370 H     1 <1>   0.0800 
 37 H       -0.5250    -3.6750     1.7720 H     1 <1>   0.0800 
 38 H        3.6690     2.6470    -1.1060 H     1 <1>   0.0800 
 39 H        3.8070     2.7030     0.6380 H     1 <1>   0.0800 
 40 H       -0.8590    -5.0940    -0.1910 H     1 <1>   0.0800 
 41 H       -1.6490    -3.7950    -1.0370 H     1 <1>   0.0800 
 42 H        2.3250     4.8820    -0.6390 H     1 <1>   0.4000 
 43 H        3.2350     7.0400    -0.7690 H     1 <1>   0.1500 
 44 H        7.5090     4.8380    -0.5560 H     1 <1>   0.1500 
 45 H        7.4540     7.2250    -1.0520 H     1 <1>   0.1500 
 46 H        7.6670     9.0960     0.5740 H     1 <1>   0.0800 
 47 H        6.1240     8.7590     1.3580 H     1 <1>   0.0800 
 48 H        4.8840    11.4740    -0.7440 H     1 <1>   0.0800 
 49 H        6.2840    11.3820    -1.8030 H     1 <1>   0.0800 
 50 H        7.6000    10.9280     2.0630 H     1 <1>   0.0800 
 51 H        5.8490    10.9750     2.0170 H     1 <1>   0.0800 
 52 H        6.3590    12.7870     0.5450 H     1 <1>   0.0800 
 53 H        7.7580    11.9490    -0.0960 H     1 <1>   0.0800 
@<TRIPOS>BOND
  1   1   2  1   
  2   1   3  1   
  3   2   4  1   
  4   2   5  1   
  5   2  25  1   
  6   3   6  1   
  7   3  26  1   
  8   3  27  1   
  9   4   7  1   
 10   4  28  1   
 11   4  29  1   
 12   5   8  1   
 13   5  30  1   
 14   5  31  1   
 15   6   9  1   
 16   6  32  1   
 17   6  33  1   
 18   7  10  1   
 19   7  34  1   
 20   7  35  1   
 21   8  10  1   
 22   8  36  1   
 23   8  37  1   
 24   9  11  1   
 25   9  38  1   
 26   9  39  1   
 27  10  40  1   
 28  10  41  1   
 29  11  12  1   
 30  11  42  1   
 31  12  13  ar  
 32  12  14  ar  
 33  13  15  ar  
 34  14  16  ar  
 35  14  43  1   
 36  15  17  ar  
 37  15  44  1   
 38  16  17  ar  
 39  16  18  1   
 40  17  45  1   
 41  18  19  2   
 42  18  20  am  
 43  20  21  1   
 44  20  22  1   
 45  21  23  1   
 46  21  46  1   
 47  21  47  1   
 48  22  24  1   
 49  22  48  1   
 50  22  49  1   
 51  23  24  1   
 52  23  50  1   
 53  23  51  1   
 54  24  52  1   
 55  24  53  1   
@<TRIPOS>SUBSTRUCTURE
  1 ****  11 GROUP 4 **** **** 0

# MOE 2024.06 (io_trps.svl 2023.06)
