@<TRIPOS>MOLECULE
NONAME
53 55 1 0 0 
SMALL
USER_CHARGES


@<TRIPOS>ATOM
  1 O       -0.9110     0.9100    -1.9830 O.co2 1 <1>  -0.9000 
  2 C       -1.3130     1.0790    -0.8280 C.2   1 <1>   0.9060 
  3 O       -2.0000     0.2500    -0.2240 O.co2 1 <1>  -0.9000 
  4 C       -0.9740     2.3800    -0.1300 C.3   1 <1>  -0.1060 
  5 C       -2.2680     2.9230     0.5070 C.3   1 <1>   0.2000 
  6 C       -0.6150     3.3500    -1.2610 C.3   1 <1>   0.3430 
  7 C        0.1640     2.0950     0.9080 C.3   1 <1>  -0.0170 
  8 O       -2.5750     2.1750     1.6200 O.3   1 <1>  -0.6800 
  9 C       -2.1930     4.4050     0.9080 C.3   1 <1>  -0.1600 
 10 N       -0.4790     4.7970    -0.8540 N.4   1 <1>  -0.9590 
 11 C        1.5720     2.5090     0.4890 C.ar  1 <1>  -0.1440 
 12 C       -0.8430     5.0410     0.5780 C.3   1 <1>   0.3430 
 13 C        0.9030     5.2250    -1.2140 C.3   1 <1>   0.3430 
 14 C        2.1550     1.9750    -0.6510 C.ar  1 <1>  -0.1500 
 15 C        2.2920     3.4150     1.2560 C.ar  1 <1>  -0.1500 
 16 C        1.1620     6.6930    -0.8870 C.3   1 <1>  -0.1600 
 17 C        3.4210     2.3750    -1.0420 C.ar  1 <1>  -0.1500 
 18 C        3.5600     3.8120     0.8690 C.ar  1 <1>  -0.1500 
 19 C        2.5710     7.0900    -1.3430 C.3   1 <1>   0.0960 
 20 C        4.1230     3.2980    -0.2860 C.ar  1 <1>  -0.1500 
 21 N        2.8700     8.4580    -0.8810 N.pl3 1 <1>   0.0480 
 22 C        3.5210     8.8560     0.2400 C.2   1 <1>   0.0060 
 23 C        2.4880     9.6010    -1.4800 C.2   1 <1>  -0.3020 
 24 N        3.5680    10.1390     0.3820 N.2   1 <1>  -0.5650 
 25 C        4.1410     7.9050     1.2450 C.3   1 <1>  -0.0600 
 26 C        2.9230    10.6110    -0.6990 C.2   1 <1>   0.0770 
 27 H       -3.0850     2.7900    -0.1850 H     1 <1>   0.0800 
 28 H       -1.3920     3.2730    -2.0050 H     1 <1>   0.0800 
 29 H        0.2850     3.0040    -1.7410 H     1 <1>   0.0800 
 30 H       -0.0660     2.5770     1.8410 H     1 <1>   0.0800 
 31 H        0.1810     1.0410     1.1350 H     1 <1>   0.0800 
 32 H       -2.5880     1.2230     1.3160 H     1 <1>   0.4000 
 33 H       -2.9650     4.9450     0.3910 H     1 <1>   0.0800 
 34 H       -2.3770     4.5150     1.9630 H     1 <1>   0.0800 
 35 H       -1.1420     5.3230    -1.4360 H     1 <1>   0.4500 
 36 H       -0.0880     4.6140     1.2170 H     1 <1>   0.0800 
 37 H       -0.8870     6.0990     0.7760 H     1 <1>   0.0800 
 38 H        1.6200     4.6160    -0.6940 H     1 <1>   0.0800 
 39 H        1.0560     5.0660    -2.2700 H     1 <1>   0.0800 
 40 H        1.6240     1.2400    -1.2380 H     1 <1>   0.1500 
 41 H        1.8740     3.8090     2.1670 H     1 <1>   0.1500 
 42 H        1.0980     6.8480     0.1750 H     1 <1>   0.0800 
 43 H        0.4400     7.3140    -1.3880 H     1 <1>   0.0800 
 44 H        3.8610     1.9550    -1.9300 H     1 <1>   0.1500 
 45 H        4.1170     4.5080     1.4730 H     1 <1>   0.1500 
 46 H        2.6460     7.0660    -2.4160 H     1 <1>   0.0800 
 47 H        3.3060     6.4190    -0.9340 H     1 <1>   0.0800 
 48 H        5.1120     3.5970    -0.5880 H     1 <1>   0.1500 
 49 H        1.9450     9.6430    -2.4060 H     1 <1>   0.1500 
 50 H        4.5690     8.4680     2.0550 H     1 <1>   0.0800 
 51 H        4.9210     7.3340     0.7780 H     1 <1>   0.0800 
 52 H        3.3940     7.2450     1.6440 H     1 <1>   0.0800 
 53 H        2.8050    11.6710    -0.8570 H     1 <1>   0.1500 
@<TRIPOS>BOND
  1   1   2  ar  
  2   2   3  ar  
  3   2   4  1   
  4   4   5  1   
  5   4   6  1   
  6   4   7  1   
  7   5   8  1   
  8   5   9  1   
  9   5  27  1   
 10   6  10  1   
 11   6  28  1   
 12   6  29  1   
 13   7  11  1   
 14   7  30  1   
 15   7  31  1   
 16   8  32  1   
 17   9  12  1   
 18   9  33  1   
 19   9  34  1   
 20  10  12  1   
 21  10  13  1   
 22  10  35  1   
 23  11  14  ar  
 24  11  15  ar  
 25  12  36  1   
 26  12  37  1   
 27  13  16  1   
 28  13  38  1   
 29  13  39  1   
 30  14  17  ar  
 31  14  40  1   
 32  15  18  ar  
 33  15  41  1   
 34  16  19  1   
 35  16  42  1   
 36  16  43  1   
 37  17  20  ar  
 38  17  44  1   
 39  18  20  ar  
 40  18  45  1   
 41  19  21  1   
 42  19  46  1   
 43  19  47  1   
 44  20  48  1   
 45  21  22  1   
 46  21  23  1   
 47  22  24  2   
 48  22  25  1   
 49  23  26  2   
 50  23  49  1   
 51  24  26  1   
 52  25  50  1   
 53  25  51  1   
 54  25  52  1   
 55  26  53  1   
@<TRIPOS>SUBSTRUCTURE
  1 ****  13 GROUP 4 **** **** 0

# MOE 2024.06 (io_trps.svl 2023.06)
