@<TRIPOS>MOLECULE
NONAME
52 54 1 0 0 
SMALL
USER_CHARGES


@<TRIPOS>ATOM
  1 O       -1.3240    -0.7200    -1.6240 O.3   1 <1>  -0.5600 
  2 C       -0.4960    -1.4260    -0.7540 C.3   1 <1>   0.2800 
  3 C       -2.1720     0.2530    -1.0790 C.3   1 <1>   0.1200 
  4 C       -1.3700    -2.1220     0.3210 C.3   1 <1>  -0.1600 
  5 C        0.5950    -0.4780    -0.2200 C.3   1 <1>  -0.1600 
  6 C        0.1950    -2.4800    -1.6280 C.3   1 <1>  -0.1600 
  7 C       -3.1400    -0.3930    -0.0860 C.3   1 <1>  -0.1600 
  8 C       -2.4040    -1.2060     0.9800 C.3   1 <1>   0.2800 
  9 C        1.6520    -1.2410     0.5650 C.3   1 <1>   0.3430 
 10 C        1.2690    -3.2350    -0.8520 C.3   1 <1>   0.3430 
 11 O       -1.7390    -0.3460     1.8200 O.3   1 <1>  -0.6800 
 12 C       -3.3750    -1.9920     1.8600 C.3   1 <1>  -0.2400 
 13 N        2.2770    -2.2780    -0.3120 N.4   1 <1>  -0.9590 
 14 C        3.3810    -3.0080     0.3770 C.3   1 <1>   0.3430 
 15 C        4.6030    -2.1100     0.6380 C.3   1 <1>  -0.0800 
 16 C        5.1370    -1.4490    -0.6520 C.3   1 <1>  -0.1600 
 17 C        5.7080    -2.9490     1.3040 C.3   1 <1>  -0.1600 
 18 C        6.3980    -0.6180    -0.3770 C.3   1 <1>  -0.1600 
 19 C        6.9640    -2.1120     1.5820 C.3   1 <1>  -0.1600 
 20 C        7.4870    -1.4600     0.2970 C.3   1 <1>  -0.1600 
 21 H       -2.7190     0.6980    -1.8930 H     1 <1>   0.0800 
 22 H       -1.5830     1.0210    -0.6090 H     1 <1>   0.0800 
 23 H       -0.7680    -2.5810     1.0830 H     1 <1>   0.0800 
 24 H       -1.9130    -2.9130    -0.1620 H     1 <1>   0.0800 
 25 H        0.1850     0.2720     0.4270 H     1 <1>   0.0800 
 26 H        1.0650     0.0330    -1.0410 H     1 <1>   0.0800 
 27 H        0.6450    -2.0050    -2.4820 H     1 <1>   0.0800 
 28 H       -0.5330    -3.1810    -1.9960 H     1 <1>   0.0800 
 29 H       -3.7920    -1.0430    -0.6420 H     1 <1>   0.0800 
 30 H       -3.7550     0.3600     0.3720 H     1 <1>   0.0800 
 31 H        1.1970    -1.7060     1.4260 H     1 <1>   0.0800 
 32 H        2.4000    -0.5480     0.9120 H     1 <1>   0.0800 
 33 H        1.7490    -3.9450    -1.5070 H     1 <1>   0.0800 
 34 H        0.8120    -3.7800    -0.0410 H     1 <1>   0.0800 
 35 H       -2.3910     0.1800     2.3210 H     1 <1>   0.4000 
 36 H       -3.9180    -2.7040     1.2650 H     1 <1>   0.0800 
 37 H       -4.0890    -1.3340     2.3220 H     1 <1>   0.0800 
 38 H       -2.8420    -2.5300     2.6230 H     1 <1>   0.0800 
 39 H        2.6910    -1.7860    -1.1150 H     1 <1>   0.4500 
 40 H        3.6980    -3.8340    -0.2390 H     1 <1>   0.0800 
 41 H        3.0260    -3.4110     1.3120 H     1 <1>   0.0800 
 42 H        4.3280    -1.3370     1.3350 H     1 <1>   0.0800 
 43 H        4.3990    -0.7960    -1.0820 H     1 <1>   0.0800 
 44 H        5.3770    -2.2080    -1.3780 H     1 <1>   0.0800 
 45 H        5.9790    -3.7730     0.6660 H     1 <1>   0.0800 
 46 H        5.3520    -3.3560     2.2360 H     1 <1>   0.0800 
 47 H        6.1500     0.2150     0.2600 H     1 <1>   0.0800 
 48 H        6.7780    -0.2190    -1.3020 H     1 <1>   0.0800 
 49 H        7.7320    -2.7390     2.0030 H     1 <1>   0.0800 
 50 H        6.7360    -1.3450     2.3030 H     1 <1>   0.0800 
 51 H        8.3330    -0.8350     0.5300 H     1 <1>   0.0800 
 52 H        7.8230    -2.2240    -0.3820 H     1 <1>   0.0800 
@<TRIPOS>BOND
  1   1   2  1   
  2   1   3  1   
  3   2   4  1   
  4   2   5  1   
  5   2   6  1   
  6   3   7  1   
  7   3  21  1   
  8   3  22  1   
  9   4   8  1   
 10   4  23  1   
 11   4  24  1   
 12   5   9  1   
 13   5  25  1   
 14   5  26  1   
 15   6  10  1   
 16   6  27  1   
 17   6  28  1   
 18   7   8  1   
 19   7  29  1   
 20   7  30  1   
 21   8  11  1   
 22   8  12  1   
 23   9  13  1   
 24   9  31  1   
 25   9  32  1   
 26  10  13  1   
 27  10  33  1   
 28  10  34  1   
 29  11  35  1   
 30  12  36  1   
 31  12  37  1   
 32  12  38  1   
 33  13  14  1   
 34  13  39  1   
 35  14  15  1   
 36  14  40  1   
 37  14  41  1   
 38  15  16  1   
 39  15  17  1   
 40  15  42  1   
 41  16  18  1   
 42  16  43  1   
 43  16  44  1   
 44  17  19  1   
 45  17  45  1   
 46  17  46  1   
 47  18  20  1   
 48  18  47  1   
 49  18  48  1   
 50  19  20  1   
 51  19  49  1   
 52  19  50  1   
 53  20  51  1   
 54  20  52  1   
@<TRIPOS>SUBSTRUCTURE
  1 ****   9 GROUP 4 **** **** 0

# MOE 2024.06 (io_trps.svl 2023.06)
