@<TRIPOS>MOLECULE
NONAME
45 46 1 0 0 
SMALL
USER_CHARGES


@<TRIPOS>ATOM
  1 S        0.5110     0.5770    -1.7530 S.o2  1 <1>   1.3330 
  2 O        0.7870    -0.7530    -2.2480 O.2   1 <1>  -0.6500 
  3 O       -0.2370     1.5060    -2.5700 O.2   1 <1>  -0.6500 
  4 N       -0.3230     0.4220    -0.2800 N.am  1 <1>  -0.8490 
  5 C        2.0690     1.3290    -1.2760 C.3   1 <1>  -0.0550 
  6 C       -1.0110     1.6520     0.1300 C.3   1 <1>   0.1160 
  7 C       -1.2750    -0.6930    -0.2980 C.3   1 <1>   0.1160 
  8 C        3.0050     0.3960    -0.4780 C.3   1 <1>  -0.0800 
  9 C        4.3870     0.9640    -0.1960 C.3   1 <1>   0.2200 
 10 C        2.5110     0.0040     0.9210 C.3   1 <1>   0.1200 
 11 N        4.2980     2.3760     0.2520 N.am  1 <1>  -0.7300 
 12 C        4.7990     0.1050     0.9910 C.3   1 <1>   0.1200 
 13 O        3.6370    -0.0280     1.7530 O.3   1 <1>  -0.5600 
 14 C        4.5480     3.4700    -0.5240 C.2   1 <1>   0.5440 
 15 O        4.7800     3.2840    -1.7020 O.2   1 <1>  -0.5700 
 16 C        4.5260     4.8130     0.0340 C.ar  1 <1>   0.0860 
 17 C        5.1580     5.8690    -0.6280 C.ar  1 <1>  -0.1500 
 18 C        3.8780     5.1060     1.2390 C.ar  1 <1>  -0.1500 
 19 C        5.1690     7.1630    -0.1350 C.ar  1 <1>   0.0820 
 20 C        3.8710     6.3870     1.7610 C.ar  1 <1>  -0.1500 
 21 O        5.8330     8.0740    -0.9020 O.3   1 <1>  -0.3620 
 22 C        4.5120     7.4010     1.0770 C.ar  1 <1>   0.1900 
 23 C        5.9200     9.4430    -0.5720 C.3   1 <1>   0.0400 
 24 F        4.4700     8.5890     1.6230 F     1 <1>  -0.1900 
 25 H        2.5850     1.6260    -2.1690 H     1 <1>   0.0800 
 26 H        1.8740     2.2190    -0.7130 H     1 <1>   0.0800 
 27 H       -1.4420     1.5260     1.1080 H     1 <1>   0.0800 
 28 H       -1.7950     1.8950    -0.5690 H     1 <1>   0.0800 
 29 H       -0.3160     2.4730     0.1660 H     1 <1>   0.0800 
 30 H       -1.7790    -0.7700     0.6490 H     1 <1>   0.0800 
 31 H       -0.7550    -1.6190    -0.4780 H     1 <1>   0.0800 
 32 H       -2.0040    -0.5490    -1.0790 H     1 <1>   0.0800 
 33 H        3.1340    -0.5130    -1.0410 H     1 <1>   0.0800 
 34 H        5.0620     0.8660    -1.0310 H     1 <1>   0.0800 
 35 H        2.0440    -0.9660     0.9230 H     1 <1>   0.0800 
 36 H        1.8330     0.7350     1.3250 H     1 <1>   0.0800 
 37 H        4.1170     2.4710     1.2530 H     1 <1>   0.3700 
 38 H        5.5770     0.5520     1.5840 H     1 <1>   0.0800 
 39 H        5.0980    -0.8770     0.6680 H     1 <1>   0.0800 
 40 H        5.6590     5.6740    -1.5610 H     1 <1>   0.1500 
 41 H        3.3670     4.3280     1.7780 H     1 <1>   0.1500 
 42 H        3.3720     6.6050     2.6890 H     1 <1>   0.1500 
 43 H        6.4780     9.9380    -1.3470 H     1 <1>   0.0800 
 44 H        6.4320     9.5460     0.3680 H     1 <1>   0.0800 
 45 H        4.9280     9.8550    -0.5190 H     1 <1>   0.0800 
@<TRIPOS>BOND
  1   1   2  2   
  2   1   3  2   
  3   1   4  am  
  4   1   5  1   
  5   4   6  1   
  6   4   7  1   
  7   5   8  1   
  8   5  25  1   
  9   5  26  1   
 10   6  27  1   
 11   6  28  1   
 12   6  29  1   
 13   7  30  1   
 14   7  31  1   
 15   7  32  1   
 16   8   9  1   
 17   8  10  1   
 18   8  33  1   
 19   9  11  1   
 20   9  12  1   
 21   9  34  1   
 22  10  13  1   
 23  10  35  1   
 24  10  36  1   
 25  11  14  am  
 26  11  37  1   
 27  12  13  1   
 28  12  38  1   
 29  12  39  1   
 30  14  15  2   
 31  14  16  1   
 32  16  17  ar  
 33  16  18  ar  
 34  17  19  ar  
 35  17  40  1   
 36  18  20  ar  
 37  18  41  1   
 38  19  21  1   
 39  19  22  ar  
 40  20  22  ar  
 41  20  42  1   
 42  21  23  1   
 43  22  24  1   
 44  23  43  1   
 45  23  44  1   
 46  23  45  1   
@<TRIPOS>SUBSTRUCTURE
  1 ****  14 GROUP 4 **** **** 0

# MOE 2024.06 (io_trps.svl 2023.06)
