@<TRIPOS>MOLECULE
NONAME
55 58 1 0 0 
SMALL
USER_CHARGES


@<TRIPOS>ATOM
  1 O        0.7960     0.4470    -0.2070 O.2   1 <1>  -0.5700 
  2 C        1.9660     0.1170    -0.1640 C.2   1 <1>   0.7160 
  3 N        2.9350     1.0680    -0.4110 N.am  1 <1>  -0.6600 
  4 C        2.2980    -1.2500     0.1610 C.2   1 <1>  -0.0860 
  5 C        4.2960     1.0140     0.2060 C.3   1 <1>   0.1400 
  6 C        2.5900     2.3130    -1.1510 C.3   1 <1>   0.1400 
  7 C        1.6510    -2.0870     1.0150 C.2   1 <1>  -0.0100 
  8 C        3.3520    -2.0380    -0.3530 C.2   1 <1>  -0.1500 
  9 C        4.5690     2.1850     1.1680 C.3   1 <1>   0.2090 
 10 C        2.2700     3.4400    -0.1650 C.3   1 <1>  -0.1600 
 11 O        2.2280    -3.2630     1.0660 O.3   1 <1>  -0.2800 
 12 C        3.2520    -3.2440     0.2410 C.2   1 <1>  -0.0100 
 13 N        4.7470     3.4840     0.4380 N.pl3 1 <1>  -0.8380 
 14 C        3.4870     4.2770     0.2460 C.3   1 <1>   0.2090 
 15 C        5.9670     4.0260     0.1540 C.ar  1 <1>   0.4100 
 16 N        6.0310     5.3320    -0.0250 N.ar  1 <1>  -0.6200 
 17 C        7.1260     3.2300     0.0550 C.ar  1 <1>  -0.1500 
 18 C        7.2020     5.8930    -0.2870 C.ar  1 <1>   0.7710 
 19 C        8.3190     3.8170    -0.2050 C.ar  1 <1>   0.2180 
 20 N        8.3240     5.1590    -0.3670 N.ar  1 <1>  -0.1790 
 21 N        7.2800     7.2390    -0.4710 N.pl3 1 <1>  -0.8380 
 22 C        9.6280     3.0560    -0.3250 C.3   1 <1>  -0.0970 
 23 C        8.4680     8.0240    -0.9310 C.3   1 <1>   0.2090 
 24 C        6.1130     8.1420    -0.1900 C.3   1 <1>   0.2090 
 25 C        8.9040     8.9750     0.1870 C.3   1 <1>  -0.1600 
 26 C        6.4920     9.1130     0.9330 C.3   1 <1>  -0.1600 
 27 C        7.7590     9.9130     0.5980 C.3   1 <1>  -0.1600 
 28 H        5.0370     1.0050    -0.5720 H     1 <1>   0.0800 
 29 H        4.4000     0.1070     0.7720 H     1 <1>   0.0800 
 30 H        1.7250     2.1280    -1.7660 H     1 <1>   0.0800 
 31 H        3.4000     2.5950    -1.8030 H     1 <1>   0.0800 
 32 H        0.7740    -1.9030     1.6130 H     1 <1>   0.1500 
 33 H        4.0680    -1.7090    -1.0840 H     1 <1>   0.1500 
 34 H        5.4560     1.9720     1.7370 H     1 <1>   0.0800 
 35 H        3.7610     2.2660     1.8750 H     1 <1>   0.0800 
 36 H        1.7770     3.0400     0.7030 H     1 <1>   0.0800 
 37 H        1.5680     4.1060    -0.6320 H     1 <1>   0.0800 
 38 H        3.8480    -4.1340     0.1350 H     1 <1>   0.1500 
 39 H        3.2640     4.8120     1.1530 H     1 <1>   0.0800 
 40 H        3.6460     5.0080    -0.5290 H     1 <1>   0.0800 
 41 H        7.0470     2.1690     0.1820 H     1 <1>   0.1500 
 42 H        9.1720     5.6830    -0.5350 H     1 <1>   0.4570 
 43 H        9.4670     2.0020    -0.1770 H     1 <1>   0.0800 
 44 H       10.3300     3.3940     0.4170 H     1 <1>   0.0800 
 45 H       10.0560     3.1940    -1.3030 H     1 <1>   0.0800 
 46 H        8.1920     8.6010    -1.7990 H     1 <1>   0.0800 
 47 H        9.2890     7.3920    -1.2140 H     1 <1>   0.0800 
 48 H        5.2340     7.5940     0.1030 H     1 <1>   0.0800 
 49 H        5.8670     8.6940    -1.0820 H     1 <1>   0.0800 
 50 H        9.7400     9.5630    -0.1490 H     1 <1>   0.0800 
 51 H        9.2260     8.4040     1.0400 H     1 <1>   0.0800 
 52 H        6.6430     8.5520     1.8390 H     1 <1>   0.0800 
 53 H        5.6750     9.7910     1.1040 H     1 <1>   0.0800 
 54 H        7.5460    10.5900    -0.2120 H     1 <1>   0.0800 
 55 H        8.0550    10.5020     1.4500 H     1 <1>   0.0800 
@<TRIPOS>BOND
  1   1   2  2   
  2   2   3  am  
  3   2   4  1   
  4   3   5  1   
  5   3   6  1   
  6   4   7  2   
  7   4   8  1   
  8   5   9  1   
  9   5  28  1   
 10   5  29  1   
 11   6  10  1   
 12   6  30  1   
 13   6  31  1   
 14   7  11  1   
 15   7  32  1   
 16   8  12  2   
 17   8  33  1   
 18   9  13  1   
 19   9  34  1   
 20   9  35  1   
 21  10  14  1   
 22  10  36  1   
 23  10  37  1   
 24  11  12  1   
 25  12  38  1   
 26  13  14  1   
 27  13  15  1   
 28  14  39  1   
 29  14  40  1   
 30  15  16  ar  
 31  15  17  ar  
 32  16  18  ar  
 33  17  19  ar  
 34  17  41  1   
 35  18  20  ar  
 36  18  21  1   
 37  19  20  ar  
 38  19  22  1   
 39  20  42  1   
 40  21  23  1   
 41  21  24  1   
 42  22  43  1   
 43  22  44  1   
 44  22  45  1   
 45  23  25  1   
 46  23  46  1   
 47  23  47  1   
 48  24  26  1   
 49  24  48  1   
 50  24  49  1   
 51  25  27  1   
 52  25  50  1   
 53  25  51  1   
 54  26  27  1   
 55  26  52  1   
 56  26  53  1   
 57  27  54  1   
 58  27  55  1   
@<TRIPOS>SUBSTRUCTURE
  1 ****  13 GROUP 4 **** **** 0

# MOE 2024.06 (io_trps.svl 2023.06)
