@<TRIPOS>MOLECULE
NONAME
45 47 1 0 0 
SMALL
USER_CHARGES


@<TRIPOS>ATOM
  1 O        0.0060    -1.1590     1.2490 O.3   1 <1>  -0.5600 
  2 C        0.5700    -2.3200     0.7250 C.3   1 <1>   0.2000 
  3 C       -1.1330    -1.3450     2.0320 C.3   1 <1>   0.0400 
  4 C        1.9150    -2.0260     0.0350 C.3   1 <1>   0.0000 
  5 C       -0.3000    -2.9670    -0.3550 C.3   1 <1>  -0.1600 
  6 C        3.0270    -1.8420     1.0850 C.3   1 <1>   0.2090 
  7 C        1.8580    -0.7640    -0.8720 C.3   1 <1>  -0.1600 
  8 C        2.0920    -3.2960    -0.8200 C.3   1 <1>  -0.1600 
  9 C        0.6830    -3.6610    -1.3090 C.3   1 <1>  -0.1600 
 10 N        4.3480    -1.5760     0.4160 N.pl3 1 <1>  -0.8380 
 11 C        3.2370    -0.3780    -1.4390 C.3   1 <1>  -0.1600 
 12 C        5.4460    -2.3780     0.3940 C.ar  1 <1>   0.7710 
 13 C        4.2990    -0.2810    -0.3400 C.3   1 <1>   0.2090 
 14 N        6.5200    -2.0090    -0.2920 N.ar  1 <1>  -0.6200 
 15 N        5.4170    -3.5400     1.0700 N.ar  1 <1>  -0.1790 
 16 C        7.5590    -2.8080    -0.2980 C.ar  1 <1>   0.4100 
 17 C        6.4730    -4.3890     1.0860 C.ar  1 <1>   0.2110 
 18 N        8.6030    -2.3730    -1.0090 N.pl3 1 <1>  -0.9000 
 19 C        7.5850    -4.0390     0.3930 C.ar  1 <1>  -0.1440 
 20 C        8.8210    -4.9340     0.3540 C.3   1 <1>  -0.0970 
 21 H        0.7210    -3.0200     1.5300 H     1 <1>   0.0800 
 22 H       -1.4300    -0.3860     2.4190 H     1 <1>   0.0800 
 23 H       -0.9040    -2.0090     2.8470 H     1 <1>   0.0800 
 24 H       -1.9250    -1.7460     1.4250 H     1 <1>   0.0800 
 25 H       -0.9890    -3.6730     0.0740 H     1 <1>   0.0800 
 26 H       -0.8450    -2.2080    -0.8900 H     1 <1>   0.0800 
 27 H        3.0670    -2.7020     1.7260 H     1 <1>   0.0800 
 28 H        2.7750    -0.9960     1.7050 H     1 <1>   0.0800 
 29 H        1.1640    -0.9030    -1.6820 H     1 <1>   0.0800 
 30 H        1.5010     0.0720    -0.2940 H     1 <1>   0.0800 
 31 H        2.7720    -3.1620    -1.6420 H     1 <1>   0.0800 
 32 H        2.4550    -4.1010    -0.2070 H     1 <1>   0.0800 
 33 H        0.5420    -4.7290    -1.3090 H     1 <1>   0.0800 
 34 H        0.5320    -3.2950    -2.3110 H     1 <1>   0.0800 
 35 H        3.1600     0.5740    -1.9340 H     1 <1>   0.0800 
 36 H        3.5570    -1.0930    -2.1740 H     1 <1>   0.0800 
 37 H        4.0430     0.5160     0.3380 H     1 <1>   0.0800 
 38 H        5.2460    -0.0300    -0.7850 H     1 <1>   0.0800 
 39 H        4.5560    -3.7290     1.5640 H     1 <1>   0.4570 
 40 H        6.3960    -5.3080     1.6460 H     1 <1>   0.1500 
 41 H        8.5480    -1.4740    -1.4960 H     1 <1>   0.4000 
 42 H        9.4890    -2.8680    -1.1180 H     1 <1>   0.4000 
 43 H        8.6760    -5.8310     0.9300 H     1 <1>   0.0800 
 44 H        9.6700    -4.4090     0.7580 H     1 <1>   0.0800 
 45 H        9.0420    -5.2170    -0.6600 H     1 <1>   0.0800 
@<TRIPOS>BOND
  1   1   2  1   
  2   1   3  1   
  3   2   4  1   
  4   2   5  1   
  5   2  21  1   
  6   3  22  1   
  7   3  23  1   
  8   3  24  1   
  9   4   6  1   
 10   4   7  1   
 11   4   8  1   
 12   5   9  1   
 13   5  25  1   
 14   5  26  1   
 15   6  10  1   
 16   6  27  1   
 17   6  28  1   
 18   7  11  1   
 19   7  29  1   
 20   7  30  1   
 21   8   9  1   
 22   8  31  1   
 23   8  32  1   
 24   9  33  1   
 25   9  34  1   
 26  10  12  1   
 27  10  13  1   
 28  11  13  1   
 29  11  35  1   
 30  11  36  1   
 31  12  14  ar  
 32  12  15  ar  
 33  13  37  1   
 34  13  38  1   
 35  14  16  ar  
 36  15  17  ar  
 37  15  39  1   
 38  16  18  1   
 39  16  19  ar  
 40  17  19  ar  
 41  17  40  1   
 42  18  41  1   
 43  18  42  1   
 44  19  20  1   
 45  20  43  1   
 46  20  44  1   
 47  20  45  1   
@<TRIPOS>SUBSTRUCTURE
  1 ****  10 GROUP 4 **** **** 0

# MOE 2024.06 (io_trps.svl 2023.06)
