@<TRIPOS>MOLECULE
NONAME
48 50 1 0 0 
SMALL
USER_CHARGES


@<TRIPOS>ATOM
  1 O       -0.2170     0.3570    -2.4120 O.2   1 <1>  -0.5700 
  2 C        0.5050    -0.4170    -1.8350 C.2   1 <1>   0.5690 
  3 N        1.5280    -0.0420    -1.0090 N.am  1 <1>  -0.4940 
  4 C        0.2810    -1.9030    -2.0430 C.3   1 <1>  -0.0990 
  5 C        2.0300     1.2320    -0.6460 C.2   1 <1>  -0.0880 
  6 C       -0.2760    -2.5890    -0.7840 C.3   1 <1>  -0.1600 
  7 N        1.3380     2.4010    -0.5110 N.pl3 1 <1>   0.3140 
  8 C        3.3170     1.5190    -0.3320 C.2   1 <1>  -0.1810 
  9 C       -0.5100    -4.0870    -1.0150 C.3   1 <1>   0.0210 
 10 N        2.1480     3.4090    -0.1210 N.2   1 <1>  -0.7070 
 11 C       -0.1040     2.6450    -0.6400 C.3   1 <1>   0.0160 
 12 C        3.3230     2.8760    -0.0210 C.2   1 <1>   0.1080 
 13 C        4.5210     0.5920    -0.3170 C.3   1 <1>  -0.0590 
 14 C       -1.0130    -4.7940     0.2330 C.2   1 <1>  -0.1810 
 15 C        4.5360     3.6890     0.3970 C.3   1 <1>   0.0210 
 16 C       -1.2100    -6.1930     0.2950 C.ar  1 <1>   0.0000 
 17 C       -1.3500    -4.2830     1.4420 C.2   1 <1>  -0.3020 
 18 C        4.7360     3.6460     1.9150 C.3   1 <1>  -0.2400 
 19 C       -1.6680    -6.4720     1.5780 C.ar  1 <1>  -0.1520 
 20 C       -1.0400    -7.2410    -0.6160 C.ar  1 <1>  -0.1500 
 21 N       -1.7510    -5.2920     2.2710 N.pl3 1 <1>   0.0330 
 22 C       -1.9610    -7.7800     1.9710 C.ar  1 <1>  -0.1500 
 23 C       -1.3280    -8.5300    -0.2310 C.ar  1 <1>  -0.1500 
 24 C       -1.7880    -8.8000     1.0640 C.ar  1 <1>  -0.1500 
 25 H        2.0810    -0.8160    -0.6450 H     1 <1>   0.3700 
 26 H        1.2110    -2.3560    -2.3330 H     1 <1>   0.0800 
 27 H       -0.4130    -2.0300    -2.8560 H     1 <1>   0.0800 
 28 H       -1.2090    -2.1250    -0.5110 H     1 <1>   0.0800 
 29 H        0.4120    -2.4650     0.0340 H     1 <1>   0.0800 
 30 H        0.4100    -4.5520    -1.3200 H     1 <1>   0.0800 
 31 H       -1.2320    -4.2240    -1.8010 H     1 <1>   0.0800 
 32 H       -0.6450     1.7970    -0.2680 H     1 <1>   0.0800 
 33 H       -0.3390     2.8050    -1.6750 H     1 <1>   0.0800 
 34 H       -0.3660     3.5180    -0.0730 H     1 <1>   0.0800 
 35 H        4.2450    -0.4010    -0.6190 H     1 <1>   0.0800 
 36 H        4.9370     0.5500     0.6730 H     1 <1>   0.0800 
 37 H        5.2690     0.9580    -0.9960 H     1 <1>   0.0800 
 38 H        4.3890     4.7080     0.0840 H     1 <1>   0.0800 
 39 H        5.4110     3.3160    -0.1010 H     1 <1>   0.0800 
 40 H       -1.3340    -3.2600     1.7720 H     1 <1>   0.1500 
 41 H        3.8610     4.0350     2.4060 H     1 <1>   0.0800 
 42 H        5.5860     4.2410     2.1950 H     1 <1>   0.0800 
 43 H        4.8920     2.6340     2.2430 H     1 <1>   0.0800 
 44 H       -0.6880    -7.0240    -1.6070 H     1 <1>   0.1500 
 45 H       -2.0660    -5.1990     3.2410 H     1 <1>   0.2700 
 46 H       -2.3140    -7.9780     2.9670 H     1 <1>   0.1500 
 47 H       -1.2020    -9.3450    -0.9210 H     1 <1>   0.1500 
 48 H       -2.0060    -9.8160     1.3410 H     1 <1>   0.1500 
@<TRIPOS>BOND
  1   1   2  2   
  2   2   3  am  
  3   2   4  1   
  4   3   5  1   
  5   3  25  1   
  6   4   6  1   
  7   4  26  1   
  8   4  27  1   
  9   5   7  1   
 10   5   8  2   
 11   6   9  1   
 12   6  28  1   
 13   6  29  1   
 14   7  10  1   
 15   7  11  1   
 16   8  12  1   
 17   8  13  1   
 18   9  14  1   
 19   9  30  1   
 20   9  31  1   
 21  10  12  2   
 22  11  32  1   
 23  11  33  1   
 24  11  34  1   
 25  12  15  1   
 26  13  35  1   
 27  13  36  1   
 28  13  37  1   
 29  14  16  1   
 30  14  17  2   
 31  15  18  1   
 32  15  38  1   
 33  15  39  1   
 34  16  19  ar  
 35  16  20  ar  
 36  17  21  1   
 37  17  40  1   
 38  18  41  1   
 39  18  42  1   
 40  18  43  1   
 41  19  21  1   
 42  19  22  ar  
 43  20  23  ar  
 44  20  44  1   
 45  21  45  1   
 46  22  24  ar  
 47  22  46  1   
 48  23  24  ar  
 49  23  47  1   
 50  24  48  1   
@<TRIPOS>SUBSTRUCTURE
  1 ****   6 GROUP 4 **** **** 0

# MOE 2024.06 (io_trps.svl 2023.06)
