@<TRIPOS>MOLECULE
NONAME
57 60 1 0 0 
SMALL
USER_CHARGES


@<TRIPOS>ATOM
  1 O       -2.3970     0.5710    -2.5300 O.2   1 <1>  -0.5700 
  2 C       -2.2530     0.9590    -1.3870 C.2   1 <1>   0.5440 
  3 N       -2.2680     0.0260    -0.3890 N.am  1 <1>  -0.7300 
  4 C       -2.0670     2.3670    -1.0940 C.ar  1 <1>   0.0860 
  5 C       -2.4450    -1.4300    -0.5890 C.3   1 <1>   0.2200 
  6 C       -1.6020     3.2480    -2.0730 C.ar  1 <1>  -0.1500 
  7 C       -2.3400     2.9120     0.1650 C.ar  1 <1>  -0.1500 
  8 C       -3.8760    -1.8070    -0.2490 C.3   1 <1>  -0.0800 
  9 C       -1.6610    -2.1930     0.4730 C.3   1 <1>   0.1200 
 10 C       -1.4070     4.5890    -1.8130 C.ar  1 <1>  -0.1500 
 11 C       -2.1440     4.2530     0.4280 C.ar  1 <1>  -0.1500 
 12 C       -3.8130    -1.9720     1.2730 C.3   1 <1>   0.1200 
 13 C       -4.3030    -3.1040    -0.9630 C.3   1 <1>  -0.0160 
 14 O       -2.4790    -2.2340     1.6050 O.3   1 <1>  -0.5600 
 15 C       -1.6720     5.1160    -0.5530 C.ar  1 <1>   0.1000 
 16 C       -5.7480    -3.4600    -0.6480 C.ar  1 <1>  -0.1430 
 17 N       -1.4790     6.4590    -0.2680 N.pl3 1 <1>  -0.8380 
 18 C       -6.8020    -2.7740    -1.2170 C.ar  1 <1>  -0.1500 
 19 C       -6.0830    -4.4830     0.2160 C.ar  1 <1>  -0.1500 
 20 C       -2.6640     7.3150     0.0290 C.3   1 <1>   0.2090 
 21 C       -0.2730     7.1740    -0.7750 C.3   1 <1>   0.2090 
 22 C       -8.1020    -3.1290    -0.8980 C.ar  1 <1>   0.1600 
 23 C       -7.4170    -4.7570     0.4680 C.ar  1 <1>   0.1600 
 24 C       -2.2670     8.4940     0.9440 C.3   1 <1>   0.3430 
 25 C        0.0900     8.3500     0.1560 C.3   1 <1>   0.3430 
 26 N       -8.4350    -4.1030    -0.0670 N.ar  1 <1>  -0.6200 
 27 N       -1.0810     9.2710     0.4170 N.4   1 <1>  -0.9590 
 28 C       -0.7010    10.3720     1.3520 C.3   1 <1>   0.2630 
 29 H       -2.1160     0.3010     0.5820 H     1 <1>   0.3700 
 30 H       -2.1550    -1.7100    -1.5880 H     1 <1>   0.0800 
 31 H       -1.3920     2.8610    -3.0570 H     1 <1>   0.1500 
 32 H       -2.7150     2.2800     0.9480 H     1 <1>   0.1500 
 33 H       -4.5580    -1.0220    -0.5250 H     1 <1>   0.0800 
 34 H       -0.7260    -1.7220     0.7170 H     1 <1>   0.0800 
 35 H       -1.4860    -3.2070     0.1600 H     1 <1>   0.0800 
 36 H       -1.0550     5.2310    -2.5970 H     1 <1>   0.1500 
 37 H       -2.3520     4.6420     1.4080 H     1 <1>   0.1500 
 38 H       -4.4290    -2.7740     1.6390 H     1 <1>   0.0800 
 39 H       -4.0930    -1.0560     1.7640 H     1 <1>   0.0800 
 40 H       -3.6600    -3.9180    -0.6770 H     1 <1>   0.0800 
 41 H       -4.2070    -2.9730    -2.0270 H     1 <1>   0.0800 
 42 H       -6.6240    -1.9670    -1.9040 H     1 <1>   0.1500 
 43 H       -5.3210    -5.0680     0.6980 H     1 <1>   0.1500 
 44 H       -3.0740     7.6880    -0.8930 H     1 <1>   0.0800 
 45 H       -3.4260     6.7270     0.5120 H     1 <1>   0.0800 
 46 H        0.5560     6.4870    -0.8220 H     1 <1>   0.0800 
 47 H       -0.4610     7.5390    -1.7700 H     1 <1>   0.0800 
 48 H       -8.9110    -2.5820    -1.3510 H     1 <1>   0.1500 
 49 H       -7.6590    -5.5580     1.1460 H     1 <1>   0.1500 
 50 H       -2.0270     8.0920     1.9150 H     1 <1>   0.0800 
 51 H       -3.1140     9.1490     1.0590 H     1 <1>   0.0800 
 52 H        0.9040     8.9050    -0.2800 H     1 <1>   0.0800 
 53 H        0.4350     7.9370     1.0900 H     1 <1>   0.0800 
 54 H       -1.3590     9.6800    -0.4870 H     1 <1>   0.4500 
 55 H       -0.4060     9.9670     2.3070 H     1 <1>   0.0800 
 56 H       -1.5340    11.0400     1.5040 H     1 <1>   0.0800 
 57 H        0.1230    10.9390     0.9490 H     1 <1>   0.0800 
@<TRIPOS>BOND
  1   1   2  2   
  2   2   3  am  
  3   2   4  1   
  4   3   5  1   
  5   3  29  1   
  6   4   6  ar  
  7   4   7  ar  
  8   5   8  1   
  9   5   9  1   
 10   5  30  1   
 11   6  10  ar  
 12   6  31  1   
 13   7  11  ar  
 14   7  32  1   
 15   8  12  1   
 16   8  13  1   
 17   8  33  1   
 18   9  14  1   
 19   9  34  1   
 20   9  35  1   
 21  10  15  ar  
 22  10  36  1   
 23  11  15  ar  
 24  11  37  1   
 25  12  14  1   
 26  12  38  1   
 27  12  39  1   
 28  13  16  1   
 29  13  40  1   
 30  13  41  1   
 31  15  17  1   
 32  16  18  ar  
 33  16  19  ar  
 34  17  20  1   
 35  17  21  1   
 36  18  22  ar  
 37  18  42  1   
 38  19  23  ar  
 39  19  43  1   
 40  20  24  1   
 41  20  44  1   
 42  20  45  1   
 43  21  25  1   
 44  21  46  1   
 45  21  47  1   
 46  22  26  ar  
 47  22  48  1   
 48  23  26  ar  
 49  23  49  1   
 50  24  27  1   
 51  24  50  1   
 52  24  51  1   
 53  25  27  1   
 54  25  52  1   
 55  25  53  1   
 56  27  28  1   
 57  27  54  1   
 58  28  55  1   
 59  28  56  1   
 60  28  57  1   
@<TRIPOS>SUBSTRUCTURE
  1 ****   4 GROUP 4 **** **** 0

# MOE 2024.06 (io_trps.svl 2023.06)
