@<TRIPOS>MOLECULE
NONAME
48 51 1 0 0 
SMALL
USER_CHARGES


@<TRIPOS>ATOM
  1 O       -0.6050     0.1790    -1.1040 O.2   1 <1>  -0.5700 
  2 C       -1.5920     0.8340    -0.8330 C.2   1 <1>   0.5440 
  3 N       -2.7800     0.1790    -0.6010 N.am  1 <1>  -0.6600 
  4 C       -1.5070     2.2690    -0.7550 C.ar  1 <1>   0.0860 
  5 C       -3.9540     0.7780     0.0870 C.3   1 <1>   0.1400 
  6 C       -2.9180    -1.2970    -0.6670 C.3   1 <1>   0.1400 
  7 C       -0.6790     2.9540     0.1270 C.ar  1 <1>   0.1660 
  8 C       -2.2790     3.0660    -1.5810 C.ar  1 <1>   0.1600 
  9 C       -4.8380    -0.4090     0.4740 C.3   1 <1>   0.2000 
 10 C       -3.9360    -1.6440     0.4220 C.3   1 <1>  -0.0800 
 11 N       -0.6520     4.2630     0.1890 N.ar  1 <1>  -0.6200 
 12 C        0.2480     2.2180     1.0790 C.3   1 <1>  -0.0960 
 13 N       -2.2750     4.3750    -1.5380 N.ar  1 <1>  -0.6200 
 14 O       -5.3640    -0.2560     1.7470 O.3   1 <1>  -0.6800 
 15 C       -4.7340    -2.9340     0.1500 C.3   1 <1>  -0.0160 
 16 C       -1.4580     4.9020    -0.6420 C.ar  1 <1>   0.7200 
 17 C       -3.9340    -4.2420     0.1000 C.ar  1 <1>  -0.1440 
 18 N       -1.4350     6.2290    -0.5780 N.pl3 1 <1>  -0.9000 
 19 C       -4.5370    -5.4190    -0.4120 C.ar  1 <1>   0.0000 
 20 C       -2.6450    -4.3520     0.5430 C.ar  1 <1>  -0.1500 
 21 C       -3.7550    -6.6000    -0.4620 C.ar  1 <1>   0.3100 
 22 C       -5.8750    -5.5000    -0.8690 C.ar  1 <1>  -0.1500 
 23 C       -1.9640    -5.5720     0.4560 C.ar  1 <1>   0.1600 
 24 N       -2.4730    -6.6590    -0.0260 N.ar  1 <1>  -0.6200 
 25 C       -4.3230    -7.7750    -0.9800 C.ar  1 <1>  -0.1500 
 26 C       -6.4000    -6.6620    -1.3640 C.ar  1 <1>  -0.1500 
 27 C       -5.6160    -7.8160    -1.4250 C.ar  1 <1>  -0.1500 
 28 H       -3.6270     1.3180     0.9590 H     1 <1>   0.0800 
 29 H       -4.4840     1.4350    -0.5800 H     1 <1>   0.0800 
 30 H       -3.2890    -1.5690    -1.6410 H     1 <1>   0.0800 
 31 H       -1.9730    -1.7870    -0.5020 H     1 <1>   0.0800 
 32 H       -2.9230     2.5910    -2.3020 H     1 <1>   0.1500 
 33 H       -5.6570    -0.4900    -0.2200 H     1 <1>   0.0800 
 34 H       -3.4080    -1.7280     1.3540 H     1 <1>   0.0800 
 35 H       -0.2420     1.3630     1.5070 H     1 <1>   0.0800 
 36 H        0.5570     2.8680     1.8790 H     1 <1>   0.0800 
 37 H        1.1220     1.8890     0.5460 H     1 <1>   0.0800 
 38 H       -4.6540    -0.2580     2.4170 H     1 <1>   0.4000 
 39 H       -5.2380    -2.8060    -0.7920 H     1 <1>   0.0800 
 40 H       -5.4890    -3.0360     0.9100 H     1 <1>   0.0800 
 41 H       -0.6820     6.6690    -0.0580 H     1 <1>   0.4000 
 42 H       -1.8730     6.7540    -1.3300 H     1 <1>   0.4000 
 43 H       -2.1040    -3.5320     0.9710 H     1 <1>   0.1500 
 44 H       -6.5050    -4.6330    -0.8250 H     1 <1>   0.1500 
 45 H       -0.9490    -5.6070     0.8130 H     1 <1>   0.1500 
 46 H       -3.7010    -8.6510    -1.0120 H     1 <1>   0.1500 
 47 H       -7.4180    -6.7050    -1.7100 H     1 <1>   0.1500 
 48 H       -6.0380    -8.7250    -1.8190 H     1 <1>   0.1500 
@<TRIPOS>BOND
  1   1   2  2   
  2   2   3  am  
  3   2   4  1   
  4   3   5  1   
  5   3   6  1   
  6   4   7  ar  
  7   4   8  ar  
  8   5   9  1   
  9   5  28  1   
 10   5  29  1   
 11   6  10  1   
 12   6  30  1   
 13   6  31  1   
 14   7  11  ar  
 15   7  12  1   
 16   8  13  ar  
 17   8  32  1   
 18   9  10  1   
 19   9  14  1   
 20   9  33  1   
 21  10  15  1   
 22  10  34  1   
 23  11  16  ar  
 24  12  35  1   
 25  12  36  1   
 26  12  37  1   
 27  13  16  ar  
 28  14  38  1   
 29  15  17  1   
 30  15  39  1   
 31  15  40  1   
 32  16  18  1   
 33  17  19  ar  
 34  17  20  ar  
 35  18  41  1   
 36  18  42  1   
 37  19  21  ar  
 38  19  22  ar  
 39  20  23  ar  
 40  20  43  1   
 41  21  24  ar  
 42  21  25  ar  
 43  22  26  ar  
 44  22  44  1   
 45  23  24  ar  
 46  23  45  1   
 47  25  27  ar  
 48  25  46  1   
 49  26  27  ar  
 50  26  47  1   
 51  27  48  1   
@<TRIPOS>SUBSTRUCTURE
  1 ****   6 GROUP 4 **** **** 0

# MOE 2024.06 (io_trps.svl 2023.06)
