@<TRIPOS>MOLECULE
NONAME
51 53 1 0 0 
SMALL
USER_CHARGES


@<TRIPOS>ATOM
  1 O        0.8400     0.0850    -0.4090 O.3   1 <1>  -0.5600 
  2 C        1.7030    -0.4750    -1.3530 C.3   1 <1>   0.2000 
  3 C       -0.3590    -0.6050    -0.4130 C.3   1 <1>   0.1200 
  4 C        1.2710    -1.9430    -1.4830 C.3   1 <1>  -0.1600 
  5 C        3.1630    -0.2640    -0.9020 C.3   1 <1>   0.2090 
  6 C        0.0600    -2.0730    -0.5530 C.3   1 <1>   0.0000 
  7 N        3.3360     1.1250    -0.3990 N.pl3 1 <1>  -0.8690 
  8 C       -1.0540    -2.9510    -1.1550 C.3   1 <1>  -0.1600 
  9 C        0.4900    -2.6530     0.8130 C.3   1 <1>  -0.1600 
 10 C        4.3420     2.0000    -0.3470 C.ar  1 <1>   0.7710 
 11 C       -2.2230    -3.1430    -0.1840 C.3   1 <1>   0.3430 
 12 C       -0.6960    -2.8540     1.7590 C.3   1 <1>   0.3430 
 13 N        4.0570     3.1930     0.1220 N.ar  1 <1>  -0.6200 
 14 N        5.5700     1.6500    -0.7560 N.ar  1 <1>  -0.1790 
 15 N       -1.7210    -3.7080     1.0990 N.4   1 <1>  -0.9060 
 16 C        5.0320     4.0800     0.1980 C.ar  1 <1>   0.4100 
 17 C        6.5910     2.5390    -0.7280 C.ar  1 <1>   0.2110 
 18 N        4.7050     5.2850     0.7310 N.pl3 1 <1>  -0.8380 
 19 C        6.3450     3.7870    -0.2550 C.ar  1 <1>  -0.1440 
 20 C        5.3900     5.8470     1.9280 C.3   1 <1>   0.1290 
 21 C        3.3950     5.9320     0.4310 C.3   1 <1>   0.1290 
 22 C        7.4520     4.8410    -0.2560 C.3   1 <1>  -0.0970 
 23 H        1.5350     0.0400    -2.2850 H     1 <1>   0.0800 
 24 H       -0.9270    -0.2680    -1.2640 H     1 <1>   0.0800 
 25 H       -0.8940    -0.3820     0.4930 H     1 <1>   0.0800 
 26 H        2.0630    -2.6260    -1.2310 H     1 <1>   0.0800 
 27 H        0.9970    -2.1240    -2.5080 H     1 <1>   0.0800 
 28 H        3.8240    -0.4620    -1.7270 H     1 <1>   0.0800 
 29 H        3.3860    -0.9550    -0.1060 H     1 <1>   0.0800 
 30 H        2.4390     1.4920    -0.0390 H     1 <1>   0.4000 
 31 H       -0.6560    -3.9150    -1.4220 H     1 <1>   0.0800 
 32 H       -1.4260    -2.5010    -2.0600 H     1 <1>   0.0800 
 33 H        1.1960    -1.9910     1.2850 H     1 <1>   0.0800 
 34 H        0.9840    -3.5980     0.6750 H     1 <1>   0.0800 
 35 H       -2.9510    -3.8090    -0.6220 H     1 <1>   0.0800 
 36 H       -2.7010    -2.1940    -0.0030 H     1 <1>   0.0800 
 37 H       -1.1240    -1.8960     2.0110 H     1 <1>   0.0800 
 38 H       -0.3560    -3.3190     2.6710 H     1 <1>   0.0800 
 39 H        5.6770     0.6980    -1.0820 H     1 <1>   0.4570 
 40 H       -1.3160    -4.6350     0.9190 H     1 <1>   0.4500 
 41 H       -2.5110    -3.8540     1.7430 H     1 <1>   0.4500 
 42 H        7.5590     2.2320    -1.0890 H     1 <1>   0.1500 
 43 H        6.1140     5.1490     2.3110 H     1 <1>   0.0800 
 44 H        4.6700     6.0420     2.7050 H     1 <1>   0.0800 
 45 H        5.8840     6.7670     1.6690 H     1 <1>   0.0800 
 46 H        2.9890     5.5470    -0.4890 H     1 <1>   0.0800 
 47 H        3.5240     6.9960     0.3300 H     1 <1>   0.0800 
 48 H        2.6980     5.7320     1.2260 H     1 <1>   0.0800 
 49 H        7.0680     5.7770    -0.6260 H     1 <1>   0.0800 
 50 H        8.2720     4.5470    -0.8860 H     1 <1>   0.0800 
 51 H        7.8280     4.9930     0.7390 H     1 <1>   0.0800 
@<TRIPOS>BOND
  1   1   2  1   
  2   1   3  1   
  3   2   4  1   
  4   2   5  1   
  5   2  23  1   
  6   3   6  1   
  7   3  24  1   
  8   3  25  1   
  9   4   6  1   
 10   4  26  1   
 11   4  27  1   
 12   5   7  1   
 13   5  28  1   
 14   5  29  1   
 15   6   8  1   
 16   6   9  1   
 17   7  10  1   
 18   7  30  1   
 19   8  11  1   
 20   8  31  1   
 21   8  32  1   
 22   9  12  1   
 23   9  33  1   
 24   9  34  1   
 25  10  13  ar  
 26  10  14  ar  
 27  11  15  1   
 28  11  35  1   
 29  11  36  1   
 30  12  15  1   
 31  12  37  1   
 32  12  38  1   
 33  13  16  ar  
 34  14  17  ar  
 35  14  39  1   
 36  15  40  1   
 37  15  41  1   
 38  16  18  1   
 39  16  19  ar  
 40  17  19  ar  
 41  17  42  1   
 42  18  20  1   
 43  18  21  1   
 44  19  22  1   
 45  20  43  1   
 46  20  44  1   
 47  20  45  1   
 48  21  46  1   
 49  21  47  1   
 50  21  48  1   
 51  22  49  1   
 52  22  50  1   
 53  22  51  1   
@<TRIPOS>SUBSTRUCTURE
  1 ****   7 GROUP 4 **** **** 0

# MOE 2024.06 (io_trps.svl 2023.06)
