@<TRIPOS>MOLECULE
NONAME
46 49 1 0 0 
SMALL
USER_CHARGES


@<TRIPOS>ATOM
  1 S       -0.0360     0.1750    -1.8990 S.3   1 <1>  -0.0800 
  2 C       -1.3590     0.7330    -0.8800 C.2   1 <1>   0.4620 
  3 C        0.8970     1.5600    -1.4240 C.2   1 <1>  -0.1100 
  4 N       -1.0950     1.8410    -0.2840 N.2   1 <1>  -0.5650 
  5 N       -2.5310     0.0070    -0.8070 N.pl3 1 <1>  -0.8220 
  6 C        0.1800     2.3190    -0.5720 C.2   1 <1>   0.1730 
  7 C       -2.7130    -1.3360    -1.4680 C.3   1 <1>   0.2090 
  8 C       -3.7580     0.6420    -0.2570 C.3   1 <1>   0.2090 
  9 C        0.6240     3.5570     0.0480 C.ar  1 <1>   0.0540 
 10 C       -3.5020    -2.3440    -0.6040 C.3   1 <1>  -0.1060 
 11 C       -4.5290    -0.3250     0.6380 C.3   1 <1>  -0.1600 
 12 C       -0.2920     4.5220     0.4790 C.ar  1 <1>  -0.1500 
 13 C        1.9850     3.8230     0.2290 C.ar  1 <1>  -0.1500 
 14 C       -3.9770    -3.4750    -1.5190 C.2   1 <1>   0.9060 
 15 C       -4.7790    -1.6330    -0.1010 C.3   1 <1>   0.2000 
 16 C       -2.6230    -3.0130     0.5040 C.3   1 <1>  -0.0650 
 17 C        0.1230     5.7060     1.0630 C.ar  1 <1>  -0.1500 
 18 C        2.4200     5.0020     0.8110 C.ar  1 <1>  -0.1500 
 19 O       -3.4960    -3.6020    -2.6500 O.co2 1 <1>  -0.9000 
 20 O       -4.8430    -4.2570    -1.0970 O.co2 1 <1>  -0.9000 
 21 O       -5.5130    -2.4650     0.7220 O.3   1 <1>  -0.6800 
 22 C       -1.5720    -2.1610     1.2370 C.3   1 <1>  -0.1950 
 23 C        1.4770     5.9250     1.2180 C.ar  1 <1>   0.1900 
 24 C       -0.1500    -2.1150     0.7750 C.3   1 <1>  -0.2000 
 25 C       -0.5070    -2.8400     2.0390 C.3   1 <1>  -0.2000 
 26 F        1.8800     7.0390     1.7660 F     1 <1>  -0.1900 
 27 H        1.8830     1.6610    -1.8350 H     1 <1>   0.1500 
 28 H       -3.2420    -1.1720    -2.3910 H     1 <1>   0.0800 
 29 H       -1.7680    -1.7810    -1.7190 H     1 <1>   0.0800 
 30 H       -3.5070     1.5210     0.3110 H     1 <1>   0.0800 
 31 H       -4.3820     0.9450    -1.0800 H     1 <1>   0.0800 
 32 H       -5.4720     0.1200     0.8960 H     1 <1>   0.0800 
 33 H       -3.9860    -0.4990     1.5440 H     1 <1>   0.0800 
 34 H       -1.3450     4.3370     0.3520 H     1 <1>   0.1500 
 35 H        2.7140     3.0970    -0.0810 H     1 <1>   0.1500 
 36 H       -5.4030    -1.4250    -0.9540 H     1 <1>   0.0800 
 37 H       -3.2660    -3.4590     1.2410 H     1 <1>   0.0800 
 38 H       -2.0950    -3.8340     0.0470 H     1 <1>   0.0800 
 39 H       -0.5850     6.4440     1.3930 H     1 <1>   0.1500 
 40 H        3.4660     5.2050     0.9500 H     1 <1>   0.1500 
 41 H       -5.5210    -3.3490     0.2510 H     1 <1>   0.4000 
 42 H       -1.9720    -1.2560     1.6520 H     1 <1>   0.1000 
 43 H        0.1220    -2.6800    -0.0990 H     1 <1>   0.1000 
 44 H        0.3670    -1.1740     0.8380 H     1 <1>   0.1000 
 45 H       -0.2260    -2.4090     2.9840 H     1 <1>   0.1000 
 46 H       -0.4670    -3.9150     2.0450 H     1 <1>   0.1000 
@<TRIPOS>BOND
  1   1   2  1   
  2   1   3  1   
  3   2   4  2   
  4   2   5  1   
  5   3   6  2   
  6   3  27  1   
  7   4   6  1   
  8   5   7  1   
  9   5   8  1   
 10   6   9  1   
 11   7  10  1   
 12   7  28  1   
 13   7  29  1   
 14   8  11  1   
 15   8  30  1   
 16   8  31  1   
 17   9  12  ar  
 18   9  13  ar  
 19  10  14  1   
 20  10  15  1   
 21  10  16  1   
 22  11  15  1   
 23  11  32  1   
 24  11  33  1   
 25  12  17  ar  
 26  12  34  1   
 27  13  18  ar  
 28  13  35  1   
 29  14  19  ar  
 30  14  20  ar  
 31  15  21  1   
 32  15  36  1   
 33  16  22  1   
 34  16  37  1   
 35  16  38  1   
 36  17  23  ar  
 37  17  39  1   
 38  18  23  ar  
 39  18  40  1   
 40  21  41  1   
 41  22  24  1   
 42  22  25  1   
 43  22  42  1   
 44  23  26  1   
 45  24  25  1   
 46  24  43  1   
 47  24  44  1   
 48  25  45  1   
 49  25  46  1   
@<TRIPOS>SUBSTRUCTURE
  1 ****   2 GROUP 4 **** **** 0

# MOE 2024.06 (io_trps.svl 2023.06)
