@<TRIPOS>MOLECULE
NONAME
47 49 1 0 0 
SMALL
USER_CHARGES


@<TRIPOS>ATOM
  1 O        0.3220     0.3090     0.8650 O.2   1 <1>  -0.5700 
  2 C        1.2730    -0.3980     0.5880 C.2   1 <1>   0.5440 
  3 N        1.0270    -1.7170     0.3520 N.am  1 <1>  -0.7300 
  4 C        2.6200     0.1480     0.5030 C.ar  1 <1>   0.0860 
  5 C       -0.3250    -2.3440     0.3610 C.3   1 <1>   0.2010 
  6 C        2.8260     1.5240     0.3800 C.ar  1 <1>  -0.1500 
  7 C        3.7570    -0.6630     0.5420 C.ar  1 <1>  -0.1500 
  8 C       -0.3560    -3.7360    -0.2900 C.2   1 <1>   0.5690 
  9 C        4.0970     2.0640     0.2920 C.ar  1 <1>  -0.1500 
 10 C        5.0310    -0.1300     0.4530 C.ar  1 <1>  -0.1500 
 11 O        0.7100    -4.2660    -0.5270 O.2   1 <1>  -0.5700 
 12 N       -1.5510    -4.3510    -0.5920 N.am  1 <1>  -0.6600 
 13 C        5.2030     1.2360     0.3270 C.ar  1 <1>  -0.1500 
 14 C       -2.8760    -3.7450    -0.2530 C.3   1 <1>   0.2200 
 15 C       -1.5500    -5.6610    -1.3170 C.3   1 <1>   0.0600 
 16 C       -3.9300    -4.7260     0.2620 C.3   1 <1>  -0.1600 
 17 C       -3.5330    -3.0840    -1.4600 C.3   1 <1>  -0.1600 
 18 C       -5.2610    -3.9950     0.0420 C.3   1 <1>  -0.0800 
 19 C       -5.0140    -2.9640    -1.0740 C.3   1 <1>  -0.0800 
 20 C       -5.7350    -3.2010     1.2680 C.3   1 <1>  -0.1600 
 21 C       -5.3820    -1.5920    -0.4880 C.3   1 <1>  -0.1600 
 22 C       -6.2880    -1.9080     0.6920 C.3   1 <1>   0.2000 
 23 O       -6.2190    -0.9010     1.6280 O.3   1 <1>  -0.6800 
 24 H        1.7570    -2.3490     0.0060 H     1 <1>   0.3700 
 25 H       -0.6540    -2.4320     1.3800 H     1 <1>   0.0800 
 26 H       -1.0030    -1.6960    -0.1640 H     1 <1>   0.0800 
 27 H        1.9710     2.1780     0.3530 H     1 <1>   0.1500 
 28 H        3.6510    -1.7270     0.6490 H     1 <1>   0.1500 
 29 H        4.2230     3.1290     0.1960 H     1 <1>   0.1500 
 30 H        5.8900    -0.7780     0.4840 H     1 <1>   0.1500 
 31 H        6.1930     1.6540     0.2570 H     1 <1>   0.1500 
 32 H       -2.7570    -2.9970     0.5100 H     1 <1>   0.0800 
 33 H       -2.3090    -5.6710    -2.0780 H     1 <1>   0.0800 
 34 H       -1.7320    -6.4600    -0.6210 H     1 <1>   0.0800 
 35 H       -0.6000    -5.8340    -1.7930 H     1 <1>   0.0800 
 36 H       -3.9480    -5.6220    -0.3290 H     1 <1>   0.0800 
 37 H       -3.7670    -4.9840     1.2930 H     1 <1>   0.0800 
 38 H       -3.0880    -2.1330    -1.6890 H     1 <1>   0.0800 
 39 H       -3.4520    -3.7250    -2.3190 H     1 <1>   0.0800 
 40 H       -6.0300    -4.6880    -0.2570 H     1 <1>   0.0800 
 41 H       -5.6440    -3.1770    -1.9220 H     1 <1>   0.0800 
 42 H       -4.9050    -2.9850     1.9170 H     1 <1>   0.0800 
 43 H       -6.4900    -3.7370     1.8150 H     1 <1>   0.0800 
 44 H       -5.8900    -0.9800    -1.2130 H     1 <1>   0.0800 
 45 H       -4.4990    -1.0830    -0.1430 H     1 <1>   0.0800 
 46 H       -7.3110    -2.0280     0.3770 H     1 <1>   0.0800 
 47 H       -5.2940    -0.7520     1.8960 H     1 <1>   0.4000 
@<TRIPOS>BOND
  1   1   2  2   
  2   2   3  am  
  3   2   4  1   
  4   3   5  1   
  5   3  24  1   
  6   4   6  ar  
  7   4   7  ar  
  8   5   8  1   
  9   5  25  1   
 10   5  26  1   
 11   6   9  ar  
 12   6  27  1   
 13   7  10  ar  
 14   7  28  1   
 15   8  11  2   
 16   8  12  am  
 17   9  13  ar  
 18   9  29  1   
 19  10  13  ar  
 20  10  30  1   
 21  12  14  1   
 22  12  15  1   
 23  13  31  1   
 24  14  16  1   
 25  14  17  1   
 26  14  32  1   
 27  15  33  1   
 28  15  34  1   
 29  15  35  1   
 30  16  18  1   
 31  16  36  1   
 32  16  37  1   
 33  17  19  1   
 34  17  38  1   
 35  17  39  1   
 36  18  19  1   
 37  18  20  1   
 38  18  40  1   
 39  19  21  1   
 40  19  41  1   
 41  20  22  1   
 42  20  42  1   
 43  20  43  1   
 44  21  22  1   
 45  21  44  1   
 46  21  45  1   
 47  22  23  1   
 48  22  46  1   
 49  23  47  1   
@<TRIPOS>SUBSTRUCTURE
  1 ****   5 GROUP 4 **** **** 0

# MOE 2024.06 (io_trps.svl 2023.06)
