@<TRIPOS>MOLECULE
NONAME
27 27 1 0 0 
SMALL
USER_CHARGES


@<TRIPOS>ATOM
  1 O        0.4910     1.2870     1.3790 O.2   1 <1>  -0.5700 
  2 C        1.3600     0.6900     0.8190 C.2   1 <1>   0.4480 
  3 C        2.2600    -0.2820     1.5640 C.3   1 <1>   0.0440 
  4 C        1.6150     0.8930    -0.6590 C.3   1 <1>  -0.1790 
  5 C        2.2960    -1.6530     0.9000 C.ar  1 <1>  -0.1440 
  6 C        1.1500    -2.4320     0.8760 C.ar  1 <1>  -0.1500 
  7 C        3.4590    -2.1280     0.3140 C.ar  1 <1>  -0.1500 
  8 C        1.1550    -3.6770     0.2700 C.ar  1 <1>  -0.1440 
  9 C        3.4880    -3.3700    -0.2980 C.ar  1 <1>  -0.1430 
 10 C        2.3280    -4.1390    -0.3150 C.ar  1 <1>   0.0830 
 11 C       -0.1130    -4.5180     0.2520 C.3   1 <1>  -0.0970 
 12 C        4.7830    -3.8620    -0.9330 C.3   1 <1>  -0.0970 
 13 O        2.3410    -5.3470    -0.9060 O.3   1 <1>  -0.5320 
 14 H        1.8970    -0.3890     2.5700 H     1 <1>   0.0800 
 15 H        3.2480     0.1350     1.6170 H     1 <1>   0.0800 
 16 H        2.6380     1.1760    -0.8220 H     1 <1>   0.0800 
 17 H        0.9740     1.6700    -1.0340 H     1 <1>   0.0800 
 18 H        1.4070    -0.0150    -1.1950 H     1 <1>   0.0800 
 19 H        0.2470    -2.0640     1.3330 H     1 <1>   0.1500 
 20 H        4.3500    -1.5250     0.3340 H     1 <1>   0.1500 
 21 H       -0.9240    -4.0110     0.7420 H     1 <1>   0.0800 
 22 H        0.0640    -5.4520     0.7540 H     1 <1>   0.0800 
 23 H       -0.3980    -4.7220    -0.7650 H     1 <1>   0.0800 
 24 H        5.5660    -3.1340    -0.8220 H     1 <1>   0.0800 
 25 H        4.6350    -4.0390    -1.9830 H     1 <1>   0.0800 
 26 H        5.1030    -4.7730    -0.4590 H     1 <1>   0.0800 
 27 H        3.2140    -5.5650    -1.2690 H     1 <1>   0.4500 
@<TRIPOS>BOND
  1   1   2  2   
  2   2   3  1   
  3   2   4  1   
  4   3   5  1   
  5   3  14  1   
  6   3  15  1   
  7   4  16  1   
  8   4  17  1   
  9   4  18  1   
 10   5   6  ar  
 11   5   7  ar  
 12   6   8  ar  
 13   6  19  1   
 14   7   9  ar  
 15   7  20  1   
 16   8  10  ar  
 17   8  11  1   
 18   9  10  ar  
 19   9  12  1   
 20  10  13  1   
 21  11  21  1   
 22  11  22  1   
 23  11  23  1   
 24  12  24  1   
 25  12  25  1   
 26  12  26  1   
 27  13  27  1   
@<TRIPOS>SUBSTRUCTURE
  1 ****   5 GROUP 4 **** **** 0

# MOE 2024.06 (io_trps.svl 2023.06)
