@<TRIPOS>MOLECULE
NONAME
55 57 1 0 0 
SMALL
USER_CHARGES


@<TRIPOS>ATOM
  1 O       -0.6600    -1.1480    -1.4830 O.2   1 <1>  -0.5700 
  2 C       -1.0060    -1.4930    -0.3760 C.2   1 <1>   0.5440 
  3 N       -1.1560    -0.5100     0.5400 N.am  1 <1>  -0.8000 
  4 C       -1.2370    -2.8920    -0.0590 C.ar  1 <1>   0.0860 
  5 C       -0.5650    -3.8970    -0.7550 C.ar  1 <1>  -0.1500 
  6 C       -2.1330    -3.2940     0.9320 C.ar  1 <1>  -0.1500 
  7 C       -0.7800    -5.2350    -0.4870 C.ar  1 <1>  -0.1500 
  8 C       -2.3560    -4.6310     1.2070 C.ar  1 <1>  -0.1500 
  9 C       -1.6880    -5.6120     0.4910 C.ar  1 <1>  -0.1440 
 10 C       -1.9510    -7.0820     0.7480 C.3   1 <1>   0.4860 
 11 N       -2.8130    -7.5760    -0.3570 N.4   1 <1>  -0.9590 
 12 C       -2.8240    -9.0730    -0.4140 C.3   1 <1>   0.5660 
 13 C       -4.2000    -7.0100    -0.2910 C.3   1 <1>   0.3430 
 14 C       -1.4150    -9.5260    -0.7720 C.ar  1 <1>  -0.1440 
 15 C       -3.8720    -9.6480    -1.4060 C.3   1 <1>   0.2000 
 16 C       -5.1070    -7.6200    -1.3740 C.3   1 <1>   0.1200 
 17 C       -0.7190   -10.3230     0.1260 C.ar  1 <1>  -0.1500 
 18 C       -0.8040    -9.1580    -1.9670 C.ar  1 <1>  -0.1500 
 19 O       -5.1190    -9.0110    -1.2540 O.3   1 <1>  -0.5600 
 20 C       -4.0620   -11.1550    -1.1700 C.3   1 <1>   0.1200 
 21 C        0.5720   -10.7390    -0.1470 C.ar  1 <1>   0.0820 
 22 C        0.4910    -9.5620    -2.2410 C.ar  1 <1>  -0.1500 
 23 O       -4.2110   -11.4140     0.1900 O.3   1 <1>  -0.6800 
 24 O        1.1680   -11.5330     0.7730 O.3   1 <1>  -0.3630 
 25 C        1.1930   -10.3350    -1.3330 C.ar  1 <1>   0.0820 
 26 C        1.4940   -12.8460     0.3660 C.3   1 <1>   0.0400 
 27 O        2.4680   -10.6620    -1.6540 O.3   1 <1>  -0.3630 
 28 C        3.4890   -10.1540    -0.8220 C.3   1 <1>   0.0400 
 29 H       -0.9440     0.4470     0.2530 H     1 <1>   0.3700 
 30 H       -1.2750    -0.6660     1.5390 H     1 <1>   0.3700 
 31 H        0.1380    -3.6100    -1.5210 H     1 <1>   0.1500 
 32 H       -2.6700    -2.5450     1.4890 H     1 <1>   0.1500 
 33 H       -0.2280    -5.9720    -1.0480 H     1 <1>   0.1500 
 34 H       -3.0560    -4.8940     1.9840 H     1 <1>   0.1500 
 35 H       -2.4360    -7.2210     1.7000 H     1 <1>   0.0800 
 36 H       -1.0100    -7.6100     0.7600 H     1 <1>   0.0800 
 37 H       -2.3740    -7.2510    -1.2230 H     1 <1>   0.4500 
 38 H       -3.0680    -9.4530     0.5640 H     1 <1>   0.0800 
 39 H       -4.6370    -7.2190     0.6720 H     1 <1>   0.0800 
 40 H       -4.1680    -5.9400    -0.4170 H     1 <1>   0.0800 
 41 H       -3.5560    -9.4950    -2.4220 H     1 <1>   0.0800 
 42 H       -4.7750    -7.3540    -2.3620 H     1 <1>   0.0800 
 43 H       -6.1180    -7.2740    -1.2470 H     1 <1>   0.0800 
 44 H       -1.1680   -10.6440     1.0510 H     1 <1>   0.1500 
 45 H       -1.3150    -8.5580    -2.7010 H     1 <1>   0.1500 
 46 H       -3.2030   -11.7050    -1.5170 H     1 <1>   0.0800 
 47 H       -4.9380   -11.5050    -1.6900 H     1 <1>   0.0800 
 48 H        0.9720    -9.2800    -3.1620 H     1 <1>   0.1500 
 49 H       -4.5670   -12.3170     0.3330 H     1 <1>   0.4000 
 50 H        1.8560   -13.3830     1.2240 H     1 <1>   0.0800 
 51 H        2.2580   -12.8090    -0.3890 H     1 <1>   0.0800 
 52 H        0.6100   -13.3210    -0.0200 H     1 <1>   0.0800 
 53 H        4.4370   -10.4170    -1.2560 H     1 <1>   0.0800 
 54 H        3.4050   -10.5880     0.1570 H     1 <1>   0.0800 
 55 H        3.3940    -9.0850    -0.7680 H     1 <1>   0.0800 
@<TRIPOS>BOND
  1   1   2  2   
  2   2   3  am  
  3   2   4  1   
  4   3  29  1   
  5   3  30  1   
  6   4   5  ar  
  7   4   6  ar  
  8   5   7  ar  
  9   5  31  1   
 10   6   8  ar  
 11   6  32  1   
 12   7   9  ar  
 13   7  33  1   
 14   8   9  ar  
 15   8  34  1   
 16   9  10  1   
 17  10  11  1   
 18  10  35  1   
 19  10  36  1   
 20  11  12  1   
 21  11  13  1   
 22  11  37  1   
 23  12  14  1   
 24  12  15  1   
 25  12  38  1   
 26  13  16  1   
 27  13  39  1   
 28  13  40  1   
 29  14  17  ar  
 30  14  18  ar  
 31  15  19  1   
 32  15  20  1   
 33  15  41  1   
 34  16  19  1   
 35  16  42  1   
 36  16  43  1   
 37  17  21  ar  
 38  17  44  1   
 39  18  22  ar  
 40  18  45  1   
 41  20  23  1   
 42  20  46  1   
 43  20  47  1   
 44  21  24  1   
 45  21  25  ar  
 46  22  25  ar  
 47  22  48  1   
 48  23  49  1   
 49  24  26  1   
 50  25  27  1   
 51  26  50  1   
 52  26  51  1   
 53  26  52  1   
 54  27  28  1   
 55  28  53  1   
 56  28  54  1   
 57  28  55  1   
@<TRIPOS>SUBSTRUCTURE
  1 ****  10 GROUP 4 **** **** 0

# MOE 2024.06 (io_trps.svl 2023.06)
