@<TRIPOS>MOLECULE
NONAME
48 49 1 0 0 
SMALL
USER_CHARGES


@<TRIPOS>ATOM
  1 O        0.2200     0.7950    -0.2840 O.3   1 <1>  -0.0190 
  2 N       -0.0680     1.2640     0.8940 N.2   1 <1>  -0.4100 
  3 C        1.4170     1.1470    -0.6690 C.2   1 <1>  -0.0400 
  4 C        0.9610     1.9270     1.2780 C.2   1 <1>   0.1080 
  5 C        1.9610     1.8980     0.3030 C.2   1 <1>  -0.1810 
  6 C        1.9120     0.6790    -2.0220 C.3   1 <1>  -0.0600 
  7 C        1.0320     2.6210     2.6220 C.3   1 <1>  -0.0590 
  8 C        3.3200     2.5700     0.3580 C.3   1 <1>   0.0210 
  9 C        3.1930     4.0260    -0.1090 C.3   1 <1>  -0.1600 
 10 C        4.5410     4.7390    -0.0850 C.3   1 <1>   0.3430 
 11 N        4.3570     6.1340    -0.5600 N.4   1 <1>  -0.9060 
 12 C        5.6100     6.9350    -0.4830 C.3   1 <1>   0.4230 
 13 C        5.3120     8.4410    -0.5570 C.3   1 <1>   0.0960 
 14 C        6.5460     6.4930    -1.6120 C.3   1 <1>  -0.2400 
 15 N        6.4710     9.1600    -0.0210 N.pl3 1 <1>   0.3140 
 16 N        7.0010     8.7730     1.1510 N.2   1 <1>  -0.7070 
 17 C        7.1470    10.2000    -0.5540 C.2   1 <1>  -0.3320 
 18 C        7.9980     9.5780     1.3450 C.2   1 <1>   0.1080 
 19 C        8.1410    10.4930     0.3100 C.2   1 <1>  -0.1500 
 20 C        6.8280    10.8930    -1.8700 C.3   1 <1>  -0.0600 
 21 C        8.8820     9.5030     2.5690 C.3   1 <1>  -0.0590 
 22 H        1.2500     1.0320    -2.7920 H     1 <1>   0.0800 
 23 H        1.9270    -0.3960    -2.0470 H     1 <1>   0.0800 
 24 H        2.9030     1.0440    -2.2160 H     1 <1>   0.0800 
 25 H        0.1570     2.3830     3.2010 H     1 <1>   0.0800 
 26 H        1.0750     3.6850     2.4880 H     1 <1>   0.0800 
 27 H        1.8990     2.2880     3.1630 H     1 <1>   0.0800 
 28 H        4.0020     2.0340    -0.2790 H     1 <1>   0.0800 
 29 H        3.7010     2.5220     1.3640 H     1 <1>   0.0800 
 30 H        2.4980     4.5340     0.5370 H     1 <1>   0.0800 
 31 H        2.7950     4.0260    -1.1090 H     1 <1>   0.0800 
 32 H        5.2380     4.2180    -0.7220 H     1 <1>   0.0800 
 33 H        4.9330     4.7410     0.9210 H     1 <1>   0.0800 
 34 H        3.6410     6.5780     0.0280 H     1 <1>   0.4500 
 35 H        4.0050     6.1290    -1.5240 H     1 <1>   0.4500 
 36 H        6.0820     6.7380     0.4680 H     1 <1>   0.0800 
 37 H        4.4730     8.6930     0.0630 H     1 <1>   0.0800 
 38 H        5.1290     8.7550    -1.5670 H     1 <1>   0.0800 
 39 H        6.1030     6.6570    -2.5780 H     1 <1>   0.0800 
 40 H        6.8210     5.4590    -1.5120 H     1 <1>   0.0800 
 41 H        7.4580     7.0650    -1.5640 H     1 <1>   0.0800 
 42 H        8.8930    11.2600     0.2430 H     1 <1>   0.1500 
 43 H        5.8330    11.3000    -1.8470 H     1 <1>   0.0800 
 44 H        6.9120    10.2030    -2.6900 H     1 <1>   0.0800 
 45 H        7.5190    11.7010    -2.0360 H     1 <1>   0.0800 
 46 H        8.2830     9.6240     3.4520 H     1 <1>   0.0800 
 47 H        9.6270    10.2750     2.5420 H     1 <1>   0.0800 
 48 H        9.3690     8.5460     2.6040 H     1 <1>   0.0800 
@<TRIPOS>BOND
  1   1   2  1   
  2   1   3  1   
  3   2   4  2   
  4   3   5  2   
  5   3   6  1   
  6   4   5  1   
  7   4   7  1   
  8   5   8  1   
  9   6  22  1   
 10   6  23  1   
 11   6  24  1   
 12   7  25  1   
 13   7  26  1   
 14   7  27  1   
 15   8   9  1   
 16   8  28  1   
 17   8  29  1   
 18   9  10  1   
 19   9  30  1   
 20   9  31  1   
 21  10  11  1   
 22  10  32  1   
 23  10  33  1   
 24  11  12  1   
 25  11  34  1   
 26  11  35  1   
 27  12  13  1   
 28  12  14  1   
 29  12  36  1   
 30  13  15  1   
 31  13  37  1   
 32  13  38  1   
 33  14  39  1   
 34  14  40  1   
 35  14  41  1   
 36  15  16  1   
 37  15  17  1   
 38  16  18  2   
 39  17  19  2   
 40  17  20  1   
 41  18  19  1   
 42  18  21  1   
 43  19  42  1   
 44  20  43  1   
 45  20  44  1   
 46  20  45  1   
 47  21  46  1   
 48  21  47  1   
 49  21  48  1   
@<TRIPOS>SUBSTRUCTURE
  1 ****  11 GROUP 4 **** **** 0

# MOE 2024.06 (io_trps.svl 2023.06)
