@<TRIPOS>MOLECULE
NONAME
51 53 1 0 0 
SMALL
USER_CHARGES


@<TRIPOS>ATOM
  1 O       -1.0480    -1.2400    -0.5380 O.3   1 <1>  -0.6800 
  2 C        0.1510    -1.8310    -0.9040 C.3   1 <1>   0.1200 
  3 C        1.2340    -1.6090     0.1930 C.3   1 <1>   0.0000 
  4 C        2.5970    -2.2110    -0.2560 C.3   1 <1>   0.4230 
  5 C        1.4420    -0.0860     0.4330 C.3   1 <1>  -0.1600 
  6 C        0.8040    -2.2620     1.5420 C.3   1 <1>  -0.1600 
  7 N        2.5900    -3.7320    -0.4010 N.4   1 <1>  -0.9590 
  8 C        3.1910    -1.4560    -1.4700 C.3   1 <1>   0.2090 
  9 C        2.0470     0.6590    -0.7640 C.3   1 <1>   0.2090 
 10 C        1.4430    -3.6370     1.8050 C.3   1 <1>  -0.1600 
 11 C        1.6300    -4.4290     0.5150 C.3   1 <1>   0.3430 
 12 C        2.4340    -4.2490    -1.7980 C.3   1 <1>   0.2630 
 13 N        3.3180    -0.0060    -1.1610 N.pl3 1 <1>  -0.8380 
 14 C        4.4930     0.4520    -0.5950 C.ar  1 <1>   0.4100 
 15 N        5.1520    -0.3810     0.1940 N.ar  1 <1>  -0.6200 
 16 C        4.9520     1.7240    -0.8350 C.ar  1 <1>  -0.1500 
 17 C        6.2590     0.1120     0.7220 C.ar  1 <1>   0.4700 
 18 C        6.1200     2.1210    -0.2330 C.ar  1 <1>   0.4100 
 19 N        6.7870     1.3080     0.5620 N.ar  1 <1>  -0.6200 
 20 N        6.6240     3.3830    -0.4400 N.pl3 1 <1>  -0.8690 
 21 C        8.0090     3.7840    -0.0750 C.3   1 <1>   0.2090 
 22 C        8.0430     4.3220     1.3580 C.3   1 <1>   0.1200 
 23 O        9.3490     4.6410     1.7110 O.3   1 <1>  -0.6800 
 24 H       -1.7380    -1.3480    -1.2260 H     1 <1>   0.4000 
 25 H       -0.0420    -2.8770    -1.0530 H     1 <1>   0.0800 
 26 H        0.4460    -1.3950    -1.8430 H     1 <1>   0.0800 
 27 H        3.2730    -1.9930     0.5550 H     1 <1>   0.0800 
 28 H        2.1070     0.0640     1.2660 H     1 <1>   0.0800 
 29 H        0.5080     0.3810     0.6960 H     1 <1>   0.0800 
 30 H        1.0620    -1.6250     2.3720 H     1 <1>   0.0800 
 31 H       -0.2680    -2.3630     1.5770 H     1 <1>   0.0800 
 32 H        3.5310    -4.0110    -0.0830 H     1 <1>   0.4500 
 33 H        2.5710    -1.5660    -2.3400 H     1 <1>   0.0800 
 34 H        4.1670    -1.8500    -1.6990 H     1 <1>   0.0800 
 35 H        2.2350     1.6830    -0.4880 H     1 <1>   0.0800 
 36 H        1.3630     0.6640    -1.5960 H     1 <1>   0.0800 
 37 H        0.8120    -4.1940     2.4770 H     1 <1>   0.0800 
 38 H        2.3960    -3.5180     2.2920 H     1 <1>   0.0800 
 39 H        0.6700    -4.5280     0.0350 H     1 <1>   0.0800 
 40 H        1.9920    -5.4190     0.7430 H     1 <1>   0.0800 
 41 H        1.4840    -3.9490    -2.2080 H     1 <1>   0.0800 
 42 H        2.4860    -5.3260    -1.8050 H     1 <1>   0.0800 
 43 H        3.2200    -3.8710    -2.4320 H     1 <1>   0.0800 
 44 H        4.4130     2.3840    -1.4800 H     1 <1>   0.1500 
 45 H        6.8060    -0.5510     1.3700 H     1 <1>   0.1500 
 46 H        6.1920     3.9460    -1.1750 H     1 <1>   0.4000 
 47 H        8.6630     2.9330    -0.1600 H     1 <1>   0.0800 
 48 H        8.3470     4.5490    -0.7530 H     1 <1>   0.0800 
 49 H        7.6750     3.5850     2.0500 H     1 <1>   0.0800 
 50 H        7.4510     5.2180     1.4330 H     1 <1>   0.0800 
 51 H        9.8730     3.8250     1.8390 H     1 <1>   0.4000 
@<TRIPOS>BOND
  1   1   2  1   
  2   1  24  1   
  3   2   3  1   
  4   2  25  1   
  5   2  26  1   
  6   3   4  1   
  7   3   5  1   
  8   3   6  1   
  9   4   7  1   
 10   4   8  1   
 11   4  27  1   
 12   5   9  1   
 13   5  28  1   
 14   5  29  1   
 15   6  10  1   
 16   6  30  1   
 17   6  31  1   
 18   7  11  1   
 19   7  12  1   
 20   7  32  1   
 21   8  13  1   
 22   8  33  1   
 23   8  34  1   
 24   9  13  1   
 25   9  35  1   
 26   9  36  1   
 27  10  11  1   
 28  10  37  1   
 29  10  38  1   
 30  11  39  1   
 31  11  40  1   
 32  12  41  1   
 33  12  42  1   
 34  12  43  1   
 35  13  14  1   
 36  14  15  ar  
 37  14  16  ar  
 38  15  17  ar  
 39  16  18  ar  
 40  16  44  1   
 41  17  19  ar  
 42  17  45  1   
 43  18  19  ar  
 44  18  20  1   
 45  20  21  1   
 46  20  46  1   
 47  21  22  1   
 48  21  47  1   
 49  21  48  1   
 50  22  23  1   
 51  22  49  1   
 52  22  50  1   
 53  23  51  1   
@<TRIPOS>SUBSTRUCTURE
  1 ****  14 GROUP 4 **** **** 0

# MOE 2024.06 (io_trps.svl 2023.06)
