@<TRIPOS>MOLECULE
NONAME
49 51 1 0 0 
SMALL
USER_CHARGES


@<TRIPOS>ATOM
  1 O       -1.7410     1.2690    -2.6760 O.2   1 <1>  -0.5700 
  2 C       -1.9590     1.2490    -1.4780 C.2   1 <1>   0.5440 
  3 N       -2.4520     0.0830    -0.9200 N.am  1 <1>  -0.6600 
  4 C       -1.7470     2.4520    -0.7050 C.ar  1 <1>   0.0860 
  5 C       -2.4440    -1.1670    -1.7430 C.3   1 <1>   0.3200 
  6 C       -2.6640    -0.0420     0.5650 C.3   1 <1>   0.1400 
  7 C       -0.6370     2.6160     0.1470 C.ar  1 <1>   0.1000 
  8 C       -2.6790     3.4860    -0.7970 C.ar  1 <1>  -0.1500 
  9 C       -3.3650    -2.2550    -1.2150 C.2   1 <1>  -0.3320 
 10 C       -3.9320     0.7020     1.0290 C.3   1 <1>   0.1200 
 11 N        0.3490     1.6330     0.2620 N.pl3 1 <1>  -0.8380 
 12 C       -0.5230     3.7960     0.8800 C.ar  1 <1>  -0.1500 
 13 C       -2.5500     4.6450    -0.0600 C.ar  1 <1>  -0.1500 
 14 N       -4.6460    -2.0640    -0.8460 N.pl3 1 <1>   0.0330 
 15 C       -3.1140    -3.5680    -1.0200 C.2   1 <1>   0.0770 
 16 O       -4.9020     0.6670     0.0340 O.3   1 <1>  -0.6800 
 17 C        1.1510     1.2520    -0.9440 C.3   1 <1>   0.2090 
 18 C        1.0260     1.3000     1.5530 C.3   1 <1>   0.2090 
 19 C       -1.4660     4.7990     0.7860 C.ar  1 <1>  -0.1500 
 20 C       -5.0880    -3.2730    -0.4430 C.2   1 <1>   0.0060 
 21 N       -4.1970    -4.2040    -0.5360 N.2   1 <1>  -0.5650 
 22 C        2.6220     1.6840    -0.7970 C.3   1 <1>   0.1200 
 23 C        2.5020     1.7400     1.5410 C.3   1 <1>   0.1200 
 24 C       -6.4910    -3.4940     0.0770 C.3   1 <1>  -0.0600 
 25 O        3.1650     1.2370     0.4150 O.3   1 <1>  -0.5600 
 26 H       -1.4370    -1.5420    -1.7870 H     1 <1>   0.0800 
 27 H       -2.7470    -0.9310    -2.7500 H     1 <1>   0.0800 
 28 H       -1.8130     0.3520     1.0900 H     1 <1>   0.0800 
 29 H       -2.7360    -1.0740     0.8560 H     1 <1>   0.0800 
 30 H       -3.5180     3.3710    -1.4620 H     1 <1>   0.1500 
 31 H       -3.7010     1.7340     1.2300 H     1 <1>   0.0800 
 32 H       -4.3350     0.2580     1.9230 H     1 <1>   0.0800 
 33 H        0.3240     3.9380     1.5230 H     1 <1>   0.1500 
 34 H       -3.2840     5.4290    -0.1430 H     1 <1>   0.1500 
 35 H       -5.1500    -1.1680    -0.7970 H     1 <1>   0.2700 
 36 H       -2.1960    -4.1020    -1.2050 H     1 <1>   0.1500 
 37 H       -4.4460     0.8540    -0.8170 H     1 <1>   0.4000 
 38 H        0.7400     1.7140    -1.8250 H     1 <1>   0.0800 
 39 H        1.1040     0.1850    -1.0780 H     1 <1>   0.0800 
 40 H        0.9830     0.2360     1.7040 H     1 <1>   0.0800 
 41 H        0.5120     1.7680     2.3740 H     1 <1>   0.0800 
 42 H       -1.3570     5.7020     1.3610 H     1 <1>   0.1500 
 43 H        2.6990     2.7570    -0.8350 H     1 <1>   0.0800 
 44 H        3.2100     1.2680    -1.5960 H     1 <1>   0.0800 
 45 H        3.0070     1.3650     2.4130 H     1 <1>   0.0800 
 46 H        2.5760     2.8130     1.5320 H     1 <1>   0.0800 
 47 H       -6.6690    -2.8670     0.9310 H     1 <1>   0.0800 
 48 H       -6.6130    -4.5210     0.3680 H     1 <1>   0.0800 
 49 H       -7.2070    -3.2640    -0.6900 H     1 <1>   0.0800 
@<TRIPOS>BOND
  1   1   2  2   
  2   2   3  am  
  3   2   4  1   
  4   3   5  1   
  5   3   6  1   
  6   4   7  ar  
  7   4   8  ar  
  8   5   9  1   
  9   5  26  1   
 10   5  27  1   
 11   6  10  1   
 12   6  28  1   
 13   6  29  1   
 14   7  11  1   
 15   7  12  ar  
 16   8  13  ar  
 17   8  30  1   
 18   9  14  1   
 19   9  15  2   
 20  10  16  1   
 21  10  31  1   
 22  10  32  1   
 23  11  17  1   
 24  11  18  1   
 25  12  19  ar  
 26  12  33  1   
 27  13  19  ar  
 28  13  34  1   
 29  14  20  1   
 30  14  35  1   
 31  15  21  1   
 32  15  36  1   
 33  16  37  1   
 34  17  22  1   
 35  17  38  1   
 36  17  39  1   
 37  18  23  1   
 38  18  40  1   
 39  18  41  1   
 40  19  42  1   
 41  20  21  2   
 42  20  24  1   
 43  22  25  1   
 44  22  43  1   
 45  22  44  1   
 46  23  25  1   
 47  23  45  1   
 48  23  46  1   
 49  24  47  1   
 50  24  48  1   
 51  24  49  1   
@<TRIPOS>SUBSTRUCTURE
  1 ****   3 GROUP 4 **** **** 0

# MOE 2024.06 (io_trps.svl 2023.06)
