@<TRIPOS>MOLECULE
NONAME
46 49 1 0 0 
SMALL
USER_CHARGES


@<TRIPOS>ATOM
  1 O        0.7180    -1.3000    -0.5350 O.3   1 <1>  -0.5600 
  2 C        0.0920    -2.2760     0.2710 C.3   1 <1>   0.4180 
  3 C        0.5320     0.0440    -0.1710 C.3   1 <1>   0.1200 
  4 C       -1.3060    -1.8290     0.6780 C.2   1 <1>  -0.2880 
  5 C        0.9820    -2.5580     1.4870 C.3   1 <1>  -0.1600 
  6 C        0.0090    -3.5430    -0.5910 C.3   1 <1>  -0.1600 
  7 C       -0.9490     0.4310    -0.2610 C.3   1 <1>  -0.0220 
  8 C       -1.8010    -0.6150     0.4320 C.2   1 <1>  -0.2760 
  9 C        2.3990    -2.9900     1.0910 C.3   1 <1>   0.3430 
 10 C        1.3480    -4.2750    -0.7450 C.3   1 <1>   0.3430 
 11 C       -3.2080    -0.1710     0.7930 C.3   1 <1>  -0.1020 
 12 N        2.4630    -3.3780    -0.3550 N.4   1 <1>  -0.9590 
 13 C        3.8140    -3.8720    -0.7520 C.3   1 <1>   0.5230 
 14 C        4.8630    -2.8050    -0.4770 C.2   1 <1>   0.0070 
 15 N        5.4090    -2.6380     0.6780 N.2   1 <1>  -0.5650 
 16 N        5.3010    -1.9290    -1.4230 N.pl3 1 <1>   0.0330 
 17 C        6.2620    -1.5880     0.5050 C.ar  1 <1>   0.2270 
 18 C        6.2020    -1.1330    -0.7990 C.ar  1 <1>  -0.1520 
 19 C        7.1120    -0.9720     1.4200 C.ar  1 <1>  -0.1500 
 20 C        6.9800    -0.0550    -1.2260 C.ar  1 <1>  -0.1500 
 21 C        7.8830     0.0930     1.0080 C.ar  1 <1>  -0.1500 
 22 C        7.8160     0.5500    -0.3140 C.ar  1 <1>  -0.1500 
 23 H        1.1160     0.6550    -0.8380 H     1 <1>   0.0800 
 24 H        0.8940     0.1850     0.8320 H     1 <1>   0.0800 
 25 H       -1.8700    -2.5940     1.1810 H     1 <1>   0.1500 
 26 H        0.5340    -3.3430     2.0700 H     1 <1>   0.0800 
 27 H        1.0280    -1.6960     2.1270 H     1 <1>   0.0800 
 28 H       -0.3820    -3.2810    -1.5590 H     1 <1>   0.0800 
 29 H       -0.6910    -4.2310    -0.1530 H     1 <1>   0.0800 
 30 H       -1.2450     0.5210    -1.2920 H     1 <1>   0.0800 
 31 H       -1.0810     1.3900     0.2090 H     1 <1>   0.0800 
 32 H        2.7210    -3.8090     1.7150 H     1 <1>   0.0800 
 33 H        3.0710    -2.1640     1.2630 H     1 <1>   0.0800 
 34 H        1.4610    -4.5950    -1.7680 H     1 <1>   0.0800 
 35 H        1.3550    -5.1490    -0.1130 H     1 <1>   0.0800 
 36 H       -3.7420     0.1250    -0.0920 H     1 <1>   0.0800 
 37 H       -3.1730     0.6620     1.4730 H     1 <1>   0.0800 
 38 H       -3.7490    -0.9710     1.2650 H     1 <1>   0.0800 
 39 H        2.2750    -2.4840    -0.8450 H     1 <1>   0.4500 
 40 H        3.8260    -4.1290    -1.7980 H     1 <1>   0.0800 
 41 H        4.0610    -4.7520    -0.1820 H     1 <1>   0.0800 
 42 H        5.0390    -1.8540    -2.4100 H     1 <1>   0.2700 
 43 H        7.1480    -1.3410     2.4280 H     1 <1>   0.1500 
 44 H        6.9280     0.2920    -2.2440 H     1 <1>   0.1500 
 45 H        8.5460     0.5830     1.7000 H     1 <1>   0.1500 
 46 H        8.4300     1.3840    -0.6100 H     1 <1>   0.1500 
@<TRIPOS>BOND
  1   1   2  1   
  2   1   3  1   
  3   2   4  1   
  4   2   5  1   
  5   2   6  1   
  6   3   7  1   
  7   3  23  1   
  8   3  24  1   
  9   4   8  2   
 10   4  25  1   
 11   5   9  1   
 12   5  26  1   
 13   5  27  1   
 14   6  10  1   
 15   6  28  1   
 16   6  29  1   
 17   7   8  1   
 18   7  30  1   
 19   7  31  1   
 20   8  11  1   
 21   9  12  1   
 22   9  32  1   
 23   9  33  1   
 24  10  12  1   
 25  10  34  1   
 26  10  35  1   
 27  11  36  1   
 28  11  37  1   
 29  11  38  1   
 30  12  13  1   
 31  12  39  1   
 32  13  14  1   
 33  13  40  1   
 34  13  41  1   
 35  14  15  2   
 36  14  16  1   
 37  15  17  1   
 38  16  18  1   
 39  16  42  1   
 40  17  18  ar  
 41  17  19  ar  
 42  18  20  ar  
 43  19  21  ar  
 44  19  43  1   
 45  20  22  ar  
 46  20  44  1   
 47  21  22  ar  
 48  21  45  1   
 49  22  46  1   
@<TRIPOS>SUBSTRUCTURE
  1 ****   9 GROUP 4 **** **** 0

# MOE 2024.06 (io_trps.svl 2023.06)
