@<TRIPOS>MOLECULE
NONAME
41 43 1 0 0 
SMALL
USER_CHARGES


@<TRIPOS>ATOM
  1 CL       0.1690     0.2490     1.0050 Cl    1 <1>  -0.1770 
  2 C       -0.8150     1.2930     0.0070 C.ar  1 <1>   0.1770 
  3 C       -0.8230     2.6750     0.1690 C.ar  1 <1>  -0.0090 
  4 C       -1.5760     0.6640    -0.9630 C.ar  1 <1>  -0.1500 
  5 S        0.1730     3.5460     1.4080 S.o2  1 <1>   1.4470 
  6 C       -1.6310     3.4060    -0.6990 C.ar  1 <1>  -0.1500 
  7 C       -2.3700     1.4140    -1.8090 C.ar  1 <1>  -0.1500 
  8 O       -0.4560     4.8190     1.6820 O.2   1 <1>  -0.6500 
  9 O        0.5890     2.7350     2.5280 O.2   1 <1>  -0.6500 
 10 N        1.6190     3.9520     0.6060 N.am  1 <1>  -0.8490 
 11 C       -2.3960     2.7890    -1.6740 C.ar  1 <1>  -0.1500 
 12 C        2.3140     5.0120     1.3790 C.3   1 <1>   0.1960 
 13 C        2.4700     2.7790     0.3600 C.3   1 <1>   0.1960 
 14 C        3.7250     5.4490     0.9000 C.3   1 <1>   0.4230 
 15 C        3.5710     3.0520    -0.6880 C.3   1 <1>  -0.0800 
 16 N        3.8820     5.5820    -0.5990 N.4   1 <1>  -0.9590 
 17 C        4.8430     4.5390     1.4680 C.3   1 <1>   0.1200 
 18 C        4.9960     2.7980    -0.1470 C.3   1 <1>   0.1200 
 19 C        3.3980     4.4080    -1.4000 C.3   1 <1>   0.3430 
 20 C        3.3280     6.8610    -1.1270 C.3   1 <1>   0.2630 
 21 O        5.5690     3.9330     0.4330 O.3   1 <1>  -0.5600 
 22 H       -1.5460    -0.4080    -1.0530 H     1 <1>   0.1500 
 23 H       -1.6710     4.4790    -0.6080 H     1 <1>   0.1500 
 24 H       -2.9670     0.9310    -2.5650 H     1 <1>   0.1500 
 25 H       -3.0170     3.3800    -2.3280 H     1 <1>   0.1500 
 26 H        1.6980     5.8950     1.3640 H     1 <1>   0.0800 
 27 H        2.3830     4.7120     2.4120 H     1 <1>   0.0800 
 28 H        2.8830     2.4150     1.2880 H     1 <1>   0.0800 
 29 H        1.8590     1.9870    -0.0340 H     1 <1>   0.0800 
 30 H        3.8960     6.4160     1.3410 H     1 <1>   0.0800 
 31 H        3.4200     2.3000    -1.4420 H     1 <1>   0.0800 
 32 H        4.9110     5.5570    -0.7150 H     1 <1>   0.4500 
 33 H        4.4660     3.7820     2.1360 H     1 <1>   0.0800 
 34 H        5.5360     5.1440     2.0260 H     1 <1>   0.0800 
 35 H        5.6440     2.5120    -0.9580 H     1 <1>   0.0800 
 36 H        5.0080     1.9990     0.5770 H     1 <1>   0.0800 
 37 H        2.3530     4.5380    -1.6290 H     1 <1>   0.0800 
 38 H        3.9340     4.3820    -2.3350 H     1 <1>   0.0800 
 39 H        2.2570     6.8830    -0.9990 H     1 <1>   0.0800 
 40 H        3.5510     6.9600    -2.1770 H     1 <1>   0.0800 
 41 H        3.7570     7.7010    -0.6050 H     1 <1>   0.0800 
@<TRIPOS>BOND
  1   1   2  1   
  2   2   3  ar  
  3   2   4  ar  
  4   3   5  1   
  5   3   6  ar  
  6   4   7  ar  
  7   4  22  1   
  8   5   8  2   
  9   5   9  2   
 10   5  10  am  
 11   6  11  ar  
 12   6  23  1   
 13   7  11  ar  
 14   7  24  1   
 15  10  12  1   
 16  10  13  1   
 17  11  25  1   
 18  12  14  1   
 19  12  26  1   
 20  12  27  1   
 21  13  15  1   
 22  13  28  1   
 23  13  29  1   
 24  14  16  1   
 25  14  17  1   
 26  14  30  1   
 27  15  18  1   
 28  15  19  1   
 29  15  31  1   
 30  16  19  1   
 31  16  20  1   
 32  16  32  1   
 33  17  21  1   
 34  17  33  1   
 35  17  34  1   
 36  18  21  1   
 37  18  35  1   
 38  18  36  1   
 39  19  37  1   
 40  19  38  1   
 41  20  39  1   
 42  20  40  1   
 43  20  41  1   
@<TRIPOS>SUBSTRUCTURE
  1 ****  10 GROUP 4 **** **** 0

# MOE 2024.06 (io_trps.svl 2023.06)
