@<TRIPOS>MOLECULE
NONAME
40 41 1 0 0 
SMALL
USER_CHARGES


@<TRIPOS>ATOM
  1 S        0.4080     0.4970    -0.9750 S.o2  1 <1>   1.3330 
  2 O       -0.4550     1.6240    -1.2450 O.2   1 <1>  -0.6500 
  3 O        0.7510    -0.4170    -2.0410 O.2   1 <1>  -0.6500 
  4 N       -0.2810    -0.3980     0.2930 N.am  1 <1>  -0.8490 
  5 C        1.9470     1.1140    -0.2910 C.3   1 <1>  -0.0550 
  6 C       -1.1620    -1.4620    -0.1990 C.3   1 <1>   0.1160 
  7 C       -1.0040     0.4320     1.2630 C.3   1 <1>   0.1160 
  8 C        2.9670     0.0140     0.0730 C.3   1 <1>  -0.0800 
  9 C        4.3830     0.5140     0.3310 C.3   1 <1>   0.2890 
 10 C        2.6240    -0.7590     1.3540 C.3   1 <1>   0.1200 
 11 N        4.3580     1.8150     1.0510 N.pl3 1 <1>  -0.8690 
 12 C        4.8980    -0.5630     1.2770 C.3   1 <1>   0.1200 
 13 O        3.8090    -0.8850     2.0810 O.3   1 <1>  -0.5600 
 14 C        4.7660     3.0400     0.6920 C.ar  1 <1>   0.4100 
 15 N        4.7520     3.9310     1.6570 N.ar  1 <1>  -0.6200 
 16 C        5.1750     3.3610    -0.6170 C.ar  1 <1>  -0.1500 
 17 C        5.1610     5.1490     1.3690 C.ar  1 <1>   0.7710 
 18 C        5.5830     4.6260    -0.8810 C.ar  1 <1>   0.2110 
 19 N        5.5720     5.5190     0.1420 N.ar  1 <1>  -0.1790 
 20 N        5.1530     6.0270     2.3670 N.pl3 1 <1>  -0.9000 
 21 H        2.3930     1.7550    -1.0250 H     1 <1>   0.0800 
 22 H        1.7400     1.7150     0.5730 H     1 <1>   0.0800 
 23 H       -1.5720    -2.0190     0.6250 H     1 <1>   0.0800 
 24 H       -0.6060    -2.1430    -0.8220 H     1 <1>   0.0800 
 25 H       -1.9670    -1.0420    -0.7800 H     1 <1>   0.0800 
 26 H       -1.3470    -0.1730     2.0850 H     1 <1>   0.0800 
 27 H       -1.8550     0.9040     0.7970 H     1 <1>   0.0800 
 28 H       -0.3570     1.1990     1.6530 H     1 <1>   0.0800 
 29 H        3.0130    -0.6980    -0.7330 H     1 <1>   0.0800 
 30 H        4.9760     0.5690    -0.5650 H     1 <1>   0.0800 
 31 H        2.2440    -1.7430     1.1340 H     1 <1>   0.0800 
 32 H        1.9190    -0.2320     1.9720 H     1 <1>   0.0800 
 33 H        4.0870     1.6920     2.0360 H     1 <1>   0.4000 
 34 H        5.7150    -0.2260     1.8910 H     1 <1>   0.0800 
 35 H        5.1830    -1.4490     0.7360 H     1 <1>   0.0800 
 36 H        5.1540     2.6060    -1.3790 H     1 <1>   0.1500 
 37 H        5.9100     4.9450    -1.8590 H     1 <1>   0.1500 
 38 H        5.8670     6.4840     0.0250 H     1 <1>   0.4570 
 39 H        5.4320     7.0100     2.3690 H     1 <1>   0.4000 
 40 H        4.8320     5.6900     3.2820 H     1 <1>   0.4000 
@<TRIPOS>BOND
  1   1   2  2   
  2   1   3  2   
  3   1   4  am  
  4   1   5  1   
  5   4   6  1   
  6   4   7  1   
  7   5   8  1   
  8   5  21  1   
  9   5  22  1   
 10   6  23  1   
 11   6  24  1   
 12   6  25  1   
 13   7  26  1   
 14   7  27  1   
 15   7  28  1   
 16   8   9  1   
 17   8  10  1   
 18   8  29  1   
 19   9  11  1   
 20   9  12  1   
 21   9  30  1   
 22  10  13  1   
 23  10  31  1   
 24  10  32  1   
 25  11  14  1   
 26  11  33  1   
 27  12  13  1   
 28  12  34  1   
 29  12  35  1   
 30  14  15  ar  
 31  14  16  ar  
 32  15  17  ar  
 33  16  18  ar  
 34  16  36  1   
 35  17  19  ar  
 36  17  20  1   
 37  18  19  ar  
 38  18  37  1   
 39  19  38  1   
 40  20  39  1   
 41  20  40  1   
@<TRIPOS>SUBSTRUCTURE
  1 ****   5 GROUP 4 **** **** 0

# MOE 2024.06 (io_trps.svl 2023.06)
