@<TRIPOS>MOLECULE
NONAME
45 47 1 0 0 
SMALL
USER_CHARGES


@<TRIPOS>ATOM
  1 O       -0.3980    -1.7360    -0.6890 O.2   1 <1>  -0.5700 
  2 C        0.6900    -2.2670    -0.6010 C.2   1 <1>   0.6900 
  3 N        1.1010    -2.9260     0.5450 N.am  1 <1>  -0.4690 
  4 N        1.5320    -2.2330    -1.6650 N.am  1 <1>  -0.4900 
  5 C        2.3270    -3.5820     0.5780 C.2   1 <1>  -0.0410 
  6 C        0.2050    -3.0000     1.7420 C.3   1 <1>   0.2010 
  7 C        2.7460    -2.8450    -1.6750 C.2   1 <1>   0.6160 
  8 C        3.1490    -3.5560    -0.4970 C.2   1 <1>  -0.1240 
  9 C       -0.3170    -4.4150     1.9850 C.2   1 <1>   0.5690 
 10 O        3.4200    -2.7580    -2.6810 O.2   1 <1>  -0.5700 
 11 C        4.4950    -4.2690    -0.4970 C.3   1 <1>  -0.1020 
 12 O        0.2170    -5.0680     2.8510 O.2   1 <1>  -0.5700 
 13 N       -1.3500    -4.9240     1.2450 N.am  1 <1>  -0.6600 
 14 C       -2.1210    -4.2190     0.1890 C.3   1 <1>   0.1400 
 15 C       -1.7630    -6.3480     1.3190 C.3   1 <1>   0.1400 
 16 C       -3.3130    -5.1360    -0.0840 C.3   1 <1>   0.2000 
 17 C       -2.7760    -6.5450     0.1790 C.3   1 <1>  -0.0800 
 18 O       -4.2950    -4.8720     0.8570 O.3   1 <1>  -0.6800 
 19 C       -2.1170    -7.1220    -1.0910 C.3   1 <1>  -0.0170 
 20 C       -1.6650    -8.5600    -0.8970 C.ar  1 <1>   0.1670 
 21 N       -0.3850    -8.7440    -0.6150 N.ar  1 <1>  -0.6200 
 22 C       -2.5870    -9.5890    -1.0230 C.ar  1 <1>  -0.1500 
 23 C       -0.0080   -10.0010    -0.4480 C.ar  1 <1>   0.1600 
 24 C       -2.1810   -10.8940    -0.8460 C.ar  1 <1>  -0.1500 
 25 C       -0.8510   -11.0950    -0.5500 C.ar  1 <1>  -0.1500 
 26 H        1.2400    -1.7350    -2.4960 H     1 <1>   0.3700 
 27 H        2.5790    -4.1080     1.4870 H     1 <1>   0.1500 
 28 H        0.7630    -2.6930     2.6070 H     1 <1>   0.0800 
 29 H       -0.6260    -2.3280     1.6400 H     1 <1>   0.0800 
 30 H        4.5190    -5.0020    -1.2840 H     1 <1>   0.0800 
 31 H        4.6700    -4.7640     0.4410 H     1 <1>   0.0800 
 32 H        5.2850    -3.5590    -0.6670 H     1 <1>   0.0800 
 33 H       -2.4370    -3.2370     0.4970 H     1 <1>   0.0800 
 34 H       -1.5140    -4.1420    -0.6960 H     1 <1>   0.0800 
 35 H       -0.9050    -6.9930     1.2310 H     1 <1>   0.0800 
 36 H       -2.2310    -6.5260     2.2720 H     1 <1>   0.0800 
 37 H       -3.7380    -5.0010    -1.0630 H     1 <1>   0.0800 
 38 H       -3.5680    -7.2070     0.4820 H     1 <1>   0.0800 
 39 H       -3.8860    -4.8720     1.7460 H     1 <1>   0.4000 
 40 H       -1.2700    -6.5230    -1.3780 H     1 <1>   0.0800 
 41 H       -2.8210    -7.0950    -1.9030 H     1 <1>   0.0800 
 42 H       -3.6140    -9.3730    -1.2550 H     1 <1>   0.1500 
 43 H        1.0300   -10.1690    -0.2160 H     1 <1>   0.1500 
 44 H       -2.8700   -11.7170    -0.9350 H     1 <1>   0.1500 
 45 H       -0.4670   -12.0870    -0.3990 H     1 <1>   0.1500 
@<TRIPOS>BOND
  1   1   2  2   
  2   2   3  am  
  3   2   4  am  
  4   3   5  1   
  5   3   6  1   
  6   4   7  am  
  7   4  26  1   
  8   5   8  2   
  9   5  27  1   
 10   6   9  1   
 11   6  28  1   
 12   6  29  1   
 13   7   8  1   
 14   7  10  2   
 15   8  11  1   
 16   9  12  2   
 17   9  13  am  
 18  11  30  1   
 19  11  31  1   
 20  11  32  1   
 21  13  14  1   
 22  13  15  1   
 23  14  16  1   
 24  14  33  1   
 25  14  34  1   
 26  15  17  1   
 27  15  35  1   
 28  15  36  1   
 29  16  17  1   
 30  16  18  1   
 31  16  37  1   
 32  17  19  1   
 33  17  38  1   
 34  18  39  1   
 35  19  20  1   
 36  19  40  1   
 37  19  41  1   
 38  20  21  ar  
 39  20  22  ar  
 40  21  23  ar  
 41  22  24  ar  
 42  22  42  1   
 43  23  25  ar  
 44  23  43  1   
 45  24  25  ar  
 46  24  44  1   
 47  25  45  1   
@<TRIPOS>SUBSTRUCTURE
  1 ****  13 GROUP 4 **** **** 0

# MOE 2024.06 (io_trps.svl 2023.06)
