@<TRIPOS>MOLECULE
NONAME
23 23 1 0 0 
SMALL
USER_CHARGES


@<TRIPOS>ATOM
  1 O       -0.8030     0.5900    -1.5820 O.2   1 <1>  -0.5700 
  2 C       -1.5970     1.0480    -0.7980 C.2   1 <1>   0.5690 
  3 N       -1.4870     2.3280    -0.3750 N.am  1 <1>  -0.7300 
  4 C       -2.7590     0.1890    -0.2860 C.3   1 <1>   0.1810 
  5 C       -2.3900     2.9300     0.6340 C.3   1 <1>   0.2200 
  6 O       -3.3880     0.7270     0.8600 O.3   1 <1>  -0.5600 
  7 C       -2.6620     4.4200     0.3100 C.3   1 <1>  -0.0800 
  8 C       -3.6860     2.0930     0.7560 C.3   1 <1>   0.1200 
  9 C       -3.2900     4.6540    -1.0760 C.3   1 <1>  -0.2400 
 10 C       -1.3790     5.2580     0.4330 C.3   1 <1>  -0.2400 
 11 H       -0.6960     2.8820    -0.7030 H     1 <1>   0.3700 
 12 H       -2.3940    -0.7890    -0.0290 H     1 <1>   0.0800 
 13 H       -3.4970     0.0920    -1.0600 H     1 <1>   0.0800 
 14 H       -1.8940     2.8840     1.5880 H     1 <1>   0.0800 
 15 H       -3.3530     4.7880     1.0500 H     1 <1>   0.0800 
 16 H       -4.3260     2.2310    -0.0970 H     1 <1>   0.0800 
 17 H       -4.2280     2.3790     1.6390 H     1 <1>   0.0800 
 18 H       -2.6470     4.2880    -1.8570 H     1 <1>   0.0800 
 19 H       -3.4490     5.7060    -1.2380 H     1 <1>   0.0800 
 20 H       -4.2430     4.1640    -1.1600 H     1 <1>   0.0800 
 21 H       -0.6630     4.9820    -0.3200 H     1 <1>   0.0800 
 22 H       -0.9300     5.1190     1.4010 H     1 <1>   0.0800 
 23 H       -1.6050     6.3030     0.3170 H     1 <1>   0.0800 
@<TRIPOS>BOND
  1   1   2  2   
  2   2   3  am  
  3   2   4  1   
  4   3   5  1   
  5   3  11  1   
  6   4   6  1   
  7   4  12  1   
  8   4  13  1   
  9   5   7  1   
 10   5   8  1   
 11   5  14  1   
 12   6   8  1   
 13   7   9  1   
 14   7  10  1   
 15   7  15  1   
 16   8  16  1   
 17   8  17  1   
 18   9  18  1   
 19   9  19  1   
 20   9  20  1   
 21  10  21  1   
 22  10  22  1   
 23  10  23  1   
@<TRIPOS>SUBSTRUCTURE
  1 ****   3 GROUP 4 **** **** 0

# MOE 2024.06 (io_trps.svl 2023.06)
