@<TRIPOS>MOLECULE
NONAME
64 67 1 0 0 
SMALL
USER_CHARGES


@<TRIPOS>ATOM
  1 O        1.2470     1.6450    -0.3800 O.3   1 <1>  -0.6800 
  2 C        1.6110     0.3220    -0.2710 C.3   1 <1>   0.2800 
  3 C        2.8590     0.2810     0.6380 C.3   1 <1>  -0.0800 
  4 C        1.9240    -0.1590    -1.6990 C.3   1 <1>  -0.1600 
  5 C        0.4120    -0.4570     0.3220 C.3   1 <1>  -0.1600 
  6 C        3.7230    -0.9760     0.5320 C.3   1 <1>  -0.0800 
  7 C        3.8520     1.3880     0.3370 C.3   1 <1>   0.3430 
  8 C        2.6420    -1.5160    -1.7130 C.3   1 <1>  -0.1600 
  9 C       -0.1940     0.1040     1.6230 C.3   1 <1>  -0.2400 
 10 C        3.9500    -1.4390    -0.9230 C.3   1 <1>  -0.1600 
 11 C        5.0490    -0.5350     1.1510 C.3   1 <1>   0.3430 
 12 N        5.1480     0.9600     0.9690 N.4   1 <1>  -0.9590 
 13 C        6.3590     1.4250     0.2280 C.3   1 <1>   0.4230 
 14 C        7.6320     1.0180     0.9830 C.3   1 <1>  -0.1600 
 15 C        6.3320     2.9510     0.0550 C.3   1 <1>  -0.1600 
 16 C        8.8880     1.5540     0.2950 C.3   1 <1>   0.3430 
 17 C        7.6040     3.4650    -0.6190 C.3   1 <1>   0.3430 
 18 N        8.8060     3.0350     0.1550 N.4   1 <1>  -0.9590 
 19 C       10.0750     3.5430    -0.4700 C.3   1 <1>   0.3430 
 20 C       10.2240     5.0610    -0.3440 C.3   1 <1>  -0.0170 
 21 C       11.5780     5.4490    -0.9020 C.ar  1 <1>  -0.1430 
 22 C       12.6920     5.4790    -0.0760 C.ar  1 <1>  -0.1500 
 23 C       11.7170     5.7650    -2.2460 C.ar  1 <1>  -0.1500 
 24 C       13.9330     5.8130    -0.5900 C.ar  1 <1>  -0.1500 
 25 C       12.9590     6.0980    -2.7590 C.ar  1 <1>  -0.1500 
 26 C       14.0670     6.1210    -1.9320 C.ar  1 <1>  -0.1500 
 27 H        0.3530     1.7000    -0.7740 H     1 <1>   0.4000 
 28 H        2.5510     0.4050     1.6590 H     1 <1>   0.0800 
 29 H        1.0140    -0.2420    -2.2680 H     1 <1>   0.0800 
 30 H        2.5500     0.5610    -2.1980 H     1 <1>   0.0800 
 31 H       -0.3720    -0.5010    -0.4140 H     1 <1>   0.0800 
 32 H        0.7110    -1.4740     0.5050 H     1 <1>   0.0800 
 33 H        3.2880    -1.7850     1.0950 H     1 <1>   0.0800 
 34 H        3.5020     2.3330     0.7230 H     1 <1>   0.0800 
 35 H        3.9660     1.4660    -0.7310 H     1 <1>   0.0800 
 36 H        2.0050    -2.2780    -1.2970 H     1 <1>   0.0800 
 37 H        2.8540    -1.7970    -2.7310 H     1 <1>   0.0800 
 38 H       -0.5070     1.1250     1.4980 H     1 <1>   0.0800 
 39 H        0.5020     0.0530     2.4400 H     1 <1>   0.0800 
 40 H       -1.0590    -0.4760     1.8950 H     1 <1>   0.0800 
 41 H        4.6120    -0.7640    -1.4370 H     1 <1>   0.0800 
 42 H        4.4160    -2.4110    -0.9240 H     1 <1>   0.0800 
 43 H        5.8680    -1.0540     0.6800 H     1 <1>   0.0800 
 44 H        5.0460    -0.7720     2.2040 H     1 <1>   0.0800 
 45 H        5.1500     1.3690     1.9130 H     1 <1>   0.4500 
 46 H        6.3700     0.9650    -0.7490 H     1 <1>   0.0800 
 47 H        7.6050     1.3840     1.9940 H     1 <1>   0.0800 
 48 H        7.7190    -0.0530     1.0170 H     1 <1>   0.0800 
 49 H        5.5060     3.2420    -0.5690 H     1 <1>   0.0800 
 50 H        6.2200     3.4380     1.0070 H     1 <1>   0.0800 
 51 H        8.9920     1.1010    -0.6790 H     1 <1>   0.0800 
 52 H        9.7570     1.2890     0.8790 H     1 <1>   0.0800 
 53 H        7.5660     4.5420    -0.6750 H     1 <1>   0.0800 
 54 H        7.6640     3.0820    -1.6270 H     1 <1>   0.0800 
 55 H        8.7610     3.4490     1.0990 H     1 <1>   0.4500 
 56 H       10.9240     3.0880     0.0170 H     1 <1>   0.0800 
 57 H       10.1150     3.2700    -1.5120 H     1 <1>   0.0800 
 58 H        9.4580     5.5750    -0.8960 H     1 <1>   0.0800 
 59 H       10.1690     5.3610     0.6880 H     1 <1>   0.0800 
 60 H       12.6110     5.2490     0.9720 H     1 <1>   0.1500 
 61 H       10.8700     5.7590    -2.9080 H     1 <1>   0.1500 
 62 H       14.7960     5.8360     0.0530 H     1 <1>   0.1500 
 63 H       13.0650     6.3430    -3.8020 H     1 <1>   0.1500 
 64 H       15.0320     6.3810    -2.3310 H     1 <1>   0.1500 
@<TRIPOS>BOND
  1   1   2  1   
  2   1  27  1   
  3   2   3  1   
  4   2   4  1   
  5   2   5  1   
  6   3   6  1   
  7   3   7  1   
  8   3  28  1   
  9   4   8  1   
 10   4  29  1   
 11   4  30  1   
 12   5   9  1   
 13   5  31  1   
 14   5  32  1   
 15   6  10  1   
 16   6  11  1   
 17   6  33  1   
 18   7  12  1   
 19   7  34  1   
 20   7  35  1   
 21   8  10  1   
 22   8  36  1   
 23   8  37  1   
 24   9  38  1   
 25   9  39  1   
 26   9  40  1   
 27  10  41  1   
 28  10  42  1   
 29  11  12  1   
 30  11  43  1   
 31  11  44  1   
 32  12  13  1   
 33  12  45  1   
 34  13  14  1   
 35  13  15  1   
 36  13  46  1   
 37  14  16  1   
 38  14  47  1   
 39  14  48  1   
 40  15  17  1   
 41  15  49  1   
 42  15  50  1   
 43  16  18  1   
 44  16  51  1   
 45  16  52  1   
 46  17  18  1   
 47  17  53  1   
 48  17  54  1   
 49  18  19  1   
 50  18  55  1   
 51  19  20  1   
 52  19  56  1   
 53  19  57  1   
 54  20  21  1   
 55  20  58  1   
 56  20  59  1   
 57  21  22  ar  
 58  21  23  ar  
 59  22  24  ar  
 60  22  60  1   
 61  23  25  ar  
 62  23  61  1   
 63  24  26  ar  
 64  24  62  1   
 65  25  26  ar  
 66  25  63  1   
 67  26  64  1   
@<TRIPOS>SUBSTRUCTURE
  1 ****  15 GROUP 4 **** **** 0

# MOE 2024.06 (io_trps.svl 2023.06)
