@<TRIPOS>MOLECULE
NONAME
43 44 1 0 0 
SMALL
USER_CHARGES


@<TRIPOS>ATOM
  1 O       -0.7000     0.3050    -0.4640 O.co2 1 <1>  -0.9000 
  2 C       -1.8270     0.7810    -0.2310 C.2   1 <1>   0.9790 
  3 O       -1.9360     2.0140    -0.0970 O.co2 1 <1>  -0.9000 
  4 C       -2.9930    -0.0890    -0.1170 C.ar  1 <1>  -0.1790 
  5 C       -4.2650     0.4240     0.1440 C.ar  1 <1>  -0.1500 
  6 C       -2.8880    -1.4740    -0.2650 C.ar  1 <1>  -0.1500 
  7 C       -5.3710    -0.3990     0.2520 C.ar  1 <1>  -0.1500 
  8 C       -3.9870    -2.3060    -0.1590 C.ar  1 <1>  -0.1500 
  9 C       -5.2450    -1.7710     0.1020 C.ar  1 <1>   0.0820 
 10 O       -6.3740    -2.5120     0.2220 O.3   1 <1>  -0.3630 
 11 C       -6.3480    -3.9080     0.0860 C.3   1 <1>   0.1200 
 12 C       -7.7820    -4.4030     0.2660 C.3   1 <1>  -0.1600 
 13 C       -7.8540    -5.9210     0.1270 C.3   1 <1>   0.3430 
 14 N       -9.2390    -6.3950     0.3720 N.4   1 <1>  -0.9590 
 15 C       -9.2520    -7.8880     0.6440 C.3   1 <1>   0.3430 
 16 C      -10.1750    -6.0440    -0.7420 C.3   1 <1>   0.3430 
 17 C      -10.5840    -8.5820     0.2950 C.3   1 <1>   0.2000 
 18 C      -11.6150    -6.3220    -0.3010 C.3   1 <1>  -0.1600 
 19 O      -10.5530    -8.9310    -1.0450 O.3   1 <1>  -0.6800 
 20 C      -11.7640    -7.6310     0.5160 C.3   1 <1>  -0.1860 
 21 C      -13.0580    -8.3510     0.2160 C.2   1 <1>   0.9060 
 22 O      -13.9240    -8.3750     1.0870 O.co2 1 <1>  -0.9000 
 23 O      -13.1660    -8.9020    -0.8860 O.co2 1 <1>  -0.9000 
 24 H       -4.3710     1.4900     0.2620 H     1 <1>   0.1500 
 25 H       -1.9140    -1.8880    -0.4670 H     1 <1>   0.1500 
 26 H       -6.3360     0.0240     0.4540 H     1 <1>   0.1500 
 27 H       -3.8350    -3.3590    -0.2830 H     1 <1>   0.1500 
 28 H       -5.9720    -4.1430    -0.8950 H     1 <1>   0.0800 
 29 H       -5.6950    -4.3060     0.8450 H     1 <1>   0.0800 
 30 H       -8.1220    -4.1120     1.2440 H     1 <1>   0.0800 
 31 H       -8.3910    -3.9290    -0.4820 H     1 <1>   0.0800 
 32 H       -7.1900    -6.3690     0.8490 H     1 <1>   0.0800 
 33 H       -7.5350    -6.2220    -0.8580 H     1 <1>   0.0800 
 34 H       -9.6180    -5.9340     1.2090 H     1 <1>   0.4500 
 35 H       -8.4760    -8.3770     0.0780 H     1 <1>   0.0800 
 36 H       -9.0510    -8.0500     1.6890 H     1 <1>   0.0800 
 37 H      -10.0800    -5.0080    -1.0210 H     1 <1>   0.0800 
 38 H       -9.9470    -6.6520    -1.6040 H     1 <1>   0.0800 
 39 H      -10.7080    -9.4900     0.8610 H     1 <1>   0.0800 
 40 H      -12.0000    -5.4950     0.2690 H     1 <1>   0.0800 
 41 H      -12.2160    -6.3900    -1.1930 H     1 <1>   0.0800 
 42 H      -11.5110    -9.1160    -1.2980 H     1 <1>   0.4000 
 43 H      -11.7910    -7.3800     1.5610 H     1 <1>   0.0800 
@<TRIPOS>BOND
  1   1   2  ar  
  2   2   3  ar  
  3   2   4  1   
  4   4   5  ar  
  5   4   6  ar  
  6   5   7  ar  
  7   5  24  1   
  8   6   8  ar  
  9   6  25  1   
 10   7   9  ar  
 11   7  26  1   
 12   8   9  ar  
 13   8  27  1   
 14   9  10  1   
 15  10  11  1   
 16  11  12  1   
 17  11  28  1   
 18  11  29  1   
 19  12  13  1   
 20  12  30  1   
 21  12  31  1   
 22  13  14  1   
 23  13  32  1   
 24  13  33  1   
 25  14  15  1   
 26  14  16  1   
 27  14  34  1   
 28  15  17  1   
 29  15  35  1   
 30  15  36  1   
 31  16  18  1   
 32  16  37  1   
 33  16  38  1   
 34  17  19  1   
 35  17  20  1   
 36  17  39  1   
 37  18  20  1   
 38  18  40  1   
 39  18  41  1   
 40  19  42  1   
 41  20  21  1   
 42  20  43  1   
 43  21  22  ar  
 44  21  23  ar  
@<TRIPOS>SUBSTRUCTURE
  1 ****  12 GROUP 4 **** **** 0

# MOE 2024.06 (io_trps.svl 2023.06)
