@<TRIPOS>MOLECULE
NONAME
58 61 1 0 0 
SMALL
USER_CHARGES


@<TRIPOS>ATOM
  1 O        2.2340    -1.2440    -2.7760 O.2   1 <1>  -0.5700 
  2 C        1.6110    -1.5030    -1.7580 C.2   1 <1>   0.5440 
  3 N        1.2900    -0.4370    -0.9330 N.am  1 <1>  -0.6600 
  4 C        1.2810    -2.9020    -1.4690 C.ar  1 <1>   0.3960 
  5 C        1.7350     0.9480    -1.2050 C.3   1 <1>   0.1400 
  6 C        0.6430    -0.5290     0.3970 C.3   1 <1>   0.1400 
  7 N        0.1920    -3.2340    -0.7560 N.ar  1 <1>  -0.6200 
  8 C        2.1410    -3.8860    -1.9680 C.ar  1 <1>   0.1600 
  9 C        1.6810     1.6430     0.1490 C.3   1 <1>  -0.1600 
 10 C        0.5890     0.9050     0.9160 C.3   1 <1>  -0.1600 
 11 C        0.0340    -4.5320    -0.5650 C.ar  1 <1>   0.4100 
 12 N        2.0040    -5.1940    -1.8010 N.ar  1 <1>  -0.6200 
 13 N       -1.0770    -4.8840     0.1890 N.pl3 1 <1>  -0.8380 
 14 C        0.9300    -5.4770    -1.0950 C.ar  1 <1>   0.1600 
 15 C       -1.1810    -6.1570     0.9890 C.3   1 <1>   0.2090 
 16 C       -2.3920    -4.2340    -0.1370 C.3   1 <1>   0.2090 
 17 C       -2.3450    -7.0940     0.5420 C.3   1 <1>   0.3690 
 18 C       -3.5870    -4.8570     0.6120 C.3   1 <1>   0.2090 
 19 N       -3.6460    -6.3450     0.4620 N.pl3 1 <1>  -0.8380 
 20 C       -2.4650    -8.2500     1.5440 C.3   1 <1>  -0.2400 
 21 C       -2.0590    -7.6650    -0.8510 C.3   1 <1>  -0.2400 
 22 C       -4.8850    -6.9590     0.6410 C.ar  1 <1>   0.1000 
 23 C       -5.5140    -7.5920    -0.4210 C.ar  1 <1>  -0.1500 
 24 C       -5.5190    -6.9400     1.8770 C.ar  1 <1>  -0.1500 
 25 C       -6.7420    -8.2080    -0.2620 C.ar  1 <1>   0.0820 
 26 C       -6.7490    -7.5490     2.0500 C.ar  1 <1>  -0.1500 
 27 O       -7.2740    -8.8060    -1.3590 O.3   1 <1>  -0.3630 
 28 C       -7.3640    -8.1860     0.9850 C.ar  1 <1>  -0.1500 
 29 C       -8.5210    -9.4610    -1.3010 C.3   1 <1>   0.0400 
 30 H        1.0470     1.4050    -1.8950 H     1 <1>   0.0800 
 31 H        2.7280     0.9650    -1.6210 H     1 <1>   0.0800 
 32 H        1.2440    -1.1460     1.0440 H     1 <1>   0.0800 
 33 H       -0.3470    -0.9430     0.3160 H     1 <1>   0.0800 
 34 H        2.9950    -3.5640    -2.5390 H     1 <1>   0.1500 
 35 H        1.4770     2.6950     0.0510 H     1 <1>   0.0800 
 36 H        2.6280     1.5140     0.6440 H     1 <1>   0.0800 
 37 H        0.7320     0.9490     1.9810 H     1 <1>   0.0800 
 38 H       -0.3720     1.3250     0.6750 H     1 <1>   0.0800 
 39 H        0.7280    -6.5150    -0.9250 H     1 <1>   0.1500 
 40 H       -1.3450    -5.8880     2.0170 H     1 <1>   0.0800 
 41 H       -0.2540    -6.6980     0.9610 H     1 <1>   0.0800 
 42 H       -2.5700    -4.3180    -1.1950 H     1 <1>   0.0800 
 43 H       -2.3360    -3.1870     0.1040 H     1 <1>   0.0800 
 44 H       -4.5000    -4.4280     0.2370 H     1 <1>   0.0800 
 45 H       -3.5130    -4.6100     1.6560 H     1 <1>   0.0800 
 46 H       -2.7320    -7.8740     2.5140 H     1 <1>   0.0800 
 47 H       -1.5310    -8.7740     1.6240 H     1 <1>   0.0800 
 48 H       -3.2130    -8.9540     1.2250 H     1 <1>   0.0800 
 49 H       -2.0230    -6.8730    -1.5760 H     1 <1>   0.0800 
 50 H       -2.8270    -8.3600    -1.1350 H     1 <1>   0.0800 
 51 H       -1.1190    -8.1830    -0.8590 H     1 <1>   0.0800 
 52 H       -5.0420    -7.5990    -1.3830 H     1 <1>   0.1500 
 53 H       -5.0390    -6.4490     2.7020 H     1 <1>   0.1500 
 54 H       -7.2270    -7.5300     3.0140 H     1 <1>   0.1500 
 55 H       -8.3160    -8.6530     1.1440 H     1 <1>   0.1500 
 56 H       -8.7360    -9.8550    -2.2780 H     1 <1>   0.0800 
 57 H       -9.2760    -8.7490    -1.0200 H     1 <1>   0.0800 
 58 H       -8.4610   -10.2640    -0.5880 H     1 <1>   0.0800 
@<TRIPOS>BOND
  1   1   2  2   
  2   2   3  am  
  3   2   4  1   
  4   3   5  1   
  5   3   6  1   
  6   4   7  ar  
  7   4   8  ar  
  8   5   9  1   
  9   5  30  1   
 10   5  31  1   
 11   6  10  1   
 12   6  32  1   
 13   6  33  1   
 14   7  11  ar  
 15   8  12  ar  
 16   8  34  1   
 17   9  10  1   
 18   9  35  1   
 19   9  36  1   
 20  10  37  1   
 21  10  38  1   
 22  11  13  1   
 23  11  14  ar  
 24  12  14  ar  
 25  13  15  1   
 26  13  16  1   
 27  14  39  1   
 28  15  17  1   
 29  15  40  1   
 30  15  41  1   
 31  16  18  1   
 32  16  42  1   
 33  16  43  1   
 34  17  19  1   
 35  17  20  1   
 36  17  21  1   
 37  18  19  1   
 38  18  44  1   
 39  18  45  1   
 40  19  22  1   
 41  20  46  1   
 42  20  47  1   
 43  20  48  1   
 44  21  49  1   
 45  21  50  1   
 46  21  51  1   
 47  22  23  ar  
 48  22  24  ar  
 49  23  25  ar  
 50  23  52  1   
 51  24  26  ar  
 52  24  53  1   
 53  25  27  1   
 54  25  28  ar  
 55  26  28  ar  
 56  26  54  1   
 57  27  29  1   
 58  28  55  1   
 59  29  56  1   
 60  29  57  1   
 61  29  58  1   
@<TRIPOS>SUBSTRUCTURE
  1 ****  16 GROUP 4 **** **** 0

# MOE 2024.06 (io_trps.svl 2023.06)
