@<TRIPOS>MOLECULE
NONAME
45 47 1 0 0 
SMALL
USER_CHARGES


@<TRIPOS>ATOM
  1 F       -1.6110    -0.1900    -1.8960 F     1 <1>  -0.1900 
  2 C       -1.9920    -0.9550    -0.9080 C.ar  1 <1>   0.1900 
  3 C       -2.2410    -0.3930     0.3320 C.ar  1 <1>   0.1600 
  4 C       -2.1420    -2.3040    -1.1250 C.ar  1 <1>  -0.1500 
  5 N       -2.6290    -1.1010     1.3860 N.ar  1 <1>  -0.6200 
  6 C       -2.5560    -3.0670    -0.0410 C.ar  1 <1>   0.0860 
  7 C       -2.7620    -2.4040     1.1720 C.ar  1 <1>   0.1600 
  8 C       -2.7650    -4.4940    -0.1510 C.2   1 <1>   0.5440 
  9 O       -1.9670    -5.1660    -0.7730 O.2   1 <1>  -0.5700 
 10 N       -3.8560    -5.1140     0.4160 N.am  1 <1>  -0.6600 
 11 C       -3.9270    -6.6040     0.5580 C.3   1 <1>   0.1400 
 12 C       -5.1920    -4.4570     0.5690 C.3   1 <1>   0.1400 
 13 C       -5.0480    -7.1890    -0.3170 C.3   1 <1>   0.3440 
 14 C       -6.2590    -5.1590    -0.3040 C.3   1 <1>   0.2000 
 15 O       -6.2580    -6.5340    -0.0340 O.3   1 <1>  -0.5600 
 16 C       -5.2020    -8.6850    -0.0630 C.ar  1 <1>  -0.1440 
 17 C       -7.6900    -4.6230    -0.0650 C.3   1 <1>  -0.0800 
 18 C       -6.0450    -9.1720     0.9270 C.ar  1 <1>  -0.1500 
 19 C       -4.4720    -9.5860    -0.8270 C.ar  1 <1>  -0.1500 
 20 C       -8.7220    -5.3690    -0.9280 C.3   1 <1>  -0.2400 
 21 C       -7.8060    -3.1160    -0.3540 C.3   1 <1>  -0.2400 
 22 C       -6.1560   -10.5340     1.1500 C.ar  1 <1>  -0.1500 
 23 C       -4.5820   -10.9480    -0.6060 C.ar  1 <1>  -0.1500 
 24 C       -5.4240   -11.4230     0.3840 C.ar  1 <1>  -0.1500 
 25 H       -2.1140     0.6680     0.4570 H     1 <1>   0.1500 
 26 H       -1.9450    -2.7490    -2.0850 H     1 <1>   0.1500 
 27 H       -3.0580    -3.0000     2.0200 H     1 <1>   0.1500 
 28 H       -2.9920    -7.0600     0.2830 H     1 <1>   0.0800 
 29 H       -4.1200    -6.8550     1.5850 H     1 <1>   0.0800 
 30 H       -5.4940    -4.5010     1.6010 H     1 <1>   0.0800 
 31 H       -5.1320    -3.4240     0.2810 H     1 <1>   0.0800 
 32 H       -4.8180    -7.0270    -1.3560 H     1 <1>   0.0800 
 33 H       -6.0100    -5.0270    -1.3430 H     1 <1>   0.0800 
 34 H       -7.9390    -4.7840     0.9710 H     1 <1>   0.0800 
 35 H       -6.6210    -8.4880     1.5270 H     1 <1>   0.1500 
 36 H       -3.8120    -9.2310    -1.6000 H     1 <1>   0.1500 
 37 H       -8.4980    -5.2530    -1.9730 H     1 <1>   0.0800 
 38 H       -9.7130    -4.9930    -0.7420 H     1 <1>   0.0800 
 39 H       -8.7190    -6.4200    -0.6950 H     1 <1>   0.0800 
 40 H       -7.5000    -2.8990    -1.3630 H     1 <1>   0.0800 
 41 H       -7.2040    -2.5410     0.3250 H     1 <1>   0.0800 
 42 H       -8.8260    -2.7940    -0.2340 H     1 <1>   0.0800 
 43 H       -6.8140   -10.8990     1.9190 H     1 <1>   0.1500 
 44 H       -4.0130   -11.6380    -1.2030 H     1 <1>   0.1500 
 45 H       -5.5110   -12.4810     0.5570 H     1 <1>   0.1500 
@<TRIPOS>BOND
  1   1   2  1   
  2   2   3  ar  
  3   2   4  ar  
  4   3   5  ar  
  5   3  25  1   
  6   4   6  ar  
  7   4  26  1   
  8   5   7  ar  
  9   6   7  ar  
 10   6   8  1   
 11   7  27  1   
 12   8   9  2   
 13   8  10  am  
 14  10  11  1   
 15  10  12  1   
 16  11  13  1   
 17  11  28  1   
 18  11  29  1   
 19  12  14  1   
 20  12  30  1   
 21  12  31  1   
 22  13  15  1   
 23  13  16  1   
 24  13  32  1   
 25  14  15  1   
 26  14  17  1   
 27  14  33  1   
 28  16  18  ar  
 29  16  19  ar  
 30  17  20  1   
 31  17  21  1   
 32  17  34  1   
 33  18  22  ar  
 34  18  35  1   
 35  19  23  ar  
 36  19  36  1   
 37  20  37  1   
 38  20  38  1   
 39  20  39  1   
 40  21  40  1   
 41  21  41  1   
 42  21  42  1   
 43  22  24  ar  
 44  22  43  1   
 45  23  24  ar  
 46  23  44  1   
 47  24  45  1   
@<TRIPOS>SUBSTRUCTURE
  1 ****  10 GROUP 4 **** **** 0

# MOE 2024.06 (io_trps.svl 2023.06)
