@<TRIPOS>MOLECULE
NONAME
55 57 1 0 0 
SMALL
USER_CHARGES


@<TRIPOS>ATOM
  1 O        1.5460    -1.3010    -1.2630 O.2   1 <1>  -0.5700 
  2 C        1.7320    -0.9650    -0.1160 C.2   1 <1>   0.5690 
  3 N        1.5160     0.3470     0.2620 N.am  1 <1>  -0.6600 
  4 C        2.2040    -2.1260     0.8150 C.3   1 <1>   0.4840 
  5 C        1.5020     1.4040    -0.7990 C.3   1 <1>   0.2840 
  6 C        1.5110     0.9020     1.6460 C.3   1 <1>   0.0600 
  7 N        1.1060    -3.0710     1.2700 N.4   1 <1>  -0.9590 
  8 C        3.0910    -1.7690     2.0140 C.3   1 <1>  -0.2400 
  9 C        2.9150     1.9500    -0.9660 C.ar  1 <1>  -0.1430 
 10 C        0.5730    -3.8620     0.1060 C.3   1 <1>   0.4230 
 11 C        0.0260    -2.3220     1.9920 C.3   1 <1>   0.2630 
 12 C        3.3530     3.1260    -0.3050 C.ar  1 <1>   0.0000 
 13 C        3.7780     1.2550    -1.7760 C.ar  1 <1>  -0.1500 
 14 C       -0.5770    -4.7960     0.5310 C.3   1 <1>  -0.1600 
 15 C        1.7140    -4.6830    -0.5400 C.3   1 <1>  -0.1600 
 16 C        4.6910     3.5350    -0.4600 C.ar  1 <1>   0.0000 
 17 C        2.5690     3.9620     0.5170 C.ar  1 <1>  -0.1500 
 18 C        5.0990     1.6750    -1.9450 C.ar  1 <1>  -0.1500 
 19 C       -1.1740    -5.5550    -0.6710 C.3   1 <1>  -0.1600 
 20 C        1.2570    -5.9830    -1.2260 C.3   1 <1>  -0.1600 
 21 C        5.1260     4.6900     0.2290 C.ar  1 <1>   0.1600 
 22 C        5.5460     2.7900    -1.2950 C.ar  1 <1>  -0.1500 
 23 C        3.1080     5.0590     1.1250 C.ar  1 <1>   0.1600 
 24 C       -0.1580    -5.8360    -1.7890 C.3   1 <1>  -0.1600 
 25 N        4.3910     5.4340     0.9980 N.ar  1 <1>  -0.6200 
 26 H        2.8580    -2.6900     0.1740 H     1 <1>   0.0800 
 27 H        0.8010     2.1790    -0.5500 H     1 <1>   0.0800 
 28 H        1.1730     0.9910    -1.7380 H     1 <1>   0.0800 
 29 H        1.1250     0.1900     2.3490 H     1 <1>   0.0800 
 30 H        0.8780     1.7710     1.6920 H     1 <1>   0.0800 
 31 H        2.5100     1.1900     1.9290 H     1 <1>   0.0800 
 32 H        1.5300    -3.7510     1.9120 H     1 <1>   0.4500 
 33 H        2.5410    -1.3560     2.8360 H     1 <1>   0.0800 
 34 H        3.8340    -1.0550     1.7050 H     1 <1>   0.0800 
 35 H        3.6090    -2.6470     2.3550 H     1 <1>   0.0800 
 36 H        0.1820    -3.1850    -0.6380 H     1 <1>   0.0800 
 37 H       -0.4820    -1.6540     1.3140 H     1 <1>   0.0800 
 38 H        0.4420    -1.7460     2.8000 H     1 <1>   0.0800 
 39 H       -0.6950    -3.0040     2.4100 H     1 <1>   0.0800 
 40 H        3.4560     0.3680    -2.2950 H     1 <1>   0.1500 
 41 H       -1.3840    -4.2580     0.9900 H     1 <1>   0.0800 
 42 H       -0.2000    -5.5140     1.2390 H     1 <1>   0.0800 
 43 H        2.4600    -4.9460     0.1890 H     1 <1>   0.0800 
 44 H        2.1780    -4.0670    -1.2920 H     1 <1>   0.0800 
 45 H        1.5310     3.7480     0.6700 H     1 <1>   0.1500 
 46 H        5.7520     1.1100    -2.5880 H     1 <1>   0.1500 
 47 H       -1.9910    -4.9910    -1.0900 H     1 <1>   0.0800 
 48 H       -1.5830    -6.4880    -0.3180 H     1 <1>   0.0800 
 49 H        1.2660    -6.7950    -0.5170 H     1 <1>   0.0800 
 50 H        1.9420    -6.2390    -2.0170 H     1 <1>   0.0800 
 51 H        6.1560     4.9740     0.1030 H     1 <1>   0.1500 
 52 H        6.5630     3.1160    -1.4170 H     1 <1>   0.1500 
 53 H        2.4960     5.6890     1.7500 H     1 <1>   0.1500 
 54 H       -0.1700    -5.0280    -2.5020 H     1 <1>   0.0800 
 55 H       -0.4400    -6.7330    -2.3150 H     1 <1>   0.0800 
@<TRIPOS>BOND
  1   1   2  2   
  2   2   3  am  
  3   2   4  1   
  4   3   5  1   
  5   3   6  1   
  6   4   7  1   
  7   4   8  1   
  8   4  26  1   
  9   5   9  1   
 10   5  27  1   
 11   5  28  1   
 12   6  29  1   
 13   6  30  1   
 14   6  31  1   
 15   7  10  1   
 16   7  11  1   
 17   7  32  1   
 18   8  33  1   
 19   8  34  1   
 20   8  35  1   
 21   9  12  ar  
 22   9  13  ar  
 23  10  14  1   
 24  10  15  1   
 25  10  36  1   
 26  11  37  1   
 27  11  38  1   
 28  11  39  1   
 29  12  16  ar  
 30  12  17  ar  
 31  13  18  ar  
 32  13  40  1   
 33  14  19  1   
 34  14  41  1   
 35  14  42  1   
 36  15  20  1   
 37  15  43  1   
 38  15  44  1   
 39  16  21  ar  
 40  16  22  ar  
 41  17  23  ar  
 42  17  45  1   
 43  18  22  ar  
 44  18  46  1   
 45  19  24  1   
 46  19  47  1   
 47  19  48  1   
 48  20  24  1   
 49  20  49  1   
 50  20  50  1   
 51  21  25  ar  
 52  21  51  1   
 53  22  52  1   
 54  23  25  ar  
 55  23  53  1   
 56  24  54  1   
 57  24  55  1   
@<TRIPOS>SUBSTRUCTURE
  1 ****   2 GROUP 4 **** **** 0

# MOE 2024.06 (io_trps.svl 2023.06)
