@<TRIPOS>MOLECULE
NONAME
25 26 1 0 0 
SMALL
USER_CHARGES


@<TRIPOS>ATOM
  1 BR      -2.0980     0.4420    -3.7160 Br    1 <1>  -0.1110 
  2 C       -2.7690     0.6780    -1.9300 C.ar  1 <1>   0.1110 
  3 C       -3.7460    -0.1840    -1.4720 C.ar  1 <1>  -0.1500 
  4 C       -2.2620     1.7030    -1.1560 C.ar  1 <1>  -0.1500 
  5 C       -4.2440    -0.0130    -0.1880 C.ar  1 <1>  -0.0320 
  6 C       -2.7550     1.8640     0.1270 C.ar  1 <1>  -0.1500 
  7 C       -3.7380     1.0100     0.6050 C.ar  1 <1>  -0.1500 
  8 C       -5.3510    -0.9070     0.3570 C.3   1 <1>  -0.0630 
  9 C       -5.3060    -2.3980     0.2250 C.3   1 <1>   0.4630 
 10 C       -5.0170    -1.7580     1.5450 C.3   1 <1>  -0.2000 
 11 C       -6.7240    -0.2380     0.2620 C.3   1 <1>   0.4380 
 12 F       -6.4430    -3.0380    -0.0030 F     1 <1>  -0.2320 
 13 F       -4.3540    -2.9870    -0.4780 F     1 <1>  -0.2320 
 14 N       -7.0400     0.0560    -1.1570 N.4   1 <1>  -0.8530 
 15 H       -4.0870    -0.9730    -2.1190 H     1 <1>   0.1500 
 16 H       -1.4980     2.3530    -1.5460 H     1 <1>   0.1500 
 17 H       -2.3680     2.6510     0.7540 H     1 <1>   0.1500 
 18 H       -4.0980     1.1520     1.6110 H     1 <1>   0.1500 
 19 H       -5.7330    -1.8940     2.3360 H     1 <1>   0.1000 
 20 H       -4.0000    -1.7920     1.8960 H     1 <1>   0.1000 
 21 H       -6.7080     0.6780     0.8310 H     1 <1>   0.0800 
 22 H       -7.4770    -0.8860     0.6840 H     1 <1>   0.0800 
 23 H       -6.2820     0.6150    -1.5700 H     1 <1>   0.4500 
 24 H       -7.9190     0.5780    -1.2490 H     1 <1>   0.4500 
 25 H       -7.1210    -0.8150    -1.6950 H     1 <1>   0.4500 
@<TRIPOS>BOND
  1   1   2  1   
  2   2   3  ar  
  3   2   4  ar  
  4   3   5  ar  
  5   3  15  1   
  6   4   6  ar  
  7   4  16  1   
  8   5   7  ar  
  9   5   8  1   
 10   6   7  ar  
 11   6  17  1   
 12   7  18  1   
 13   8   9  1   
 14   8  10  1   
 15   8  11  1   
 16   9  10  1   
 17   9  12  1   
 18   9  13  1   
 19  10  19  1   
 20  10  20  1   
 21  11  14  1   
 22  11  21  1   
 23  11  22  1   
 24  14  23  1   
 25  14  24  1   
 26  14  25  1   
@<TRIPOS>SUBSTRUCTURE
  1 ****   5 GROUP 4 **** **** 0

# MOE 2024.06 (io_trps.svl 2023.06)
