@<TRIPOS>MOLECULE
NONAME
52 56 1 0 0 
SMALL
USER_CHARGES


@<TRIPOS>ATOM
  1 O       -1.2960    -0.2760     0.0040 O.3   1 <1>  -0.2800 
  2 C       -1.1810     1.0450     0.1600 C.ar  1 <1>   0.1400 
  3 C       -2.1670    -0.4820    -0.9820 C.2   1 <1>  -0.0400 
  4 C       -1.9970     1.7060    -0.7410 C.ar  1 <1>   0.0000 
  5 C       -0.3840     1.7270     1.0680 C.ar  1 <1>  -0.1500 
  6 C       -2.6310     0.6830    -1.4750 C.2   1 <1>  -0.1500 
  7 C       -2.4820    -1.9190    -1.3460 C.3   1 <1>   0.5230 
  8 C       -2.0270     3.1010    -0.7420 C.ar  1 <1>  -0.1500 
  9 C       -0.4190     3.1070     1.0610 C.ar  1 <1>  -0.1500 
 10 N       -2.9010    -2.6220    -0.1080 N.4   1 <1>  -0.9590 
 11 C       -1.2390     3.7890     0.1580 C.ar  1 <1>  -0.1500 
 12 C       -4.2160    -2.1270     0.3920 C.3   1 <1>   0.3430 
 13 C       -3.0040    -4.0920    -0.2760 C.3   1 <1>   0.3430 
 14 C       -4.9890    -3.3510     0.8810 C.3   1 <1>  -0.0800 
 15 C       -4.0100    -4.5350     0.7770 C.3   1 <1>  -0.0800 
 16 C       -6.2820    -3.5390     0.0590 C.3   1 <1>   0.4240 
 17 C       -4.6750    -5.8840     0.4300 C.3   1 <1>  -0.1600 
 18 O       -5.9020    -3.6810    -1.2680 O.3   1 <1>  -0.6800 
 19 C       -7.1900    -2.3000     0.1830 C.ar  1 <1>  -0.1430 
 20 C       -7.0120    -4.8450     0.4550 C.3   1 <1>  -0.1600 
 21 C       -6.0950    -5.9620     1.0020 C.3   1 <1>  -0.1600 
 22 C       -7.7280    -1.9730     1.4250 C.ar  1 <1>  -0.1500 
 23 C       -7.4870    -1.4650    -0.8950 C.ar  1 <1>  -0.1500 
 24 C       -8.5310    -0.8590     1.5880 C.ar  1 <1>  -0.1500 
 25 C       -8.2910    -0.3500    -0.7330 C.ar  1 <1>  -0.1500 
 26 C       -8.8140    -0.0450     0.5090 C.ar  1 <1>  -0.1500 
 27 H        0.2400     1.1820     1.7530 H     1 <1>   0.1500 
 28 H       -3.3390     0.8680    -2.2640 H     1 <1>   0.1500 
 29 H       -1.5950    -2.3800    -1.7490 H     1 <1>   0.0800 
 30 H       -3.2640    -1.9580    -2.0860 H     1 <1>   0.0800 
 31 H       -2.6590     3.6220    -1.4400 H     1 <1>   0.1500 
 32 H        0.1880     3.6680     1.7520 H     1 <1>   0.1500 
 33 H       -2.1910    -2.3950     0.6020 H     1 <1>   0.4500 
 34 H       -1.2500     4.8660     0.1700 H     1 <1>   0.1500 
 35 H       -4.0740    -1.4170     1.1910 H     1 <1>   0.0800 
 36 H       -4.7650    -1.6450    -0.4020 H     1 <1>   0.0800 
 37 H       -3.4020    -4.3170    -1.2530 H     1 <1>   0.0800 
 38 H       -2.0510    -4.5810    -0.1520 H     1 <1>   0.0800 
 39 H       -5.2620    -3.2070     1.9110 H     1 <1>   0.0800 
 40 H       -3.4960    -4.6350     1.7180 H     1 <1>   0.0800 
 41 H       -4.7350    -6.0130    -0.6380 H     1 <1>   0.0800 
 42 H       -4.0810    -6.6950     0.8180 H     1 <1>   0.0800 
 43 H       -6.7120    -3.8550    -1.7890 H     1 <1>   0.4000 
 44 H       -7.7410    -4.6390     1.2160 H     1 <1>   0.0800 
 45 H       -7.5640    -5.2140    -0.3910 H     1 <1>   0.0800 
 46 H       -6.0380    -5.8810     2.0750 H     1 <1>   0.0800 
 47 H       -6.5280    -6.9230     0.7780 H     1 <1>   0.0800 
 48 H       -7.5310    -2.5840     2.2890 H     1 <1>   0.1500 
 49 H       -7.1030    -1.6560    -1.8810 H     1 <1>   0.1500 
 50 H       -8.9400    -0.6240     2.5560 H     1 <1>   0.1500 
 51 H       -8.5130     0.2830    -1.5750 H     1 <1>   0.1500 
 52 H       -9.4410     0.8210     0.6340 H     1 <1>   0.1500 
@<TRIPOS>BOND
  1   1   2  1   
  2   1   3  1   
  3   2   4  ar  
  4   2   5  ar  
  5   3   6  2   
  6   3   7  1   
  7   4   6  1   
  8   4   8  ar  
  9   5   9  ar  
 10   5  27  1   
 11   6  28  1   
 12   7  10  1   
 13   7  29  1   
 14   7  30  1   
 15   8  11  ar  
 16   8  31  1   
 17   9  11  ar  
 18   9  32  1   
 19  10  12  1   
 20  10  13  1   
 21  10  33  1   
 22  11  34  1   
 23  12  14  1   
 24  12  35  1   
 25  12  36  1   
 26  13  15  1   
 27  13  37  1   
 28  13  38  1   
 29  14  15  1   
 30  14  16  1   
 31  14  39  1   
 32  15  17  1   
 33  15  40  1   
 34  16  18  1   
 35  16  19  1   
 36  16  20  1   
 37  17  21  1   
 38  17  41  1   
 39  17  42  1   
 40  18  43  1   
 41  19  22  ar  
 42  19  23  ar  
 43  20  21  1   
 44  20  44  1   
 45  20  45  1   
 46  21  46  1   
 47  21  47  1   
 48  22  24  ar  
 49  22  48  1   
 50  23  25  ar  
 51  23  49  1   
 52  24  26  ar  
 53  24  50  1   
 54  25  26  ar  
 55  25  51  1   
 56  26  52  1   
@<TRIPOS>SUBSTRUCTURE
  1 ****  12 GROUP 4 **** **** 0

# MOE 2024.06 (io_trps.svl 2023.06)
