@<TRIPOS>MOLECULE
NONAME
40 42 1 0 0 
SMALL
USER_CHARGES


@<TRIPOS>ATOM
  1 S        1.4780     1.0620     1.2910 S.3   1 <1>  -0.0800 
  2 C        0.8540    -0.2450     0.3500 C.2   1 <1>   0.1980 
  3 C        2.0090     1.7600    -0.1990 C.2   1 <1>   0.1980 
  4 N        1.0570    -0.1070    -0.8980 N.2   1 <1>  -0.3380 
  5 C        0.1470    -1.3900     1.0530 C.3   1 <1>   0.5230 
  6 N        1.7180     1.0460    -1.2110 N.2   1 <1>  -0.3380 
  7 C        2.7330     3.0880    -0.1520 C.3   1 <1>  -0.0600 
  8 N       -0.5110    -2.2760     0.0320 N.4   1 <1>  -0.9590 
  9 C       -1.9870    -2.0950    -0.0320 C.3   1 <1>   0.4230 
 10 C       -0.0940    -3.7020     0.2010 C.3   1 <1>   0.2630 
 11 C       -2.6070    -2.8980    -1.1740 C.3   1 <1>  -0.1600 
 12 C       -2.3860    -0.6540    -0.3460 C.3   1 <1>  -0.1600 
 13 C       -3.9250    -2.1850    -1.4970 C.3   1 <1>  -0.0800 
 14 C       -3.7860    -0.7520    -0.9590 C.3   1 <1>  -0.0800 
 15 C       -5.1490    -2.7950    -0.7970 C.3   1 <1>  -0.1600 
 16 C       -4.9240    -0.5570     0.0550 C.3   1 <1>  -0.1600 
 17 C       -5.9630    -1.5940    -0.3410 C.3   1 <1>   0.2000 
 18 O       -6.7460    -1.9260     0.7400 O.3   1 <1>  -0.6800 
 19 H       -0.5860    -0.9960     1.7370 H     1 <1>   0.0800 
 20 H        0.8760    -1.9470     1.6170 H     1 <1>   0.0800 
 21 H        2.9990     3.3930    -1.1480 H     1 <1>   0.0800 
 22 H        3.6280     2.9970     0.4360 H     1 <1>   0.0800 
 23 H        2.0970     3.8370     0.2830 H     1 <1>   0.0800 
 24 H       -0.1370    -1.9300    -0.8720 H     1 <1>   0.4500 
 25 H       -2.4490    -2.3950     0.8960 H     1 <1>   0.0800 
 26 H       -0.4690    -4.0980     1.1310 H     1 <1>   0.0800 
 27 H        0.9810    -3.7820     0.1970 H     1 <1>   0.0800 
 28 H       -0.4780    -4.3030    -0.6080 H     1 <1>   0.0800 
 29 H       -1.9750    -2.8440    -2.0440 H     1 <1>   0.0800 
 30 H       -2.7670    -3.9290    -0.9120 H     1 <1>   0.0800 
 31 H       -2.3770    -0.0210     0.5230 H     1 <1>   0.0800 
 32 H       -1.7290    -0.2440    -1.0940 H     1 <1>   0.0800 
 33 H       -4.0950    -2.1640    -2.5620 H     1 <1>   0.0800 
 34 H       -3.9000    -0.0430    -1.7640 H     1 <1>   0.0800 
 35 H       -4.8490    -3.3760     0.0570 H     1 <1>   0.0800 
 36 H       -5.7190    -3.4120    -1.4700 H     1 <1>   0.0800 
 37 H       -5.3320     0.4370     0.0000 H     1 <1>   0.0800 
 38 H       -4.5800    -0.7510     1.0550 H     1 <1>   0.0800 
 39 H       -6.5960    -1.2280    -1.1340 H     1 <1>   0.0800 
 40 H       -6.2040    -2.2660     1.4740 H     1 <1>   0.4000 
@<TRIPOS>BOND
  1   1   2  1   
  2   1   3  1   
  3   2   4  2   
  4   2   5  1   
  5   3   6  2   
  6   3   7  1   
  7   4   6  1   
  8   5   8  1   
  9   5  19  1   
 10   5  20  1   
 11   7  21  1   
 12   7  22  1   
 13   7  23  1   
 14   8   9  1   
 15   8  10  1   
 16   8  24  1   
 17   9  11  1   
 18   9  12  1   
 19   9  25  1   
 20  10  26  1   
 21  10  27  1   
 22  10  28  1   
 23  11  13  1   
 24  11  29  1   
 25  11  30  1   
 26  12  14  1   
 27  12  31  1   
 28  12  32  1   
 29  13  14  1   
 30  13  15  1   
 31  13  33  1   
 32  14  16  1   
 33  14  34  1   
 34  15  17  1   
 35  15  35  1   
 36  15  36  1   
 37  16  17  1   
 38  16  37  1   
 39  16  38  1   
 40  17  18  1   
 41  17  39  1   
 42  18  40  1   
@<TRIPOS>SUBSTRUCTURE
  1 ****  12 GROUP 4 **** **** 0

# MOE 2024.06 (io_trps.svl 2023.06)
