@<TRIPOS>MOLECULE
NONAME
38 39 1 0 0 
SMALL
USER_CHARGES


@<TRIPOS>ATOM
  1 CL       0.9440    -0.8040     2.7980 Cl    1 <1>  -0.1770 
  2 C        1.5550    -1.1680     1.1940 C.ar  1 <1>   0.1770 
  3 C        0.8420    -2.0160     0.3290 C.ar  1 <1>   0.4100 
  4 C        2.7450    -0.6000     0.8090 C.ar  1 <1>  -0.1500 
  5 N        1.2670    -2.3190    -0.8990 N.ar  1 <1>  -0.6200 
  6 N       -0.3580    -2.5940     0.7080 N.pl3 1 <1>  -0.8380 
  7 C        3.1710    -0.9220    -0.4620 C.ar  1 <1>   0.1770 
  8 C        2.4190    -1.7650    -1.2620 C.ar  1 <1>   0.1600 
  9 C       -1.5510    -2.2360    -0.1100 C.3   1 <1>   0.2090 
 10 C       -0.3340    -4.0690     0.9160 C.3   1 <1>   0.2090 
 11 CL       4.6730    -0.2550    -1.0580 Cl    1 <1>  -0.1770 
 12 C       -2.0510    -3.5560    -0.6890 C.3   1 <1>   0.2000 
 13 C       -1.6400    -4.6100     0.3280 C.3   1 <1>  -0.0800 
 14 O       -3.4280    -3.5720    -0.8620 O.3   1 <1>  -0.6800 
 15 C       -1.5130    -6.0050    -0.3070 C.3   1 <1>  -0.0550 
 16 S       -1.1050    -7.2840     0.8780 S.o2  1 <1>   1.3330 
 17 O       -2.1920    -7.3670     1.8260 O.2   1 <1>  -0.6500 
 18 O        0.2440    -7.0720     1.3550 O.2   1 <1>  -0.6500 
 19 N       -1.1070    -8.6950    -0.0670 N.am  1 <1>  -0.8490 
 20 C       -1.4510    -9.8850     0.7160 C.3   1 <1>   0.1160 
 21 C        0.1520    -8.9170    -0.7860 C.3   1 <1>   0.1160 
 22 H        3.3070     0.0520     1.4520 H     1 <1>   0.1500 
 23 H        2.7860    -1.9930    -2.2480 H     1 <1>   0.1500 
 24 H       -2.2910    -1.7970     0.5350 H     1 <1>   0.0800 
 25 H       -1.2970    -1.5460    -0.8960 H     1 <1>   0.0800 
 26 H        0.5180    -4.4950     0.4100 H     1 <1>   0.0800 
 27 H       -0.2600    -4.2950     1.9670 H     1 <1>   0.0800 
 28 H       -1.5820    -3.7250    -1.6440 H     1 <1>   0.0800 
 29 H       -2.3610    -4.6400     1.1260 H     1 <1>   0.0800 
 30 H       -3.8810    -3.4510    -0.0040 H     1 <1>   0.4000 
 31 H       -0.7660    -5.9770    -1.0760 H     1 <1>   0.0800 
 32 H       -2.4490    -6.2540    -0.7700 H     1 <1>   0.0800 
 33 H       -1.4600   -10.7570     0.0850 H     1 <1>   0.0800 
 34 H       -2.4320    -9.7730     1.1470 H     1 <1>   0.0800 
 35 H       -0.7380   -10.0290     1.5120 H     1 <1>   0.0800 
 36 H        0.0610    -9.7720    -1.4340 H     1 <1>   0.0800 
 37 H        0.9590    -9.0880    -0.0910 H     1 <1>   0.0800 
 38 H        0.3930    -8.0590    -1.3890 H     1 <1>   0.0800 
@<TRIPOS>BOND
  1   1   2  1   
  2   2   3  ar  
  3   2   4  ar  
  4   3   5  ar  
  5   3   6  1   
  6   4   7  ar  
  7   4  22  1   
  8   5   8  ar  
  9   6   9  1   
 10   6  10  1   
 11   7   8  ar  
 12   7  11  1   
 13   8  23  1   
 14   9  12  1   
 15   9  24  1   
 16   9  25  1   
 17  10  13  1   
 18  10  26  1   
 19  10  27  1   
 20  12  13  1   
 21  12  14  1   
 22  12  28  1   
 23  13  15  1   
 24  13  29  1   
 25  14  30  1   
 26  15  16  1   
 27  15  31  1   
 28  15  32  1   
 29  16  17  2   
 30  16  18  2   
 31  16  19  am  
 32  19  20  1   
 33  19  21  1   
 34  20  33  1   
 35  20  34  1   
 36  20  35  1   
 37  21  36  1   
 38  21  37  1   
 39  21  38  1   
@<TRIPOS>SUBSTRUCTURE
  1 ****  10 GROUP 4 **** **** 0

# MOE 2024.06 (io_trps.svl 2023.06)
