@<TRIPOS>MOLECULE
NONAME
56 59 1 0 0 
SMALL
USER_CHARGES


@<TRIPOS>ATOM
  1 O       -1.2360     1.2130    -1.4040 O.3   1 <1>  -0.3630 
  2 C       -1.5350     1.7170    -0.1860 C.ar  1 <1>   0.0830 
  3 C        0.1350     1.1580    -1.7500 C.3   1 <1>   0.2640 
  4 C       -1.8950     0.8730     0.8640 C.ar  1 <1>  -0.1440 
  5 C       -1.5100     3.0910    -0.0070 C.ar  1 <1>  -0.1500 
  6 C        0.6630    -0.2000    -1.3190 C.ar  1 <1>  -0.1440 
  7 C       -2.2150     1.4290     2.0940 C.ar  1 <1>  -0.1500 
  8 C       -1.9430    -0.6360     0.6940 C.3   1 <1>   0.4870 
  9 C       -1.8320     3.6330     1.2240 C.ar  1 <1>  -0.1500 
 10 C        0.5010    -1.3050    -2.1430 C.ar  1 <1>  -0.1500 
 11 C        1.3010    -0.3480    -0.0960 C.ar  1 <1>  -0.1500 
 12 C       -2.1830     2.8020     2.2730 C.ar  1 <1>  -0.1500 
 13 N       -2.7590    -0.9780    -0.4980 N.4   1 <1>  -0.9590 
 14 C        0.9610    -2.5470    -1.7420 C.ar  1 <1>  -0.1500 
 15 C        1.7560    -1.5910     0.3070 C.ar  1 <1>  -0.1500 
 16 C       -4.1660    -0.4920    -0.3720 C.3   1 <1>   0.4230 
 17 C       -2.5580    -2.4060    -0.8820 C.3   1 <1>   0.2630 
 18 C        1.5830    -2.6910    -0.5140 C.ar  1 <1>  -0.1500 
 19 C       -5.0230    -1.3620     0.5490 C.3   1 <1>  -0.1600 
 20 C       -4.8840    -0.5380    -1.7180 C.3   1 <1>  -0.1600 
 21 C       -5.7310    -2.3980    -0.3400 C.3   1 <1>  -0.0800 
 22 C       -5.6450    -1.8720    -1.7810 C.3   1 <1>  -0.0800 
 23 C       -7.2260    -2.5710    -0.0260 C.3   1 <1>  -0.1600 
 24 C       -7.0920    -1.7430    -2.2870 C.3   1 <1>  -0.1600 
 25 C       -7.9790    -1.7270    -1.0480 C.3   1 <1>   0.2000 
 26 O       -8.0450    -0.4340    -0.5790 O.3   1 <1>  -0.6800 
 27 H        0.2140     1.2760    -2.8160 H     1 <1>   0.0800 
 28 H        0.6640     1.9620    -1.2670 H     1 <1>   0.0800 
 29 H       -1.2460     3.7370    -0.8260 H     1 <1>   0.1500 
 30 H       -2.4910     0.8060     2.9290 H     1 <1>   0.1500 
 31 H       -2.3640    -1.0920     1.5740 H     1 <1>   0.0800 
 32 H       -0.9410    -1.0090     0.5680 H     1 <1>   0.0800 
 33 H       -1.8110     4.7000     1.3670 H     1 <1>   0.1500 
 34 H        0.0260    -1.2010    -3.1030 H     1 <1>   0.1500 
 35 H        1.4480     0.5040     0.5480 H     1 <1>   0.1500 
 36 H       -2.4310     3.2280     3.2310 H     1 <1>   0.1500 
 37 H       -2.3280    -0.3830    -1.2280 H     1 <1>   0.4500 
 38 H        0.8470    -3.4020    -2.3880 H     1 <1>   0.1500 
 39 H        2.2550    -1.7020     1.2550 H     1 <1>   0.1500 
 40 H       -4.1550     0.5250    -0.0110 H     1 <1>   0.0800 
 41 H       -2.9860    -3.0590    -0.1390 H     1 <1>   0.0800 
 42 H       -1.5060    -2.6240    -0.9680 H     1 <1>   0.0800 
 43 H       -3.0260    -2.6060    -1.8320 H     1 <1>   0.0800 
 44 H        1.9480    -3.6560    -0.2040 H     1 <1>   0.1500 
 45 H       -4.4600    -1.8260     1.3380 H     1 <1>   0.0800 
 46 H       -5.7570    -0.7210     1.0060 H     1 <1>   0.0800 
 47 H       -5.5840     0.2780    -1.7400 H     1 <1>   0.0800 
 48 H       -4.2120    -0.4130    -2.5490 H     1 <1>   0.0800 
 49 H       -5.2350    -3.3500    -0.2610 H     1 <1>   0.0800 
 50 H       -5.1090    -2.5700    -2.4030 H     1 <1>   0.0800 
 51 H       -7.4930    -2.3220     0.9870 H     1 <1>   0.0800 
 52 H       -7.4920    -3.6000    -0.1930 H     1 <1>   0.0800 
 53 H       -7.3340    -2.6280    -2.8500 H     1 <1>   0.0800 
 54 H       -7.2600    -0.8910    -2.9240 H     1 <1>   0.0800 
 55 H       -8.9830    -2.0750    -1.2330 H     1 <1>   0.0800 
 56 H       -7.1470    -0.0870    -0.4580 H     1 <1>   0.4000 
@<TRIPOS>BOND
  1   1   2  1   
  2   1   3  1   
  3   2   4  ar  
  4   2   5  ar  
  5   3   6  1   
  6   3  27  1   
  7   3  28  1   
  8   4   7  ar  
  9   4   8  1   
 10   5   9  ar  
 11   5  29  1   
 12   6  10  ar  
 13   6  11  ar  
 14   7  12  ar  
 15   7  30  1   
 16   8  13  1   
 17   8  31  1   
 18   8  32  1   
 19   9  12  ar  
 20   9  33  1   
 21  10  14  ar  
 22  10  34  1   
 23  11  15  ar  
 24  11  35  1   
 25  12  36  1   
 26  13  16  1   
 27  13  17  1   
 28  13  37  1   
 29  14  18  ar  
 30  14  38  1   
 31  15  18  ar  
 32  15  39  1   
 33  16  19  1   
 34  16  20  1   
 35  16  40  1   
 36  17  41  1   
 37  17  42  1   
 38  17  43  1   
 39  18  44  1   
 40  19  21  1   
 41  19  45  1   
 42  19  46  1   
 43  20  22  1   
 44  20  47  1   
 45  20  48  1   
 46  21  22  1   
 47  21  23  1   
 48  21  49  1   
 49  22  24  1   
 50  22  50  1   
 51  23  25  1   
 52  23  51  1   
 53  23  52  1   
 54  24  25  1   
 55  24  53  1   
 56  24  54  1   
 57  25  26  1   
 58  25  55  1   
 59  26  56  1   
@<TRIPOS>SUBSTRUCTURE
  1 ****  13 GROUP 4 **** **** 0

# MOE 2024.06 (io_trps.svl 2023.06)
