@<TRIPOS>MOLECULE
NONAME
45 47 1 0 0 
SMALL
USER_CHARGES


@<TRIPOS>ATOM
  1 CL      -3.8290     0.8070    -3.9610 Cl    1 <1>  -0.1770 
  2 C       -4.3950    -0.1080    -2.5870 C.ar  1 <1>   0.1770 
  3 C       -4.2560     0.4240    -1.3190 C.ar  1 <1>  -0.1500 
  4 C       -4.9750    -1.3450    -2.7900 C.ar  1 <1>  -0.1500 
  5 C       -4.7140    -0.2890    -0.2200 C.ar  1 <1>  -0.1440 
  6 C       -5.4230    -2.0650    -1.6960 C.ar  1 <1>  -0.1500 
  7 C       -5.2900    -1.5390    -0.4210 C.ar  1 <1>  -0.1500 
  8 C       -4.5930     0.3050     1.1840 C.3   1 <1>   0.4040 
  9 O       -3.5240    -0.3220     1.8200 O.3   1 <1>  -0.6800 
 10 C       -5.8980     0.1480     2.0020 C.2   1 <1>   0.5690 
 11 O       -5.8940    -0.6580     2.9110 O.2   1 <1>  -0.5700 
 12 N       -7.0320     0.8690     1.6940 N.am  1 <1>  -0.6600 
 13 C       -8.3250     0.6250     2.3930 C.3   1 <1>   0.1400 
 14 C       -7.1670     1.8150     0.5520 C.3   1 <1>   0.1400 
 15 C       -9.3170     0.0170     1.3980 C.3   1 <1>  -0.1600 
 16 C       -8.1270     1.2110    -0.4740 C.3   1 <1>  -0.1600 
 17 C       -9.4920     0.8980     0.1560 C.3   1 <1>   0.4180 
 18 O      -10.0770     2.0960     0.6090 O.3   1 <1>  -0.5600 
 19 C      -10.4090     0.1990    -0.8430 C.2   1 <1>  -0.2880 
 20 C      -10.7460     2.8870    -0.3340 C.3   1 <1>   0.1200 
 21 C      -11.5310     0.7320    -1.3320 C.2   1 <1>  -0.2760 
 22 C      -11.9460     2.1330    -0.9210 C.3   1 <1>  -0.0220 
 23 C      -12.4710     0.0290    -2.2950 C.3   1 <1>  -0.1020 
 24 H       -3.7910     1.3870    -1.2040 H     1 <1>   0.1500 
 25 H       -5.0700    -1.7360    -3.7870 H     1 <1>   0.1500 
 26 H       -5.8720    -3.0340    -1.8350 H     1 <1>   0.1500 
 27 H       -5.6400    -2.1140     0.4220 H     1 <1>   0.1500 
 28 H       -4.3450     1.3480     1.1250 H     1 <1>   0.0800 
 29 H       -3.9150    -0.9420     2.4740 H     1 <1>   0.4000 
 30 H       -8.7070     1.5580     2.7710 H     1 <1>   0.0800 
 31 H       -8.1920    -0.0420     3.2280 H     1 <1>   0.0800 
 32 H       -6.2190     2.0160     0.0880 H     1 <1>   0.0800 
 33 H       -7.5620     2.7500     0.9140 H     1 <1>   0.0800 
 34 H      -10.2720    -0.1190     1.8710 H     1 <1>   0.0800 
 35 H       -8.9570    -0.9520     1.1060 H     1 <1>   0.0800 
 36 H       -7.6980     0.3020    -0.8560 H     1 <1>   0.0800 
 37 H       -8.2470     1.8760    -1.3070 H     1 <1>   0.0800 
 38 H      -10.0610    -0.7820    -1.1100 H     1 <1>   0.1500 
 39 H      -10.0540     3.1560    -1.1120 H     1 <1>   0.0800 
 40 H      -11.0740     3.7830     0.1620 H     1 <1>   0.0800 
 41 H      -12.3110     2.6790    -1.7720 H     1 <1>   0.0800 
 42 H      -12.7350     2.0800    -0.1920 H     1 <1>   0.0800 
 43 H      -12.5450     0.5820    -3.2150 H     1 <1>   0.0800 
 44 H      -13.4500    -0.0570    -1.8600 H     1 <1>   0.0800 
 45 H      -12.1100    -0.9590    -2.5200 H     1 <1>   0.0800 
@<TRIPOS>BOND
  1   1   2  1   
  2   2   3  ar  
  3   2   4  ar  
  4   3   5  ar  
  5   3  24  1   
  6   4   6  ar  
  7   4  25  1   
  8   5   7  ar  
  9   5   8  1   
 10   6   7  ar  
 11   6  26  1   
 12   7  27  1   
 13   8   9  1   
 14   8  10  1   
 15   8  28  1   
 16   9  29  1   
 17  10  11  2   
 18  10  12  am  
 19  12  13  1   
 20  12  14  1   
 21  13  15  1   
 22  13  30  1   
 23  13  31  1   
 24  14  16  1   
 25  14  32  1   
 26  14  33  1   
 27  15  17  1   
 28  15  34  1   
 29  15  35  1   
 30  16  17  1   
 31  16  36  1   
 32  16  37  1   
 33  17  18  1   
 34  17  19  1   
 35  18  20  1   
 36  19  21  2   
 37  19  38  1   
 38  20  22  1   
 39  20  39  1   
 40  20  40  1   
 41  21  22  1   
 42  21  23  1   
 43  22  41  1   
 44  22  42  1   
 45  23  43  1   
 46  23  44  1   
 47  23  45  1   
@<TRIPOS>SUBSTRUCTURE
  1 ****  16 GROUP 4 **** **** 0

# MOE 2024.06 (io_trps.svl 2023.06)
