@<TRIPOS>MOLECULE
NONAME
51 53 1 0 0 
SMALL
USER_CHARGES


@<TRIPOS>ATOM
  1 S       -0.1940    -0.4390    -1.0970 S.3   1 <1>  -0.3320 
  2 C       -0.2420    -2.1200    -0.4730 C.ar  1 <1>   0.1020 
  3 C        1.5860     0.0290    -1.2750 C.3   1 <1>  -0.0100 
  4 C       -1.4800    -2.6710    -0.2650 C.ar  1 <1>  -0.1500 
  5 C        0.9170    -2.8480    -0.2080 C.ar  1 <1>  -0.1500 
  6 C       -1.5930    -3.9750     0.2180 C.ar  1 <1>   0.3610 
  7 C        0.8140    -4.1320     0.2700 C.ar  1 <1>  -0.1500 
  8 N       -2.8340    -4.5470     0.4270 N.ar  1 <1>  -0.1790 
  9 C       -0.4390    -4.7310     0.4970 C.ar  1 <1>   0.0000 
 10 C       -3.0450    -5.7860     0.8800 C.ar  1 <1>   0.4610 
 11 C       -0.6210    -6.0570     0.9940 C.ar  1 <1>  -0.1430 
 12 N       -4.3220    -6.2310     1.0150 N.pl3 1 <1>  -0.8380 
 13 C       -1.8800    -6.5440     1.1750 C.ar  1 <1>  -0.1500 
 14 C        0.5900    -6.9230     1.3260 C.3   1 <1>  -0.0970 
 15 C       -4.6840    -7.6530     1.4000 C.3   1 <1>   0.2090 
 16 C       -5.5230    -5.3230     0.9570 C.3   1 <1>   0.1290 
 17 C       -4.9770    -8.6080     0.2060 C.3   1 <1>   0.0000 
 18 C       -3.7260    -8.7300    -0.7040 C.3   1 <1>  -0.1600 
 19 C       -5.2930   -10.0010     0.8140 C.3   1 <1>  -0.1600 
 20 C       -6.1950    -8.0370    -0.5700 C.3   1 <1>   0.1200 
 21 C       -3.7210    -9.9790    -1.5930 C.3   1 <1>   0.1200 
 22 C       -5.1500   -11.1690    -0.1730 C.3   1 <1>   0.1200 
 23 O       -6.7090    -8.9040    -1.5160 O.3   1 <1>  -0.6800 
 24 O       -3.9050   -11.0960    -0.7900 O.3   1 <1>  -0.5600 
 25 H        1.6210     1.0370    -1.6480 H     1 <1>   0.0800 
 26 H        2.0420    -0.6500    -1.9730 H     1 <1>   0.0800 
 27 H        2.0470    -0.0330    -0.3060 H     1 <1>   0.0800 
 28 H       -2.3510    -2.0800    -0.4800 H     1 <1>   0.1500 
 29 H        1.8860    -2.4150    -0.3720 H     1 <1>   0.1500 
 30 H        1.7170    -4.6830     0.4710 H     1 <1>   0.1500 
 31 H       -3.6550    -4.0010     0.1980 H     1 <1>   0.4570 
 32 H       -1.9990    -7.5360     1.5630 H     1 <1>   0.1500 
 33 H        1.1890    -6.4520     2.0850 H     1 <1>   0.0800 
 34 H        1.1930    -7.0730     0.4480 H     1 <1>   0.0800 
 35 H        0.2900    -7.8890     1.6910 H     1 <1>   0.0800 
 36 H       -5.5490    -7.6340     2.0410 H     1 <1>   0.0800 
 37 H       -3.9040    -8.0790     2.0030 H     1 <1>   0.0800 
 38 H       -5.3320    -4.4080     1.4910 H     1 <1>   0.0800 
 39 H       -6.3810    -5.7860     1.4160 H     1 <1>   0.0800 
 40 H       -5.7710    -5.0970    -0.0670 H     1 <1>   0.0800 
 41 H       -2.8470    -8.8070    -0.0940 H     1 <1>   0.0800 
 42 H       -3.6190    -7.8540    -1.3170 H     1 <1>   0.0800 
 43 H       -6.2890   -10.0110     1.2210 H     1 <1>   0.0800 
 44 H       -4.6180   -10.2090     1.6250 H     1 <1>   0.0800 
 45 H       -5.9240    -7.1320    -1.0840 H     1 <1>   0.0800 
 46 H       -6.9980    -7.8170     0.1120 H     1 <1>   0.0800 
 47 H       -2.7680   -10.0860    -2.0810 H     1 <1>   0.0800 
 48 H       -4.4890    -9.9600    -2.3450 H     1 <1>   0.0800 
 49 H       -5.9170   -11.1670    -0.9280 H     1 <1>   0.0800 
 50 H       -5.1980   -12.1070     0.3520 H     1 <1>   0.0800 
 51 H       -6.0270    -9.1570    -2.1660 H     1 <1>   0.4000 
@<TRIPOS>BOND
  1   1   2  1   
  2   1   3  1   
  3   2   4  ar  
  4   2   5  ar  
  5   3  25  1   
  6   3  26  1   
  7   3  27  1   
  8   4   6  ar  
  9   4  28  1   
 10   5   7  ar  
 11   5  29  1   
 12   6   8  ar  
 13   6   9  ar  
 14   7   9  ar  
 15   7  30  1   
 16   8  10  ar  
 17   8  31  1   
 18   9  11  ar  
 19  10  12  1   
 20  10  13  ar  
 21  11  13  ar  
 22  11  14  1   
 23  12  15  1   
 24  12  16  1   
 25  13  32  1   
 26  14  33  1   
 27  14  34  1   
 28  14  35  1   
 29  15  17  1   
 30  15  36  1   
 31  15  37  1   
 32  16  38  1   
 33  16  39  1   
 34  16  40  1   
 35  17  18  1   
 36  17  19  1   
 37  17  20  1   
 38  18  21  1   
 39  18  41  1   
 40  18  42  1   
 41  19  22  1   
 42  19  43  1   
 43  19  44  1   
 44  20  23  1   
 45  20  45  1   
 46  20  46  1   
 47  21  24  1   
 48  21  47  1   
 49  21  48  1   
 50  22  24  1   
 51  22  49  1   
 52  22  50  1   
 53  23  51  1   
@<TRIPOS>SUBSTRUCTURE
  1 ****  10 GROUP 4 **** **** 0

# MOE 2024.06 (io_trps.svl 2023.06)
