@<TRIPOS>MOLECULE
NONAME
43 44 1 0 0 
SMALL
USER_CHARGES


@<TRIPOS>ATOM
  1 O        2.2980     6.1560     3.7060 O.co2 1 <1>  -0.9000 
  2 C        1.9990     6.6660     2.6150 C.2   1 <1>   1.0330 
  3 O        1.6920     7.8770     2.5870 O.co2 1 <1>  -0.9000 
  4 C        2.1660     5.9130     1.3750 C.2   1 <1>  -0.0060 
  5 N        1.6330     6.2230     0.1470 N.2   1 <1>  -0.5650 
  6 C        2.9690     4.8440     1.1940 C.2   1 <1>  -0.0100 
  7 C        2.2150     5.4140    -0.6590 C.2   1 <1>   0.2980 
  8 O        3.0040     4.5440    -0.0750 O.3   1 <1>  -0.2800 
  9 C        2.1160     5.4600    -2.1820 C.3   1 <1>   0.2900 
 10 N        2.9500     6.5410    -2.8130 N.3   1 <1>  -0.8100 
 11 C        2.6340     7.8960    -2.2950 C.3   1 <1>   0.1100 
 12 C        2.8150     6.4830    -4.2740 C.3   1 <1>   0.0300 
 13 C        3.5070     8.2410    -1.0630 C.3   1 <1>   0.3430 
 14 N        3.0780     9.4520    -0.2680 N.4   1 <1>  -0.9590 
 15 C        3.8190     9.4730     1.0300 C.3   1 <1>   0.4230 
 16 C        1.6050     9.4080     0.0430 C.3   1 <1>   0.2630 
 17 C        3.4480    10.6940     1.8800 C.3   1 <1>  -0.1600 
 18 C        5.3410     9.5700     0.8270 C.3   1 <1>  -0.1600 
 19 C        4.7280    11.0930     2.6060 C.3   1 <1>  -0.1600 
 20 C        5.8270    10.8040     1.5940 C.3   1 <1>  -0.1600 
 21 H        3.5540     4.2910     1.9080 H     1 <1>   0.1500 
 22 H        1.0830     5.6060    -2.4440 H     1 <1>   0.0800 
 23 H        2.4230     4.5030    -2.5660 H     1 <1>   0.0800 
 24 H        1.5860     7.9350    -2.0560 H     1 <1>   0.0800 
 25 H        2.8360     8.6310    -3.0540 H     1 <1>   0.0800 
 26 H        3.0880     5.5040    -4.6310 H     1 <1>   0.0800 
 27 H        3.4730     7.2010    -4.7340 H     1 <1>   0.0800 
 28 H        1.8010     6.6940    -4.5710 H     1 <1>   0.0800 
 29 H        4.5160     8.3770    -1.4070 H     1 <1>   0.0800 
 30 H        3.5190     7.3950    -0.4020 H     1 <1>   0.0800 
 31 H        3.3030    10.3130    -0.7720 H     1 <1>   0.4500 
 32 H        3.5990     8.5800     1.5950 H     1 <1>   0.0800 
 33 H        1.3490     8.4820     0.5250 H     1 <1>   0.0800 
 34 H        1.0220     9.4960    -0.8570 H     1 <1>   0.0800 
 35 H        1.3290    10.2080     0.7080 H     1 <1>   0.0800 
 36 H        2.6710    10.4460     2.5850 H     1 <1>   0.0800 
 37 H        3.1330    11.5120     1.2590 H     1 <1>   0.0800 
 38 H        5.6380     9.6460    -0.2030 H     1 <1>   0.0800 
 39 H        5.7900     8.6920     1.2580 H     1 <1>   0.0800 
 40 H        4.8580    10.4640     3.4720 H     1 <1>   0.0800 
 41 H        4.7170    12.1240     2.9170 H     1 <1>   0.0800 
 42 H        5.9180    11.6390     0.9200 H     1 <1>   0.0800 
 43 H        6.7770    10.6360     2.0730 H     1 <1>   0.0800 
@<TRIPOS>BOND
  1   1   2  ar  
  2   2   3  ar  
  3   2   4  1   
  4   4   5  1   
  5   4   6  2   
  6   5   7  2   
  7   6   8  1   
  8   6  21  1   
  9   7   8  1   
 10   7   9  1   
 11   9  10  1   
 12   9  22  1   
 13   9  23  1   
 14  10  11  1   
 15  10  12  1   
 16  11  13  1   
 17  11  24  1   
 18  11  25  1   
 19  12  26  1   
 20  12  27  1   
 21  12  28  1   
 22  13  14  1   
 23  13  29  1   
 24  13  30  1   
 25  14  15  1   
 26  14  16  1   
 27  14  31  1   
 28  15  17  1   
 29  15  18  1   
 30  15  32  1   
 31  16  33  1   
 32  16  34  1   
 33  16  35  1   
 34  17  19  1   
 35  17  36  1   
 36  17  37  1   
 37  18  20  1   
 38  18  38  1   
 39  18  39  1   
 40  19  20  1   
 41  19  40  1   
 42  19  41  1   
 43  20  42  1   
 44  20  43  1   
@<TRIPOS>SUBSTRUCTURE
  1 ****  13 GROUP 4 **** **** 0

# MOE 2024.06 (io_trps.svl 2023.06)
