@<TRIPOS>MOLECULE
NONAME
42 44 1 0 0 
SMALL
USER_CHARGES


@<TRIPOS>ATOM
  1 F        0.9490    -0.9170     1.9750 F     1 <1>  -0.3400 
  2 C        0.1350    -1.8460     1.4800 C.3   1 <1>   1.1640 
  3 F       -1.0200    -1.2190     1.2750 F     1 <1>  -0.3400 
  4 F       -0.0560    -2.7040     2.4770 F     1 <1>  -0.3400 
  5 C        0.7130    -2.4870     0.2230 C.ar  1 <1>  -0.1440 
  6 C       -0.0190    -3.4840    -0.4200 C.ar  1 <1>   0.4100 
  7 C        1.9400    -2.1150    -0.3010 C.ar  1 <1>  -0.1500 
  8 N        0.3970    -4.1140    -1.5150 N.ar  1 <1>  -0.6200 
  9 N       -1.2460    -3.8840     0.0600 N.pl3 1 <1>  -0.8380 
 10 C        2.3690    -2.7640    -1.4390 C.ar  1 <1>  -0.1500 
 11 C        1.5680    -3.7420    -1.9960 C.ar  1 <1>   0.1600 
 12 C       -2.4330    -3.6640    -0.8200 C.3   1 <1>   0.2090 
 13 C       -1.3300    -5.2660     0.5900 C.3   1 <1>   0.2090 
 14 C       -3.2260    -4.9810    -0.8470 C.3   1 <1>   0.2000 
 15 C       -2.2030    -6.0260    -0.4060 C.3   1 <1>  -0.0800 
 16 O       -4.2720    -4.9500     0.0860 O.3   1 <1>  -0.5600 
 17 C       -2.7950    -7.3250     0.1690 C.3   1 <1>   0.0200 
 18 C       -5.4390    -4.3280    -0.3500 C.3   1 <1>   0.0400 
 19 C       -1.7330    -8.3730     0.4540 C.2   1 <1>  -0.0400 
 20 O       -2.0630    -9.4450     1.1250 O.3   1 <1>  -0.0190 
 21 C       -0.4280    -8.4670     0.1520 C.2   1 <1>  -0.1500 
 22 N       -1.0500   -10.2460     1.2930 N.2   1 <1>  -0.4100 
 23 C       -0.0510    -9.6820     0.7170 C.2   1 <1>   0.1080 
 24 C        1.3430   -10.2650     0.6650 C.3   1 <1>  -0.0590 
 25 H        2.5520    -1.3510     0.1480 H     1 <1>   0.1500 
 26 H        3.3130    -2.5140    -1.8900 H     1 <1>   0.1500 
 27 H        1.9100    -4.2450    -2.8850 H     1 <1>   0.1500 
 28 H       -3.0280    -2.8540    -0.4390 H     1 <1>   0.0800 
 29 H       -2.1050    -3.4210    -1.8160 H     1 <1>   0.0800 
 30 H       -0.3540    -5.7100     0.6850 H     1 <1>   0.0800 
 31 H       -1.8020    -5.2360     1.5580 H     1 <1>   0.0800 
 32 H       -3.6260    -5.2010    -1.8220 H     1 <1>   0.0800 
 33 H       -1.5930    -6.2650    -1.2590 H     1 <1>   0.0800 
 34 H       -3.5050    -7.7360    -0.5270 H     1 <1>   0.0800 
 35 H       -3.3200    -7.1100     1.0840 H     1 <1>   0.0800 
 36 H       -6.1580    -4.3710     0.4490 H     1 <1>   0.0800 
 37 H       -5.8220    -4.8520    -1.2090 H     1 <1>   0.0800 
 38 H       -5.2340    -3.3000    -0.5930 H     1 <1>   0.0800 
 39 H        0.2100    -7.7950    -0.3920 H     1 <1>   0.1500 
 40 H        2.0560    -9.5400     1.0130 H     1 <1>   0.0800 
 41 H        1.5820   -10.5440    -0.3440 H     1 <1>   0.0800 
 42 H        1.3980   -11.1370     1.2910 H     1 <1>   0.0800 
@<TRIPOS>BOND
  1   1   2  1   
  2   2   3  1   
  3   2   4  1   
  4   2   5  1   
  5   5   6  ar  
  6   5   7  ar  
  7   6   8  ar  
  8   6   9  1   
  9   7  10  ar  
 10   7  25  1   
 11   8  11  ar  
 12   9  12  1   
 13   9  13  1   
 14  10  11  ar  
 15  10  26  1   
 16  11  27  1   
 17  12  14  1   
 18  12  28  1   
 19  12  29  1   
 20  13  15  1   
 21  13  30  1   
 22  13  31  1   
 23  14  15  1   
 24  14  16  1   
 25  14  32  1   
 26  15  17  1   
 27  15  33  1   
 28  16  18  1   
 29  17  19  1   
 30  17  34  1   
 31  17  35  1   
 32  18  36  1   
 33  18  37  1   
 34  18  38  1   
 35  19  20  1   
 36  19  21  2   
 37  20  22  1   
 38  21  23  1   
 39  21  39  1   
 40  22  23  2   
 41  23  24  1   
 42  24  40  1   
 43  24  41  1   
 44  24  42  1   
@<TRIPOS>SUBSTRUCTURE
  1 ****  13 GROUP 4 **** **** 0

# MOE 2024.06 (io_trps.svl 2023.06)
