@<TRIPOS>MOLECULE
NONAME
49 52 1 0 0 
SMALL
USER_CHARGES


@<TRIPOS>ATOM
  1 O        1.7970    -1.0300    -2.1160 O.2   1 <1>  -0.5700 
  2 C        2.0130    -1.1930    -0.9360 C.2   1 <1>   0.5690 
  3 N        2.4700    -0.1850    -0.1080 N.am  1 <1>  -0.4770 
  4 C        1.7670    -2.6060    -0.3820 C.3   1 <1>   0.1710 
  5 C        2.8390     1.1270    -0.4330 C.ar  1 <1>   0.1170 
  6 C        2.5870    -0.3590     1.3680 C.3   1 <1>   0.1400 
  7 N        0.6850    -2.7220     0.6370 N.3   1 <1>  -0.8100 
  8 C        3.2220     1.8370     0.6860 C.ar  1 <1>  -0.1430 
  9 C        2.8670     1.7540    -1.6730 C.ar  1 <1>  -0.1500 
 10 C        3.1210     0.9730     1.9160 C.3   1 <1>  -0.0170 
 11 C       -0.5970    -2.1880     0.1420 C.3   1 <1>   0.1100 
 12 C        0.4430    -4.1190     1.0490 C.3   1 <1>   0.1100 
 13 C        3.6300     3.1540     0.6080 C.ar  1 <1>  -0.1500 
 14 C        3.2750     3.0750    -1.7680 C.ar  1 <1>  -0.1500 
 15 C       -1.6640    -2.9490     0.9200 C.3   1 <1>   0.2000 
 16 C       -1.0770    -4.3540     1.0050 C.3   1 <1>  -0.0800 
 17 C        3.6550     3.7740    -0.6310 C.ar  1 <1>  -0.1500 
 18 O       -1.7050    -2.4220     2.1980 O.3   1 <1>  -0.6800 
 19 C       -1.4940    -5.2030    -0.2110 C.3   1 <1>   0.0210 
 20 C       -0.8600    -6.5820    -0.1900 C.2   1 <1>   0.1080 
 21 N       -1.0110    -7.4150     0.7920 N.2   1 <1>  -0.7070 
 22 C       -0.0560    -7.1020    -1.2000 C.2   1 <1>  -0.1500 
 23 N       -0.3040    -8.5020     0.4300 N.pl3 1 <1>   0.3000 
 24 C        0.2860    -8.3350    -0.7720 C.2   1 <1>  -0.3320 
 25 C        1.1500    -9.3830    -1.4500 C.3   1 <1>  -0.0600 
 26 H        2.6870    -2.9610     0.0460 H     1 <1>   0.0800 
 27 H        1.5330    -3.2460    -1.2150 H     1 <1>   0.0800 
 28 H        1.6180    -0.5680     1.7860 H     1 <1>   0.0800 
 29 H        3.2630    -1.1640     1.5940 H     1 <1>   0.0800 
 30 H        2.5750     1.2200    -2.5580 H     1 <1>   0.1500 
 31 H        2.4370     1.3950     2.6300 H     1 <1>   0.0800 
 32 H        4.0870     0.8400     2.3700 H     1 <1>   0.0800 
 33 H       -0.6700    -1.1240     0.2970 H     1 <1>   0.0800 
 34 H       -0.7060    -2.3960    -0.9090 H     1 <1>   0.0800 
 35 H        0.9670    -4.8170     0.4170 H     1 <1>   0.0800 
 36 H        0.7990    -4.2500     2.0570 H     1 <1>   0.0800 
 37 H        3.9240     3.6920     1.4920 H     1 <1>   0.1500 
 38 H        3.2960     3.5590    -2.7280 H     1 <1>   0.1500 
 39 H       -2.6480    -2.8980     0.4890 H     1 <1>   0.0800 
 40 H       -1.4100    -4.8590     1.8960 H     1 <1>   0.0800 
 41 H        3.9700     4.8000    -0.7130 H     1 <1>   0.1500 
 42 H       -0.7750    -2.3330     2.4920 H     1 <1>   0.4000 
 43 H       -1.2220    -4.7080    -1.1250 H     1 <1>   0.0800 
 44 H       -2.5620    -5.3290    -0.2050 H     1 <1>   0.0800 
 45 H        0.2160    -6.6060    -2.1140 H     1 <1>   0.1500 
 46 H       -0.2480    -9.3390     1.0230 H     1 <1>   0.2700 
 47 H        1.5030    -9.0160    -2.3970 H     1 <1>   0.0800 
 48 H        0.5810   -10.2800    -1.6220 H     1 <1>   0.0800 
 49 H        2.0000    -9.6200    -0.8350 H     1 <1>   0.0800 
@<TRIPOS>BOND
  1   1   2  2   
  2   2   3  am  
  3   2   4  1   
  4   3   5  1   
  5   3   6  1   
  6   4   7  1   
  7   4  26  1   
  8   4  27  1   
  9   5   8  ar  
 10   5   9  ar  
 11   6  10  1   
 12   6  28  1   
 13   6  29  1   
 14   7  11  1   
 15   7  12  1   
 16   8  10  1   
 17   8  13  ar  
 18   9  14  ar  
 19   9  30  1   
 20  10  31  1   
 21  10  32  1   
 22  11  15  1   
 23  11  33  1   
 24  11  34  1   
 25  12  16  1   
 26  12  35  1   
 27  12  36  1   
 28  13  17  ar  
 29  13  37  1   
 30  14  17  ar  
 31  14  38  1   
 32  15  16  1   
 33  15  18  1   
 34  15  39  1   
 35  16  19  1   
 36  16  40  1   
 37  17  41  1   
 38  18  42  1   
 39  19  20  1   
 40  19  43  1   
 41  19  44  1   
 42  20  21  2   
 43  20  22  1   
 44  21  23  1   
 45  22  24  2   
 46  22  45  1   
 47  23  24  1   
 48  23  46  1   
 49  24  25  1   
 50  25  47  1   
 51  25  48  1   
 52  25  49  1   
@<TRIPOS>SUBSTRUCTURE
  1 ****   4 GROUP 4 **** **** 0

# MOE 2024.06 (io_trps.svl 2023.06)
