@<TRIPOS>MOLECULE
NONAME
48 50 1 0 0 
SMALL
USER_CHARGES


@<TRIPOS>ATOM
  1 CL       1.1100     1.0630    -1.2550 Cl    1 <1>  -0.1770 
  2 C        2.2850    -0.1750    -0.8740 C.ar  1 <1>   0.1770 
  3 C        3.1960     0.0190     0.1620 C.ar  1 <1>   0.0860 
  4 C        2.2800    -1.3280    -1.6360 C.ar  1 <1>  -0.1500 
  5 C        3.2000     1.2290     0.9510 C.2   1 <1>   0.5440 
  6 C        4.1060    -1.0040     0.4110 C.ar  1 <1>  -0.1500 
  7 C        3.2020    -2.3240    -1.3700 C.ar  1 <1>  -0.1500 
  8 O        2.6750     1.2180     2.0470 O.2   1 <1>  -0.5700 
  9 N        3.7920     2.3920     0.5060 N.am  1 <1>  -0.6600 
 10 C        4.1250    -2.1710    -0.3400 C.ar  1 <1>   0.1000 
 11 C        3.7670     3.6220     1.3750 C.3   1 <1>   0.3210 
 12 C        4.3840     2.5590    -0.8550 C.3   1 <1>   0.0600 
 13 N        5.0640    -3.1550    -0.0490 N.pl3 1 <1>  -0.8380 
 14 C        4.9860     4.5340     1.2180 C.2   1 <1>   0.3350 
 15 C        4.6760    -4.5890    -0.0690 C.3   1 <1>   0.2090 
 16 C        6.4850    -2.8940    -0.3950 C.3   1 <1>   0.2090 
 17 N        6.0460     4.4670     1.9230 N.2   1 <1>  -0.4100 
 18 N        5.0230     5.5040     0.3080 N.2   1 <1>  -0.5650 
 19 C        5.5660    -5.3660     0.9070 C.3   1 <1>  -0.1600 
 20 C        7.3900    -3.6550     0.5790 C.3   1 <1>  -0.1600 
 21 O        6.8470     5.3980     1.5040 O.3   1 <1>  -0.0190 
 22 C        6.1790     5.9810     0.5410 C.2   1 <1>   0.2980 
 23 C        7.0580    -5.1550     0.6090 C.3   1 <1>  -0.1600 
 24 C        6.8170     7.1470    -0.1930 C.3   1 <1>   0.0200 
 25 C        8.0290     6.7070    -1.0250 C.3   1 <1>  -0.2400 
 26 H        1.5630    -1.4420    -2.4290 H     1 <1>   0.1500 
 27 H        4.8110    -0.8960     1.2150 H     1 <1>   0.1500 
 28 H        3.2120    -3.2200    -1.9610 H     1 <1>   0.1500 
 29 H        3.7100     3.3340     2.4100 H     1 <1>   0.0800 
 30 H        2.8820     4.1870     1.1440 H     1 <1>   0.0800 
 31 H        4.2280     1.6890    -1.4650 H     1 <1>   0.0800 
 32 H        5.4440     2.7310    -0.7700 H     1 <1>   0.0800 
 33 H        3.9320     3.4050    -1.3450 H     1 <1>   0.0800 
 34 H        4.7960    -4.9780    -1.0660 H     1 <1>   0.0800 
 35 H        3.6440    -4.6890     0.2210 H     1 <1>   0.0800 
 36 H        6.6890    -1.8380    -0.3360 H     1 <1>   0.0800 
 37 H        6.6700    -3.2210    -1.4030 H     1 <1>   0.0800 
 38 H        5.3270    -6.4130     0.8490 H     1 <1>   0.0800 
 39 H        5.3460    -5.0330     1.9060 H     1 <1>   0.0800 
 40 H        7.2620    -3.2370     1.5620 H     1 <1>   0.0800 
 41 H        8.4170    -3.5150     0.2930 H     1 <1>   0.0800 
 42 H        7.2970    -5.5930    -0.3450 H     1 <1>   0.0800 
 43 H        7.6530    -5.6450     1.3600 H     1 <1>   0.0800 
 44 H        7.1190     7.8860     0.5280 H     1 <1>   0.0800 
 45 H        6.0830     7.5930    -0.8400 H     1 <1>   0.0800 
 46 H        8.7850     6.2790    -0.3900 H     1 <1>   0.0800 
 47 H        8.4500     7.5520    -1.5410 H     1 <1>   0.0800 
 48 H        7.7310     5.9720    -1.7520 H     1 <1>   0.0800 
@<TRIPOS>BOND
  1   1   2  1   
  2   2   3  ar  
  3   2   4  ar  
  4   3   5  1   
  5   3   6  ar  
  6   4   7  ar  
  7   4  26  1   
  8   5   8  2   
  9   5   9  am  
 10   6  10  ar  
 11   6  27  1   
 12   7  10  ar  
 13   7  28  1   
 14   9  11  1   
 15   9  12  1   
 16  10  13  1   
 17  11  14  1   
 18  11  29  1   
 19  11  30  1   
 20  12  31  1   
 21  12  32  1   
 22  12  33  1   
 23  13  15  1   
 24  13  16  1   
 25  14  17  2   
 26  14  18  1   
 27  15  19  1   
 28  15  34  1   
 29  15  35  1   
 30  16  20  1   
 31  16  36  1   
 32  16  37  1   
 33  17  21  1   
 34  18  22  2   
 35  19  23  1   
 36  19  38  1   
 37  19  39  1   
 38  20  23  1   
 39  20  40  1   
 40  20  41  1   
 41  21  22  1   
 42  22  24  1   
 43  23  42  1   
 44  23  43  1   
 45  24  25  1   
 46  24  44  1   
 47  24  45  1   
 48  25  46  1   
 49  25  47  1   
 50  25  48  1   
@<TRIPOS>SUBSTRUCTURE
  1 ****   3 GROUP 4 **** **** 0

# MOE 2024.06 (io_trps.svl 2023.06)
