@<TRIPOS>MOLECULE
NONAME
32 32 1 0 0 
SMALL
USER_CHARGES


@<TRIPOS>ATOM
  1 S       -0.5890    -0.0910    -0.5640 S.3   1 <1>  -0.0800 
  2 C       -1.2950    -0.8510     0.8230 C.2   1 <1>   0.4420 
  3 C       -0.1270     1.2150     0.4770 C.2   1 <1>   0.1980 
  4 N       -1.1540    -0.1470     1.8870 N.2   1 <1>  -0.3380 
  5 N       -1.8970    -2.0700     0.6190 N.am  1 <1>  -0.4940 
  6 N       -0.4880     1.0300     1.6830 N.2   1 <1>  -0.3380 
  7 C        0.6190     2.4080    -0.1170 C.3   1 <1>   0.3800 
  8 C       -2.5740    -2.8890     1.4710 C.2   1 <1>   0.5690 
  9 O       -0.1020     2.9800    -1.1700 O.3   1 <1>  -0.5600 
 10 C        1.9880     2.0190    -0.6740 C.3   1 <1>  -0.2400 
 11 O       -2.7780    -2.6470     2.6340 O.2   1 <1>  -0.5700 
 12 C       -3.0920    -4.1960     0.8700 C.3   1 <1>   0.1710 
 13 C       -1.2730     3.6390    -0.7920 C.3   1 <1>   0.0400 
 14 N       -3.1940    -4.1650    -0.6230 N.3   1 <1>  -0.8100 
 15 C       -3.2270    -5.5280    -1.1680 C.3   1 <1>   0.0300 
 16 C       -4.3900    -3.4250    -1.0560 C.3   1 <1>   0.0300 
 17 H       -1.8930    -2.4410    -0.3350 H     1 <1>   0.3700 
 18 H        0.7520     3.1570     0.6460 H     1 <1>   0.0800 
 19 H        1.8790     1.3180    -1.4810 H     1 <1>   0.0800 
 20 H        2.5790     1.5660     0.1010 H     1 <1>   0.0800 
 21 H        2.4980     2.8950    -1.0290 H     1 <1>   0.0800 
 22 H       -4.0490    -4.4270     1.3040 H     1 <1>   0.0800 
 23 H       -2.4030    -4.9660     1.1650 H     1 <1>   0.0800 
 24 H       -1.7180     4.0610    -1.6760 H     1 <1>   0.0800 
 25 H       -1.0330     4.4260    -0.0980 H     1 <1>   0.0800 
 26 H       -1.9570     2.9380    -0.3470 H     1 <1>   0.0800 
 27 H       -2.3300    -6.0560    -0.8940 H     1 <1>   0.0800 
 28 H       -3.2820    -5.4920    -2.2430 H     1 <1>   0.0800 
 29 H       -4.0810    -6.0660    -0.7910 H     1 <1>   0.0800 
 30 H       -4.3710    -2.4190    -0.6730 H     1 <1>   0.0800 
 31 H       -5.2850    -3.9120    -0.7050 H     1 <1>   0.0800 
 32 H       -4.4210    -3.3750    -2.1310 H     1 <1>   0.0800 
@<TRIPOS>BOND
  1   1   2  1   
  2   1   3  1   
  3   2   4  2   
  4   2   5  1   
  5   3   6  2   
  6   3   7  1   
  7   4   6  1   
  8   5   8  am  
  9   5  17  1   
 10   7   9  1   
 11   7  10  1   
 12   7  18  1   
 13   8  11  2   
 14   8  12  1   
 15   9  13  1   
 16  10  19  1   
 17  10  20  1   
 18  10  21  1   
 19  12  14  1   
 20  12  22  1   
 21  12  23  1   
 22  13  24  1   
 23  13  25  1   
 24  13  26  1   
 25  14  15  1   
 26  14  16  1   
 27  15  27  1   
 28  15  28  1   
 29  15  29  1   
 30  16  30  1   
 31  16  31  1   
 32  16  32  1   
@<TRIPOS>SUBSTRUCTURE
  1 ****   2 GROUP 4 **** **** 0

# MOE 2024.06 (io_trps.svl 2023.06)
