@<TRIPOS>MOLECULE
NONAME
27 27 1 0 0 
SMALL
USER_CHARGES


@<TRIPOS>ATOM
  1 O       -0.6320    -0.1180    -0.9580 O.2   1 <1>  -0.5700 
  2 C       -1.3650    -0.7770    -0.2610 C.2   1 <1>   0.6340 
  3 O       -2.2360    -0.1480     0.5420 O.3   1 <1>  -0.4300 
  4 C       -1.3520    -2.2270    -0.2450 C.ar  1 <1>   0.0860 
  5 C       -2.2150     1.2670     0.6680 C.3   1 <1>   0.0400 
  6 C       -2.4830    -3.0500    -0.4190 C.ar  1 <1>  -0.1440 
  7 C       -0.1210    -2.8500    -0.0380 C.ar  1 <1>  -0.1500 
  8 C       -2.3440    -4.4310    -0.3560 C.ar  1 <1>  -0.1500 
  9 C       -3.8940    -2.5400    -0.6970 C.3   1 <1>   0.5660 
 10 C        0.0040    -4.2230     0.0210 C.ar  1 <1>  -0.1500 
 11 C       -1.1130    -5.0170    -0.1350 C.ar  1 <1>  -0.1500 
 12 N       -4.4060    -1.8640     0.4910 N.4   1 <1>  -0.8530 
 13 C       -4.0090    -1.6190    -1.9070 C.3   1 <1>  -0.2400 
 14 H       -2.9620     1.5690     1.3800 H     1 <1>   0.0800 
 15 H       -2.4140     1.7110    -0.2930 H     1 <1>   0.0800 
 16 H       -1.2400     1.5710     1.0120 H     1 <1>   0.0800 
 17 H        0.7620    -2.2410     0.0780 H     1 <1>   0.1500 
 18 H       -3.1910    -5.0860    -0.4880 H     1 <1>   0.1500 
 19 H       -4.5150    -3.4010    -0.8930 H     1 <1>   0.0800 
 20 H        0.9690    -4.6740     0.1850 H     1 <1>   0.1500 
 21 H       -1.0180    -6.0900    -0.0900 H     1 <1>   0.1500 
 22 H       -3.8010    -1.0530     0.6920 H     1 <1>   0.4500 
 23 H       -4.3580    -2.4910     1.2990 H     1 <1>   0.4500 
 24 H       -5.3650    -1.5380     0.3550 H     1 <1>   0.4500 
 25 H       -3.5240    -0.6720    -1.7610 H     1 <1>   0.0800 
 26 H       -5.0420    -1.4470    -2.1490 H     1 <1>   0.0800 
 27 H       -3.5520    -2.0950    -2.7580 H     1 <1>   0.0800 
@<TRIPOS>BOND
  1   1   2  2   
  2   2   3  1   
  3   2   4  1   
  4   3   5  1   
  5   4   6  ar  
  6   4   7  ar  
  7   5  14  1   
  8   5  15  1   
  9   5  16  1   
 10   6   8  ar  
 11   6   9  1   
 12   7  10  ar  
 13   7  17  1   
 14   8  11  ar  
 15   8  18  1   
 16   9  12  1   
 17   9  13  1   
 18   9  19  1   
 19  10  11  ar  
 20  10  20  1   
 21  11  21  1   
 22  12  22  1   
 23  12  23  1   
 24  12  24  1   
 25  13  25  1   
 26  13  26  1   
 27  13  27  1   
@<TRIPOS>SUBSTRUCTURE
  1 ****   4 GROUP 4 **** **** 0

# MOE 2024.06 (io_trps.svl 2023.06)
