@<TRIPOS>MOLECULE
NONAME
38 40 1 0 0 
SMALL
USER_CHARGES


@<TRIPOS>ATOM
  1 F       -0.4120    -0.6830     0.6800 F     1 <1>  -0.1900 
  2 C       -1.6190    -1.1960     0.5500 C.ar  1 <1>   0.1900 
  3 C       -2.7370    -0.3980     0.3210 C.ar  1 <1>   0.4100 
  4 C       -1.7710    -2.5500     0.6330 C.ar  1 <1>   0.1600 
  5 N       -3.9190    -0.9680     0.1790 N.ar  1 <1>  -0.6200 
  6 N       -2.6960     0.9940     0.2260 N.pl3 1 <1>  -0.8380 
  7 N       -2.9510    -3.1210     0.4980 N.ar  1 <1>  -0.6200 
  8 C       -3.9720    -2.2940     0.2750 C.ar  1 <1>   0.7200 
  9 C       -1.9340     1.8040     1.2140 C.3   1 <1>   0.1290 
 10 C       -3.7530     1.7330    -0.5180 C.3   1 <1>   0.1290 
 11 N       -5.2140    -2.8750     0.1410 N.pl3 1 <1>  -0.8380 
 12 C       -6.4310    -2.1730    -0.2790 C.3   1 <1>   0.2890 
 13 C       -5.4440    -4.2930    -0.1550 C.3   1 <1>   0.2890 
 14 C       -7.4750    -2.4640     0.8120 C.3   1 <1>  -0.1600 
 15 C       -6.7490    -2.8420    -1.6200 C.3   1 <1>  -0.1600 
 16 C       -6.3870    -4.8010     0.9490 C.3   1 <1>  -0.1600 
 17 C       -6.1010    -4.2360    -1.5380 C.3   1 <1>  -0.1600 
 18 C       -7.6740    -3.9650     1.1030 C.3   1 <1>   0.2000 
 19 O       -8.6200    -4.4570     0.2260 O.3   1 <1>  -0.6800 
 20 H       -0.9160    -3.1770     0.8100 H     1 <1>   0.1500 
 21 H       -2.5660     2.5660     1.6350 H     1 <1>   0.0800 
 22 H       -1.0950     2.2690     0.7270 H     1 <1>   0.0800 
 23 H       -1.5740     1.1820     2.0160 H     1 <1>   0.0800 
 24 H       -3.3570     2.6580    -0.8980 H     1 <1>   0.0800 
 25 H       -4.5810     1.9390     0.1380 H     1 <1>   0.0800 
 26 H       -4.1030     1.1430    -1.3470 H     1 <1>   0.0800 
 27 H       -6.2890    -1.1120    -0.3940 H     1 <1>   0.0800 
 28 H       -4.5360    -4.8720    -0.1780 H     1 <1>   0.0800 
 29 H       -8.4150    -2.0040     0.5680 H     1 <1>   0.0800 
 30 H       -7.1210    -1.9950     1.7120 H     1 <1>   0.0800 
 31 H       -7.8060    -2.8730    -1.8110 H     1 <1>   0.0800 
 32 H       -6.2810    -2.2740    -2.4040 H     1 <1>   0.0800 
 33 H       -5.8410    -4.7430     1.8730 H     1 <1>   0.0800 
 34 H       -6.6300    -5.8360     0.7920 H     1 <1>   0.0800 
 35 H       -5.3320    -4.3190    -2.2860 H     1 <1>   0.0800 
 36 H       -6.7990    -5.0400    -1.6830 H     1 <1>   0.0800 
 37 H       -8.0790    -4.0960     2.0920 H     1 <1>   0.0800 
 38 H       -8.2850    -4.3540    -0.6830 H     1 <1>   0.4000 
@<TRIPOS>BOND
  1   1   2  1   
  2   2   3  ar  
  3   2   4  ar  
  4   3   5  ar  
  5   3   6  1   
  6   4   7  ar  
  7   4  20  1   
  8   5   8  ar  
  9   6   9  1   
 10   6  10  1   
 11   7   8  ar  
 12   8  11  1   
 13   9  21  1   
 14   9  22  1   
 15   9  23  1   
 16  10  24  1   
 17  10  25  1   
 18  10  26  1   
 19  11  12  1   
 20  11  13  1   
 21  12  14  1   
 22  12  15  1   
 23  12  27  1   
 24  13  16  1   
 25  13  17  1   
 26  13  28  1   
 27  14  18  1   
 28  14  29  1   
 29  14  30  1   
 30  15  17  1   
 31  15  31  1   
 32  15  32  1   
 33  16  18  1   
 34  16  33  1   
 35  16  34  1   
 36  17  35  1   
 37  17  36  1   
 38  18  19  1   
 39  18  37  1   
 40  19  38  1   
@<TRIPOS>SUBSTRUCTURE
  1 ****   8 GROUP 4 **** **** 0

# MOE 2024.06 (io_trps.svl 2023.06)
