@<TRIPOS>MOLECULE
NONAME
57 62 1 0 0 
SMALL
USER_CHARGES


@<TRIPOS>ATOM
  1 S       -0.8430     0.7100     1.6180 S.3   1 <1>  -0.0870 
  2 C       -0.3460     2.0090     0.5540 C.2   1 <1>  -0.1460 
  3 C        0.6200     0.9070     2.5710 C.2   1 <1>  -0.1170 
  4 C        0.8390     2.5210     0.9080 C.2   1 <1>  -0.1870 
  5 C       -1.1810     2.4700    -0.6090 C.3   1 <1>   0.0130 
  6 C        1.3930     1.8920     2.0730 C.2   1 <1>  -0.1560 
  7 C        1.4760     3.6590     0.1070 C.3   1 <1>   0.4570 
  8 C       -0.6700     3.8630    -1.0120 C.3   1 <1>   0.1140 
  9 O        0.7360     3.8930    -1.0790 O.3   1 <1>  -0.5640 
 10 C        2.8890     3.2750    -0.3440 C.3   1 <1>  -0.1660 
 11 C        1.5260     4.9560     0.9260 C.3   1 <1>  -0.1660 
 12 C        3.5710     4.4180    -1.0980 C.3   1 <1>   0.1340 
 13 C        2.2160     6.0840     0.1560 C.3   1 <1>   0.1340 
 14 N        3.5880     5.6480    -0.2470 N.am  1 <1>  -0.6640 
 15 C        4.7680     6.2480     0.1130 C.2   1 <1>   0.5650 
 16 O        5.8370     5.7250    -0.1190 O.2   1 <1>  -0.5740 
 17 C        4.7770     7.5880     0.8400 C.3   1 <1>   0.0620 
 18 C        6.0530     8.4050     0.6650 C.2   1 <1>   0.4810 
 19 N        6.1110     9.6830     0.7450 N.2   1 <1>  -0.2660 
 20 N        7.2860     7.8730     0.4190 N.pl3 1 <1>  -0.7030 
 21 N        7.4420     9.9850     0.5360 N.pl3 1 <1>  -0.3670 
 22 C        8.1190     8.8730     0.3340 C.cat 1 <1>   1.0690 
 23 C        8.1040    11.2120     0.4950 C.2   1 <1>   0.9730 
 24 N        9.4340     8.8530     0.0760 N.pl3 1 <1>  -0.6930 
 25 O        7.4720    12.2300     0.6780 O.2   1 <1>  -0.5740 
 26 C        9.5140    11.2050     0.2330 C.2   1 <1>  -0.1300 
 27 C       10.1540    10.0280     0.0180 C.2   1 <1>   0.1590 
 28 C       10.2540    12.5450     0.1980 C.3   1 <1>  -0.0290 
 29 C       11.6420     9.9110    -0.2860 C.3   1 <1>  -0.0290 
 30 C       11.7770    12.3710     0.2770 C.3   1 <1>  -0.1660 
 31 C       12.2560    11.2640    -0.6680 C.3   1 <1>  -0.1660 
 32 H        0.7490     0.2550     3.4160 H     1 <1>   0.1440 
 33 H       -2.2170     2.5280    -0.3300 H     1 <1>   0.0730 
 34 H       -1.0790     1.7830    -1.4300 H     1 <1>   0.0730 
 35 H        2.3390     2.2030     2.4810 H     1 <1>   0.1440 
 36 H       -0.9940     4.5990    -0.2980 H     1 <1>   0.0730 
 37 H       -1.0510     4.1310    -1.9810 H     1 <1>   0.0730 
 38 H        2.8320     2.4050    -0.9720 H     1 <1>   0.0730 
 39 H        3.4900     3.0200     0.5080 H     1 <1>   0.0730 
 40 H        2.0680     4.7760     1.8360 H     1 <1>   0.0730 
 41 H        0.5330     5.2510     1.2050 H     1 <1>   0.0730 
 42 H        3.0320     4.6260    -2.0070 H     1 <1>   0.0730 
 43 H        4.5700     4.1210    -1.3690 H     1 <1>   0.0730 
 44 H        2.2410     6.9580     0.7790 H     1 <1>   0.0730 
 45 H        1.6480     6.3190    -0.7290 H     1 <1>   0.0730 
 46 H        4.6250     7.4020     1.8860 H     1 <1>   0.0730 
 47 H        3.9650     8.1910     0.4830 H     1 <1>   0.0730 
 48 H        7.4030     6.8650     0.2450 H     1 <1>   0.4450 
 49 H        9.8920     7.9510    -0.0780 H     1 <1>   0.4450 
 50 H        9.9370    13.1700     1.0170 H     1 <1>   0.0730 
 51 H       10.0020    13.0580    -0.7160 H     1 <1>   0.0730 
 52 H       11.8040     9.2190    -1.0940 H     1 <1>   0.0730 
 53 H       12.1450     9.5290     0.5860 H     1 <1>   0.0730 
 54 H       12.0600    12.1270     1.2870 H     1 <1>   0.0730 
 55 H       12.2560    13.3010     0.0210 H     1 <1>   0.0730 
 56 H       11.9780    11.5150    -1.6780 H     1 <1>   0.0730 
 57 H       13.3310    11.1950    -0.6330 H     1 <1>   0.0730 
@<TRIPOS>BOND
  1   1   2  1   
  2   1   3  1   
  3   2   4  2   
  4   2   5  1   
  5   3   6  2   
  6   3  32  1   
  7   4   6  1   
  8   4   7  1   
  9   5   8  1   
 10   5  33  1   
 11   5  34  1   
 12   6  35  1   
 13   7   9  1   
 14   7  10  1   
 15   7  11  1   
 16   8   9  1   
 17   8  36  1   
 18   8  37  1   
 19  10  12  1   
 20  10  38  1   
 21  10  39  1   
 22  11  13  1   
 23  11  40  1   
 24  11  41  1   
 25  12  14  1   
 26  12  42  1   
 27  12  43  1   
 28  13  14  1   
 29  13  44  1   
 30  13  45  1   
 31  14  15  am  
 32  15  16  2   
 33  15  17  1   
 34  17  18  1   
 35  17  46  1   
 36  17  47  1   
 37  18  19  2   
 38  18  20  1   
 39  19  21  1   
 40  20  22  ar  
 41  20  48  1   
 42  21  22  ar  
 43  21  23  1   
 44  22  24  ar  
 45  23  25  2   
 46  23  26  1   
 47  24  27  1   
 48  24  49  1   
 49  26  27  2   
 50  26  28  1   
 51  27  29  1   
 52  28  30  1   
 53  28  50  1   
 54  28  51  1   
 55  29  31  1   
 56  29  52  1   
 57  29  53  1   
 58  30  31  1   
 59  30  54  1   
 60  30  55  1   
 61  31  56  1   
 62  31  57  1   
@<TRIPOS>SUBSTRUCTURE
  1 ****  15 GROUP 4 **** **** 0

# MOE 2024.06 (io_trps.svl 2023.06)
