@<TRIPOS>MOLECULE
NONAME
45 47 1 0 0 
SMALL
USER_CHARGES


@<TRIPOS>ATOM
  1 S        0.3530     0.0290    -0.9530 S.3   1 <1>  -0.0800 
  2 C       -0.9530     1.1280    -0.5670 C.2   1 <1>   0.1980 
  3 C       -0.6440    -1.2990    -0.4320 C.2   1 <1>  -0.1400 
  4 N       -1.9950     0.5610    -0.1090 N.2   1 <1>  -0.5650 
  5 C       -0.7250     2.6030    -0.8040 C.3   1 <1>   0.0200 
  6 C       -1.8300    -0.8110    -0.0290 C.2   1 <1>   0.0460 
  7 C       -0.0310    -2.6830    -0.5220 C.3   1 <1>  -0.0600 
  8 C        0.1760     3.1800     0.2850 C.3   1 <1>   0.2090 
  9 C       -3.0130    -1.5890     0.5050 C.3   1 <1>  -0.0590 
 10 N        0.3320     4.6460     0.0830 N.pl3 1 <1>  -0.8690 
 11 C        1.4220     5.3480     0.5440 C.ar  1 <1>   0.4100 
 12 N        2.4600     4.6570     0.9950 N.ar  1 <1>  -0.6200 
 13 C        1.3860     6.7340     0.5200 C.ar  1 <1>  -0.1500 
 14 C        3.4780     5.3690     1.4430 C.ar  1 <1>   0.1600 
 15 C        2.4540     7.4860     0.9720 C.ar  1 <1>   0.0860 
 16 C        3.5250     6.7480     1.4570 C.ar  1 <1>  -0.1500 
 17 C        2.4360     8.9350     0.9450 C.2   1 <1>   0.5440 
 18 O        1.4550     9.5270     1.3540 O.2   1 <1>  -0.5700 
 19 N        3.4950     9.6640     0.4560 N.am  1 <1>  -0.6600 
 20 C        4.5470     9.1340    -0.4420 C.3   1 <1>   0.1400 
 21 C        3.4840    11.1440     0.4370 C.3   1 <1>   0.1400 
 22 C        4.9970    10.3370    -1.2620 C.3   1 <1>  -0.1600 
 23 C        4.7210    11.5380    -0.3620 C.3   1 <1>  -0.1600 
 24 H       -1.6750     3.1030    -0.7870 H     1 <1>   0.0800 
 25 H       -0.2700     2.7440    -1.7670 H     1 <1>   0.0800 
 26 H        0.8560    -2.7280     0.0850 H     1 <1>   0.0800 
 27 H        0.2340    -2.8990    -1.5410 H     1 <1>   0.0800 
 28 H       -0.7220    -3.4300    -0.1790 H     1 <1>   0.0800 
 29 H        1.1350     2.6910     0.2430 H     1 <1>   0.0800 
 30 H       -0.2560     2.9970     1.2540 H     1 <1>   0.0800 
 31 H       -2.8040    -2.6410     0.5340 H     1 <1>   0.0800 
 32 H       -3.8660    -1.4200    -0.1260 H     1 <1>   0.0800 
 33 H       -3.2450    -1.2500     1.4980 H     1 <1>   0.0800 
 34 H       -0.5500     5.1610     0.1060 H     1 <1>   0.4000 
 35 H        0.5150     7.2340     0.1420 H     1 <1>   0.1500 
 36 H        4.3210     4.8170     1.8230 H     1 <1>   0.1500 
 37 H        4.3870     7.2560     1.8490 H     1 <1>   0.1500 
 38 H        4.1660     8.3480    -1.0730 H     1 <1>   0.0800 
 39 H        5.3650     8.7650     0.1530 H     1 <1>   0.0800 
 40 H        3.5110    11.5370     1.4390 H     1 <1>   0.0800 
 41 H        2.5890    11.4820    -0.0570 H     1 <1>   0.0800 
 42 H        4.3930    10.4000    -2.1500 H     1 <1>   0.0800 
 43 H        6.0320    10.2650    -1.5460 H     1 <1>   0.0800 
 44 H        5.5430    11.6850     0.3170 H     1 <1>   0.0800 
 45 H        4.5620    12.4430    -0.9210 H     1 <1>   0.0800 
@<TRIPOS>BOND
  1   1   2  1   
  2   1   3  1   
  3   2   4  2   
  4   2   5  1   
  5   3   6  2   
  6   3   7  1   
  7   4   6  1   
  8   5   8  1   
  9   5  24  1   
 10   5  25  1   
 11   6   9  1   
 12   7  26  1   
 13   7  27  1   
 14   7  28  1   
 15   8  10  1   
 16   8  29  1   
 17   8  30  1   
 18   9  31  1   
 19   9  32  1   
 20   9  33  1   
 21  10  11  1   
 22  10  34  1   
 23  11  12  ar  
 24  11  13  ar  
 25  12  14  ar  
 26  13  15  ar  
 27  13  35  1   
 28  14  16  ar  
 29  14  36  1   
 30  15  16  ar  
 31  15  17  1   
 32  16  37  1   
 33  17  18  2   
 34  17  19  am  
 35  19  20  1   
 36  19  21  1   
 37  20  22  1   
 38  20  38  1   
 39  20  39  1   
 40  21  23  1   
 41  21  40  1   
 42  21  41  1   
 43  22  23  1   
 44  22  42  1   
 45  22  43  1   
 46  23  44  1   
 47  23  45  1   
@<TRIPOS>SUBSTRUCTURE
  1 ****  11 GROUP 4 **** **** 0

# MOE 2024.06 (io_trps.svl 2023.06)
