@<TRIPOS>MOLECULE
NONAME
41 41 1 0 0 
SMALL
USER_CHARGES


@<TRIPOS>ATOM
  1 O       -0.3300     0.5200     1.1540 O.2   1 <1>  -0.5700 
  2 C       -0.6230     1.4480     0.4260 C.2   1 <1>   0.7800 
  3 O       -1.8010     1.4980    -0.2010 O.3   1 <1>  -0.4300 
  4 N        0.2340     2.4840     0.1990 N.am  1 <1>  -0.6600 
  5 C       -2.8530     0.5620    -0.1180 C.3   1 <1>   0.2800 
  6 C       -0.0450     3.6310    -0.6900 C.3   1 <1>   0.1400 
  7 C        1.5720     2.5890     0.8040 C.3   1 <1>   0.1400 
  8 C       -3.3750     0.4790     1.3220 C.3   1 <1>  -0.2400 
  9 C       -3.9540     1.1190    -1.0210 C.3   1 <1>  -0.2400 
 10 C       -2.3980    -0.7990    -0.6560 C.3   1 <1>  -0.2400 
 11 C        1.2020     4.5180    -0.6190 C.3   1 <1>  -0.0190 
 12 C        2.3090     3.5820    -0.0930 C.3   1 <1>  -0.0800 
 13 C        0.9570     5.7390     0.2590 C.2   1 <1>   0.6590 
 14 C        3.4850     4.2750     0.6140 C.3   1 <1>  -0.2400 
 15 O        0.3210     5.6960     1.2820 O.2   1 <1>  -0.5700 
 16 O        1.5010     6.8680    -0.1770 O.3   1 <1>  -0.4300 
 17 C        1.3720     8.0720     0.5430 C.3   1 <1>   0.1200 
 18 C        2.1200     9.1610    -0.2180 C.3   1 <1>  -0.2400 
 19 H       -0.1920     3.2660    -1.6930 H     1 <1>   0.0800 
 20 H       -0.9330     4.1480    -0.3670 H     1 <1>   0.0800 
 21 H        1.4700     2.9750     1.8050 H     1 <1>   0.0800 
 22 H        2.0620     1.6300     0.8330 H     1 <1>   0.0800 
 23 H       -4.2630    -0.1260     1.3560 H     1 <1>   0.0800 
 24 H       -3.6150     1.4600     1.6890 H     1 <1>   0.0800 
 25 H       -2.6500     0.0260     1.9720 H     1 <1>   0.0800 
 26 H       -4.8070     0.4640    -1.0180 H     1 <1>   0.0800 
 27 H       -3.5980     1.2080    -2.0310 H     1 <1>   0.0800 
 28 H       -4.2680     2.0860    -0.6720 H     1 <1>   0.0800 
 29 H       -3.2360    -1.4670    -0.7210 H     1 <1>   0.0800 
 30 H       -1.6730    -1.2510    -0.0050 H     1 <1>   0.0800 
 31 H       -1.9720    -0.6890    -1.6370 H     1 <1>   0.0800 
 32 H        1.4490     4.8680    -1.6040 H     1 <1>   0.0800 
 33 H        2.6980     3.0260    -0.9290 H     1 <1>   0.0800 
 34 H        3.1610     4.7700     1.5130 H     1 <1>   0.0800 
 35 H        3.9370     5.0010    -0.0380 H     1 <1>   0.0800 
 36 H        4.2310     3.5480     0.8830 H     1 <1>   0.0800 
 37 H        0.3240     8.3080     0.6280 H     1 <1>   0.0800 
 38 H        1.7900     7.9280     1.5250 H     1 <1>   0.0800 
 39 H        1.6980     9.2860    -1.1990 H     1 <1>   0.0800 
 40 H        3.1610     8.9060    -0.3030 H     1 <1>   0.0800 
 41 H        2.0390    10.0940     0.3110 H     1 <1>   0.0800 
@<TRIPOS>BOND
  1   1   2  2   
  2   2   3  1   
  3   2   4  am  
  4   3   5  1   
  5   4   6  1   
  6   4   7  1   
  7   5   8  1   
  8   5   9  1   
  9   5  10  1   
 10   6  11  1   
 11   6  19  1   
 12   6  20  1   
 13   7  12  1   
 14   7  21  1   
 15   7  22  1   
 16   8  23  1   
 17   8  24  1   
 18   8  25  1   
 19   9  26  1   
 20   9  27  1   
 21   9  28  1   
 22  10  29  1   
 23  10  30  1   
 24  10  31  1   
 25  11  12  1   
 26  11  13  1   
 27  11  32  1   
 28  12  14  1   
 29  12  33  1   
 30  13  15  2   
 31  13  16  1   
 32  14  34  1   
 33  14  35  1   
 34  14  36  1   
 35  16  17  1   
 36  17  18  1   
 37  17  37  1   
 38  17  38  1   
 39  18  39  1   
 40  18  40  1   
 41  18  41  1   
@<TRIPOS>SUBSTRUCTURE
  1 ****   6 GROUP 4 **** **** 0

# MOE 2024.06 (io_trps.svl 2023.06)
