@<TRIPOS>MOLECULE
NONAME
60 63 1 0 0 
SMALL
USER_CHARGES


@<TRIPOS>ATOM
  1 O       -2.5390     1.0910    -2.2320 O.2   1 <1>  -0.5700 
  2 C       -2.1510     1.4130    -1.1250 C.2   1 <1>   0.5440 
  3 N       -2.0170     0.4330    -0.1840 N.am  1 <1>  -0.7300 
  4 C       -1.8610     2.8000    -0.8110 C.ar  1 <1>   0.0860 
  5 C       -2.2820    -1.0040    -0.4160 C.3   1 <1>   0.2200 
  6 C       -1.0090     3.1630     0.2360 C.ar  1 <1>  -0.1500 
  7 C       -2.4310     3.8340    -1.5560 C.ar  1 <1>  -0.1500 
  8 C       -3.6860    -1.3370     0.0590 C.3   1 <1>  -0.0800 
  9 C       -1.4290    -1.8400     0.5320 C.3   1 <1>   0.1200 
 10 C       -0.7480     4.4890     0.5240 C.ar  1 <1>  -0.1500 
 11 C       -2.1750     5.1630    -1.2760 C.ar  1 <1>  -0.1500 
 12 C       -3.4750    -1.5750     1.5590 C.3   1 <1>   0.1200 
 13 C       -4.2440    -2.5790    -0.6600 C.3   1 <1>  -0.0160 
 14 O       -2.1200    -1.8720     1.7450 O.3   1 <1>  -0.5600 
 15 C       -1.3230     5.4990    -0.2290 C.ar  1 <1>   0.0830 
 16 C       -5.6610    -2.8950    -0.2070 C.ar  1 <1>  -0.1430 
 17 O       -1.0070     6.7660     0.1070 O.3   1 <1>  -0.3630 
 18 C       -6.7380    -2.1370    -0.6210 C.ar  1 <1>  -0.1500 
 19 C       -5.9470    -3.9510     0.6350 C.ar  1 <1>  -0.1500 
 20 C       -1.4140     7.8710    -0.6880 C.3   1 <1>   0.1810 
 21 C       -8.0110    -2.4590    -0.1810 C.ar  1 <1>   0.1600 
 22 C       -7.2580    -4.1870     1.0160 C.ar  1 <1>   0.1600 
 23 C       -0.7770     9.1690    -0.2010 C.2   1 <1>   0.5690 
 24 N       -8.2970    -3.4650     0.6300 N.ar  1 <1>  -0.6200 
 25 O       -1.5340    10.0470     0.1490 O.2   1 <1>  -0.5700 
 26 N        0.5880     9.3440    -0.1880 N.am  1 <1>  -0.6600 
 27 C        1.2060    10.5600     0.4100 C.3   1 <1>   0.1400 
 28 C        1.5840     8.3260    -0.6260 C.3   1 <1>   0.1400 
 29 C        2.0510    10.1560     1.6230 C.3   1 <1>  -0.1600 
 30 C        2.4200     7.8850     0.5790 C.3   1 <1>  -0.1600 
 31 C        3.0920     9.0840     1.2640 C.3   1 <1>  -0.1600 
 32 H       -1.8500     0.6740     0.7950 H     1 <1>   0.3700 
 33 H       -2.1080    -1.2540    -1.4490 H     1 <1>   0.0800 
 34 H       -0.5370     2.4020     0.8300 H     1 <1>   0.1500 
 35 H       -3.0880     3.5820    -2.3710 H     1 <1>   0.1500 
 36 H       -4.3560    -0.5120    -0.1110 H     1 <1>   0.0800 
 37 H       -0.4480    -1.4250     0.6830 H     1 <1>   0.0800 
 38 H       -1.3450    -2.8520     0.1770 H     1 <1>   0.0800 
 39 H       -0.0910     4.7540     1.3340 H     1 <1>   0.1500 
 40 H       -2.6470     5.9160    -1.8790 H     1 <1>   0.1500 
 41 H       -4.0670    -2.3850     1.9450 H     1 <1>   0.0800 
 42 H       -3.6900    -0.6800     2.1180 H     1 <1>   0.0800 
 43 H       -3.6100    -3.4310    -0.4830 H     1 <1>   0.0800 
 44 H       -4.2560    -2.4000    -1.7220 H     1 <1>   0.0800 
 45 H       -6.5990    -1.3000    -1.2810 H     1 <1>   0.1500 
 46 H       -5.1650    -4.5920     1.0000 H     1 <1>   0.1500 
 47 H       -1.1200     7.6920    -1.7050 H     1 <1>   0.0800 
 48 H       -2.4830     7.9510    -0.6250 H     1 <1>   0.0800 
 49 H       -8.8390    -1.8560    -0.5130 H     1 <1>   0.1500 
 50 H       -7.4610    -5.0140     1.6750 H     1 <1>   0.1500 
 51 H        1.8260    11.0380    -0.3290 H     1 <1>   0.0800 
 52 H        0.4500    11.2630     0.7160 H     1 <1>   0.0800 
 53 H        1.1080     7.4700    -1.0680 H     1 <1>   0.0800 
 54 H        2.2260     8.7660    -1.3700 H     1 <1>   0.0800 
 55 H        2.5460    11.0260     2.0170 H     1 <1>   0.0800 
 56 H        1.3940     9.7800     2.3880 H     1 <1>   0.0800 
 57 H        1.7770     7.3780     1.2780 H     1 <1>   0.0800 
 58 H        3.1700     7.1850     0.2560 H     1 <1>   0.0800 
 59 H        3.6000     8.7580     2.1550 H     1 <1>   0.0800 
 60 H        3.8250     9.5100     0.6000 H     1 <1>   0.0800 
@<TRIPOS>BOND
  1   1   2  2   
  2   2   3  am  
  3   2   4  1   
  4   3   5  1   
  5   3  32  1   
  6   4   6  ar  
  7   4   7  ar  
  8   5   8  1   
  9   5   9  1   
 10   5  33  1   
 11   6  10  ar  
 12   6  34  1   
 13   7  11  ar  
 14   7  35  1   
 15   8  12  1   
 16   8  13  1   
 17   8  36  1   
 18   9  14  1   
 19   9  37  1   
 20   9  38  1   
 21  10  15  ar  
 22  10  39  1   
 23  11  15  ar  
 24  11  40  1   
 25  12  14  1   
 26  12  41  1   
 27  12  42  1   
 28  13  16  1   
 29  13  43  1   
 30  13  44  1   
 31  15  17  1   
 32  16  18  ar  
 33  16  19  ar  
 34  17  20  1   
 35  18  21  ar  
 36  18  45  1   
 37  19  22  ar  
 38  19  46  1   
 39  20  23  1   
 40  20  47  1   
 41  20  48  1   
 42  21  24  ar  
 43  21  49  1   
 44  22  24  ar  
 45  22  50  1   
 46  23  25  2   
 47  23  26  am  
 48  26  27  1   
 49  26  28  1   
 50  27  29  1   
 51  27  51  1   
 52  27  52  1   
 53  28  30  1   
 54  28  53  1   
 55  28  54  1   
 56  29  31  1   
 57  29  55  1   
 58  29  56  1   
 59  30  31  1   
 60  30  57  1   
 61  30  58  1   
 62  31  59  1   
 63  31  60  1   
@<TRIPOS>SUBSTRUCTURE
  1 ****   4 GROUP 4 **** **** 0

# MOE 2024.06 (io_trps.svl 2023.06)
