@<TRIPOS>MOLECULE
NONAME
42 44 1 0 0 
SMALL
USER_CHARGES


@<TRIPOS>ATOM
  1 O        0.0730    -0.6790    -0.2490 O.3   1 <1>  -0.5600 
  2 C        1.3730    -1.1240    -0.0690 C.3   1 <1>   0.1200 
  3 C       -0.0920     0.6950    -0.0850 C.3   1 <1>   0.0400 
  4 C        1.3830    -2.6130    -0.4050 C.3   1 <1>   0.0000 
  5 C        0.2690    -3.4040     0.3140 C.3   1 <1>   0.4720 
  6 C        2.3840    -3.4480     0.4180 C.3   1 <1>   0.4720 
  7 N        1.2940    -4.4510     0.6370 N.4   1 <1>  -0.8970 
  8 C        1.3040    -5.5940    -0.2980 C.3   1 <1>   0.7100 
  9 C       -0.0090    -6.3710    -0.2160 C.ar  1 <1>  -0.1440 
 10 C        2.5310    -6.4480    -0.0020 C.ar  1 <1>  -0.1440 
 11 C       -0.7070    -6.5660     0.9740 C.ar  1 <1>  -0.1500 
 12 C       -0.5320    -6.8980    -1.3900 C.ar  1 <1>  -0.1500 
 13 C        2.6150    -7.2550     1.1270 C.ar  1 <1>  -0.1500 
 14 C        3.6060    -6.4110    -0.8830 C.ar  1 <1>  -0.1500 
 15 C       -1.9010    -7.2650     0.9820 C.ar  1 <1>  -0.1500 
 16 C       -1.7270    -7.5960    -1.3800 C.ar  1 <1>  -0.1500 
 17 C        3.7540    -8.0000     1.3740 C.ar  1 <1>  -0.1500 
 18 C        4.7440    -7.1570    -0.6350 C.ar  1 <1>  -0.1500 
 19 C       -2.4130    -7.7780    -0.1950 C.ar  1 <1>  -0.1500 
 20 C        4.8200    -7.9500     0.4950 C.ar  1 <1>  -0.1500 
 21 H        1.6480    -0.9450     0.9580 H     1 <1>   0.0800 
 22 H        2.0300    -0.5780    -0.7260 H     1 <1>   0.0800 
 23 H       -1.1320     0.9290    -0.2370 H     1 <1>   0.0800 
 24 H        0.5040     1.2170    -0.8130 H     1 <1>   0.0800 
 25 H        0.1970     0.9760     0.9140 H     1 <1>   0.0800 
 26 H        1.4340    -2.8190    -1.4610 H     1 <1>   0.0000 
 27 H       -0.5060    -3.7680    -0.3350 H     1 <1>   0.0000 
 28 H       -0.0830    -2.9220     1.2090 H     1 <1>   0.0000 
 29 H        2.6660    -2.9780     1.3440 H     1 <1>   0.0000 
 30 H        3.2050    -3.8440    -0.1520 H     1 <1>   0.0000 
 31 H        1.2500    -4.7750     1.6030 H     1 <1>   0.4500 
 32 H        1.3960    -5.2180    -1.3030 H     1 <1>   0.0800 
 33 H       -0.3430    -6.1890     1.9120 H     1 <1>   0.1500 
 34 H       -0.0190    -6.7770    -2.3300 H     1 <1>   0.1500 
 35 H        1.8010    -7.3270     1.8260 H     1 <1>   0.1500 
 36 H        3.5750    -5.8090    -1.7760 H     1 <1>   0.1500 
 37 H       -2.4380    -7.4140     1.9040 H     1 <1>   0.1500 
 38 H       -2.1250    -8.0010    -2.2960 H     1 <1>   0.1500 
 39 H        3.8140    -8.6260     2.2490 H     1 <1>   0.1500 
 40 H        5.5740    -7.1260    -1.3210 H     1 <1>   0.1500 
 41 H       -3.3420    -8.3220    -0.1880 H     1 <1>   0.1500 
 42 H        5.7060    -8.5320     0.6880 H     1 <1>   0.1500 
@<TRIPOS>BOND
  1   1   2  1   
  2   1   3  1   
  3   2   4  1   
  4   2  21  1   
  5   2  22  1   
  6   3  23  1   
  7   3  24  1   
  8   3  25  1   
  9   4   5  1   
 10   4   6  1   
 11   4  26  1   
 12   5   7  1   
 13   5  27  1   
 14   5  28  1   
 15   6   7  1   
 16   6  29  1   
 17   6  30  1   
 18   7   8  1   
 19   7  31  1   
 20   8   9  1   
 21   8  10  1   
 22   8  32  1   
 23   9  11  ar  
 24   9  12  ar  
 25  10  13  ar  
 26  10  14  ar  
 27  11  15  ar  
 28  11  33  1   
 29  12  16  ar  
 30  12  34  1   
 31  13  17  ar  
 32  13  35  1   
 33  14  18  ar  
 34  14  36  1   
 35  15  19  ar  
 36  15  37  1   
 37  16  19  ar  
 38  16  38  1   
 39  17  20  ar  
 40  17  39  1   
 41  18  20  ar  
 42  18  40  1   
 43  19  41  1   
 44  20  42  1   
@<TRIPOS>SUBSTRUCTURE
  1 ****   8 GROUP 4 **** **** 0

# MOE 2024.06 (io_trps.svl 2023.06)
