@<TRIPOS>MOLECULE
NONAME
49 52 1 0 0 
SMALL
USER_CHARGES


@<TRIPOS>ATOM
  1 F        0.0560     0.7400     0.1900 F     1 <1>  -0.1900 
  2 C        0.1280     2.0360     0.3330 C.ar  1 <1>   0.1900 
  3 C       -0.5150     2.8450    -0.5830 C.ar  1 <1>  -0.1500 
  4 C        0.8440     2.5510     1.3960 C.ar  1 <1>  -0.1500 
  5 C       -0.4340     4.2180    -0.4270 C.ar  1 <1>  -0.1500 
  6 C        0.9180     3.9260     1.5420 C.ar  1 <1>  -0.1500 
  7 C        0.2850     4.7640     0.6310 C.ar  1 <1>  -0.1430 
  8 C        0.3740     6.2750     0.7870 C.3   1 <1>  -0.0160 
  9 C        1.3430     6.9010    -0.2340 C.3   1 <1>  -0.0800 
 10 C        2.7690     6.3390    -0.0970 C.3   1 <1>  -0.1600 
 11 C        1.3740     8.4310    -0.0890 C.3   1 <1>  -0.1600 
 12 C        3.7420     7.0170    -1.0600 C.3   1 <1>   0.3430 
 13 C        2.3750     9.0760    -1.0490 C.3   1 <1>   0.3430 
 14 N        3.7350     8.4910    -0.8320 N.4   1 <1>  -0.9590 
 15 C        4.7780     9.1670    -1.6630 C.3   1 <1>   0.5230 
 16 C        5.0280    10.5770    -1.1610 C.2   1 <1>  -0.0400 
 17 O        4.1420    11.5020    -1.3900 O.3   1 <1>  -0.0190 
 18 C        6.0370    11.1420    -0.4830 C.2   1 <1>  -0.1500 
 19 N        4.4890    12.6450    -0.8920 N.2   1 <1>  -0.4100 
 20 C        5.6490    12.4810    -0.3320 C.2   1 <1>   0.2350 
 21 C        6.3970    13.5240     0.3430 C.ar  1 <1>   0.0540 
 22 C        5.7950    14.7410     0.6680 C.ar  1 <1>   0.1600 
 23 C        7.7330    13.3750     0.6990 C.ar  1 <1>  -0.1500 
 24 N        6.3740    15.7560     1.2900 N.ar  1 <1>  -0.6200 
 25 C        8.3550    14.4200     1.3460 C.ar  1 <1>  -0.1500 
 26 C        7.6420    15.5730     1.6160 C.ar  1 <1>   0.1600 
 27 H       -1.0660     2.4050    -1.3950 H     1 <1>   0.1500 
 28 H        1.3270     1.8880     2.0910 H     1 <1>   0.1500 
 29 H       -0.9360     4.8580    -1.1320 H     1 <1>   0.1500 
 30 H        1.4690     4.3360     2.3700 H     1 <1>   0.1500 
 31 H        0.6860     6.5170     1.7890 H     1 <1>   0.0800 
 32 H       -0.6110     6.6910     0.6540 H     1 <1>   0.0800 
 33 H        0.9790     6.6630    -1.2210 H     1 <1>   0.0800 
 34 H        2.7630     5.2840    -0.3160 H     1 <1>   0.0800 
 35 H        3.1220     6.4540     0.9130 H     1 <1>   0.0800 
 36 H        1.6250     8.7070     0.9200 H     1 <1>   0.0800 
 37 H        0.3950     8.8300    -0.2960 H     1 <1>   0.0800 
 38 H        3.4470     6.8020    -2.0750 H     1 <1>   0.0800 
 39 H        4.7320     6.6200    -0.9020 H     1 <1>   0.0800 
 40 H        2.3880    10.1400    -0.8710 H     1 <1>   0.0800 
 41 H        2.0600     8.9070    -2.0660 H     1 <1>   0.0800 
 42 H        3.9760     8.6610     0.1530 H     1 <1>   0.4500 
 43 H        4.4740     9.1980    -2.6960 H     1 <1>   0.0800 
 44 H        5.7020     8.6150    -1.5990 H     1 <1>   0.0800 
 45 H        6.9500    10.7080    -0.1170 H     1 <1>   0.1500 
 46 H        4.7620    14.8820     0.3950 H     1 <1>   0.1500 
 47 H        8.2810    12.4780     0.4790 H     1 <1>   0.1500 
 48 H        9.3870    14.3470     1.6400 H     1 <1>   0.1500 
 49 H        8.1360    16.3860     2.1230 H     1 <1>   0.1500 
@<TRIPOS>BOND
  1   1   2  1   
  2   2   3  ar  
  3   2   4  ar  
  4   3   5  ar  
  5   3  27  1   
  6   4   6  ar  
  7   4  28  1   
  8   5   7  ar  
  9   5  29  1   
 10   6   7  ar  
 11   6  30  1   
 12   7   8  1   
 13   8   9  1   
 14   8  31  1   
 15   8  32  1   
 16   9  10  1   
 17   9  11  1   
 18   9  33  1   
 19  10  12  1   
 20  10  34  1   
 21  10  35  1   
 22  11  13  1   
 23  11  36  1   
 24  11  37  1   
 25  12  14  1   
 26  12  38  1   
 27  12  39  1   
 28  13  14  1   
 29  13  40  1   
 30  13  41  1   
 31  14  15  1   
 32  14  42  1   
 33  15  16  1   
 34  15  43  1   
 35  15  44  1   
 36  16  17  1   
 37  16  18  2   
 38  17  19  1   
 39  18  20  1   
 40  18  45  1   
 41  19  20  2   
 42  20  21  1   
 43  21  22  ar  
 44  21  23  ar  
 45  22  24  ar  
 46  22  46  1   
 47  23  25  ar  
 48  23  47  1   
 49  24  26  ar  
 50  25  26  ar  
 51  25  48  1   
 52  26  49  1   
@<TRIPOS>SUBSTRUCTURE
  1 ****  14 GROUP 4 **** **** 0

# MOE 2024.06 (io_trps.svl 2023.06)
