@<TRIPOS>MOLECULE
NONAME
57 61 1 0 0 
SMALL
USER_CHARGES


@<TRIPOS>ATOM
  1 O       -0.2650     1.5820    -0.6180 O.2   1 <1>  -0.5700 
  2 C       -0.4410     2.7520    -0.8720 C.2   1 <1>   0.5690 
  3 N       -0.8740     3.6690     0.0470 N.am  1 <1>  -0.5090 
  4 C       -0.1940     3.2350    -2.2970 C.3   1 <1>   0.1810 
  5 C       -1.2550     5.0470    -0.3920 C.3   1 <1>   0.3640 
  6 C       -1.1660     3.3290     1.4580 C.3   1 <1>   0.0490 
  7 O        0.3000     4.5480    -2.3000 O.3   1 <1>  -0.5600 
  8 C       -2.7740     5.1870    -0.5360 C.ar  1 <1>  -0.1440 
  9 C       -0.5580     5.5120    -1.7020 C.3   1 <1>   0.2610 
 10 C       -0.4950     4.1010     2.5520 C.3   1 <1>  -0.2000 
 11 C       -0.0970     2.6860     2.2840 C.3   1 <1>  -0.2000 
 12 C       -3.3360     6.4500    -0.3970 C.ar  1 <1>  -0.1500 
 13 C       -3.6120     4.1110    -0.8120 C.ar  1 <1>  -0.1500 
 14 C        0.1780     6.8230    -1.3990 C.2   1 <1>   0.5690 
 15 C       -4.7010     6.6400    -0.5280 C.ar  1 <1>  -0.1500 
 16 C       -4.9770     4.2990    -0.9420 C.ar  1 <1>  -0.1500 
 17 O       -0.3880     7.8550    -1.6820 O.2   1 <1>  -0.5700 
 18 N        1.3910     6.8430    -0.7560 N.am  1 <1>  -0.6600 
 19 C       -5.5320     5.5590    -0.8020 C.ar  1 <1>   0.0820 
 20 C        2.0350     8.0920    -0.2830 C.3   1 <1>   0.1400 
 21 C        2.1480     5.6620    -0.2600 C.3   1 <1>   0.1400 
 22 O       -6.8770     5.6560    -0.9460 O.3   1 <1>  -0.3620 
 23 C        2.8760     7.6380     0.9110 C.3   1 <1>  -0.0800 
 24 C        3.3630     6.2560     0.4520 C.3   1 <1>  -0.0800 
 25 C       -7.5380     6.8960    -0.8340 C.3   1 <1>   0.0400 
 26 C        1.9940     7.5980     2.1820 C.3   1 <1>  -0.0220 
 27 C        3.9570     5.3620     1.5550 C.3   1 <1>  -0.0220 
 28 C        2.4250     6.5360     3.1760 C.2   1 <1>  -0.2880 
 29 C        3.2840     5.5550     2.9010 C.2   1 <1>  -0.2880 
 30 H       -1.1050     3.2030    -2.8650 H     1 <1>   0.0800 
 31 H        0.5400     2.6060    -2.7670 H     1 <1>   0.0800 
 32 H       -0.9580     5.7200     0.3940 H     1 <1>   0.0800 
 33 H       -2.1850     3.0090     1.6050 H     1 <1>   0.1000 
 34 H       -1.3130     5.7380    -2.4340 H     1 <1>   0.0800 
 35 H        0.2190     4.8700     2.3180 H     1 <1>   0.1000 
 36 H       -1.0420     4.3070     3.4540 H     1 <1>   0.1000 
 37 H       -0.3840     1.9270     2.9900 H     1 <1>   0.1000 
 38 H        0.8530     2.4840     1.8230 H     1 <1>   0.1000 
 39 H       -2.7120     7.3040    -0.1910 H     1 <1>   0.1500 
 40 H       -3.2230     3.1150    -0.9270 H     1 <1>   0.1500 
 41 H       -5.0950     7.6320    -0.4150 H     1 <1>   0.1500 
 42 H       -5.6230     3.4660    -1.1530 H     1 <1>   0.1500 
 43 H        2.6660     8.4770    -1.0660 H     1 <1>   0.0800 
 44 H        1.3050     8.8370    -0.0130 H     1 <1>   0.0800 
 45 H        1.5430     5.1050     0.4320 H     1 <1>   0.0800 
 46 H        2.4510     5.0270    -1.0750 H     1 <1>   0.0800 
 47 H        3.7100     8.2960     1.0760 H     1 <1>   0.0800 
 48 H        4.1220     6.3940    -0.2990 H     1 <1>   0.0800 
 49 H       -8.5890     6.7300    -0.9880 H     1 <1>   0.0800 
 50 H       -7.1590     7.5630    -1.5890 H     1 <1>   0.0800 
 51 H       -7.3710     7.2930     0.1510 H     1 <1>   0.0800 
 52 H        2.0270     8.5640     2.6550 H     1 <1>   0.0800 
 53 H        0.9680     7.4000     1.9240 H     1 <1>   0.0800 
 54 H        3.8890     4.3300     1.2590 H     1 <1>   0.0800 
 55 H        5.0000     5.5990     1.6730 H     1 <1>   0.0800 
 56 H        1.9570     6.6450     4.1400 H     1 <1>   0.1500 
 57 H        3.5770     4.8160     3.6290 H     1 <1>   0.1500 
@<TRIPOS>BOND
  1   1   2  2   
  2   2   3  am  
  3   2   4  1   
  4   3   5  1   
  5   3   6  1   
  6   4   7  1   
  7   4  30  1   
  8   4  31  1   
  9   5   8  1   
 10   5   9  1   
 11   5  32  1   
 12   6  10  1   
 13   6  11  1   
 14   6  33  1   
 15   7   9  1   
 16   8  12  ar  
 17   8  13  ar  
 18   9  14  1   
 19   9  34  1   
 20  10  11  1   
 21  10  35  1   
 22  10  36  1   
 23  11  37  1   
 24  11  38  1   
 25  12  15  ar  
 26  12  39  1   
 27  13  16  ar  
 28  13  40  1   
 29  14  17  2   
 30  14  18  am  
 31  15  19  ar  
 32  15  41  1   
 33  16  19  ar  
 34  16  42  1   
 35  18  20  1   
 36  18  21  1   
 37  19  22  1   
 38  20  23  1   
 39  20  43  1   
 40  20  44  1   
 41  21  24  1   
 42  21  45  1   
 43  21  46  1   
 44  22  25  1   
 45  23  24  1   
 46  23  26  1   
 47  23  47  1   
 48  24  27  1   
 49  24  48  1   
 50  25  49  1   
 51  25  50  1   
 52  25  51  1   
 53  26  28  1   
 54  26  52  1   
 55  26  53  1   
 56  27  29  1   
 57  27  54  1   
 58  27  55  1   
 59  28  29  2   
 60  28  56  1   
 61  29  57  1   
@<TRIPOS>SUBSTRUCTURE
  1 ****   5 GROUP 4 **** **** 0

# MOE 2024.06 (io_trps.svl 2023.06)
