@<TRIPOS>MOLECULE
NONAME
44 46 1 0 0 
SMALL
USER_CHARGES


@<TRIPOS>ATOM
  1 O       -3.7540     2.8330    -1.1250 O.2   1 <1>  -0.5700 
  2 C       -3.1520     1.8490    -0.7420 C.2   1 <1>   0.5440 
  3 N       -3.7640     0.6230    -0.8300 N.am  1 <1>  -0.6600 
  4 C       -1.8180     1.9790    -0.2100 C.ar  1 <1>   0.0860 
  5 C       -5.1770     0.4530    -1.2530 C.3   1 <1>   0.1400 
  6 C       -3.2290    -0.6450    -0.2790 C.3   1 <1>   0.1400 
  7 C       -0.7060     2.0050    -1.0390 C.ar  1 <1>   0.1660 
  8 C       -1.5610     2.0620     1.1530 C.ar  1 <1>   0.1660 
  9 C       -5.5150    -1.0070    -0.9370 C.3   1 <1>   0.2000 
 10 C       -4.4730    -1.4500     0.0880 C.3   1 <1>  -0.0800 
 11 N        0.5220     2.0800    -0.5760 N.ar  1 <1>  -0.6200 
 12 C       -0.8520     1.9400    -2.5500 C.3   1 <1>  -0.0960 
 13 N       -0.3400     2.1360     1.6370 N.ar  1 <1>  -0.6200 
 14 C       -2.6750     2.0610     2.1880 C.3   1 <1>  -0.0970 
 15 O       -6.7880    -1.1380    -0.4080 O.3   1 <1>  -0.6800 
 16 C       -4.2380    -2.9680     0.1220 C.3   1 <1>   0.0210 
 17 C        0.6310     2.1420     0.7400 C.ar  1 <1>   0.4700 
 18 C       -3.0640    -3.3300     1.0160 C.2   1 <1>   0.1080 
 19 N       -2.8650    -2.7940     2.1820 N.2   1 <1>  -0.7070 
 20 C       -2.0770    -4.2530     0.6880 C.2   1 <1>  -0.1500 
 21 N       -1.7350    -3.3720     2.6340 N.pl3 1 <1>   0.3000 
 22 C       -1.2380    -4.2570     1.7450 C.2   1 <1>  -0.3320 
 23 C        0.0260    -5.0670     1.9660 C.3   1 <1>  -0.0600 
 24 H       -5.8000     1.1290    -0.6950 H     1 <1>   0.0800 
 25 H       -5.2720     0.6520    -2.3060 H     1 <1>   0.0800 
 26 H       -2.6600    -1.1490    -1.0420 H     1 <1>   0.0800 
 27 H       -2.6070    -0.4840     0.5850 H     1 <1>   0.0800 
 28 H       -5.4590    -1.5960    -1.8370 H     1 <1>   0.0800 
 29 H       -4.7750    -1.1240     1.0690 H     1 <1>   0.0800 
 30 H       -1.5190     2.7120    -2.8900 H     1 <1>   0.0800 
 31 H       -1.2440     0.9820    -2.8400 H     1 <1>   0.0800 
 32 H        0.1010     2.0810    -3.0280 H     1 <1>   0.0800 
 33 H       -3.6010     2.4160     1.7760 H     1 <1>   0.0800 
 34 H       -2.4090     2.7040     3.0080 H     1 <1>   0.0800 
 35 H       -2.8150     1.0650     2.5650 H     1 <1>   0.0800 
 36 H       -6.8510    -0.6610     0.4420 H     1 <1>   0.4000 
 37 H       -4.0470    -3.3320    -0.8720 H     1 <1>   0.0800 
 38 H       -5.1200    -3.4570     0.4940 H     1 <1>   0.0800 
 39 H        1.6340     2.2060     1.1290 H     1 <1>   0.1500 
 40 H       -2.0200    -4.8280    -0.2190 H     1 <1>   0.1500 
 41 H       -1.3310    -3.1410     3.5490 H     1 <1>   0.2700 
 42 H        0.2120    -5.7020     1.1180 H     1 <1>   0.0800 
 43 H       -0.0750    -5.6850     2.8400 H     1 <1>   0.0800 
 44 H        0.8700    -4.4120     2.0940 H     1 <1>   0.0800 
@<TRIPOS>BOND
  1   1   2  2   
  2   2   3  am  
  3   2   4  1   
  4   3   5  1   
  5   3   6  1   
  6   4   7  ar  
  7   4   8  ar  
  8   5   9  1   
  9   5  24  1   
 10   5  25  1   
 11   6  10  1   
 12   6  26  1   
 13   6  27  1   
 14   7  11  ar  
 15   7  12  1   
 16   8  13  ar  
 17   8  14  1   
 18   9  10  1   
 19   9  15  1   
 20   9  28  1   
 21  10  16  1   
 22  10  29  1   
 23  11  17  ar  
 24  12  30  1   
 25  12  31  1   
 26  12  32  1   
 27  13  17  ar  
 28  14  33  1   
 29  14  34  1   
 30  14  35  1   
 31  15  36  1   
 32  16  18  1   
 33  16  37  1   
 34  16  38  1   
 35  17  39  1   
 36  18  19  2   
 37  18  20  1   
 38  19  21  1   
 39  20  22  2   
 40  20  40  1   
 41  21  22  1   
 42  21  41  1   
 43  22  23  1   
 44  23  42  1   
 45  23  43  1   
 46  23  44  1   
@<TRIPOS>SUBSTRUCTURE
  1 ****   6 GROUP 4 **** **** 0

# MOE 2024.06 (io_trps.svl 2023.06)
