@<TRIPOS>MOLECULE
NONAME
50 53 1 0 0 
SMALL
USER_CHARGES


@<TRIPOS>ATOM
  1 O        0.6270    -0.4200     1.0210 O.2   1 <1>  -0.5700 
  2 C        0.3960    -1.6140     0.9980 C.2   1 <1>   0.5440 
  3 N       -0.5220    -2.0900     1.8850 N.am  1 <1>  -0.5390 
  4 C        1.0260    -2.5390     0.0880 C.ar  1 <1>   0.0860 
  5 C       -0.8640    -3.4140     1.9430 C.2   1 <1>  -0.0410 
  6 C        0.6770    -3.9060     0.1370 C.ar  1 <1>   0.0280 
  7 C        1.9700    -2.1070    -0.8490 C.ar  1 <1>  -0.1500 
  8 C       -0.3070    -4.3410     1.1090 C.2   1 <1>  -0.0140 
  9 C        1.2970    -4.7740    -0.7730 C.ar  1 <1>  -0.1500 
 10 C        2.5650    -2.9830    -1.7270 C.ar  1 <1>  -0.1500 
 11 C       -0.7200    -5.7180     1.2070 C.2   1 <1>   0.6160 
 12 C        2.2240    -4.3250    -1.6880 C.ar  1 <1>  -0.1500 
 13 O        0.0960    -6.6130     1.3490 O.2   1 <1>  -0.5700 
 14 N       -2.0520    -6.0620     1.1550 N.am  1 <1>  -0.6600 
 15 C       -2.5150    -7.4210     1.5640 C.3   1 <1>   0.1400 
 16 C       -3.0450    -5.3180     0.3280 C.3   1 <1>   0.1400 
 17 C       -2.7750    -8.2650     0.2950 C.3   1 <1>   0.4230 
 18 C       -3.3540    -6.1470    -0.9290 C.3   1 <1>  -0.1600 
 19 N       -3.1550    -9.6920     0.5700 N.4   1 <1>  -0.9590 
 20 C       -3.8490    -7.5800    -0.5790 C.3   1 <1>  -0.1060 
 21 C       -3.2770   -10.4860    -0.6790 C.3   1 <1>   0.3430 
 22 C       -2.3380   -10.3810     1.6040 C.3   1 <1>   0.2630 
 23 C       -5.1670    -7.5200     0.2180 C.2   1 <1>   0.9060 
 24 C       -4.0360    -8.3770    -1.8920 C.3   1 <1>  -0.1600 
 25 C       -4.3170    -9.8620    -1.6120 C.3   1 <1>  -0.1600 
 26 O       -5.4200    -8.4270     1.0270 O.co2 1 <1>  -0.9000 
 27 O       -5.9300    -6.5690     0.0570 O.co2 1 <1>  -0.9000 
 28 H       -0.9280    -1.3820     2.5020 H     1 <1>   0.3700 
 29 H       -1.6000    -3.7000     2.6800 H     1 <1>   0.1500 
 30 H        2.2330    -1.0620    -0.8770 H     1 <1>   0.1500 
 31 H        1.0580    -5.8220    -0.7700 H     1 <1>   0.1500 
 32 H        3.2920    -2.6330    -2.4410 H     1 <1>   0.1500 
 33 H        2.6910    -5.0120    -2.3730 H     1 <1>   0.1500 
 34 H       -1.7630    -7.8820     2.1770 H     1 <1>   0.0800 
 35 H       -3.4120    -7.3240     2.1520 H     1 <1>   0.0800 
 36 H       -3.9440    -5.1580     0.9010 H     1 <1>   0.0800 
 37 H       -2.6650    -4.3550     0.0350 H     1 <1>   0.0800 
 38 H       -1.8510    -8.2730    -0.2580 H     1 <1>   0.0800 
 39 H       -4.1120    -5.6340    -1.4970 H     1 <1>   0.0800 
 40 H       -2.4690    -6.1900    -1.5390 H     1 <1>   0.0800 
 41 H       -4.1400    -9.5630     0.9330 H     1 <1>   0.4500 
 42 H       -2.3220   -10.5220    -1.1770 H     1 <1>   0.0800 
 43 H       -3.5780   -11.4930    -0.4420 H     1 <1>   0.0800 
 44 H       -1.3030   -10.4090     1.3040 H     1 <1>   0.0800 
 45 H       -2.6920   -11.3890     1.7430 H     1 <1>   0.0800 
 46 H       -2.4160    -9.8630     2.5450 H     1 <1>   0.0800 
 47 H       -4.8570    -7.9570    -2.4500 H     1 <1>   0.0800 
 48 H       -3.1500    -8.2970    -2.4980 H     1 <1>   0.0800 
 49 H       -4.3290   -10.4040    -2.5410 H     1 <1>   0.0800 
 50 H       -5.2930    -9.9700    -1.1700 H     1 <1>   0.0800 
@<TRIPOS>BOND
  1   1   2  2   
  2   2   3  am  
  3   2   4  1   
  4   3   5  1   
  5   3  28  1   
  6   4   6  ar  
  7   4   7  ar  
  8   5   8  2   
  9   5  29  1   
 10   6   8  1   
 11   6   9  ar  
 12   7  10  ar  
 13   7  30  1   
 14   8  11  1   
 15   9  12  ar  
 16   9  31  1   
 17  10  12  ar  
 18  10  32  1   
 19  11  13  2   
 20  11  14  am  
 21  12  33  1   
 22  14  15  1   
 23  14  16  1   
 24  15  17  1   
 25  15  34  1   
 26  15  35  1   
 27  16  18  1   
 28  16  36  1   
 29  16  37  1   
 30  17  19  1   
 31  17  20  1   
 32  17  38  1   
 33  18  20  1   
 34  18  39  1   
 35  18  40  1   
 36  19  21  1   
 37  19  22  1   
 38  19  41  1   
 39  20  23  1   
 40  20  24  1   
 41  21  25  1   
 42  21  42  1   
 43  21  43  1   
 44  22  44  1   
 45  22  45  1   
 46  22  46  1   
 47  23  26  ar  
 48  23  27  ar  
 49  24  25  1   
 50  24  47  1   
 51  24  48  1   
 52  25  49  1   
 53  25  50  1   
@<TRIPOS>SUBSTRUCTURE
  1 ****  14 GROUP 4 **** **** 0

# MOE 2024.06 (io_trps.svl 2023.06)
