@<TRIPOS>MOLECULE
NONAME
47 49 1 0 0 
SMALL
USER_CHARGES


@<TRIPOS>ATOM
  1 O        0.3700    -4.1450     2.1950 O.2   1 <1>  -0.5700 
  2 C        0.8610    -3.5110     1.2690 C.2   1 <1>   0.7670 
  3 N        0.2600    -2.3330     0.9240 N.2   1 <1>  -0.6610 
  4 C        2.0100    -3.9930     0.5620 C.2   1 <1>  -0.1240 
  5 C        0.7560    -1.6790    -0.0560 C.2   1 <1>   0.4390 
  6 C        2.4800    -3.2690    -0.4870 C.2   1 <1>  -0.0380 
  7 C        2.6260    -5.3120     1.0360 C.3   1 <1>   0.0390 
  8 N        1.8360    -2.0970    -0.7710 N.pl3 1 <1>  -0.5500 
  9 C        0.1340    -0.3700    -0.4730 C.3   1 <1>  -0.1790 
 10 C        3.6440    -3.6180    -1.4020 C.3   1 <1>  -0.1020 
 11 C        1.8260    -6.4970     0.5350 C.2   1 <1>   0.5690 
 12 O        2.2720    -7.1780    -0.3560 O.2   1 <1>  -0.5700 
 13 N        0.6210    -6.7450     1.1010 N.am  1 <1>  -0.7300 
 14 C       -0.3450    -7.7770     0.6710 C.3   1 <1>   0.2200 
 15 C       -1.6350    -7.0930     0.2490 C.3   1 <1>  -0.0800 
 16 C       -0.7880    -8.6130     1.8740 C.3   1 <1>   0.1200 
 17 C       -2.3460    -6.9440     1.5930 C.3   1 <1>   0.1200 
 18 C       -2.4330    -7.9630    -0.7400 C.3   1 <1>  -0.0170 
 19 O       -1.9930    -8.0700     2.3370 O.3   1 <1>  -0.5600 
 20 C       -3.7420    -7.3010    -1.1430 C.ar  1 <1>  -0.1430 
 21 C       -4.9570    -7.7150    -0.6350 C.ar  1 <1>  -0.1500 
 22 C       -3.7820    -6.2510    -2.0370 C.ar  1 <1>  -0.1500 
 23 C       -6.1190    -7.0760    -1.0340 C.ar  1 <1>   0.1600 
 24 C       -5.0000    -5.6810    -2.3690 C.ar  1 <1>   0.1600 
 25 N       -6.1700    -6.0680    -1.8890 N.ar  1 <1>  -0.6200 
 26 H        2.6510    -5.3400     2.1100 H     1 <1>   0.0800 
 27 H        3.6410    -5.4130     0.7060 H     1 <1>   0.0800 
 28 H        2.1600    -1.5080    -1.5410 H     1 <1>   0.4000 
 29 H       -0.2080    -0.4340    -1.4890 H     1 <1>   0.0800 
 30 H        0.8530     0.4230    -0.3840 H     1 <1>   0.0800 
 31 H       -0.7060    -0.1440     0.1590 H     1 <1>   0.0800 
 32 H        3.3680    -3.4500    -2.4270 H     1 <1>   0.0800 
 33 H        3.9310    -4.6490    -1.3150 H     1 <1>   0.0800 
 34 H        4.4930    -3.0000    -1.1670 H     1 <1>   0.0800 
 35 H        0.2640    -6.0790     1.8040 H     1 <1>   0.3700 
 36 H        0.0850    -8.3870    -0.1050 H     1 <1>   0.0800 
 37 H       -1.4480    -6.1320    -0.1980 H     1 <1>   0.0800 
 38 H       -0.0630    -8.6000     2.6690 H     1 <1>   0.0800 
 39 H       -0.9860    -9.6280     1.5780 H     1 <1>   0.0800 
 40 H       -3.4180    -6.8910     1.5120 H     1 <1>   0.0800 
 41 H       -1.9850    -6.0770     2.1210 H     1 <1>   0.0800 
 42 H       -2.6380    -8.9260    -0.3040 H     1 <1>   0.0800 
 43 H       -1.8440    -8.1280    -1.6250 H     1 <1>   0.0800 
 44 H       -5.0100    -8.5260     0.0680 H     1 <1>   0.1500 
 45 H       -2.8780    -5.8700    -2.4760 H     1 <1>   0.1500 
 46 H       -7.0570    -7.4130    -0.6260 H     1 <1>   0.1500 
 47 H       -5.0110    -4.8620    -3.0680 H     1 <1>   0.1500 
@<TRIPOS>BOND
  1   1   2  2   
  2   2   3  1   
  3   2   4  1   
  4   3   5  2   
  5   4   6  2   
  6   4   7  1   
  7   5   8  1   
  8   5   9  1   
  9   6   8  1   
 10   6  10  1   
 11   7  11  1   
 12   7  26  1   
 13   7  27  1   
 14   8  28  1   
 15   9  29  1   
 16   9  30  1   
 17   9  31  1   
 18  10  32  1   
 19  10  33  1   
 20  10  34  1   
 21  11  12  2   
 22  11  13  am  
 23  13  14  1   
 24  13  35  1   
 25  14  15  1   
 26  14  16  1   
 27  14  36  1   
 28  15  17  1   
 29  15  18  1   
 30  15  37  1   
 31  16  19  1   
 32  16  38  1   
 33  16  39  1   
 34  17  19  1   
 35  17  40  1   
 36  17  41  1   
 37  18  20  1   
 38  18  42  1   
 39  18  43  1   
 40  20  21  ar  
 41  20  22  ar  
 42  21  23  ar  
 43  21  44  1   
 44  22  24  ar  
 45  22  45  1   
 46  23  25  ar  
 47  23  46  1   
 48  24  25  ar  
 49  24  47  1   
@<TRIPOS>SUBSTRUCTURE
  1 ****  15 GROUP 4 **** **** 0

# MOE 2024.06 (io_trps.svl 2023.06)
