@<TRIPOS>MOLECULE
NONAME
55 59 1 0 0 
SMALL
USER_CHARGES


@<TRIPOS>ATOM
  1 O        0.8360    -2.6190     3.2000 O.2   1 <1>  -0.5740 
  2 C        0.7210    -2.7740     2.0030 C.2   1 <1>   0.9730 
  3 N       -0.3530    -3.5190     1.5150 N.pl3 1 <1>  -0.3670 
  4 C        1.6420    -2.2240     1.0530 C.2   1 <1>  -0.1310 
  5 N       -1.3650    -4.1830     2.1790 N.2   1 <1>  -0.2660 
  6 C       -0.4930    -3.6860     0.2150 C.cat 1 <1>   1.0690 
  7 C        1.4410    -2.4230    -0.2750 C.2   1 <1>   0.1580 
  8 C        2.8320    -1.4150     1.5760 C.3   1 <1>  -0.0290 
  9 C       -2.0640    -4.7130     1.2460 C.2   1 <1>   0.4800 
 10 N       -1.5540    -4.4190     0.0130 N.pl3 1 <1>  -0.7030 
 11 N        0.3580    -3.1730    -0.6840 N.pl3 1 <1>  -0.6930 
 12 C        2.3490    -1.8710    -1.3660 C.3   1 <1>  -0.0290 
 13 C        3.9120    -1.2090     0.5060 C.3   1 <1>  -0.1670 
 14 C       -3.3120    -5.5560     1.4470 C.3   1 <1>   0.0620 
 15 C        3.2930    -0.7870    -0.8310 C.3   1 <1>  -0.1670 
 16 C       -3.3190    -6.7310     0.4950 C.2   1 <1>   0.5650 
 17 O       -3.1530    -6.5160    -0.6840 O.2   1 <1>  -0.5740 
 18 N       -3.5040    -7.9820     0.9770 N.am  1 <1>  -0.7330 
 19 C       -3.5260    -9.2280     0.1710 C.3   1 <1>   0.2140 
 20 C       -4.9260    -9.8310     0.1290 C.3   1 <1>  -0.0870 
 21 C       -2.7900   -10.3080     0.9500 C.3   1 <1>   0.1130 
 22 C       -4.9940   -10.6490     1.4260 C.3   1 <1>   0.1130 
 23 C       -6.0880    -8.8380    -0.0550 C.3   1 <1>  -0.0240 
 24 O       -3.6930   -10.6940     1.9380 O.3   1 <1>  -0.5640 
 25 C       -7.4130    -9.5710    -0.1840 C.ar  1 <1>  -0.1500 
 26 C       -7.8190   -10.1300    -1.3790 C.ar  1 <1>  -0.1570 
 27 C       -8.2780    -9.7190     0.8810 C.ar  1 <1>  -0.1570 
 28 C       -9.0320   -10.7940    -1.4480 C.ar  1 <1>   0.1530 
 29 C       -9.4700   -10.4030     0.7060 C.ar  1 <1>   0.1530 
 30 N       -9.8680   -10.9460    -0.4330 N.ar  1 <1>  -0.6240 
 31 H        2.4780    -0.4540     1.9120 H     1 <1>   0.0730 
 32 H        3.2780    -1.9100     2.4230 H     1 <1>   0.0730 
 33 H       -1.9410    -4.8260    -0.8470 H     1 <1>   0.4450 
 34 H        0.1910    -3.3440    -1.6790 H     1 <1>   0.4450 
 35 H        2.9330    -2.6790    -1.7720 H     1 <1>   0.0730 
 36 H        1.7610    -1.4520    -2.1640 H     1 <1>   0.0730 
 37 H        4.6070    -0.4560     0.8390 H     1 <1>   0.0730 
 38 H        4.4650    -2.1240     0.3700 H     1 <1>   0.0730 
 39 H       -4.1800    -4.9540     1.2570 H     1 <1>   0.0730 
 40 H       -3.3550    -5.9020     2.4630 H     1 <1>   0.0730 
 41 H        4.0720    -0.6000    -1.5510 H     1 <1>   0.0730 
 42 H        2.7480     0.1320    -0.6940 H     1 <1>   0.0730 
 43 H       -3.6630    -8.1770     1.9710 H     1 <1>   0.3650 
 44 H       -3.1090    -9.0670    -0.8090 H     1 <1>   0.0730 
 45 H       -4.9550   -10.5310    -0.6890 H     1 <1>   0.0730 
 46 H       -1.8810    -9.9570     1.4040 H     1 <1>   0.0730 
 47 H       -2.5880   -11.1640     0.3300 H     1 <1>   0.0730 
 48 H       -5.3310   -11.6550     1.2420 H     1 <1>   0.0730 
 49 H       -5.6220   -10.1850     2.1660 H     1 <1>   0.0730 
 50 H       -5.9200    -8.2530    -0.9430 H     1 <1>   0.0730 
 51 H       -6.1400    -8.1600     0.7780 H     1 <1>   0.0730 
 52 H       -7.2030   -10.0550    -2.2560 H     1 <1>   0.1430 
 53 H       -8.0390    -9.3110     1.8460 H     1 <1>   0.1430 
 54 H       -9.3310   -11.2230    -2.3890 H     1 <1>   0.1430 
 55 H      -10.1310   -10.5090     1.5480 H     1 <1>   0.1430 
@<TRIPOS>BOND
  1   1   2  2   
  2   2   3  1   
  3   2   4  1   
  4   3   5  1   
  5   3   6  ar  
  6   4   7  2   
  7   4   8  1   
  8   5   9  2   
  9   6  10  ar  
 10   6  11  ar  
 11   7  11  1   
 12   7  12  1   
 13   8  13  1   
 14   8  31  1   
 15   8  32  1   
 16   9  10  1   
 17   9  14  1   
 18  10  33  1   
 19  11  34  1   
 20  12  15  1   
 21  12  35  1   
 22  12  36  1   
 23  13  15  1   
 24  13  37  1   
 25  13  38  1   
 26  14  16  1   
 27  14  39  1   
 28  14  40  1   
 29  15  41  1   
 30  15  42  1   
 31  16  17  2   
 32  16  18  am  
 33  18  19  1   
 34  18  43  1   
 35  19  20  1   
 36  19  21  1   
 37  19  44  1   
 38  20  22  1   
 39  20  23  1   
 40  20  45  1   
 41  21  24  1   
 42  21  46  1   
 43  21  47  1   
 44  22  24  1   
 45  22  48  1   
 46  22  49  1   
 47  23  25  1   
 48  23  50  1   
 49  23  51  1   
 50  25  26  ar  
 51  25  27  ar  
 52  26  28  ar  
 53  26  52  1   
 54  27  29  ar  
 55  27  53  1   
 56  28  30  ar  
 57  28  54  1   
 58  29  30  ar  
 59  29  55  1   
@<TRIPOS>SUBSTRUCTURE
  1 ****  16 GROUP 4 **** **** 0

# MOE 2024.06 (io_trps.svl 2023.06)
