@<TRIPOS>MOLECULE
NONAME
38 40 1 0 0 
SMALL
USER_CHARGES


@<TRIPOS>ATOM
  1 O       -0.1060    -0.8540     1.2220 O.3   1 <1>  -0.5600 
  2 C        0.8870     0.1110     1.3650 C.3   1 <1>   0.1200 
  3 C       -1.3560    -0.2420     1.1790 C.3   1 <1>   0.1200 
  4 C        0.3860     1.3070     0.5680 C.3   1 <1>   0.2890 
  5 C       -1.1290     1.1950     0.6950 C.3   1 <1>  -0.0800 
  6 N        0.8740     2.5940     1.1120 N.pl3 1 <1>  -0.8690 
  7 C       -1.8510     1.5250    -0.6220 C.3   1 <1>  -0.0170 
  8 C        0.7140     3.7160     0.3460 C.ar  1 <1>   0.4100 
  9 C       -3.3600     1.4980    -0.4360 C.ar  1 <1>  -0.1440 
 10 N       -0.1610     4.5710     0.8400 N.ar  1 <1>  -0.6200 
 11 C        1.3970     3.9270    -0.8630 C.ar  1 <1>   0.1600 
 12 C       -4.0180     2.5160     0.2230 C.ar  1 <1>  -0.1500 
 13 C       -4.1470     0.4680    -0.9100 C.ar  1 <1>  -0.1500 
 14 C       -0.3190     5.6340     0.0700 C.ar  1 <1>   0.1670 
 15 N        1.2360     4.9780    -1.6430 N.ar  1 <1>  -0.6200 
 16 C       -5.3930     2.4540     0.3780 C.ar  1 <1>   0.1600 
 17 C       -5.5160     0.5030    -0.7030 C.ar  1 <1>   0.1600 
 18 C        0.3560     5.8290    -1.1330 C.ar  1 <1>   0.1600 
 19 C       -1.3050     6.6690     0.5720 C.3   1 <1>  -0.0970 
 20 N       -6.1580     1.4710    -0.0680 N.ar  1 <1>  -0.6200 
 21 H        0.9750     0.3450     2.4110 H     1 <1>   0.0800 
 22 H        1.8130    -0.2770     0.9810 H     1 <1>   0.0800 
 23 H       -1.9880    -0.8110     0.5190 H     1 <1>   0.0800 
 24 H       -1.7700    -0.2530     2.1730 H     1 <1>   0.0800 
 25 H        0.6970     1.1880    -0.4560 H     1 <1>   0.0800 
 26 H       -1.4830     1.8590     1.4640 H     1 <1>   0.0800 
 27 H        0.4740     2.7730     2.0370 H     1 <1>   0.4000 
 28 H       -1.5610     0.8260    -1.3870 H     1 <1>   0.0800 
 29 H       -1.5640     2.5080    -0.9520 H     1 <1>   0.0800 
 30 H        2.1000     3.1780    -1.1720 H     1 <1>   0.1500 
 31 H       -3.4720     3.3540     0.6180 H     1 <1>   0.1500 
 32 H       -3.7110    -0.3600    -1.4390 H     1 <1>   0.1500 
 33 H       -5.8890     3.2560     0.8960 H     1 <1>   0.1500 
 34 H       -6.1150    -0.3080    -1.0790 H     1 <1>   0.1500 
 35 H        0.1660     6.7220    -1.7010 H     1 <1>   0.1500 
 36 H       -1.3740     7.5020    -0.1020 H     1 <1>   0.0800 
 37 H       -0.9900     7.0270     1.5350 H     1 <1>   0.0800 
 38 H       -2.2770     6.2210     0.6720 H     1 <1>   0.0800 
@<TRIPOS>BOND
  1   1   2  1   
  2   1   3  1   
  3   2   4  1   
  4   2  21  1   
  5   2  22  1   
  6   3   5  1   
  7   3  23  1   
  8   3  24  1   
  9   4   5  1   
 10   4   6  1   
 11   4  25  1   
 12   5   7  1   
 13   5  26  1   
 14   6   8  1   
 15   6  27  1   
 16   7   9  1   
 17   7  28  1   
 18   7  29  1   
 19   8  10  ar  
 20   8  11  ar  
 21   9  12  ar  
 22   9  13  ar  
 23  10  14  ar  
 24  11  15  ar  
 25  11  30  1   
 26  12  16  ar  
 27  12  31  1   
 28  13  17  ar  
 29  13  32  1   
 30  14  18  ar  
 31  14  19  1   
 32  15  18  ar  
 33  16  20  ar  
 34  16  33  1   
 35  17  20  ar  
 36  17  34  1   
 37  18  35  1   
 38  19  36  1   
 39  19  37  1   
 40  19  38  1   
@<TRIPOS>SUBSTRUCTURE
  1 ****   7 GROUP 4 **** **** 0

# MOE 2024.06 (io_trps.svl 2023.06)
