@<TRIPOS>MOLECULE
NONAME
56 58 1 0 0 
SMALL
USER_CHARGES


@<TRIPOS>ATOM
  1 O        0.9500     0.8170     3.3210 O.2   1 <1>  -0.5700 
  2 C        0.8540    -0.0210     2.4570 C.2   1 <1>   0.5690 
  3 N        1.1760     0.2300     1.1690 N.am  1 <1>  -0.7300 
  4 C        0.3290    -1.4200     2.7910 C.3   1 <1>   0.1710 
  5 C        1.3250     1.5590     0.5730 C.3   1 <1>   0.4000 
  6 N       -0.3300    -2.1060     1.6370 N.3   1 <1>  -0.8100 
  7 C        0.5710     1.5300    -0.7520 C.2   1 <1>  -0.3320 
  8 C        2.8190     1.8780     0.4100 C.3   1 <1>   0.1200 
  9 C       -0.5580    -3.5380     1.9430 C.3   1 <1>   0.1100 
 10 C       -1.6320    -1.4640     1.3120 C.3   1 <1>   0.1100 
 11 N        0.1310     2.6420    -1.3860 N.pl3 1 <1>   0.3140 
 12 C        0.2010     0.4770    -1.5210 C.2   1 <1>  -0.1500 
 13 O        3.0010     3.2030    -0.0040 O.3   1 <1>  -0.5600 
 14 C       -1.2500    -4.2770     0.7820 C.3   1 <1>   0.2090 
 15 C       -2.3550    -2.1600     0.1420 C.3   1 <1>   0.2090 
 16 N       -0.5130     2.3310    -2.5250 N.2   1 <1>  -0.7070 
 17 C        0.2710     4.0500    -0.9840 C.3   1 <1>   0.0160 
 18 C       -0.4640     1.0390    -2.6000 C.2   1 <1>   0.1390 
 19 C        4.3340     3.5480    -0.2050 C.3   1 <1>   0.0400 
 20 N       -2.5350    -3.6150     0.4160 N.pl3 1 <1>  -0.8380 
 21 C       -3.3530    -4.3060    -0.4690 C.ar  1 <1>   0.1000 
 22 C       -2.9660    -4.5600    -1.7810 C.ar  1 <1>  -0.1500 
 23 C       -4.5920    -4.7590    -0.0400 C.ar  1 <1>  -0.1500 
 24 C       -3.7930    -5.2540    -2.6480 C.ar  1 <1>  -0.1430 
 25 C       -5.4270    -5.4520    -0.8980 C.ar  1 <1>  -0.1500 
 26 C       -5.0270    -5.6990    -2.2010 C.ar  1 <1>  -0.1500 
 27 C       -3.3650    -5.5290    -4.0780 C.3   1 <1>  -0.0970 
 28 H        0.9370    -0.5090     0.5060 H     1 <1>   0.3700 
 29 H       -0.3600    -1.3440     3.6140 H     1 <1>   0.0800 
 30 H        1.1700    -2.0040     3.1170 H     1 <1>   0.0800 
 31 H        0.8850     2.2810     1.2400 H     1 <1>   0.0800 
 32 H        3.2510     1.2250    -0.3270 H     1 <1>   0.0800 
 33 H        3.3160     1.7530     1.3570 H     1 <1>   0.0800 
 34 H       -1.1730    -3.6310     2.8220 H     1 <1>   0.0800 
 35 H        0.3850    -4.0160     2.1410 H     1 <1>   0.0800 
 36 H       -1.4760    -0.4320     1.0480 H     1 <1>   0.0800 
 37 H       -2.2780    -1.4910     2.1730 H     1 <1>   0.0800 
 38 H        0.3620    -0.5760    -1.3760 H     1 <1>   0.1500 
 39 H       -1.4490    -5.2950     1.0710 H     1 <1>   0.0800 
 40 H       -0.5940    -4.2910    -0.0710 H     1 <1>   0.0800 
 41 H       -1.7830    -2.0290    -0.7590 H     1 <1>   0.0800 
 42 H       -3.3190    -1.7060    -0.0040 H     1 <1>   0.0800 
 43 H        0.2880     4.1270     0.0860 H     1 <1>   0.0800 
 44 H       -0.5600     4.6080    -1.3720 H     1 <1>   0.0800 
 45 H        1.1840     4.4380    -1.3920 H     1 <1>   0.0800 
 46 H       -0.8950     0.4780    -3.4130 H     1 <1>   0.1500 
 47 H        4.3700     4.5780    -0.5130 H     1 <1>   0.0800 
 48 H        4.7500     2.9240    -0.9770 H     1 <1>   0.0800 
 49 H        4.8760     3.4250     0.7160 H     1 <1>   0.0800 
 50 H       -2.0090    -4.2060    -2.1120 H     1 <1>   0.1500 
 51 H       -4.8890    -4.5610     0.9730 H     1 <1>   0.1500 
 52 H       -6.3850    -5.7980    -0.5530 H     1 <1>   0.1500 
 53 H       -5.6810    -6.2380    -2.8630 H     1 <1>   0.1500 
 54 H       -2.3180    -5.3240    -4.2090 H     1 <1>   0.0800 
 55 H       -3.9260    -4.9060    -4.7510 H     1 <1>   0.0800 
 56 H       -3.5440    -6.5600    -4.3240 H     1 <1>   0.0800 
@<TRIPOS>BOND
  1   1   2  2   
  2   2   3  am  
  3   2   4  1   
  4   3   5  1   
  5   3  28  1   
  6   4   6  1   
  7   4  29  1   
  8   4  30  1   
  9   5   7  1   
 10   5   8  1   
 11   5  31  1   
 12   6   9  1   
 13   6  10  1   
 14   7  11  1   
 15   7  12  2   
 16   8  13  1   
 17   8  32  1   
 18   8  33  1   
 19   9  14  1   
 20   9  34  1   
 21   9  35  1   
 22  10  15  1   
 23  10  36  1   
 24  10  37  1   
 25  11  16  1   
 26  11  17  1   
 27  12  18  1   
 28  12  38  1   
 29  13  19  1   
 30  14  20  1   
 31  14  39  1   
 32  14  40  1   
 33  15  20  1   
 34  15  41  1   
 35  15  42  1   
 36  16  18  2   
 37  17  43  1   
 38  17  44  1   
 39  17  45  1   
 40  18  46  1   
 41  19  47  1   
 42  19  48  1   
 43  19  49  1   
 44  20  21  1   
 45  21  22  ar  
 46  21  23  ar  
 47  22  24  ar  
 48  22  50  1   
 49  23  25  ar  
 50  23  51  1   
 51  24  26  ar  
 52  24  27  1   
 53  25  26  ar  
 54  25  52  1   
 55  26  53  1   
 56  27  54  1   
 57  27  55  1   
 58  27  56  1   
@<TRIPOS>SUBSTRUCTURE
  1 ****  10 GROUP 4 **** **** 0

# MOE 2024.06 (io_trps.svl 2023.06)
