@<TRIPOS>MOLECULE
NONAME
60 62 1 0 0 
SMALL
USER_CHARGES


@<TRIPOS>ATOM
  1 O        0.1280     0.1940    -0.6940 O.3   1 <1>  -0.5600 
  2 C        1.2990    -0.5610    -0.9050 C.3   1 <1>   0.2000 
  3 C        0.2300     1.5710    -0.9000 C.3   1 <1>   0.1200 
  4 C        2.5160     0.0040    -0.1020 C.3   1 <1>   0.5660 
  5 C        0.9390    -1.9970    -0.4880 C.3   1 <1>   0.1200 
  6 C        1.2350     2.1630     0.0970 C.3   1 <1>   0.3430 
  7 N        2.5580     1.4970    -0.0530 N.4   1 <1>  -0.9590 
  8 C        3.8590    -0.4220    -0.6900 C.ar  1 <1>  -0.1430 
  9 O        2.0670    -2.8010    -0.4050 O.3   1 <1>  -0.6800 
 10 C        3.6000     2.0520     0.8500 C.3   1 <1>   0.5240 
 11 C        4.7240    -1.1860     0.0810 C.ar  1 <1>  -0.1500 
 12 C        4.2490    -0.0450    -1.9710 C.ar  1 <1>  -0.1500 
 13 C        4.1550     3.2970     0.1640 C.2   1 <1>   0.1080 
 14 C        5.9630    -1.5650    -0.4060 C.ar  1 <1>   0.0830 
 15 C        5.4900    -0.4140    -2.4610 C.ar  1 <1>  -0.1500 
 16 N        3.9260     3.5740    -1.0910 N.2   1 <1>  -0.7070 
 17 C        4.9540     4.2560     0.7750 C.2   1 <1>  -0.1500 
 18 O        6.7370    -2.3250     0.4030 O.3   1 <1>  -0.3630 
 19 C        6.3600    -1.1570    -1.6830 C.ar  1 <1>   0.0830 
 20 N        4.5950     4.7280    -1.3060 N.pl3 1 <1>   0.3000 
 21 C        5.2210     5.1630    -0.1920 C.2   1 <1>  -0.3320 
 22 C        6.9890    -3.6450    -0.0290 C.3   1 <1>   0.0400 
 23 O        7.5700    -1.4550    -2.2130 O.3   1 <1>  -0.3630 
 24 C        6.0480     6.4440    -0.1550 C.3   1 <1>   0.1800 
 25 C        8.6990    -0.8970    -1.5750 C.3   1 <1>   0.0400 
 26 C        5.1550     7.6370    -0.5120 C.3   1 <1>  -0.2400 
 27 C        6.6320     6.6620     1.2460 C.3   1 <1>  -0.2400 
 28 C        7.1980     6.3370    -1.1610 C.3   1 <1>  -0.2400 
 29 H        1.5090    -0.5420    -1.9600 H     1 <1>   0.0800 
 30 H        0.5290     1.7560    -1.9180 H     1 <1>   0.0800 
 31 H       -0.7450     1.9990    -0.7430 H     1 <1>   0.0800 
 32 H        2.4410    -0.3810     0.9010 H     1 <1>   0.0800 
 33 H        0.2530    -2.4410    -1.1900 H     1 <1>   0.0800 
 34 H        0.4870    -1.9880     0.4890 H     1 <1>   0.0800 
 35 H        0.8570     2.0240     1.0960 H     1 <1>   0.0800 
 36 H        1.3370     3.2220    -0.0840 H     1 <1>   0.0800 
 37 H        2.9320     1.8170    -0.9650 H     1 <1>   0.4500 
 38 H        2.2720    -3.2260    -1.2650 H     1 <1>   0.4000 
 39 H        3.1870     2.2980     1.8130 H     1 <1>   0.0800 
 40 H        4.4050     1.3480     0.9780 H     1 <1>   0.0800 
 41 H        4.4490    -1.5150     1.0690 H     1 <1>   0.1500 
 42 H        3.6060     0.5410    -2.6050 H     1 <1>   0.1500 
 43 H        5.7970    -0.1220    -3.4500 H     1 <1>   0.1500 
 44 H        5.2840     4.2570     1.8000 H     1 <1>   0.1500 
 45 H        4.6170     5.2020    -2.2190 H     1 <1>   0.2700 
 46 H        7.5370    -4.1530     0.7430 H     1 <1>   0.0800 
 47 H        7.5690    -3.6220    -0.9340 H     1 <1>   0.0800 
 48 H        6.0490    -4.1400    -0.2000 H     1 <1>   0.0800 
 49 H        9.5660    -1.1230    -2.1680 H     1 <1>   0.0800 
 50 H        8.8050    -1.3270    -0.5950 H     1 <1>   0.0800 
 51 H        8.5680     0.1680    -1.5040 H     1 <1>   0.0800 
 52 H        5.7130     8.5550    -0.4530 H     1 <1>   0.0800 
 53 H        4.3270     7.6980     0.1730 H     1 <1>   0.0800 
 54 H        4.7650     7.5450    -1.5090 H     1 <1>   0.0800 
 55 H        7.2160     7.5650     1.2750 H     1 <1>   0.0800 
 56 H        7.2690     5.8400     1.5200 H     1 <1>   0.0800 
 57 H        5.8450     6.7480     1.9730 H     1 <1>   0.0800 
 58 H        7.8160     7.2170    -1.1210 H     1 <1>   0.0800 
 59 H        6.8270     6.2340    -2.1640 H     1 <1>   0.0800 
 60 H        7.8100     5.4820    -0.9350 H     1 <1>   0.0800 
@<TRIPOS>BOND
  1   1   2  1   
  2   1   3  1   
  3   2   4  1   
  4   2   5  1   
  5   2  29  1   
  6   3   6  1   
  7   3  30  1   
  8   3  31  1   
  9   4   7  1   
 10   4   8  1   
 11   4  32  1   
 12   5   9  1   
 13   5  33  1   
 14   5  34  1   
 15   6   7  1   
 16   6  35  1   
 17   6  36  1   
 18   7  10  1   
 19   7  37  1   
 20   8  11  ar  
 21   8  12  ar  
 22   9  38  1   
 23  10  13  1   
 24  10  39  1   
 25  10  40  1   
 26  11  14  ar  
 27  11  41  1   
 28  12  15  ar  
 29  12  42  1   
 30  13  16  2   
 31  13  17  1   
 32  14  18  1   
 33  14  19  ar  
 34  15  19  ar  
 35  15  43  1   
 36  16  20  1   
 37  17  21  2   
 38  17  44  1   
 39  18  22  1   
 40  19  23  1   
 41  20  21  1   
 42  20  45  1   
 43  21  24  1   
 44  22  46  1   
 45  22  47  1   
 46  22  48  1   
 47  23  25  1   
 48  24  26  1   
 49  24  27  1   
 50  24  28  1   
 51  25  49  1   
 52  25  50  1   
 53  25  51  1   
 54  26  52  1   
 55  26  53  1   
 56  26  54  1   
 57  27  55  1   
 58  27  56  1   
 59  27  57  1   
 60  28  58  1   
 61  28  59  1   
 62  28  60  1   
@<TRIPOS>SUBSTRUCTURE
  1 ****  10 GROUP 4 **** **** 0

# MOE 2024.06 (io_trps.svl 2023.06)
