@<TRIPOS>MOLECULE
NONAME
55 57 1 0 0 
SMALL
USER_CHARGES


@<TRIPOS>ATOM
  1 O       -1.5870     0.3720     2.4250 O.2   1 <1>  -0.5700 
  2 C       -1.8200     0.8630     1.3380 C.2   1 <1>   0.5440 
  3 N       -2.1690     0.0490     0.2850 N.am  1 <1>  -0.6600 
  4 C       -1.7320     2.3000     1.1600 C.ar  1 <1>   0.0860 
  5 C       -2.1830    -1.4470     0.4270 C.3   1 <1>   0.3640 
  6 C       -2.6480     0.6130    -1.0150 C.3   1 <1>   0.1400 
  7 C       -0.5840     2.9410     0.6720 C.ar  1 <1>  -0.1440 
  8 C       -2.8480     3.0750     1.4650 C.ar  1 <1>  -0.1500 
  9 C       -0.8700    -2.0810    -0.0610 C.ar  1 <1>  -0.1440 
 10 C       -3.4100    -2.1020    -0.2860 C.3   1 <1>   0.2000 
 11 C       -3.0990    -0.4800    -1.9940 C.3   1 <1>   0.1200 
 12 C       -0.5870     4.3180     0.4650 C.ar  1 <1>  -0.1440 
 13 C        0.6760     2.1260     0.3690 C.3   1 <1>  -0.0960 
 14 C       -2.8470     4.4410     1.2700 C.ar  1 <1>  -0.1500 
 15 C       -0.5930    -3.3810     0.3430 C.ar  1 <1>  -0.1500 
 16 C        0.0520    -1.4320    -0.8760 C.ar  1 <1>  -0.1500 
 17 O       -3.9700    -1.3480    -1.3410 O.3   1 <1>  -0.5600 
 18 C       -4.5470    -2.3760     0.7050 C.3   1 <1>   0.1200 
 19 C       -1.7200     5.0580     0.7670 C.ar  1 <1>  -0.1500 
 20 C        0.6270     5.0560    -0.0850 C.3   1 <1>  -0.0970 
 21 C        0.5590    -4.0320    -0.0640 C.ar  1 <1>   0.0830 
 22 C        1.2180    -2.0650    -1.2740 C.ar  1 <1>  -0.1500 
 23 O       -4.2060    -3.4270     1.5520 O.3   1 <1>  -0.6800 
 24 O        0.7230    -5.3170     0.3380 O.3   1 <1>  -0.3630 
 25 C        1.4880    -3.3570    -0.8620 C.ar  1 <1>   0.0830 
 26 C        0.7590    -6.2980    -0.6760 C.3   1 <1>   0.0400 
 27 O        2.6650    -3.9050    -1.2520 O.3   1 <1>  -0.3630 
 28 C        3.6000    -4.1610    -0.2270 C.3   1 <1>   0.0400 
 29 H       -2.2540    -1.6920     1.4730 H     1 <1>   0.0800 
 30 H       -3.4800     1.2680    -0.8270 H     1 <1>   0.0800 
 31 H       -1.8640     1.1960    -1.4660 H     1 <1>   0.0800 
 32 H       -3.7250     2.5920     1.8590 H     1 <1>   0.1500 
 33 H       -3.1090    -3.0400    -0.7160 H     1 <1>   0.0800 
 34 H       -2.2650    -1.0420    -2.3760 H     1 <1>   0.0800 
 35 H       -3.6280    -0.0420    -2.8220 H     1 <1>   0.0800 
 36 H        1.5510     2.6410     0.7190 H     1 <1>   0.0800 
 37 H        0.7650     1.9690    -0.6900 H     1 <1>   0.0800 
 38 H        0.6660     1.1680     0.8570 H     1 <1>   0.0800 
 39 H       -3.7200     5.0230     1.5110 H     1 <1>   0.1500 
 40 H       -1.2770    -3.9090     0.9850 H     1 <1>   0.1500 
 41 H       -0.1170    -0.4250    -1.2060 H     1 <1>   0.1500 
 42 H       -5.4490    -2.6470     0.1840 H     1 <1>   0.0800 
 43 H       -4.7280    -1.5050     1.3120 H     1 <1>   0.0800 
 44 H       -1.7300     6.1240     0.6160 H     1 <1>   0.1500 
 45 H        0.3800     6.0710    -0.3390 H     1 <1>   0.0800 
 46 H        0.9900     4.5710    -0.9730 H     1 <1>   0.0800 
 47 H        1.4090     5.0740     0.6530 H     1 <1>   0.0800 
 48 H        1.9280    -1.5560    -1.8990 H     1 <1>   0.1500 
 49 H       -4.2990    -4.2860     1.0940 H     1 <1>   0.4000 
 50 H        0.7460    -7.2650    -0.2080 H     1 <1>   0.0800 
 51 H        1.6590    -6.1830    -1.2520 H     1 <1>   0.0800 
 52 H       -0.1050    -6.1790    -1.3050 H     1 <1>   0.0800 
 53 H        4.5120    -4.5030    -0.6810 H     1 <1>   0.0800 
 54 H        3.2110    -4.9180     0.4300 H     1 <1>   0.0800 
 55 H        3.7760    -3.2500     0.3170 H     1 <1>   0.0800 
@<TRIPOS>BOND
  1   1   2  2   
  2   2   3  am  
  3   2   4  1   
  4   3   5  1   
  5   3   6  1   
  6   4   7  ar  
  7   4   8  ar  
  8   5   9  1   
  9   5  10  1   
 10   5  29  1   
 11   6  11  1   
 12   6  30  1   
 13   6  31  1   
 14   7  12  ar  
 15   7  13  1   
 16   8  14  ar  
 17   8  32  1   
 18   9  15  ar  
 19   9  16  ar  
 20  10  17  1   
 21  10  18  1   
 22  10  33  1   
 23  11  17  1   
 24  11  34  1   
 25  11  35  1   
 26  12  19  ar  
 27  12  20  1   
 28  13  36  1   
 29  13  37  1   
 30  13  38  1   
 31  14  19  ar  
 32  14  39  1   
 33  15  21  ar  
 34  15  40  1   
 35  16  22  ar  
 36  16  41  1   
 37  18  23  1   
 38  18  42  1   
 39  18  43  1   
 40  19  44  1   
 41  20  45  1   
 42  20  46  1   
 43  20  47  1   
 44  21  24  1   
 45  21  25  ar  
 46  22  25  ar  
 47  22  48  1   
 48  23  49  1   
 49  24  26  1   
 50  25  27  1   
 51  26  50  1   
 52  26  51  1   
 53  26  52  1   
 54  27  28  1   
 55  28  53  1   
 56  28  54  1   
 57  28  55  1   
@<TRIPOS>SUBSTRUCTURE
  1 ****   3 GROUP 4 **** **** 0

# MOE 2024.06 (io_trps.svl 2023.06)
