@<TRIPOS>MOLECULE
NONAME
49 51 1 0 0 
SMALL
USER_CHARGES


@<TRIPOS>ATOM
  1 O       -2.1700     0.5950    -1.7870 O.2   1 <1>  -0.5700 
  2 C       -2.5070     0.5430    -0.6310 C.2   1 <1>   0.6590 
  3 O       -3.1170    -0.5760    -0.2350 O.3   1 <1>  -0.4300 
  4 C       -2.1600     1.7090     0.3370 C.3   1 <1>   0.2050 
  5 C       -4.3880    -0.7050     0.3550 C.3   1 <1>   0.2000 
  6 C       -2.8690     3.0470    -0.0160 C.ar  1 <1>  -0.1440 
  7 C       -2.4320     1.3620     1.8280 C.3   1 <1>   0.1200 
  8 C       -0.6400     1.9480     0.1810 C.3   1 <1>   0.1200 
  9 C       -4.7800    -2.1910     0.3050 C.3   1 <1>  -0.1600 
 10 C       -5.4180     0.2210    -0.3270 C.3   1 <1>  -0.1600 
 11 C       -3.6760     3.2010    -1.1410 C.ar  1 <1>  -0.1500 
 12 C       -2.7020     4.1520     0.8170 C.ar  1 <1>  -0.1500 
 13 O       -3.7470     1.6540     2.2080 O.3   1 <1>  -0.6800 
 14 O        0.0830     0.8710     0.6880 O.3   1 <1>  -0.6800 
 15 C       -6.2990    -2.4280     0.4090 C.3   1 <1>   0.4230 
 16 C       -6.8730    -0.2570    -0.1690 C.3   1 <1>   0.4230 
 17 C       -4.3080     4.4020    -1.4090 C.ar  1 <1>  -0.1500 
 18 C       -3.3350     5.3530     0.5520 C.ar  1 <1>  -0.1500 
 19 N       -6.9260    -1.2040     0.9710 N.4   1 <1>  -0.9590 
 20 C       -6.9390    -2.5470    -0.9780 C.3   1 <1>  -0.1600 
 21 C       -7.3140    -1.1130    -1.3620 C.3   1 <1>  -0.1600 
 22 C       -4.1420     5.4800    -0.5600 C.ar  1 <1>  -0.1500 
 23 C       -8.3130    -1.4310     1.4830 C.3   1 <1>   0.2630 
 24 H       -4.3040    -0.4550     1.3930 H     1 <1>   0.0800 
 25 H       -1.7850     1.9390     2.4660 H     1 <1>   0.0800 
 26 H       -2.2340     0.3220     2.0250 H     1 <1>   0.0800 
 27 H       -0.3300     2.8270     0.7170 H     1 <1>   0.0800 
 28 H       -0.3820     2.0740    -0.8580 H     1 <1>   0.0800 
 29 H       -4.3950    -2.6400    -0.5940 H     1 <1>   0.0800 
 30 H       -4.3020    -2.6920     1.1280 H     1 <1>   0.0800 
 31 H       -5.3470     1.1980     0.1130 H     1 <1>   0.0800 
 32 H       -5.1840     0.3290    -1.3710 H     1 <1>   0.0800 
 33 H       -3.8300     2.4030    -1.8450 H     1 <1>   0.1500 
 34 H       -2.0740     4.0990     1.6890 H     1 <1>   0.1500 
 35 H       -3.9250     2.6100     2.0560 H     1 <1>   0.4000 
 36 H        1.0210     0.9190     0.4100 H     1 <1>   0.4000 
 37 H       -6.5020    -3.3020     1.0080 H     1 <1>   0.0800 
 38 H       -7.5320     0.5860    -0.0300 H     1 <1>   0.0800 
 39 H       -4.9250     4.5030    -2.2850 H     1 <1>   0.1500 
 40 H       -3.1960     6.1940     1.2110 H     1 <1>   0.1500 
 41 H       -6.3420    -0.8380     1.7350 H     1 <1>   0.4500 
 42 H       -6.2790    -2.9980    -1.6990 H     1 <1>   0.0800 
 43 H       -7.8220    -3.1580    -0.9160 H     1 <1>   0.0800 
 44 H       -8.3780    -1.0290    -1.4920 H     1 <1>   0.0800 
 45 H       -6.8470    -0.8080    -2.2830 H     1 <1>   0.0800 
 46 H       -4.6340     6.4140    -0.7700 H     1 <1>   0.1500 
 47 H       -8.9490    -1.8090     0.6990 H     1 <1>   0.0800 
 48 H       -8.7310    -0.5080     1.8510 H     1 <1>   0.0800 
 49 H       -8.3000    -2.1460     2.2900 H     1 <1>   0.0800 
@<TRIPOS>BOND
  1   1   2  2   
  2   2   3  1   
  3   2   4  1   
  4   3   5  1   
  5   4   6  1   
  6   4   7  1   
  7   4   8  1   
  8   5   9  1   
  9   5  10  1   
 10   5  24  1   
 11   6  11  ar  
 12   6  12  ar  
 13   7  13  1   
 14   7  25  1   
 15   7  26  1   
 16   8  14  1   
 17   8  27  1   
 18   8  28  1   
 19   9  15  1   
 20   9  29  1   
 21   9  30  1   
 22  10  16  1   
 23  10  31  1   
 24  10  32  1   
 25  11  17  ar  
 26  11  33  1   
 27  12  18  ar  
 28  12  34  1   
 29  13  35  1   
 30  14  36  1   
 31  15  19  1   
 32  15  20  1   
 33  15  37  1   
 34  16  19  1   
 35  16  21  1   
 36  16  38  1   
 37  17  22  ar  
 38  17  39  1   
 39  18  22  ar  
 40  18  40  1   
 41  19  23  1   
 42  19  41  1   
 43  20  21  1   
 44  20  42  1   
 45  20  43  1   
 46  21  44  1   
 47  21  45  1   
 48  22  46  1   
 49  23  47  1   
 50  23  48  1   
 51  23  49  1   
@<TRIPOS>SUBSTRUCTURE
  1 ****  10 GROUP 4 **** **** 0

# MOE 2024.06 (io_trps.svl 2023.06)
