@<TRIPOS>MOLECULE
NONAME
55 58 1 0 0 
SMALL
USER_CHARGES


@<TRIPOS>ATOM
  1 O        4.5280    -3.3980     1.0750 O.2   1 <1>  -0.5700 
  2 C        3.6770    -2.5790     0.7840 C.2   1 <1>   0.5440 
  3 N        3.8870    -1.2780     1.1950 N.am  1 <1>  -0.6600 
  4 C        2.5230    -2.9740    -0.0060 C.ar  1 <1>   0.0860 
  5 C        4.8220    -1.0260     2.3400 C.3   1 <1>   0.2200 
  6 C        3.4100    -0.1250     0.3900 C.3   1 <1>   0.1400 
  7 C        1.2530    -2.4580     0.2460 C.ar  1 <1>  -0.1500 
  8 C        2.6480    -3.8900    -1.0500 C.ar  1 <1>  -0.1500 
  9 C        4.5200     0.2870     3.1070 C.3   1 <1>   0.1200 
 10 C        6.2870    -1.1360     1.8470 C.3   1 <1>   0.3430 
 11 C        4.5020     0.9340     0.1990 C.3   1 <1>  -0.0800 
 12 C        0.1580    -2.8070    -0.5240 C.ar  1 <1>   0.0820 
 13 C        1.5610    -4.2530    -1.8250 C.ar  1 <1>  -0.1500 
 14 O        5.1270     1.4140     2.5250 O.3   1 <1>  -0.5600 
 15 N        6.7450     0.0130     0.9860 N.4   1 <1>  -0.9590 
 16 C        4.5280     1.9370     1.3750 C.3   1 <1>   0.1200 
 17 C        5.8620     0.3080    -0.1930 C.3   1 <1>   0.3430 
 18 O       -1.0230    -2.2280    -0.1970 O.3   1 <1>  -0.3630 
 19 C        0.3140    -3.7120    -1.5690 C.ar  1 <1>  -0.1500 
 20 C        8.1900    -0.0890     0.6490 C.3   1 <1>   0.4860 
 21 C       -2.2210    -2.5850    -0.8510 C.3   1 <1>   0.0400 
 22 C        8.6380     1.1820    -0.0340 C.ar  1 <1>  -0.1430 
 23 C        8.6900     2.3850     0.6330 C.ar  1 <1>   0.1600 
 24 C        8.9970     1.1880    -1.3620 C.ar  1 <1>   0.1600 
 25 N        9.0390     3.4970     0.0330 N.ar  1 <1>  -0.6200 
 26 N        9.3490     2.2890    -1.9810 N.ar  1 <1>  -0.6200 
 27 C        9.3550     3.3890    -1.2470 C.ar  1 <1>   0.4770 
 28 C        9.7690     4.6570    -1.9540 C.3   1 <1>  -0.0970 
 29 H        4.6650    -1.8280     3.0420 H     1 <1>   0.0800 
 30 H        3.1030    -0.4760    -0.5820 H     1 <1>   0.0800 
 31 H        2.5440     0.3090     0.8620 H     1 <1>   0.0800 
 32 H        1.1030    -1.7740     1.0600 H     1 <1>   0.1500 
 33 H        3.6120    -4.3240    -1.2530 H     1 <1>   0.1500 
 34 H        4.9270     0.2060     4.1000 H     1 <1>   0.0800 
 35 H        3.4610     0.4540     3.2010 H     1 <1>   0.0800 
 36 H        6.3950    -2.0630     1.3090 H     1 <1>   0.0800 
 37 H        6.9200    -1.1920     2.7160 H     1 <1>   0.0800 
 38 H        4.1810     1.5040    -0.6550 H     1 <1>   0.0800 
 39 H        1.6840    -4.9620    -2.6270 H     1 <1>   0.1500 
 40 H        6.6020     0.8380     1.6000 H     1 <1>   0.4500 
 41 H        3.5330     2.2630     1.6300 H     1 <1>   0.0800 
 42 H        5.0960     2.8090     1.0950 H     1 <1>   0.0800 
 43 H        6.3620     1.0140    -0.8360 H     1 <1>   0.0800 
 44 H        5.6970    -0.5920    -0.7640 H     1 <1>   0.0800 
 45 H       -0.5140    -4.0050    -2.1850 H     1 <1>   0.1500 
 46 H        8.7690    -0.2330     1.5480 H     1 <1>   0.0800 
 47 H        8.3570    -0.9340     0.0000 H     1 <1>   0.0800 
 48 H       -3.0250    -2.0300    -0.4020 H     1 <1>   0.0800 
 49 H       -2.3890    -3.6400    -0.7210 H     1 <1>   0.0800 
 50 H       -2.1400    -2.3320    -1.8930 H     1 <1>   0.0800 
 51 H        8.4360     2.4520     1.6790 H     1 <1>   0.1500 
 52 H        8.9950     0.2800    -1.9430 H     1 <1>   0.1500 
 53 H        9.7700     5.4880    -1.2730 H     1 <1>   0.0800 
 54 H        9.0840     4.8620    -2.7550 H     1 <1>   0.0800 
 55 H       10.7560     4.5360    -2.3580 H     1 <1>   0.0800 
@<TRIPOS>BOND
  1   1   2  2   
  2   2   3  am  
  3   2   4  1   
  4   3   5  1   
  5   3   6  1   
  6   4   7  ar  
  7   4   8  ar  
  8   5   9  1   
  9   5  10  1   
 10   5  29  1   
 11   6  11  1   
 12   6  30  1   
 13   6  31  1   
 14   7  12  ar  
 15   7  32  1   
 16   8  13  ar  
 17   8  33  1   
 18   9  14  1   
 19   9  34  1   
 20   9  35  1   
 21  10  15  1   
 22  10  36  1   
 23  10  37  1   
 24  11  16  1   
 25  11  17  1   
 26  11  38  1   
 27  12  18  1   
 28  12  19  ar  
 29  13  19  ar  
 30  13  39  1   
 31  14  16  1   
 32  15  17  1   
 33  15  20  1   
 34  15  40  1   
 35  16  41  1   
 36  16  42  1   
 37  17  43  1   
 38  17  44  1   
 39  18  21  1   
 40  19  45  1   
 41  20  22  1   
 42  20  46  1   
 43  20  47  1   
 44  21  48  1   
 45  21  49  1   
 46  21  50  1   
 47  22  23  ar  
 48  22  24  ar  
 49  23  25  ar  
 50  23  51  1   
 51  24  26  ar  
 52  24  52  1   
 53  25  27  ar  
 54  26  27  ar  
 55  27  28  1   
 56  28  53  1   
 57  28  54  1   
 58  28  55  1   
@<TRIPOS>SUBSTRUCTURE
  1 ****  17 GROUP 4 **** **** 0

# MOE 2024.06 (io_trps.svl 2023.06)
