@<TRIPOS>MOLECULE
NONAME
47 49 1 0 0 
SMALL
USER_CHARGES


@<TRIPOS>ATOM
  1 O       -1.5260     0.0500     0.6610 O.2   1 <1>  -0.5700 
  2 C       -2.1700     0.8800     0.0410 C.2   1 <1>   0.5440 
  3 N       -3.2930     0.4350    -0.6250 N.am  1 <1>  -0.6600 
  4 C       -1.7840     2.2730     0.0520 C.ar  1 <1>   0.0860 
  5 C       -3.3900    -1.0010    -0.9820 C.3   1 <1>   0.1400 
  6 C       -4.6250     1.0440    -0.3360 C.3   1 <1>   0.1400 
  7 C       -1.0210     2.7930     1.0990 C.ar  1 <1>   0.1600 
  8 C       -2.1400     3.1620    -0.9610 C.ar  1 <1>  -0.1500 
  9 C       -4.1620    -1.6310     0.1840 C.3   1 <1>   0.4230 
 10 C       -5.4640     0.1330     0.6040 C.3   1 <1>  -0.1600 
 11 N       -0.6270     4.0470     1.2280 N.ar  1 <1>  -0.6200 
 12 C       -1.7380     4.4700    -0.8450 C.ar  1 <1>  -0.1500 
 13 N       -3.7000    -2.9850     0.6600 N.4   1 <1>  -0.9590 
 14 C       -5.7270    -1.3560     0.0120 C.3   1 <1>   0.0000 
 15 C       -0.9940     4.8650     0.2610 C.ar  1 <1>   0.4100 
 16 C       -3.7510    -4.0230    -0.3780 C.3   1 <1>   0.3430 
 17 C       -2.3430    -2.8900     1.2890 C.3   1 <1>   0.2630 
 18 C       -6.0090    -2.8050    -0.6490 C.3   1 <1>  -0.1600 
 19 C       -7.2980    -1.0440    -0.0690 C.3   1 <1>   0.1200 
 20 N       -0.5780     6.1400     0.4170 N.pl3 1 <1>  -0.9000 
 21 C       -4.9290    -3.7220    -1.2820 C.3   1 <1>  -0.1600 
 22 O       -7.8190    -1.1520     1.2190 O.3   1 <1>  -0.6800 
 23 H       -3.9210    -1.1030    -1.9120 H     1 <1>   0.0800 
 24 H       -2.4070    -1.4240    -1.0860 H     1 <1>   0.0800 
 25 H       -4.4950     2.0080     0.1280 H     1 <1>   0.0800 
 26 H       -5.1500     1.1950    -1.2650 H     1 <1>   0.0800 
 27 H       -0.7210     2.1170     1.8820 H     1 <1>   0.1500 
 28 H       -2.7110     2.8300    -1.8100 H     1 <1>   0.1500 
 29 H       -3.8070    -1.0420     1.0090 H     1 <1>   0.0800 
 30 H       -5.0160     0.1070     1.5850 H     1 <1>   0.0800 
 31 H       -6.3150     0.7550     0.8350 H     1 <1>   0.0800 
 32 H       -1.9910     5.1970    -1.5930 H     1 <1>   0.1500 
 33 H       -4.3780    -3.2490     1.3890 H     1 <1>   0.4500 
 34 H       -2.8420    -4.0270    -0.9580 H     1 <1>   0.0800 
 35 H       -3.8710    -4.9910     0.0820 H     1 <1>   0.0800 
 36 H       -1.6080    -2.5920     0.5580 H     1 <1>   0.0800 
 37 H       -2.0530    -3.8390     1.7080 H     1 <1>   0.0800 
 38 H       -2.3460    -2.1510     2.0750 H     1 <1>   0.0800 
 39 H       -6.5420    -3.4050     0.0740 H     1 <1>   0.0800 
 40 H       -6.6380    -2.7140    -1.5210 H     1 <1>   0.0800 
 41 H       -7.9470    -1.6730    -0.6540 H     1 <1>   0.0800 
 42 H       -7.5250    -0.0660    -0.4640 H     1 <1>   0.0800 
 43 H        0.0610     6.2770     1.2030 H     1 <1>   0.4000 
 44 H       -0.3680     6.7090    -0.4020 H     1 <1>   0.4000 
 45 H       -4.5600    -3.2760    -2.1890 H     1 <1>   0.0800 
 46 H       -5.3780    -4.6560    -1.5740 H     1 <1>   0.0800 
 47 H       -8.7810    -0.9660     1.2300 H     1 <1>   0.4000 
@<TRIPOS>BOND
  1   1   2  2   
  2   2   3  am  
  3   2   4  1   
  4   3   5  1   
  5   3   6  1   
  6   4   7  ar  
  7   4   8  ar  
  8   5   9  1   
  9   5  23  1   
 10   5  24  1   
 11   6  10  1   
 12   6  25  1   
 13   6  26  1   
 14   7  11  ar  
 15   7  27  1   
 16   8  12  ar  
 17   8  28  1   
 18   9  13  1   
 19   9  14  1   
 20   9  29  1   
 21  10  14  1   
 22  10  30  1   
 23  10  31  1   
 24  11  15  ar  
 25  12  15  ar  
 26  12  32  1   
 27  13  16  1   
 28  13  17  1   
 29  13  33  1   
 30  14  18  1   
 31  14  19  1   
 32  15  20  1   
 33  16  21  1   
 34  16  34  1   
 35  16  35  1   
 36  17  36  1   
 37  17  37  1   
 38  17  38  1   
 39  18  21  1   
 40  18  39  1   
 41  18  40  1   
 42  19  22  1   
 43  19  41  1   
 44  19  42  1   
 45  20  43  1   
 46  20  44  1   
 47  21  45  1   
 48  21  46  1   
 49  22  47  1   
@<TRIPOS>SUBSTRUCTURE
  1 ****   3 GROUP 4 **** **** 0

# MOE 2024.06 (io_trps.svl 2023.06)
