@<TRIPOS>MOLECULE
NONAME
46 47 1 0 0 
SMALL
USER_CHARGES


@<TRIPOS>ATOM
  1 S        0.1260     0.6360     1.6530 S.o2  1 <1>   1.3330 
  2 O        0.0660     1.6940     2.6310 O.2   1 <1>  -0.6500 
  3 O        0.6130    -0.6780     1.9960 O.2   1 <1>  -0.6500 
  4 N        1.0650     1.1850     0.2990 N.am  1 <1>  -0.6930 
  5 C       -1.4900     0.4480     0.9280 C.3   1 <1>  -0.1350 
  6 C        1.3970     2.5240     0.1060 C.ar  1 <1>   0.1990 
  7 C        1.7240     0.1270    -0.5090 C.3   1 <1>   0.1160 
  8 C        2.7100     2.9090    -0.1540 C.ar  1 <1>  -0.1500 
  9 C        0.4360     3.5290     0.1610 C.ar  1 <1>  -0.1500 
 10 C        3.0420     4.2320    -0.3700 C.ar  1 <1>  -0.1500 
 11 C        0.7690     4.8520    -0.0560 C.ar  1 <1>  -0.1500 
 12 C        2.0790     5.2440    -0.3400 C.ar  1 <1>   0.0860 
 13 C        2.4040     6.6370    -0.5850 C.2   1 <1>   0.5440 
 14 O        1.6780     7.5290    -0.1880 O.2   1 <1>  -0.5700 
 15 N        3.5290     6.9890    -1.2810 N.am  1 <1>  -0.7300 
 16 C        3.8980     8.3870    -1.6440 C.3   1 <1>   0.1400 
 17 C        4.3230     9.2180    -0.4210 C.3   1 <1>   0.2000 
 18 O        4.7070    10.4930    -0.9000 O.3   1 <1>  -0.3630 
 19 C        5.5180     8.6110     0.3280 C.3   1 <1>  -0.2400 
 20 C        4.7220    11.6070    -0.1190 C.ar  1 <1>   0.0830 
 21 C        5.2130    12.7790    -0.6840 C.ar  1 <1>   0.1600 
 22 C        4.2810    11.6440     1.1950 C.ar  1 <1>  -0.1500 
 23 N        5.3020    13.9500    -0.0700 N.ar  1 <1>  -0.6200 
 24 C        4.3650    12.8560     1.8480 C.ar  1 <1>  -0.1500 
 25 C        4.8750    13.9590     1.1830 C.ar  1 <1>   0.1600 
 26 H       -2.1780     0.0840     1.6650 H     1 <1>   0.0800 
 27 H       -1.4530    -0.2520     0.1180 H     1 <1>   0.0800 
 28 H       -1.8490     1.3870     0.5600 H     1 <1>   0.0800 
 29 H        1.0160    -0.6480    -0.7460 H     1 <1>   0.0800 
 30 H        2.5330    -0.3050     0.0540 H     1 <1>   0.0800 
 31 H        2.1060     0.5370    -1.4270 H     1 <1>   0.0800 
 32 H        3.4810     2.1610    -0.1730 H     1 <1>   0.1500 
 33 H       -0.5840     3.2780     0.3790 H     1 <1>   0.1500 
 34 H        4.0710     4.4830    -0.5540 H     1 <1>   0.1500 
 35 H        0.0020     5.6060    -0.0050 H     1 <1>   0.1500 
 36 H        4.0920     6.2590    -1.7160 H     1 <1>   0.3700 
 37 H        3.0450     8.8600    -2.1020 H     1 <1>   0.0800 
 38 H        4.7030     8.3630    -2.3560 H     1 <1>   0.0800 
 39 H        3.4690     9.3320     0.2210 H     1 <1>   0.0800 
 40 H        6.3490     8.4780    -0.3410 H     1 <1>   0.0800 
 41 H        5.2470     7.6540     0.7350 H     1 <1>   0.0800 
 42 H        5.8170     9.2450     1.1420 H     1 <1>   0.0800 
 43 H        5.5510    12.7360    -1.7040 H     1 <1>   0.1500 
 44 H        3.8860    10.7860     1.7050 H     1 <1>   0.1500 
 45 H        4.0380    12.9490     2.8680 H     1 <1>   0.1500 
 46 H        4.9330    14.8970     1.7080 H     1 <1>   0.1500 
@<TRIPOS>BOND
  1   1   2  2   
  2   1   3  2   
  3   1   4  am  
  4   1   5  1   
  5   4   6  1   
  6   4   7  1   
  7   5  26  1   
  8   5  27  1   
  9   5  28  1   
 10   6   8  ar  
 11   6   9  ar  
 12   7  29  1   
 13   7  30  1   
 14   7  31  1   
 15   8  10  ar  
 16   8  32  1   
 17   9  11  ar  
 18   9  33  1   
 19  10  12  ar  
 20  10  34  1   
 21  11  12  ar  
 22  11  35  1   
 23  12  13  1   
 24  13  14  2   
 25  13  15  am  
 26  15  16  1   
 27  15  36  1   
 28  16  17  1   
 29  16  37  1   
 30  16  38  1   
 31  17  18  1   
 32  17  19  1   
 33  17  39  1   
 34  18  20  1   
 35  19  40  1   
 36  19  41  1   
 37  19  42  1   
 38  20  21  ar  
 39  20  22  ar  
 40  21  23  ar  
 41  21  43  1   
 42  22  24  ar  
 43  22  44  1   
 44  23  25  ar  
 45  24  25  ar  
 46  24  45  1   
 47  25  46  1   
@<TRIPOS>SUBSTRUCTURE
  1 ****  13 GROUP 4 **** **** 0

# MOE 2024.06 (io_trps.svl 2023.06)
