@<TRIPOS>MOLECULE
NONAME
56 58 1 0 0 
SMALL
USER_CHARGES


@<TRIPOS>ATOM
  1 O       -1.2900    -0.0830    -0.0190 O.2   1 <1>  -0.5700 
  2 C       -1.9970     0.7840    -0.5040 C.2   1 <1>   0.5440 
  3 N       -3.2140     0.3870    -1.0160 N.am  1 <1>  -0.6600 
  4 C       -1.5790     2.1750    -0.4890 C.ar  1 <1>   0.0860 
  5 C       -3.4250    -1.0480    -1.3360 C.3   1 <1>   0.1400 
  6 C       -4.4620     1.1020    -0.6380 C.3   1 <1>   0.1400 
  7 C       -1.9460     3.0640    -1.5010 C.ar  1 <1>  -0.1500 
  8 C       -0.7870     2.6770     0.5450 C.ar  1 <1>  -0.1500 
  9 C       -3.9660    -1.7550    -0.0740 C.3   1 <1>   0.4230 
 10 C       -5.0420     0.4230     0.6110 C.3   1 <1>  -0.1600 
 11 C       -1.5610     4.3900    -1.4700 C.ar  1 <1>  -0.1500 
 12 C       -0.3950     4.0020     0.5840 C.ar  1 <1>  -0.1500 
 13 N       -4.0190    -3.2720    -0.1880 N.4   1 <1>  -0.9590 
 14 C       -5.2890    -1.1060     0.4380 C.3   1 <1>   0.0000 
 15 C       -0.7860     4.8730    -0.4280 C.ar  1 <1>   0.0830 
 16 C       -4.9010    -3.9320     0.8280 C.3   1 <1>   0.3430 
 17 C       -4.3180    -3.8090    -1.5560 C.3   1 <1>   0.2630 
 18 C       -5.6560    -1.7130     1.8250 C.3   1 <1>  -0.1600 
 19 C       -6.4360    -1.3540    -0.5830 C.3   1 <1>   0.1200 
 20 O       -0.4550     6.1820    -0.4680 O.3   1 <1>  -0.3630 
 21 C       -5.0070    -3.0850     2.0950 C.3   1 <1>  -0.1600 
 22 O       -7.5700    -0.6250    -0.2690 O.3   1 <1>  -0.6800 
 23 C        0.3530     6.7740     0.5240 C.3   1 <1>   0.1200 
 24 C        0.5420     8.2490     0.1690 C.3   1 <1>  -0.1600 
 25 C        1.4140     8.9660     1.2060 C.3   1 <1>  -0.2400 
 26 H       -4.1070    -1.1230    -2.1630 H     1 <1>   0.0800 
 27 H       -2.4860    -1.4870    -1.6270 H     1 <1>   0.0800 
 28 H       -4.2570     2.1370    -0.4200 H     1 <1>   0.0800 
 29 H       -5.1660     1.0690    -1.4530 H     1 <1>   0.0800 
 30 H       -2.5400     2.7090    -2.3250 H     1 <1>   0.1500 
 31 H       -0.4740     2.0090     1.3300 H     1 <1>   0.1500 
 32 H       -3.2360    -1.5410     0.6900 H     1 <1>   0.0800 
 33 H       -4.3450     0.5900     1.4150 H     1 <1>   0.0800 
 34 H       -5.9510     0.9280     0.8890 H     1 <1>   0.0800 
 35 H       -1.8550     5.0640    -2.2540 H     1 <1>   0.1500 
 36 H        0.2130     4.3380     1.4030 H     1 <1>   0.1500 
 37 H       -3.0570    -3.5670     0.0410 H     1 <1>   0.4500 
 38 H       -5.8910    -4.0620     0.4220 H     1 <1>   0.0800 
 39 H       -4.5120    -4.9080     1.0720 H     1 <1>   0.0800 
 40 H       -5.2960    -3.4950    -1.8800 H     1 <1>   0.0800 
 41 H       -4.2890    -4.8870    -1.5480 H     1 <1>   0.0800 
 42 H       -3.5880    -3.4590    -2.2680 H     1 <1>   0.0800 
 43 H       -5.3500    -1.0540     2.6200 H     1 <1>   0.0800 
 44 H       -6.7240    -1.8090     1.9160 H     1 <1>   0.0800 
 45 H       -6.7200    -2.3910    -0.6140 H     1 <1>   0.0800 
 46 H       -6.1520    -1.0520    -1.5750 H     1 <1>   0.0800 
 47 H       -5.5940    -3.6140     2.8270 H     1 <1>   0.0800 
 48 H       -4.0240    -2.9550     2.5150 H     1 <1>   0.0800 
 49 H       -7.9420    -0.8730     0.6010 H     1 <1>   0.4000 
 50 H       -0.1450     6.6720     1.4720 H     1 <1>   0.0800 
 51 H        1.2990     6.2620     0.5410 H     1 <1>   0.0800 
 52 H        1.0090     8.3220    -0.7990 H     1 <1>   0.0800 
 53 H       -0.4200     8.7280     0.1230 H     1 <1>   0.0800 
 54 H        2.3890     8.5130     1.2560 H     1 <1>   0.0800 
 55 H        0.9580     8.9200     2.1790 H     1 <1>   0.0800 
 56 H        1.5330    10.0000     0.9330 H     1 <1>   0.0800 
@<TRIPOS>BOND
  1   1   2  2   
  2   2   3  am  
  3   2   4  1   
  4   3   5  1   
  5   3   6  1   
  6   4   7  ar  
  7   4   8  ar  
  8   5   9  1   
  9   5  26  1   
 10   5  27  1   
 11   6  10  1   
 12   6  28  1   
 13   6  29  1   
 14   7  11  ar  
 15   7  30  1   
 16   8  12  ar  
 17   8  31  1   
 18   9  13  1   
 19   9  14  1   
 20   9  32  1   
 21  10  14  1   
 22  10  33  1   
 23  10  34  1   
 24  11  15  ar  
 25  11  35  1   
 26  12  15  ar  
 27  12  36  1   
 28  13  16  1   
 29  13  17  1   
 30  13  37  1   
 31  14  18  1   
 32  14  19  1   
 33  15  20  1   
 34  16  21  1   
 35  16  38  1   
 36  16  39  1   
 37  17  40  1   
 38  17  41  1   
 39  17  42  1   
 40  18  21  1   
 41  18  43  1   
 42  18  44  1   
 43  19  22  1   
 44  19  45  1   
 45  19  46  1   
 46  20  23  1   
 47  21  47  1   
 48  21  48  1   
 49  22  49  1   
 50  23  24  1   
 51  23  50  1   
 52  23  51  1   
 53  24  25  1   
 54  24  52  1   
 55  24  53  1   
 56  25  54  1   
 57  25  55  1   
 58  25  56  1   
@<TRIPOS>SUBSTRUCTURE
  1 ****   2 GROUP 4 **** **** 0

# MOE 2024.06 (io_trps.svl 2023.06)
