@<TRIPOS>MOLECULE
NONAME
40 42 1 0 0 
SMALL
USER_CHARGES


@<TRIPOS>ATOM
  1 F       -3.3510    -0.7230    -2.8740 F     1 <1>  -0.1900 
  2 C       -3.2190    -1.0980    -1.6260 C.ar  1 <1>   0.1900 
  3 C       -3.1520    -0.1410    -0.6190 C.ar  1 <1>   0.0820 
  4 C       -3.1590    -2.4540    -1.3700 C.ar  1 <1>  -0.1500 
  5 O       -3.2210     1.1760    -0.9560 O.3   1 <1>  -0.3630 
  6 C       -3.0160    -0.5920     0.6910 C.ar  1 <1>  -0.1500 
  7 C       -3.0350    -2.8920    -0.0590 C.ar  1 <1>  -0.1440 
  8 C       -3.0400     2.1920     0.0040 C.3   1 <1>   0.0400 
  9 C       -2.9590    -1.9500     0.9630 C.ar  1 <1>  -0.1500 
 10 C       -3.0000    -4.3900     0.2400 C.3   1 <1>   0.4610 
 11 N       -4.3510    -4.7740     0.7840 N.4   1 <1>  -0.8970 
 12 C       -1.8830    -4.8090     1.2200 C.2   1 <1>   0.9060 
 13 C       -4.5570    -6.2520     0.7950 C.3   1 <1>   0.4720 
 14 C       -5.5560    -4.6040    -0.0750 C.3   1 <1>   0.4720 
 15 O       -0.8600    -5.3360     0.7790 O.co2 1 <1>  -0.9000 
 16 O       -2.1460    -4.7360     2.4310 O.co2 1 <1>  -0.9000 
 17 C       -5.4090    -6.0910    -0.4890 C.3   1 <1>   0.1080 
 18 C       -6.7150    -6.8810    -0.5000 C.ar  1 <1>  -0.1080 
 19 C       -6.8070    -8.1560     0.0270 C.ar  1 <1>  -0.1500 
 20 C       -7.8740    -6.3680    -1.0540 C.ar  1 <1>  -0.1500 
 21 C       -8.0190    -8.8260    -0.0080 C.ar  1 <1>   0.1600 
 22 C       -9.0340    -7.1230    -1.0380 C.ar  1 <1>   0.1600 
 23 N       -9.1320    -8.3360    -0.5230 N.ar  1 <1>  -0.6200 
 24 H       -3.2060    -3.1430    -2.1950 H     1 <1>   0.1500 
 25 H       -2.9500     0.0960     1.5130 H     1 <1>   0.1500 
 26 H       -3.0910     3.1400    -0.5010 H     1 <1>   0.0800 
 27 H       -2.0730     2.0740     0.4610 H     1 <1>   0.0800 
 28 H       -3.8250     2.1270     0.7360 H     1 <1>   0.0800 
 29 H       -2.8450    -2.2700     1.9880 H     1 <1>   0.1500 
 30 H       -2.8130    -4.9200    -0.6760 H     1 <1>   0.0800 
 31 H       -4.3900    -4.4170     1.7510 H     1 <1>   0.4500 
 32 H       -5.1350    -6.5540     1.6510 H     1 <1>   0.0000 
 33 H       -3.6420    -6.8000     0.6560 H     1 <1>   0.0000 
 34 H       -5.3990    -3.9040    -0.8750 H     1 <1>   0.0000 
 35 H       -6.4310    -4.4150     0.5210 H     1 <1>   0.0000 
 36 H       -4.8310    -6.2140    -1.3880 H     1 <1>   0.0000 
 37 H       -5.9590    -8.6520     0.4630 H     1 <1>   0.1500 
 38 H       -7.9000    -5.3940    -1.5070 H     1 <1>   0.1500 
 39 H       -8.0750    -9.8190     0.4090 H     1 <1>   0.1500 
 40 H       -9.9310    -6.7110    -1.4730 H     1 <1>   0.1500 
@<TRIPOS>BOND
  1   1   2  1   
  2   2   3  ar  
  3   2   4  ar  
  4   3   5  1   
  5   3   6  ar  
  6   4   7  ar  
  7   4  24  1   
  8   5   8  1   
  9   6   9  ar  
 10   6  25  1   
 11   7   9  ar  
 12   7  10  1   
 13   8  26  1   
 14   8  27  1   
 15   8  28  1   
 16   9  29  1   
 17  10  11  1   
 18  10  12  1   
 19  10  30  1   
 20  11  13  1   
 21  11  14  1   
 22  11  31  1   
 23  12  15  ar  
 24  12  16  ar  
 25  13  17  1   
 26  13  32  1   
 27  13  33  1   
 28  14  17  1   
 29  14  34  1   
 30  14  35  1   
 31  17  18  1   
 32  17  36  1   
 33  18  19  ar  
 34  18  20  ar  
 35  19  21  ar  
 36  19  37  1   
 37  20  22  ar  
 38  20  38  1   
 39  21  23  ar  
 40  21  39  1   
 41  22  23  ar  
 42  22  40  1   
@<TRIPOS>SUBSTRUCTURE
  1 ****  11 GROUP 4 **** **** 0

# MOE 2024.06 (io_trps.svl 2023.06)
