@<TRIPOS>MOLECULE
NONAME
58 61 1 0 0 
SMALL
USER_CHARGES


@<TRIPOS>ATOM
  1 O        1.0880     0.5790    -2.4820 O.2   1 <1>  -0.5700 
  2 C        1.7240     0.8470    -1.4750 C.2   1 <1>   0.5440 
  3 N        1.6660     2.1350    -0.9910 N.am  1 <1>  -0.6600 
  4 C        2.4950    -0.1810    -0.8160 C.ar  1 <1>   0.0860 
  5 C        1.9860     2.5350     0.3980 C.3   1 <1>   0.1400 
  6 C        0.9020     3.2000    -1.6810 C.3   1 <1>   0.1400 
  7 C        1.9340    -1.4460    -0.5530 C.ar  1 <1>   0.4100 
  8 C        3.8100     0.0340    -0.4260 C.ar  1 <1>  -0.1500 
  9 C        1.1320     3.7720     0.6520 C.3   1 <1>  -0.1600 
 10 C        0.9350     4.3900    -0.7290 C.3   1 <1>  -0.1600 
 11 N        2.5720    -2.4380     0.0730 N.ar  1 <1>  -0.6200 
 12 N        0.6440    -1.7260    -0.9440 N.pl3 1 <1>  -0.8690 
 13 C        4.4750    -0.9870     0.2120 C.ar  1 <1>  -0.1500 
 14 C        3.8170    -2.1830     0.4370 C.ar  1 <1>   0.1600 
 15 C        0.1250    -3.1010    -1.1510 C.3   1 <1>   0.2090 
 16 C       -0.1850    -3.7780     0.2090 C.3   1 <1>   0.5660 
 17 N        0.1740    -5.2320     0.2840 N.4   1 <1>  -0.9590 
 18 C       -1.6240    -3.6020     0.6700 C.ar  1 <1>  -0.1430 
 19 C        1.6580    -5.3830     0.3480 C.3   1 <1>   0.3430 
 20 C       -0.4380    -6.0780    -0.7820 C.3   1 <1>   0.3430 
 21 C       -1.8340    -3.1820     1.9760 C.ar  1 <1>   0.1600 
 22 C       -2.7300    -3.8400    -0.1300 C.ar  1 <1>  -0.1500 
 23 C        2.0200    -6.8430     0.6220 C.3   1 <1>  -0.1600 
 24 C       -0.1100    -7.5500    -0.5220 C.3   1 <1>  -0.1600 
 25 N       -3.0160    -3.0120     2.5380 N.ar  1 <1>  -0.6200 
 26 C       -3.9710    -3.6540     0.4410 C.ar  1 <1>  -0.1500 
 27 C        1.4010    -7.7880    -0.4160 C.3   1 <1>  -0.1600 
 28 C       -4.0590    -3.2470     1.7600 C.ar  1 <1>   0.1600 
 29 H        3.0300     2.7890     0.4620 H     1 <1>   0.0800 
 30 H        1.7550     1.7500     1.0980 H     1 <1>   0.0800 
 31 H       -0.1110     2.8650    -1.8330 H     1 <1>   0.0800 
 32 H        1.3500     3.4350    -2.6320 H     1 <1>   0.0800 
 33 H        4.2920     0.9750    -0.6260 H     1 <1>   0.1500 
 34 H        1.6020     4.4500     1.3420 H     1 <1>   0.0800 
 35 H        0.1820     3.4640     1.0530 H     1 <1>   0.0800 
 36 H        0.0350     4.9760    -0.7930 H     1 <1>   0.0800 
 37 H        1.7770     5.0120    -0.9770 H     1 <1>   0.0800 
 38 H        0.2800    -1.0270    -1.6210 H     1 <1>   0.4000 
 39 H        5.4940    -0.8610     0.5330 H     1 <1>   0.1500 
 40 H        4.3570    -2.9670     0.9420 H     1 <1>   0.1500 
 41 H        0.8740    -3.6600    -1.6830 H     1 <1>   0.0800 
 42 H       -0.7570    -3.0500    -1.7640 H     1 <1>   0.0800 
 43 H        0.4340    -3.2670     0.9280 H     1 <1>   0.0800 
 44 H       -0.2030    -5.5640     1.1790 H     1 <1>   0.4500 
 45 H        2.0600    -4.7590     1.1300 H     1 <1>   0.0800 
 46 H        2.1000    -5.0700    -0.5840 H     1 <1>   0.0800 
 47 H       -0.0530    -5.7920    -1.7470 H     1 <1>   0.0800 
 48 H       -1.5090    -5.9540    -0.7870 H     1 <1>   0.0800 
 49 H       -0.9850    -2.9730     2.6070 H     1 <1>   0.1500 
 50 H       -2.6600    -4.1500    -1.1580 H     1 <1>   0.1500 
 51 H        1.6880    -7.1150     1.6100 H     1 <1>   0.0800 
 52 H        3.0910    -6.9480     0.6050 H     1 <1>   0.0800 
 53 H       -0.5080    -8.1450    -1.3260 H     1 <1>   0.0800 
 54 H       -0.5970    -7.8700     0.3830 H     1 <1>   0.0800 
 55 H       -4.8700    -3.8180    -0.1270 H     1 <1>   0.1500 
 56 H        1.5920    -8.8120    -0.1390 H     1 <1>   0.0800 
 57 H        1.8610    -7.6180    -1.3760 H     1 <1>   0.0800 
 58 H       -5.0340    -3.1060     2.1970 H     1 <1>   0.1500 
@<TRIPOS>BOND
  1   1   2  2   
  2   2   3  am  
  3   2   4  1   
  4   3   5  1   
  5   3   6  1   
  6   4   7  ar  
  7   4   8  ar  
  8   5   9  1   
  9   5  29  1   
 10   5  30  1   
 11   6  10  1   
 12   6  31  1   
 13   6  32  1   
 14   7  11  ar  
 15   7  12  1   
 16   8  13  ar  
 17   8  33  1   
 18   9  10  1   
 19   9  34  1   
 20   9  35  1   
 21  10  36  1   
 22  10  37  1   
 23  11  14  ar  
 24  12  15  1   
 25  12  38  1   
 26  13  14  ar  
 27  13  39  1   
 28  14  40  1   
 29  15  16  1   
 30  15  41  1   
 31  15  42  1   
 32  16  17  1   
 33  16  18  1   
 34  16  43  1   
 35  17  19  1   
 36  17  20  1   
 37  17  44  1   
 38  18  21  ar  
 39  18  22  ar  
 40  19  23  1   
 41  19  45  1   
 42  19  46  1   
 43  20  24  1   
 44  20  47  1   
 45  20  48  1   
 46  21  25  ar  
 47  21  49  1   
 48  22  26  ar  
 49  22  50  1   
 50  23  27  1   
 51  23  51  1   
 52  23  52  1   
 53  24  27  1   
 54  24  53  1   
 55  24  54  1   
 56  25  28  ar  
 57  26  28  ar  
 58  26  55  1   
 59  27  56  1   
 60  27  57  1   
 61  28  58  1   
@<TRIPOS>SUBSTRUCTURE
  1 ****  12 GROUP 4 **** **** 0

# MOE 2024.06 (io_trps.svl 2023.06)
