@<TRIPOS>MOLECULE
NONAME
46 47 1 0 0 
SMALL
USER_CHARGES


@<TRIPOS>ATOM
  1 O       -0.4510     0.3510     2.1990 O.co2 1 <1>  -0.9000 
  2 C       -0.9620    -0.1540     1.1940 C.2   1 <1>   0.9060 
  3 O       -0.3520    -0.8650     0.3960 O.co2 1 <1>  -0.9000 
  4 C       -2.4110     0.2240     0.8690 C.3   1 <1>   0.2370 
  5 N       -2.6190     1.6250     0.3020 N.4   1 <1>  -0.9590 
  6 C       -1.9420     2.6320     1.1700 C.3   1 <1>   0.4860 
  7 C       -4.0480     1.9550     0.0230 C.3   1 <1>   0.3430 
  8 C       -2.0210     3.9940     0.5000 C.ar  1 <1>  -0.1440 
  9 C       -4.6060     1.1310    -1.1410 C.3   1 <1>   0.1200 
 10 C       -1.4620     4.1910    -0.7590 C.ar  1 <1>   0.0830 
 11 C       -2.6590     5.0460     1.1400 C.ar  1 <1>  -0.1500 
 12 O       -5.9490     1.4560    -1.2880 O.3   1 <1>  -0.5600 
 13 O       -0.8620     3.1270    -1.3570 O.3   1 <1>  -0.3630 
 14 C       -1.5490     5.4370    -1.3700 C.ar  1 <1>  -0.1500 
 15 C       -2.7430     6.2890     0.5380 C.ar  1 <1>   0.0830 
 16 C       -6.5760     0.8220    -2.3580 C.3   1 <1>   0.0400 
 17 C        0.1340     3.3220    -2.3380 C.3   1 <1>   0.0400 
 18 C       -2.1820     6.4860    -0.7270 C.ar  1 <1>   0.0830 
 19 O       -3.4170     7.2550     1.2060 O.3   1 <1>  -0.3630 
 20 O       -2.2630     7.6620    -1.3930 O.3   1 <1>  -0.3630 
 21 C       -2.7350     8.4480     1.5140 C.3   1 <1>   0.1200 
 22 C       -1.7160     8.8100    -0.7910 C.3   1 <1>   0.1200 
 23 C       -2.6520     9.3560     0.2870 C.3   1 <1>  -0.1600 
 24 H       -2.9690     0.1180     1.7810 H     1 <1>   0.0800 
 25 H       -2.7670    -0.5080     0.1680 H     1 <1>   0.0800 
 26 H       -2.0690     1.6940    -0.5720 H     1 <1>   0.4500 
 27 H       -0.9020     2.3720     1.2970 H     1 <1>   0.0800 
 28 H       -2.4030     2.6580     2.1430 H     1 <1>   0.0800 
 29 H       -4.1360     2.9970    -0.2360 H     1 <1>   0.0800 
 30 H       -4.6400     1.7700     0.9030 H     1 <1>   0.0800 
 31 H       -4.5350     0.0770    -0.9380 H     1 <1>   0.0800 
 32 H       -4.0900     1.3770    -2.0530 H     1 <1>   0.0800 
 33 H       -3.1030     4.9180     2.1120 H     1 <1>   0.1500 
 34 H       -1.1440     5.6150    -2.3470 H     1 <1>   0.1500 
 35 H       -7.6040     1.1370    -2.3790 H     1 <1>   0.0800 
 36 H       -6.5280    -0.2450    -2.2210 H     1 <1>   0.0800 
 37 H       -6.0930     1.1090    -3.2770 H     1 <1>   0.0800 
 38 H        0.6070     2.3750    -2.5280 H     1 <1>   0.0800 
 39 H        0.8620     4.0220    -1.9650 H     1 <1>   0.0800 
 40 H       -0.3250     3.6880    -3.2390 H     1 <1>   0.0800 
 41 H       -1.7570     8.1990     1.8900 H     1 <1>   0.0800 
 42 H       -3.2940     8.9360     2.2930 H     1 <1>   0.0800 
 43 H       -1.5890     9.5410    -1.5700 H     1 <1>   0.0800 
 44 H       -0.7500     8.5590    -0.3880 H     1 <1>   0.0800 
 45 H       -2.2700    10.3080     0.6050 H     1 <1>   0.0800 
 46 H       -3.6340     9.5210    -0.1210 H     1 <1>   0.0800 
@<TRIPOS>BOND
  1   1   2  ar  
  2   2   3  ar  
  3   2   4  1   
  4   4   5  1   
  5   4  24  1   
  6   4  25  1   
  7   5   6  1   
  8   5   7  1   
  9   5  26  1   
 10   6   8  1   
 11   6  27  1   
 12   6  28  1   
 13   7   9  1   
 14   7  29  1   
 15   7  30  1   
 16   8  10  ar  
 17   8  11  ar  
 18   9  12  1   
 19   9  31  1   
 20   9  32  1   
 21  10  13  1   
 22  10  14  ar  
 23  11  15  ar  
 24  11  33  1   
 25  12  16  1   
 26  13  17  1   
 27  14  18  ar  
 28  14  34  1   
 29  15  18  ar  
 30  15  19  1   
 31  16  35  1   
 32  16  36  1   
 33  16  37  1   
 34  17  38  1   
 35  17  39  1   
 36  17  40  1   
 37  18  20  1   
 38  19  21  1   
 39  20  22  1   
 40  21  23  1   
 41  21  41  1   
 42  21  42  1   
 43  22  23  1   
 44  22  43  1   
 45  22  44  1   
 46  23  45  1   
 47  23  46  1   
@<TRIPOS>SUBSTRUCTURE
  1 ****   8 GROUP 4 **** **** 0

# MOE 2024.06 (io_trps.svl 2023.06)
