@<TRIPOS>MOLECULE
NONAME
54 56 1 0 0 
SMALL
USER_CHARGES


@<TRIPOS>ATOM
  1 F       -2.3880    -1.3840    -1.9540 F     1 <1>  -0.3400 
  2 C       -2.7020    -0.6270    -0.9160 C.3   1 <1>   0.8800 
  3 F       -2.8310    -1.4660     0.1070 F     1 <1>  -0.3400 
  4 O       -3.9780    -0.0830    -1.1710 O.3   1 <1>  -0.3630 
  5 C       -4.4140     0.8400    -0.2910 C.ar  1 <1>   0.0820 
  6 C       -5.3180     0.4900     0.7110 C.ar  1 <1>  -0.1440 
  7 C       -3.9640     2.1450    -0.4140 C.ar  1 <1>  -0.1500 
  8 C       -5.7360     1.4650     1.6050 C.ar  1 <1>  -0.1500 
  9 C       -5.8440    -0.9300     0.8630 C.3   1 <1>   0.4870 
 10 C       -4.3950     3.1080     0.4790 C.ar  1 <1>  -0.1500 
 11 C       -5.2770     2.7670     1.4890 C.ar  1 <1>  -0.1500 
 12 N       -6.3190    -1.4590    -0.4520 N.4   1 <1>  -0.9590 
 13 C       -7.7270    -1.1890    -0.8640 C.3   1 <1>   0.4230 
 14 C       -5.9880    -2.9110    -0.5680 C.3   1 <1>   0.2630 
 15 C       -8.0630     0.2860    -1.0650 C.3   1 <1>  -0.1600 
 16 C       -8.7920    -1.6830     0.1160 C.3   1 <1>  -0.1600 
 17 C       -9.5980     0.3210    -1.0700 C.3   1 <1>  -0.0800 
 18 C      -10.0610    -0.9180    -0.2960 C.3   1 <1>  -0.0800 
 19 C      -10.2370     1.5270    -0.3620 C.3   1 <1>  -0.1600 
 20 C      -10.9270    -0.3880     0.8580 C.3   1 <1>  -0.1600 
 21 C      -11.4550     0.9740     0.3890 C.3   1 <1>   0.4230 
 22 N      -12.6270     0.8140    -0.5330 N.4   1 <1>  -0.9590 
 23 C      -13.1000     2.1240    -1.0920 C.3   1 <1>   0.2630 
 24 C      -13.7970     0.1430     0.1250 C.3   1 <1>   0.2630 
 25 H       -1.9360     0.1050    -0.7260 H     1 <1>   0.0800 
 26 H       -3.2840     2.4170    -1.2030 H     1 <1>   0.1500 
 27 H       -6.4190     1.2300     2.4040 H     1 <1>   0.1500 
 28 H       -6.6320    -0.9590     1.5930 H     1 <1>   0.0800 
 29 H       -5.0350    -1.5420     1.2270 H     1 <1>   0.0800 
 30 H       -4.0460     4.1240     0.3910 H     1 <1>   0.1500 
 31 H       -5.6040     3.5200     2.1870 H     1 <1>   0.1500 
 32 H       -5.7160    -0.9620    -1.1320 H     1 <1>   0.4500 
 33 H       -7.9040    -1.6800    -1.8080 H     1 <1>   0.0800 
 34 H       -6.5550    -3.4860     0.1460 H     1 <1>   0.0800 
 35 H       -4.9370    -3.0710    -0.3840 H     1 <1>   0.0800 
 36 H       -6.2150    -3.2700    -1.5590 H     1 <1>   0.0800 
 37 H       -7.6960     0.8750    -0.2480 H     1 <1>   0.0800 
 38 H       -7.6580     0.6630    -1.9880 H     1 <1>   0.0800 
 39 H       -8.9410    -2.7450     0.0340 H     1 <1>   0.0800 
 40 H       -8.5260    -1.4350     1.1260 H     1 <1>   0.0800 
 41 H       -9.9590     0.2540    -2.0850 H     1 <1>   0.0800 
 42 H      -10.6590    -1.5330    -0.9500 H     1 <1>   0.0800 
 43 H      -10.4520     2.3310    -1.0400 H     1 <1>   0.0800 
 44 H       -9.5590     1.9140     0.3800 H     1 <1>   0.0800 
 45 H      -10.3080    -0.2040     1.7200 H     1 <1>   0.0800 
 46 H      -11.6850    -1.0860     1.1570 H     1 <1>   0.0800 
 47 H      -11.7220     1.6030     1.2250 H     1 <1>   0.0800 
 48 H      -12.3130     0.2250    -1.3160 H     1 <1>   0.4500 
 49 H      -13.3650     2.7980    -0.2940 H     1 <1>   0.0800 
 50 H      -13.9680     1.9720    -1.7140 H     1 <1>   0.0800 
 51 H      -12.3350     2.5840    -1.6950 H     1 <1>   0.0800 
 52 H      -14.1020     0.6940     0.9990 H     1 <1>   0.0800 
 53 H      -13.5470    -0.8620     0.4190 H     1 <1>   0.0800 
 54 H      -14.6300     0.0940    -0.5580 H     1 <1>   0.0800 
@<TRIPOS>BOND
  1   1   2  1   
  2   2   3  1   
  3   2   4  1   
  4   2  25  1   
  5   4   5  1   
  6   5   6  ar  
  7   5   7  ar  
  8   6   8  ar  
  9   6   9  1   
 10   7  10  ar  
 11   7  26  1   
 12   8  11  ar  
 13   8  27  1   
 14   9  12  1   
 15   9  28  1   
 16   9  29  1   
 17  10  11  ar  
 18  10  30  1   
 19  11  31  1   
 20  12  13  1   
 21  12  14  1   
 22  12  32  1   
 23  13  15  1   
 24  13  16  1   
 25  13  33  1   
 26  14  34  1   
 27  14  35  1   
 28  14  36  1   
 29  15  17  1   
 30  15  37  1   
 31  15  38  1   
 32  16  18  1   
 33  16  39  1   
 34  16  40  1   
 35  17  18  1   
 36  17  19  1   
 37  17  41  1   
 38  18  20  1   
 39  18  42  1   
 40  19  21  1   
 41  19  43  1   
 42  19  44  1   
 43  20  21  1   
 44  20  45  1   
 45  20  46  1   
 46  21  22  1   
 47  21  47  1   
 48  22  23  1   
 49  22  24  1   
 50  22  48  1   
 51  23  49  1   
 52  23  50  1   
 53  23  51  1   
 54  24  52  1   
 55  24  53  1   
 56  24  54  1   
@<TRIPOS>SUBSTRUCTURE
  1 ****  15 GROUP 4 **** **** 0

# MOE 2024.06 (io_trps.svl 2023.06)
