@<TRIPOS>MOLECULE
NONAME
38 38 1 0 0 
SMALL
USER_CHARGES


@<TRIPOS>ATOM
  1 S       -0.2850     0.7320     0.6240 S.3   1 <1>  -0.4600 
  2 C        1.4900     1.0110     0.3970 C.3   1 <1>   0.0700 
  3 C       -0.3940    -1.0660     0.8240 C.3   1 <1>  -0.0100 
  4 C        1.6890     2.5060     0.1340 C.3   1 <1>  -0.1600 
  5 C        3.1640     2.9230     0.0420 C.3   1 <1>   0.2890 
  6 N        3.1850     4.3960    -0.1330 N.pl3 1 <1>  -0.8690 
  7 C        3.9310     2.2670    -1.1260 C.3   1 <1>   0.1200 
  8 C        4.1200     5.2600     0.3150 C.ar  1 <1>   0.4100 
  9 O        4.2650     0.9470    -0.8360 O.3   1 <1>  -0.6800 
 10 N        5.1940     4.7450     0.8830 N.ar  1 <1>  -0.6200 
 11 C        3.9370     6.6580     0.1620 C.ar  1 <1>  -0.1440 
 12 C        6.1090     5.5800     1.3220 C.ar  1 <1>   0.7710 
 13 C        4.9160     7.4760     0.6320 C.ar  1 <1>   0.2110 
 14 C        2.6610     7.1780    -0.5130 C.3   1 <1>  -0.0170 
 15 N        6.0030     6.9140     1.2130 N.ar  1 <1>  -0.1790 
 16 N        7.1810     5.0380     1.8940 N.pl3 1 <1>  -0.9000 
 17 C        2.5580     8.7050    -0.6260 C.3   1 <1>  -0.2400 
 18 H        1.9850     0.6900     1.2960 H     1 <1>   0.0800 
 19 H        1.8010     0.4080    -0.4380 H     1 <1>   0.0800 
 20 H       -1.4320    -1.3170     0.9550 H     1 <1>   0.0800 
 21 H        0.1790    -1.3400     1.6910 H     1 <1>   0.0800 
 22 H        0.0020    -1.5240    -0.0640 H     1 <1>   0.0800 
 23 H        1.1830     2.7580    -0.7810 H     1 <1>   0.0800 
 24 H        1.2300     3.0490     0.9420 H     1 <1>   0.0800 
 25 H        3.6610     2.6790     0.9660 H     1 <1>   0.0800 
 26 H        2.3500     4.7470    -0.6080 H     1 <1>   0.4000 
 27 H        4.8460     2.7990    -1.3170 H     1 <1>   0.0800 
 28 H        3.3270     2.2680    -2.0160 H     1 <1>   0.0800 
 29 H        5.0110     0.9080    -0.2050 H     1 <1>   0.4000 
 30 H        4.8760     8.5510     0.5670 H     1 <1>   0.1500 
 31 H        2.5980     6.7640    -1.5050 H     1 <1>   0.0800 
 32 H        1.8060     6.8240     0.0400 H     1 <1>   0.0800 
 33 H        6.7670     7.4710     1.5840 H     1 <1>   0.4570 
 34 H        7.9990     5.4990     2.2970 H     1 <1>   0.4000 
 35 H        7.2130     4.0160     1.9590 H     1 <1>   0.4000 
 36 H        3.3630     9.1030    -1.2180 H     1 <1>   0.0800 
 37 H        2.5610     9.1640     0.3470 H     1 <1>   0.0800 
 38 H        1.6330     8.9660    -1.1100 H     1 <1>   0.0800 
@<TRIPOS>BOND
  1   1   2  1   
  2   1   3  1   
  3   2   4  1   
  4   2  18  1   
  5   2  19  1   
  6   3  20  1   
  7   3  21  1   
  8   3  22  1   
  9   4   5  1   
 10   4  23  1   
 11   4  24  1   
 12   5   6  1   
 13   5   7  1   
 14   5  25  1   
 15   6   8  1   
 16   6  26  1   
 17   7   9  1   
 18   7  27  1   
 19   7  28  1   
 20   8  10  ar  
 21   8  11  ar  
 22   9  29  1   
 23  10  12  ar  
 24  11  13  ar  
 25  11  14  1   
 26  12  15  ar  
 27  12  16  1   
 28  13  15  ar  
 29  13  30  1   
 30  14  17  1   
 31  14  31  1   
 32  14  32  1   
 33  15  33  1   
 34  16  34  1   
 35  16  35  1   
 36  17  36  1   
 37  17  37  1   
 38  17  38  1   
@<TRIPOS>SUBSTRUCTURE
  1 ****   6 GROUP 4 **** **** 0

# MOE 2024.06 (io_trps.svl 2023.06)
