@<TRIPOS>MOLECULE
NONAME
59 61 1 0 0 
SMALL
USER_CHARGES


@<TRIPOS>ATOM
  1 O        0.0490     0.6950     2.6300 O.2   1 <1>  -0.5700 
  2 C       -0.6990     1.4950     2.1140 C.2   1 <1>   0.5690 
  3 N       -2.0200     1.1830     1.8640 N.am  1 <1>  -0.6600 
  4 C       -0.0980     2.8570     1.7720 C.3   1 <1>   0.0440 
  5 C       -2.9650     2.1330     1.2000 C.3   1 <1>   0.2200 
  6 C       -2.5350    -0.1760     2.2210 C.3   1 <1>   0.0600 
  7 C       -0.0820     3.1560     0.2700 C.ar  1 <1>  -0.1440 
  8 C       -4.3620     2.2000     1.8170 C.3   1 <1>  -0.1600 
  9 C       -3.2200     1.7750    -0.2610 C.3   1 <1>  -0.1600 
 10 C       -0.6220     4.3280    -0.2580 C.ar  1 <1>   0.0820 
 11 C        0.4880     2.2260    -0.5860 C.ar  1 <1>  -0.1500 
 12 C       -5.2190     2.8290     0.7080 C.3   1 <1>  -0.0800 
 13 C       -4.4950     2.5480    -0.6150 C.3   1 <1>  -0.0800 
 14 O       -1.1690     5.2320     0.5950 O.3   1 <1>  -0.3630 
 15 C       -0.6000     4.5400    -1.6320 C.ar  1 <1>  -0.1500 
 16 C        0.5100     2.4400    -1.9530 C.ar  1 <1>  -0.1500 
 17 C       -6.6290     2.2430     0.5430 C.3   1 <1>  -0.1600 
 18 C       -5.5000     1.7900    -1.4920 C.3   1 <1>  -0.1600 
 19 C       -1.2150     6.6010     0.2510 C.3   1 <1>   0.0400 
 20 C       -0.0420     3.6020    -2.4820 C.ar  1 <1>   0.0820 
 21 C       -6.8790     2.2030    -0.9690 C.3   1 <1>   0.4230 
 22 O       -0.0750     3.8860    -3.8080 O.3   1 <1>  -0.3630 
 23 N       -7.2550     3.5620    -1.4800 N.4   1 <1>  -0.9590 
 24 C        0.5570     3.0470    -4.7500 C.3   1 <1>   0.0400 
 25 C       -8.5430     4.0620    -0.8990 C.3   1 <1>   0.2630 
 26 C       -7.3570     3.6140    -2.9750 C.3   1 <1>   0.2630 
 27 H       -0.6330     3.6030     2.3260 H     1 <1>   0.0800 
 28 H        0.9160     2.8790     2.1270 H     1 <1>   0.0800 
 29 H       -2.5700     3.1310     1.2340 H     1 <1>   0.0800 
 30 H       -3.1980    -0.5440     1.4610 H     1 <1>   0.0800 
 31 H       -3.0600    -0.1270     3.1590 H     1 <1>   0.0800 
 32 H       -1.7250    -0.8770     2.3220 H     1 <1>   0.0800 
 33 H       -4.7240     1.2170     2.0490 H     1 <1>   0.0800 
 34 H       -4.3630     2.8020     2.7090 H     1 <1>   0.0800 
 35 H       -2.3990     2.0690    -0.8900 H     1 <1>   0.0800 
 36 H       -3.3720     0.7160    -0.3580 H     1 <1>   0.0800 
 37 H        0.9160     1.3200    -0.1880 H     1 <1>   0.1500 
 38 H       -5.2680     3.8960     0.8560 H     1 <1>   0.0800 
 39 H       -4.2250     3.4860    -1.0730 H     1 <1>   0.0800 
 40 H       -1.0160     5.4250    -2.0700 H     1 <1>   0.1500 
 41 H        0.9550     1.6940    -2.5820 H     1 <1>   0.1500 
 42 H       -7.3640     2.7810     1.1110 H     1 <1>   0.0800 
 43 H       -6.6380     1.2260     0.8930 H     1 <1>   0.0800 
 44 H       -5.3980     0.7330    -1.3210 H     1 <1>   0.0800 
 45 H       -5.3380     1.9580    -2.5400 H     1 <1>   0.0800 
 46 H       -1.4800     7.1580     1.1310 H     1 <1>   0.0800 
 47 H       -1.9570     6.7480    -0.5120 H     1 <1>   0.0800 
 48 H       -0.2420     6.9060    -0.0950 H     1 <1>   0.0800 
 49 H       -7.6350     1.4780    -1.2290 H     1 <1>   0.0800 
 50 H       -6.4950     4.1920    -1.1850 H     1 <1>   0.4500 
 51 H        0.4370     3.4870    -5.7230 H     1 <1>   0.0800 
 52 H        0.0900     2.0790    -4.7260 H     1 <1>   0.0800 
 53 H        1.6030     2.9770    -4.5080 H     1 <1>   0.0800 
 54 H       -9.3440     3.3730    -1.1130 H     1 <1>   0.0800 
 55 H       -8.7940     5.0220    -1.3200 H     1 <1>   0.0800 
 56 H       -8.4630     4.1770     0.1690 H     1 <1>   0.0800 
 57 H       -8.0730     2.8890    -3.3270 H     1 <1>   0.0800 
 58 H       -6.4030     3.4080    -3.4300 H     1 <1>   0.0800 
 59 H       -7.6740     4.5940    -3.2930 H     1 <1>   0.0800 
@<TRIPOS>BOND
  1   1   2  2   
  2   2   3  am  
  3   2   4  1   
  4   3   5  1   
  5   3   6  1   
  6   4   7  1   
  7   4  27  1   
  8   4  28  1   
  9   5   8  1   
 10   5   9  1   
 11   5  29  1   
 12   6  30  1   
 13   6  31  1   
 14   6  32  1   
 15   7  10  ar  
 16   7  11  ar  
 17   8  12  1   
 18   8  33  1   
 19   8  34  1   
 20   9  13  1   
 21   9  35  1   
 22   9  36  1   
 23  10  14  1   
 24  10  15  ar  
 25  11  16  ar  
 26  11  37  1   
 27  12  13  1   
 28  12  17  1   
 29  12  38  1   
 30  13  18  1   
 31  13  39  1   
 32  14  19  1   
 33  15  20  ar  
 34  15  40  1   
 35  16  20  ar  
 36  16  41  1   
 37  17  21  1   
 38  17  42  1   
 39  17  43  1   
 40  18  21  1   
 41  18  44  1   
 42  18  45  1   
 43  19  46  1   
 44  19  47  1   
 45  19  48  1   
 46  20  22  1   
 47  21  23  1   
 48  21  49  1   
 49  22  24  1   
 50  23  25  1   
 51  23  26  1   
 52  23  50  1   
 53  24  51  1   
 54  24  52  1   
 55  24  53  1   
 56  25  54  1   
 57  25  55  1   
 58  25  56  1   
 59  26  57  1   
 60  26  58  1   
 61  26  59  1   
@<TRIPOS>SUBSTRUCTURE
  1 ****   9 GROUP 4 **** **** 0

# MOE 2024.06 (io_trps.svl 2023.06)
