@<TRIPOS>MOLECULE
NONAME
48 50 1 0 0 
SMALL
USER_CHARGES


@<TRIPOS>ATOM
  1 O        1.4690     0.1300     1.4290 O.3   1 <1>  -0.6800 
  2 C        1.4070    -0.0270     0.0460 C.3   1 <1>   0.2000 
  3 C        2.0810    -1.3370    -0.3590 C.3   1 <1>  -0.0800 
  4 C        2.3260     1.0140    -0.5970 C.3   1 <1>   0.3430 
  5 C        3.5810    -1.0170    -0.3230 C.3   1 <1>   0.3430 
  6 C        1.7100    -2.5840     0.4660 C.3   1 <1>  -0.0170 
  7 N        3.7180     0.4690    -0.4500 N.4   1 <1>  -0.9590 
  8 C        2.5650    -3.7660     0.0360 C.ar  1 <1>  -0.1440 
  9 C        4.3870     1.0360     0.7580 C.3   1 <1>   0.4860 
 10 C        3.5790    -4.2620     0.8320 C.ar  1 <1>  -0.1500 
 11 C        2.3750    -4.3990    -1.1770 C.ar  1 <1>  -0.1500 
 12 C        4.5550     2.5300     0.5870 C.ar  1 <1>  -0.1440 
 13 C        4.3460    -5.3230     0.3800 C.ar  1 <1>   0.1600 
 14 C        3.2000    -5.4530    -1.5350 C.ar  1 <1>   0.1600 
 15 C        5.5330     3.0380    -0.2520 C.ar  1 <1>   0.1600 
 16 C        3.7360     3.4150     1.2640 C.ar  1 <1>  -0.1500 
 17 N        4.1870    -5.9190    -0.7890 N.ar  1 <1>  -0.6200 
 18 N        5.7350     4.3180    -0.4880 N.ar  1 <1>  -0.6200 
 19 C        3.9470     4.7540     1.0350 C.ar  1 <1>  -0.1500 
 20 C        4.9430     5.1700     0.1550 C.ar  1 <1>   0.4100 
 21 N        5.1350     6.5190    -0.0770 N.pl3 1 <1>  -0.8380 
 22 C        6.4950     7.0100    -0.4290 C.3   1 <1>   0.1290 
 23 C        4.0250     7.3170    -0.6600 C.3   1 <1>   0.1290 
 24 H        0.7030    -0.3000     1.8680 H     1 <1>   0.4000 
 25 H        0.3830     0.0650    -0.2780 H     1 <1>   0.0800 
 26 H        1.8270    -1.5330    -1.3870 H     1 <1>   0.0800 
 27 H        2.2050     1.9800    -0.1360 H     1 <1>   0.0800 
 28 H        2.0830     1.0950    -1.6430 H     1 <1>   0.0800 
 29 H        4.0950    -1.5310    -1.1200 H     1 <1>   0.0800 
 30 H        3.9890    -1.3460     0.6190 H     1 <1>   0.0800 
 31 H        0.6710    -2.8250     0.3220 H     1 <1>   0.0800 
 32 H        1.8610    -2.4080     1.5170 H     1 <1>   0.0800 
 33 H        4.2710     0.7250    -1.2770 H     1 <1>   0.4500 
 34 H        3.7930     0.8380     1.6360 H     1 <1>   0.0800 
 35 H        5.3550     0.5820     0.8930 H     1 <1>   0.0800 
 36 H        3.7830    -3.8450     1.8010 H     1 <1>   0.1500 
 37 H        1.5940    -4.0940    -1.8500 H     1 <1>   0.1500 
 38 H        5.1310    -5.7030     1.0120 H     1 <1>   0.1500 
 39 H        3.0400    -5.9390    -2.4830 H     1 <1>   0.1500 
 40 H        6.1930     2.3620    -0.7680 H     1 <1>   0.1500 
 41 H        2.9670     3.0880     1.9460 H     1 <1>   0.1500 
 42 H        3.3600     5.5020     1.5330 H     1 <1>   0.1500 
 43 H        6.5910     8.0490    -0.1670 H     1 <1>   0.0800 
 44 H        6.6660     6.8880    -1.4840 H     1 <1>   0.0800 
 45 H        7.2380     6.4480     0.1110 H     1 <1>   0.0800 
 46 H        3.9420     8.2550    -0.1380 H     1 <1>   0.0800 
 47 H        3.0920     6.7890    -0.5750 H     1 <1>   0.0800 
 48 H        4.2190     7.5070    -1.7010 H     1 <1>   0.0800 
@<TRIPOS>BOND
  1   1   2  1   
  2   1  24  1   
  3   2   3  1   
  4   2   4  1   
  5   2  25  1   
  6   3   5  1   
  7   3   6  1   
  8   3  26  1   
  9   4   7  1   
 10   4  27  1   
 11   4  28  1   
 12   5   7  1   
 13   5  29  1   
 14   5  30  1   
 15   6   8  1   
 16   6  31  1   
 17   6  32  1   
 18   7   9  1   
 19   7  33  1   
 20   8  10  ar  
 21   8  11  ar  
 22   9  12  1   
 23   9  34  1   
 24   9  35  1   
 25  10  13  ar  
 26  10  36  1   
 27  11  14  ar  
 28  11  37  1   
 29  12  15  ar  
 30  12  16  ar  
 31  13  17  ar  
 32  13  38  1   
 33  14  17  ar  
 34  14  39  1   
 35  15  18  ar  
 36  15  40  1   
 37  16  19  ar  
 38  16  41  1   
 39  18  20  ar  
 40  19  20  ar  
 41  19  42  1   
 42  20  21  1   
 43  21  22  1   
 44  21  23  1   
 45  22  43  1   
 46  22  44  1   
 47  22  45  1   
 48  23  46  1   
 49  23  47  1   
 50  23  48  1   
@<TRIPOS>SUBSTRUCTURE
  1 ****   7 GROUP 4 **** **** 0

# MOE 2024.06 (io_trps.svl 2023.06)
