@<TRIPOS>MOLECULE
NONAME
54 58 1 0 0 
SMALL
USER_CHARGES


@<TRIPOS>ATOM
  1 O       -0.9810    -0.1420    -0.3560 O.2   1 <1>  -0.5700 
  2 C       -0.9630    -1.2230     0.1960 C.2   1 <1>   0.5440 
  3 N       -2.0320    -1.5020     0.9740 N.am  1 <1>  -0.8000 
  4 C        0.1480    -2.1370     0.0380 C.ar  1 <1>   0.0860 
  5 C        0.0240    -3.5400     0.1630 C.ar  1 <1>   0.4100 
  6 C        1.4120    -1.6310    -0.2360 C.ar  1 <1>  -0.1500 
  7 N        1.0550    -4.3820     0.0760 N.ar  1 <1>  -0.6200 
  8 N       -1.2010    -4.1590     0.3550 N.pl3 1 <1>  -0.8380 
  9 C        2.4680    -2.5050    -0.3420 C.ar  1 <1>  -0.1500 
 10 C        2.2360    -3.8560    -0.1720 C.ar  1 <1>   0.1600 
 11 C       -1.3100    -5.3620     1.2500 C.3   1 <1>   0.2090 
 12 C       -2.1550    -4.2060    -0.8040 C.3   1 <1>   0.2090 
 13 C       -1.2460    -6.6890     0.4660 C.3   1 <1>   0.2090 
 14 C       -2.1140    -5.5550    -1.5550 C.3   1 <1>   0.2090 
 15 N       -2.2540    -6.7270    -0.6350 N.pl3 1 <1>  -0.8380 
 16 C       -3.5130    -7.1860    -0.3270 C.ar  1 <1>   0.4100 
 17 N       -4.4540    -6.2980    -0.0880 N.ar  1 <1>  -0.6200 
 18 C       -3.7910    -8.5340    -0.2490 C.ar  1 <1>  -0.1430 
 19 C       -5.6650    -6.7600     0.2340 C.ar  1 <1>   0.6200 
 20 C       -5.0510    -8.9020     0.0790 C.ar  1 <1>   0.1670 
 21 C       -2.8960    -9.7260    -0.4830 C.3   1 <1>  -0.0170 
 22 N       -6.0130    -8.0480     0.3310 N.ar  1 <1>  -0.6200 
 23 C       -6.6940    -5.7660     0.5070 C.ar  1 <1>   0.0000 
 24 C       -5.2040   -10.3990     0.1180 C.3   1 <1>  -0.0170 
 25 C       -3.8740   -10.9170    -0.4680 C.3   1 <1>  -0.1600 
 26 C       -8.0390    -6.0030     0.2110 C.ar  1 <1>  -0.1500 
 27 C       -6.3820    -4.5280     1.0760 C.ar  1 <1>  -0.1500 
 28 C       -9.0170    -5.0590     0.4650 C.ar  1 <1>  -0.1500 
 29 C       -7.3550    -3.5790     1.3330 C.ar  1 <1>  -0.1500 
 30 C       -8.6770    -3.8430     1.0270 C.ar  1 <1>  -0.1500 
 31 H       -2.8240    -0.8620     0.9970 H     1 <1>   0.3700 
 32 H       -2.1850    -2.4750     1.2640 H     1 <1>   0.3700 
 33 H        1.5570    -0.5700    -0.3570 H     1 <1>   0.1500 
 34 H        3.4600    -2.1470    -0.5500 H     1 <1>   0.1500 
 35 H        3.0680    -4.5360    -0.2480 H     1 <1>   0.1500 
 36 H       -2.2460    -5.3200     1.7790 H     1 <1>   0.0800 
 37 H       -0.5190    -5.3430     1.9780 H     1 <1>   0.0800 
 38 H       -1.9250    -3.4180    -1.4990 H     1 <1>   0.0800 
 39 H       -3.1540    -4.0380    -0.4440 H     1 <1>   0.0800 
 40 H       -1.4190    -7.5060     1.1440 H     1 <1>   0.0800 
 41 H       -0.2610    -6.8050     0.0500 H     1 <1>   0.0800 
 42 H       -1.1770    -5.6320    -2.0790 H     1 <1>   0.0800 
 43 H       -2.9040    -5.5770    -2.2850 H     1 <1>   0.0800 
 44 H       -2.1810    -9.8040     0.3170 H     1 <1>   0.0800 
 45 H       -2.3810    -9.6430    -1.4240 H     1 <1>   0.0800 
 46 H       -6.0460   -10.7130    -0.4720 H     1 <1>   0.0800 
 47 H       -5.3310   -10.7180     1.1370 H     1 <1>   0.0800 
 48 H       -3.4840   -11.7410     0.1030 H     1 <1>   0.0800 
 49 H       -4.0410   -11.2420    -1.4800 H     1 <1>   0.0800 
 50 H       -8.3200    -6.9450    -0.2270 H     1 <1>   0.1500 
 51 H       -5.3580    -4.3080     1.3220 H     1 <1>   0.1500 
 52 H      -10.0440    -5.2730     0.2250 H     1 <1>   0.1500 
 53 H       -7.0840    -2.6340     1.7720 H     1 <1>   0.1500 
 54 H       -9.4360    -3.1070     1.2260 H     1 <1>   0.1500 
@<TRIPOS>BOND
  1   1   2  2   
  2   2   3  am  
  3   2   4  1   
  4   3  31  1   
  5   3  32  1   
  6   4   5  ar  
  7   4   6  ar  
  8   5   7  ar  
  9   5   8  1   
 10   6   9  ar  
 11   6  33  1   
 12   7  10  ar  
 13   8  11  1   
 14   8  12  1   
 15   9  10  ar  
 16   9  34  1   
 17  10  35  1   
 18  11  13  1   
 19  11  36  1   
 20  11  37  1   
 21  12  14  1   
 22  12  38  1   
 23  12  39  1   
 24  13  15  1   
 25  13  40  1   
 26  13  41  1   
 27  14  15  1   
 28  14  42  1   
 29  14  43  1   
 30  15  16  1   
 31  16  17  ar  
 32  16  18  ar  
 33  17  19  ar  
 34  18  20  ar  
 35  18  21  1   
 36  19  22  ar  
 37  19  23  1   
 38  20  22  ar  
 39  20  24  1   
 40  21  25  1   
 41  21  44  1   
 42  21  45  1   
 43  23  26  ar  
 44  23  27  ar  
 45  24  25  1   
 46  24  46  1   
 47  24  47  1   
 48  25  48  1   
 49  25  49  1   
 50  26  28  ar  
 51  26  50  1   
 52  27  29  ar  
 53  27  51  1   
 54  28  30  ar  
 55  28  52  1   
 56  29  30  ar  
 57  29  53  1   
 58  30  54  1   
@<TRIPOS>SUBSTRUCTURE
  1 ****  17 GROUP 4 **** **** 0

# MOE 2024.06 (io_trps.svl 2023.06)
