@<TRIPOS>MOLECULE
NONAME
48 49 1 0 0 
SMALL
USER_CHARGES


@<TRIPOS>ATOM
  1 S        0.7270     0.6310     0.0380 S.o2  1 <1>   1.3330 
  2 O        0.3970     0.4540     1.4350 O.2   1 <1>  -0.6500 
  3 O        0.3770    -0.4050    -0.9060 O.2   1 <1>  -0.6500 
  4 N        2.4050     0.8670    -0.0650 N.am  1 <1>  -0.8490 
  5 C        0.0540     2.1720    -0.5930 C.3   1 <1>  -0.0550 
  6 C        2.9320     1.7710     0.9690 C.3   1 <1>   0.1160 
  7 C        3.1320    -0.4040    -0.0180 C.3   1 <1>   0.1160 
  8 C       -0.9950     2.8590     0.3110 C.3   1 <1>  -0.0800 
  9 C       -1.5710     4.0830    -0.4050 C.3   1 <1>   0.2000 
 10 C       -0.3440     3.4760     1.5550 C.3   1 <1>   0.1400 
 11 O       -2.7560     4.4340     0.2200 O.3   1 <1>  -0.6800 
 12 C       -0.5380     5.1880    -0.1620 C.3   1 <1>   0.1400 
 13 N        0.1740     4.7820     1.0810 N.am  1 <1>  -0.6600 
 14 C        1.4160     5.2490     1.4490 C.2   1 <1>   0.5440 
 15 O        1.9350     4.7950     2.4520 O.2   1 <1>  -0.5700 
 16 C        2.1080     6.2510     0.6710 C.ar  1 <1>   0.0860 
 17 C        2.7610     5.9210    -0.5220 C.ar  1 <1>   0.0820 
 18 C        2.1460     7.5750     1.1030 C.ar  1 <1>  -0.1500 
 19 O        2.7210     4.6270    -0.9270 O.3   1 <1>  -0.3630 
 20 C        3.4180     6.9070    -1.2530 C.ar  1 <1>  -0.1500 
 21 C        2.7970     8.5560     0.3770 C.ar  1 <1>  -0.1440 
 22 C        3.5500     4.1240    -1.9520 C.3   1 <1>   0.0400 
 23 C        3.4330     8.2150    -0.8050 C.ar  1 <1>  -0.1500 
 24 C        2.8270     9.9950     0.8610 C.3   1 <1>  -0.0970 
 25 H        0.8610     2.8520    -0.7790 H     1 <1>   0.0800 
 26 H       -0.3990     1.9640    -1.5430 H     1 <1>   0.0800 
 27 H        3.9900     1.9120     0.8370 H     1 <1>   0.0800 
 28 H        2.7510     1.3730     1.9540 H     1 <1>   0.0800 
 29 H        2.4620     2.7350     0.8970 H     1 <1>   0.0800 
 30 H        4.1900    -0.2330    -0.1070 H     1 <1>   0.0800 
 31 H        2.8220    -1.0360    -0.8340 H     1 <1>   0.0800 
 32 H        2.9310    -0.9150     0.9100 H     1 <1>   0.0800 
 33 H       -1.7630     2.1510     0.5700 H     1 <1>   0.0800 
 34 H       -1.7790     3.9210    -1.4490 H     1 <1>   0.0800 
 35 H        0.4380     2.8660     1.9700 H     1 <1>   0.0800 
 36 H       -1.0810     3.6480     2.3200 H     1 <1>   0.0800 
 37 H       -2.5680     4.7080     1.1400 H     1 <1>   0.4000 
 38 H       -1.0030     6.1530    -0.0510 H     1 <1>   0.0800 
 39 H        0.1550     5.2170    -0.9830 H     1 <1>   0.0800 
 40 H        1.6540     7.8220     2.0280 H     1 <1>   0.1500 
 41 H        3.9200     6.6770    -2.1730 H     1 <1>   0.1500 
 42 H        3.4140     3.0580    -1.9980 H     1 <1>   0.0800 
 43 H        4.5750     4.3500    -1.7140 H     1 <1>   0.0800 
 44 H        3.2630     4.5710    -2.8870 H     1 <1>   0.0800 
 45 H        3.9440     8.9700    -1.3770 H     1 <1>   0.1500 
 46 H        3.8450    10.3250     0.9670 H     1 <1>   0.0800 
 47 H        2.3370    10.0910     1.8140 H     1 <1>   0.0800 
 48 H        2.3270    10.6300     0.1520 H     1 <1>   0.0800 
@<TRIPOS>BOND
  1   1   2  2   
  2   1   3  2   
  3   1   4  am  
  4   1   5  1   
  5   4   6  1   
  6   4   7  1   
  7   5   8  1   
  8   5  25  1   
  9   5  26  1   
 10   6  27  1   
 11   6  28  1   
 12   6  29  1   
 13   7  30  1   
 14   7  31  1   
 15   7  32  1   
 16   8   9  1   
 17   8  10  1   
 18   8  33  1   
 19   9  11  1   
 20   9  12  1   
 21   9  34  1   
 22  10  13  1   
 23  10  35  1   
 24  10  36  1   
 25  11  37  1   
 26  12  13  1   
 27  12  38  1   
 28  12  39  1   
 29  13  14  am  
 30  14  15  2   
 31  14  16  1   
 32  16  17  ar  
 33  16  18  ar  
 34  17  19  1   
 35  17  20  ar  
 36  18  21  ar  
 37  18  40  1   
 38  19  22  1   
 39  20  23  ar  
 40  20  41  1   
 41  21  23  ar  
 42  21  24  1   
 43  22  42  1   
 44  22  43  1   
 45  22  44  1   
 46  23  45  1   
 47  24  46  1   
 48  24  47  1   
 49  24  48  1   
@<TRIPOS>SUBSTRUCTURE
  1 ****  13 GROUP 4 **** **** 0

# MOE 2024.06 (io_trps.svl 2023.06)
