@<TRIPOS>MOLECULE
NONAME
49 50 1 0 0 
SMALL
USER_CHARGES


@<TRIPOS>ATOM
  1 CL      -0.7950     2.0190     3.9600 Cl    1 <1>  -0.1770 
  2 C        0.0380     3.0420     2.8170 C.ar  1 <1>   0.1770 
  3 C       -0.5110     3.2950     1.5680 C.ar  1 <1>  -0.1440 
  4 C        1.2520     3.5880     3.1860 C.ar  1 <1>  -0.1500 
  5 C        0.1840     4.1150     0.6930 C.ar  1 <1>  -0.1500 
  6 C       -1.8440     2.6850     1.1610 C.3   1 <1>  -0.0960 
  7 C        1.9300     4.4050     2.2990 C.ar  1 <1>  -0.1500 
  8 C        1.4100     4.6950     1.0350 C.ar  1 <1>   0.0860 
  9 C        2.1250     5.5660     0.1150 C.2   1 <1>   0.5440 
 10 O        3.3210     5.7700     0.2310 O.2   1 <1>  -0.5700 
 11 N        1.4850     6.2700    -0.8780 N.am  1 <1>  -0.6600 
 12 C        2.1350     6.4290    -2.2200 C.3   1 <1>   0.1400 
 13 C        0.4670     7.2910    -0.5240 C.3   1 <1>   0.1400 
 14 C        2.9400     7.7390    -2.3570 C.3   1 <1>   0.3430 
 15 C        1.1270     8.4480     0.2420 C.3   1 <1>  -0.1600 
 16 N        3.2870     8.3050    -1.0180 N.4   1 <1>  -0.9590 
 17 C        2.2210     9.2160    -0.5120 C.3   1 <1>   0.3430 
 18 C        4.6530     8.9090    -0.9980 C.3   1 <1>   0.3430 
 19 C        5.2380     8.9230     0.4180 C.3   1 <1>   0.1200 
 20 O        6.4730     9.5570     0.3540 O.3   1 <1>  -0.5600 
 21 C        7.1800     9.5510     1.5580 C.3   1 <1>   0.1200 
 22 C        8.5480    10.1930     1.3230 C.3   1 <1>   0.1200 
 23 O        9.2420    10.2360     2.5230 O.3   1 <1>  -0.6800 
 24 H        1.6580     3.3700     4.1580 H     1 <1>   0.1500 
 25 H       -0.2270     4.3080    -0.2820 H     1 <1>   0.1500 
 26 H       -2.6170     3.0050     1.8370 H     1 <1>   0.0800 
 27 H       -1.7810     1.6110     1.1940 H     1 <1>   0.0800 
 28 H       -2.1190     2.9780     0.1640 H     1 <1>   0.0800 
 29 H        2.8790     4.8230     2.5890 H     1 <1>   0.1500 
 30 H        1.3900     6.3750    -2.9950 H     1 <1>   0.0800 
 31 H        2.8080     5.6010    -2.3750 H     1 <1>   0.0800 
 32 H       -0.2910     6.8390     0.0950 H     1 <1>   0.0800 
 33 H       -0.0160     7.6550    -1.4160 H     1 <1>   0.0800 
 34 H        2.3690     8.4570    -2.9220 H     1 <1>   0.0800 
 35 H        3.8370     7.5260    -2.9150 H     1 <1>   0.0800 
 36 H        1.5280     8.0810     1.1700 H     1 <1>   0.0800 
 37 H        0.3570     9.1510     0.5040 H     1 <1>   0.0800 
 38 H        3.3050     7.4630    -0.3990 H     1 <1>   0.4500 
 39 H        2.6520     9.9380     0.1620 H     1 <1>   0.0800 
 40 H        1.7850     9.7580    -1.3360 H     1 <1>   0.0800 
 41 H        4.6170     9.9140    -1.3820 H     1 <1>   0.0800 
 42 H        5.3130     8.3260    -1.6190 H     1 <1>   0.0800 
 43 H        5.3840     7.9150     0.7700 H     1 <1>   0.0800 
 44 H        4.6110     9.4740     1.0960 H     1 <1>   0.0800 
 45 H        7.3090     8.5320     1.8820 H     1 <1>   0.0800 
 46 H        6.6210    10.1120     2.2870 H     1 <1>   0.0800 
 47 H        8.4490    11.1980     0.9510 H     1 <1>   0.0800 
 48 H        9.1220     9.6010     0.6320 H     1 <1>   0.0800 
 49 H        8.8910    10.9340     3.1100 H     1 <1>   0.4000 
@<TRIPOS>BOND
  1   1   2  1   
  2   2   3  ar  
  3   2   4  ar  
  4   3   5  ar  
  5   3   6  1   
  6   4   7  ar  
  7   4  24  1   
  8   5   8  ar  
  9   5  25  1   
 10   6  26  1   
 11   6  27  1   
 12   6  28  1   
 13   7   8  ar  
 14   7  29  1   
 15   8   9  1   
 16   9  10  2   
 17   9  11  am  
 18  11  12  1   
 19  11  13  1   
 20  12  14  1   
 21  12  30  1   
 22  12  31  1   
 23  13  15  1   
 24  13  32  1   
 25  13  33  1   
 26  14  16  1   
 27  14  34  1   
 28  14  35  1   
 29  15  17  1   
 30  15  36  1   
 31  15  37  1   
 32  16  17  1   
 33  16  18  1   
 34  16  38  1   
 35  17  39  1   
 36  17  40  1   
 37  18  19  1   
 38  18  41  1   
 39  18  42  1   
 40  19  20  1   
 41  19  43  1   
 42  19  44  1   
 43  20  21  1   
 44  21  22  1   
 45  21  45  1   
 46  21  46  1   
 47  22  23  1   
 48  22  47  1   
 49  22  48  1   
 50  23  49  1   
@<TRIPOS>SUBSTRUCTURE
  1 ****  10 GROUP 4 **** **** 0

# MOE 2024.06 (io_trps.svl 2023.06)
