@<TRIPOS>MOLECULE
NONAME
52 55 1 0 0 
SMALL
USER_CHARGES


@<TRIPOS>ATOM
  1 O       -1.1480     0.7510     2.4570 O.2   1 <1>  -0.5700 
  2 C       -1.7950     1.2400     1.5520 C.2   1 <1>   0.5440 
  3 N       -2.6340     0.4300     0.8240 N.am  1 <1>  -0.6600 
  4 C       -1.6630     2.6480     1.2420 C.ar  1 <1>   0.0860 
  5 C       -3.2270     0.7980    -0.4880 C.3   1 <1>   0.1400 
  6 C       -2.7070    -1.0380     1.0300 C.3   1 <1>   0.1400 
  7 C       -0.4580     3.1640     0.7780 C.ar  1 <1>  -0.1500 
  8 C       -2.7350     3.5280     1.3890 C.ar  1 <1>  -0.1500 
  9 C       -4.0300    -0.4340    -0.9010 C.3   1 <1>   0.2000 
 10 C       -3.2420    -1.6000    -0.2930 C.3   1 <1>  -0.0800 
 11 C       -0.3120     4.5060     0.4520 C.ar  1 <1>  -0.0230 
 12 C       -2.6100     4.8670     1.0670 C.ar  1 <1>  -0.1500 
 13 O       -5.2770    -0.3550    -0.2990 O.3   1 <1>  -0.6800 
 14 C       -4.0350    -2.9120    -0.1400 C.3   1 <1>   0.0200 
 15 N        0.9330     4.9960    -0.0260 N.pl3 1 <1>   0.5930 
 16 C       -1.4050     5.3540     0.5970 C.ar  1 <1>  -0.1500 
 17 C       -3.1780    -4.0750     0.3300 C.2   1 <1>  -0.0400 
 18 N        1.4570     4.6150    -1.2170 N.2   1 <1>  -0.7070 
 19 C        1.7780     5.8640     0.5980 C.2   1 <1>  -0.3320 
 20 O       -3.7630    -5.2070     0.6190 O.3   1 <1>  -0.0190 
 21 C       -1.8600    -4.2350     0.5350 C.2   1 <1>  -0.1500 
 22 C        2.5820     5.2420    -1.3180 C.2   1 <1>   0.1080 
 23 C        2.8410     6.0410    -0.2120 C.2   1 <1>  -0.1500 
 24 C        1.5230     6.4760     1.9660 C.3   1 <1>  -0.0600 
 25 N       -2.9110    -6.1110     1.0080 N.2   1 <1>  -0.4100 
 26 C       -1.7560    -5.5530     0.9670 C.2   1 <1>   0.1080 
 27 C        3.4880     5.0930    -2.5180 C.3   1 <1>  -0.0590 
 28 C       -0.4640    -6.2450     1.3420 C.3   1 <1>  -0.0590 
 29 H       -3.8500     1.6730    -0.4200 H     1 <1>   0.0800 
 30 H       -2.4340     0.9740    -1.1940 H     1 <1>   0.0800 
 31 H       -1.7370    -1.4390     1.2700 H     1 <1>   0.0800 
 32 H       -3.3850    -1.2430     1.8410 H     1 <1>   0.0800 
 33 H        0.3840     2.5010     0.6650 H     1 <1>   0.1500 
 34 H       -3.6720     3.1510     1.7590 H     1 <1>   0.1500 
 35 H       -4.1670    -0.5150    -1.9660 H     1 <1>   0.0800 
 36 H       -2.3980    -1.7860    -0.9340 H     1 <1>   0.0800 
 37 H       -3.4510     5.5310     1.1820 H     1 <1>   0.1500 
 38 H       -5.1550    -0.1320     0.6460 H     1 <1>   0.4000 
 39 H       -4.4750    -3.1750    -1.0860 H     1 <1>   0.0800 
 40 H       -4.8380    -2.7770     0.5630 H     1 <1>   0.0800 
 41 H       -1.3100     6.3950     0.3370 H     1 <1>   0.1500 
 42 H       -1.0440    -3.5480     0.4090 H     1 <1>   0.1500 
 43 H        3.7130     6.6530    -0.0620 H     1 <1>   0.1500 
 44 H        2.3610     7.0810     2.2640 H     1 <1>   0.0800 
 45 H        1.3830     5.7010     2.6990 H     1 <1>   0.0800 
 46 H        0.6450     7.0960     1.9420 H     1 <1>   0.0800 
 47 H        4.3290     5.7550    -2.4400 H     1 <1>   0.0800 
 48 H        2.9380     5.3240    -3.4120 H     1 <1>   0.0800 
 49 H        3.8390     4.0790    -2.5780 H     1 <1>   0.0800 
 50 H        0.0100    -5.7190     2.1500 H     1 <1>   0.0800 
 51 H        0.1970    -6.2670     0.4960 H     1 <1>   0.0800 
 52 H       -0.6650    -7.2540     1.6540 H     1 <1>   0.0800 
@<TRIPOS>BOND
  1   1   2  2   
  2   2   3  am  
  3   2   4  1   
  4   3   5  1   
  5   3   6  1   
  6   4   7  ar  
  7   4   8  ar  
  8   5   9  1   
  9   5  29  1   
 10   5  30  1   
 11   6  10  1   
 12   6  31  1   
 13   6  32  1   
 14   7  11  ar  
 15   7  33  1   
 16   8  12  ar  
 17   8  34  1   
 18   9  10  1   
 19   9  13  1   
 20   9  35  1   
 21  10  14  1   
 22  10  36  1   
 23  11  15  1   
 24  11  16  ar  
 25  12  16  ar  
 26  12  37  1   
 27  13  38  1   
 28  14  17  1   
 29  14  39  1   
 30  14  40  1   
 31  15  18  1   
 32  15  19  1   
 33  16  41  1   
 34  17  20  1   
 35  17  21  2   
 36  18  22  2   
 37  19  23  2   
 38  19  24  1   
 39  20  25  1   
 40  21  26  1   
 41  21  42  1   
 42  22  23  1   
 43  22  27  1   
 44  23  43  1   
 45  24  44  1   
 46  24  45  1   
 47  24  46  1   
 48  25  26  2   
 49  26  28  1   
 50  27  47  1   
 51  27  48  1   
 52  27  49  1   
 53  28  50  1   
 54  28  51  1   
 55  28  52  1   
@<TRIPOS>SUBSTRUCTURE
  1 ****   2 GROUP 4 **** **** 0

# MOE 2024.06 (io_trps.svl 2023.06)
