@<TRIPOS>MOLECULE
NONAME
42 46 1 0 0 
SMALL
USER_CHARGES


@<TRIPOS>ATOM
  1 S       -0.2270    -0.5590     1.7260 S.3   1 <1>  -0.0800 
  2 C       -0.4380    -1.4400     0.2120 C.2   1 <1>   0.4620 
  3 C        1.4860    -0.4780     1.4320 C.2   1 <1>  -0.1100 
  4 N        0.6690    -1.6380    -0.4120 N.2   1 <1>  -0.5650 
  5 N       -1.6970    -1.8450    -0.1850 N.pl3 1 <1>  -0.8220 
  6 C        1.7410    -1.0970     0.2710 C.2   1 <1>   0.0770 
  7 C       -1.8950    -2.5870    -1.4570 C.3   1 <1>   0.2090 
  8 C       -2.9330    -1.7180     0.6290 C.3   1 <1>   0.2090 
  9 C       -2.3630    -4.0020    -1.1250 C.3   1 <1>  -0.1600 
 10 C       -3.4080    -3.1210     1.0000 C.3   1 <1>  -0.1600 
 11 C       -3.6190    -3.9870    -0.2500 C.3   1 <1>   0.4600 
 12 O       -4.6460    -3.4210    -1.0390 O.3   1 <1>  -0.5600 
 13 C       -4.0090    -5.4110     0.1320 C.2   1 <1>  -0.3320 
 14 C       -5.9820    -3.6880    -0.6850 C.3   1 <1>   0.1200 
 15 N       -3.2160    -6.3240     0.7700 N.pl3 1 <1>   0.0330 
 16 C       -5.2120    -5.9640    -0.1180 C.2   1 <1>  -0.1810 
 17 C       -6.3020    -5.1870    -0.8110 C.3   1 <1>   0.0210 
 18 C       -3.9390    -7.4830     0.9200 C.ar  1 <1>  -0.1520 
 19 C       -5.2020    -7.2890     0.3670 C.ar  1 <1>   0.0000 
 20 C       -3.5920    -8.7050     1.5000 C.ar  1 <1>  -0.1500 
 21 C       -6.1350    -8.3300     0.3890 C.ar  1 <1>  -0.1500 
 22 C       -4.5190    -9.7210     1.5160 C.ar  1 <1>  -0.1500 
 23 C       -5.7910    -9.5340     0.9610 C.ar  1 <1>  -0.1500 
 24 H        2.1040     0.0200     2.1560 H     1 <1>   0.1500 
 25 H        2.7170    -1.2060    -0.1710 H     1 <1>   0.1500 
 26 H       -0.9820    -2.6270    -2.0250 H     1 <1>   0.0800 
 27 H       -2.6370    -2.0820    -2.0520 H     1 <1>   0.0800 
 28 H       -3.6880    -1.2160     0.0480 H     1 <1>   0.0800 
 29 H       -2.7660    -1.1440     1.5210 H     1 <1>   0.0800 
 30 H       -1.5650    -4.5060    -0.6130 H     1 <1>   0.0800 
 31 H       -2.5670    -4.5440    -2.0300 H     1 <1>   0.0800 
 32 H       -4.3130    -3.0690     1.5730 H     1 <1>   0.0800 
 33 H       -2.6610    -3.5750     1.6240 H     1 <1>   0.0800 
 34 H       -6.6150    -3.1170    -1.3400 H     1 <1>   0.0800 
 35 H       -6.1420    -3.3570     0.3260 H     1 <1>   0.0800 
 36 H       -2.2480    -6.1870     1.0760 H     1 <1>   0.2700 
 37 H       -6.3460    -5.4680    -1.8470 H     1 <1>   0.0800 
 38 H       -7.2530    -5.3950    -0.3550 H     1 <1>   0.0800 
 39 H       -2.6130    -8.8410     1.9230 H     1 <1>   0.1500 
 40 H       -7.1060    -8.1720    -0.0420 H     1 <1>   0.1500 
 41 H       -4.2760   -10.6720     1.9570 H     1 <1>   0.1500 
 42 H       -6.4980   -10.3440     0.9860 H     1 <1>   0.1500 
@<TRIPOS>BOND
  1   1   2  1   
  2   1   3  1   
  3   2   4  2   
  4   2   5  1   
  5   3   6  2   
  6   3  24  1   
  7   4   6  1   
  8   5   7  1   
  9   5   8  1   
 10   6  25  1   
 11   7   9  1   
 12   7  26  1   
 13   7  27  1   
 14   8  10  1   
 15   8  28  1   
 16   8  29  1   
 17   9  11  1   
 18   9  30  1   
 19   9  31  1   
 20  10  11  1   
 21  10  32  1   
 22  10  33  1   
 23  11  12  1   
 24  11  13  1   
 25  12  14  1   
 26  13  15  1   
 27  13  16  2   
 28  14  17  1   
 29  14  34  1   
 30  14  35  1   
 31  15  18  1   
 32  15  36  1   
 33  16  17  1   
 34  16  19  1   
 35  17  37  1   
 36  17  38  1   
 37  18  19  ar  
 38  18  20  ar  
 39  19  21  ar  
 40  20  22  ar  
 41  20  39  1   
 42  21  23  ar  
 43  21  40  1   
 44  22  23  ar  
 45  22  41  1   
 46  23  42  1   
@<TRIPOS>SUBSTRUCTURE
  1 ****  11 GROUP 4 **** **** 0

# MOE 2024.06 (io_trps.svl 2023.06)
