@<TRIPOS>MOLECULE
NONAME
37 39 1 0 0 
SMALL
USER_CHARGES


@<TRIPOS>ATOM
  1 CL      -0.7680    -1.6950    -1.9180 Cl    1 <1>  -0.1770 
  2 C        0.5810    -2.0910    -0.8790 C.ar  1 <1>   0.1770 
  3 C        0.3660    -2.5520     0.4130 C.ar  1 <1>  -0.1440 
  4 C        1.8580    -1.9390    -1.3880 C.ar  1 <1>  -0.1500 
  5 C        1.4690    -2.8660     1.1950 C.ar  1 <1>  -0.1500 
  6 C       -1.0410    -2.7290     0.9710 C.3   1 <1>   0.1640 
  7 C        2.9490    -2.2530    -0.5970 C.ar  1 <1>  -0.1500 
  8 C        2.7520    -2.7160     0.6930 C.ar  1 <1>  -0.1500 
  9 C       -1.6400    -4.0530     0.5340 C.2   1 <1>  -0.0400 
 10 O       -2.8460    -4.3760     0.9140 O.3   1 <1>  -0.2800 
 11 C       -1.1730    -5.0580    -0.2220 C.2   1 <1>   0.0770 
 12 C       -3.0780    -5.5510     0.3800 C.2   1 <1>   0.2980 
 13 N       -2.1100    -6.0270    -0.3150 N.2   1 <1>  -0.5650 
 14 C       -4.4170    -6.2220     0.6180 C.3   1 <1>   0.1000 
 15 C       -4.3650    -7.6380     0.0230 C.3   1 <1>   0.3430 
 16 C       -5.5640    -5.4060    -0.0070 C.3   1 <1>  -0.1600 
 17 N       -5.6940    -8.3310     0.0960 N.4   1 <1>  -0.9060 
 18 C       -6.8940    -6.1740     0.0490 C.3   1 <1>  -0.1600 
 19 C       -6.7790    -7.5660    -0.5800 C.3   1 <1>   0.3430 
 20 H        1.9920    -1.5790    -2.3930 H     1 <1>   0.1500 
 21 H        1.3390    -3.2310     2.2000 H     1 <1>   0.1500 
 22 H       -1.6750    -1.9250     0.6440 H     1 <1>   0.0800 
 23 H       -1.0140    -2.6970     2.0450 H     1 <1>   0.0800 
 24 H        3.9470    -2.1380    -0.9840 H     1 <1>   0.1500 
 25 H        3.6010    -2.9620     1.3080 H     1 <1>   0.1500 
 26 H       -0.2150    -5.1450    -0.7100 H     1 <1>   0.1500 
 27 H       -4.5610    -6.2950     1.6810 H     1 <1>   0.0800 
 28 H       -3.6140    -8.2110     0.5440 H     1 <1>   0.0800 
 29 H       -4.0560    -7.5610    -1.0080 H     1 <1>   0.0800 
 30 H       -5.3210    -5.1840    -1.0340 H     1 <1>   0.0800 
 31 H       -5.6620    -4.4660     0.5100 H     1 <1>   0.0800 
 32 H       -5.9490    -8.4790     1.0800 H     1 <1>   0.4500 
 33 H       -5.6130    -9.2630    -0.3330 H     1 <1>   0.4500 
 34 H       -7.6460    -5.6140    -0.4810 H     1 <1>   0.0800 
 35 H       -7.2270    -6.2650     1.0690 H     1 <1>   0.0800 
 36 H       -7.7180    -8.0880    -0.4850 H     1 <1>   0.0800 
 37 H       -6.5530    -7.4650    -1.6310 H     1 <1>   0.0800 
@<TRIPOS>BOND
  1   1   2  1   
  2   2   3  ar  
  3   2   4  ar  
  4   3   5  ar  
  5   3   6  1   
  6   4   7  ar  
  7   4  20  1   
  8   5   8  ar  
  9   5  21  1   
 10   6   9  1   
 11   6  22  1   
 12   6  23  1   
 13   7   8  ar  
 14   7  24  1   
 15   8  25  1   
 16   9  10  1   
 17   9  11  2   
 18  10  12  1   
 19  11  13  1   
 20  11  26  1   
 21  12  13  2   
 22  12  14  1   
 23  14  15  1   
 24  14  16  1   
 25  14  27  1   
 26  15  17  1   
 27  15  28  1   
 28  15  29  1   
 29  16  18  1   
 30  16  30  1   
 31  16  31  1   
 32  17  19  1   
 33  17  32  1   
 34  17  33  1   
 35  18  19  1   
 36  18  34  1   
 37  18  35  1   
 38  19  36  1   
 39  19  37  1   
@<TRIPOS>SUBSTRUCTURE
  1 ****   9 GROUP 4 **** **** 0

# MOE 2024.06 (io_trps.svl 2023.06)
