@<TRIPOS>MOLECULE
NONAME
40 42 1 0 0 
SMALL
USER_CHARGES


@<TRIPOS>ATOM
  1 O        0.2590    -0.1300    -0.5000 O.3   1 <1>  -0.5600 
  2 C        1.4560    -0.7750    -0.8640 C.3   1 <1>   0.2000 
  3 C        0.2380     1.2540    -0.6830 C.3   1 <1>   0.1200 
  4 C        2.6730    -0.1570    -0.1230 C.3   1 <1>   0.5660 
  5 C        1.3260    -2.2700    -0.5280 C.3   1 <1>   0.1200 
  6 C        1.3380     1.9130     0.1660 C.3   1 <1>   0.3430 
  7 N        2.6890     1.3410    -0.1460 N.4   1 <1>  -0.9590 
  8 C        3.9880    -0.6470    -0.7150 C.ar  1 <1>  -0.1440 
  9 O        1.4430    -2.4660     0.8470 O.3   1 <1>  -0.6800 
 10 C        3.7560     1.8750     0.7380 C.3   1 <1>   0.5240 
 11 C        4.8180    -1.4460     0.0590 C.ar  1 <1>  -0.1500 
 12 C        4.3810    -0.3070    -2.0050 C.ar  1 <1>  -0.1500 
 13 C        3.9380     3.3400     0.4170 C.2   1 <1>  -0.1810 
 14 C        6.0290    -1.8870    -0.4420 C.ar  1 <1>  -0.1500 
 15 C        5.5930    -0.7490    -2.5030 C.ar  1 <1>  -0.1500 
 16 C        4.7480     3.8930    -0.5130 C.2   1 <1>  -0.0100 
 17 C        3.2910     4.4200     1.0400 C.2   1 <1>  -0.1500 
 18 C        6.4180    -1.5370    -1.7220 C.ar  1 <1>  -0.1500 
 19 O        4.6290     5.2030    -0.5110 O.3   1 <1>  -0.2800 
 20 C        3.7590     5.5260     0.4230 C.2   1 <1>  -0.0100 
 21 H        1.5690    -0.6690    -1.9280 H     1 <1>   0.0800 
 22 H        0.3640     1.4720    -1.7300 H     1 <1>   0.0800 
 23 H       -0.7300     1.6080    -0.3730 H     1 <1>   0.0800 
 24 H        2.6180    -0.4850     0.9030 H     1 <1>   0.0800 
 25 H        2.1070    -2.8360    -1.0080 H     1 <1>   0.0800 
 26 H        0.3690    -2.6420    -0.8540 H     1 <1>   0.0800 
 27 H        1.1040     1.7550     1.2060 H     1 <1>   0.0800 
 28 H        1.3370     2.9760    -0.0170 H     1 <1>   0.0800 
 29 H        2.9480     1.6180    -1.0970 H     1 <1>   0.4500 
 30 H        1.1230    -3.3600     1.0950 H     1 <1>   0.4000 
 31 H        3.4960     1.7450     1.7760 H     1 <1>   0.0800 
 32 H        4.6860     1.3600     0.5500 H     1 <1>   0.0800 
 33 H        4.5310    -1.7400     1.0560 H     1 <1>   0.1500 
 34 H        3.7600     0.2970    -2.6440 H     1 <1>   0.1500 
 35 H        6.6720    -2.5070     0.1610 H     1 <1>   0.1500 
 36 H        5.9000    -0.4870    -3.5030 H     1 <1>   0.1500 
 37 H        5.4360     3.4470    -1.2130 H     1 <1>   0.1500 
 38 H        2.5800     4.3700     1.8470 H     1 <1>   0.1500 
 39 H        7.3620    -1.8820    -2.1110 H     1 <1>   0.1500 
 40 H        3.5360     6.5680     0.5840 H     1 <1>   0.1500 
@<TRIPOS>BOND
  1   1   2  1   
  2   1   3  1   
  3   2   4  1   
  4   2   5  1   
  5   2  21  1   
  6   3   6  1   
  7   3  22  1   
  8   3  23  1   
  9   4   7  1   
 10   4   8  1   
 11   4  24  1   
 12   5   9  1   
 13   5  25  1   
 14   5  26  1   
 15   6   7  1   
 16   6  27  1   
 17   6  28  1   
 18   7  10  1   
 19   7  29  1   
 20   8  11  ar  
 21   8  12  ar  
 22   9  30  1   
 23  10  13  1   
 24  10  31  1   
 25  10  32  1   
 26  11  14  ar  
 27  11  33  1   
 28  12  15  ar  
 29  12  34  1   
 30  13  16  2   
 31  13  17  1   
 32  14  18  ar  
 33  14  35  1   
 34  15  18  ar  
 35  15  36  1   
 36  16  19  1   
 37  16  37  1   
 38  17  20  2   
 39  17  38  1   
 40  18  39  1   
 41  19  20  1   
 42  20  40  1   
@<TRIPOS>SUBSTRUCTURE
  1 ****   7 GROUP 4 **** **** 0

# MOE 2024.06 (io_trps.svl 2023.06)
