@<TRIPOS>MOLECULE
NONAME
49 51 1 0 0 
SMALL
USER_CHARGES


@<TRIPOS>ATOM
  1 CL      -0.5500    -0.0660     0.4620 Cl    1 <1>  -0.1770 
  2 C       -2.0630    -0.8640     0.0860 C.ar  1 <1>   0.1770 
  3 C       -2.0750    -2.1420    -0.4630 C.ar  1 <1>   0.0830 
  4 C       -3.2400    -0.1910     0.3450 C.ar  1 <1>  -0.1500 
  5 O       -0.9330    -2.8200    -0.7280 O.3   1 <1>  -0.3630 
  6 C       -3.2890    -2.7350    -0.7660 C.ar  1 <1>  -0.1500 
  7 C       -4.4630    -0.7850     0.0560 C.ar  1 <1>   0.1170 
  8 C       -0.3420    -3.4780     0.3690 C.3   1 <1>   0.0400 
  9 C       -4.4700    -2.0600    -0.5060 C.ar  1 <1>  -0.1500 
 10 N       -5.6430    -0.0740     0.3190 N.am  1 <1>  -0.5470 
 11 C       -6.8990    -0.5150     0.6240 C.2   1 <1>   0.6900 
 12 O       -7.1020    -1.6930     0.8540 O.2   1 <1>  -0.5700 
 13 N       -7.9210     0.4000     0.6940 N.am  1 <1>  -0.6600 
 14 C       -9.2830    -0.0110     1.1530 C.3   1 <1>   0.1400 
 15 C       -7.8240     1.7840     0.1390 C.3   1 <1>   0.1400 
 16 C      -10.3230     0.0450     0.0000 C.3   1 <1>   0.0000 
 17 C       -9.1990     2.3430    -0.2560 C.3   1 <1>  -0.1600 
 18 C      -11.7350     0.0170     0.6320 C.3   1 <1>   0.2000 
 19 C      -10.0490     1.2600    -0.9360 C.3   1 <1>  -0.1600 
 20 C      -10.2940    -1.2760    -0.7880 C.3   1 <1>  -0.1600 
 21 O      -12.7020     0.3690    -0.3170 O.3   1 <1>  -0.5600 
 22 C      -11.9590    -1.4520     1.0090 C.3   1 <1>  -0.1600 
 23 C      -11.1280    -2.2800     0.0180 C.3   1 <1>  -0.1600 
 24 C      -13.8880     0.8760     0.2060 C.3   1 <1>   0.0400 
 25 H       -3.1990     0.7920     0.7740 H     1 <1>   0.1500 
 26 H       -3.3060    -3.7170    -1.2030 H     1 <1>   0.1500 
 27 H        0.5350    -3.9910     0.0210 H     1 <1>   0.0800 
 28 H       -1.0470    -4.1830     0.7730 H     1 <1>   0.0800 
 29 H       -0.0710    -2.7500     1.1130 H     1 <1>   0.0800 
 30 H       -5.4080    -2.5300    -0.7450 H     1 <1>   0.1500 
 31 H       -5.5510     0.9310     0.3980 H     1 <1>   0.3700 
 32 H       -9.2540    -0.9960     1.5860 H     1 <1>   0.0800 
 33 H       -9.5790     0.6640     1.9370 H     1 <1>   0.0800 
 34 H       -7.3640     2.4310     0.8660 H     1 <1>   0.0800 
 35 H       -7.2040     1.7610    -0.7420 H     1 <1>   0.0800 
 36 H       -9.7080     2.7120     0.6170 H     1 <1>   0.0800 
 37 H       -9.0630     3.1740    -0.9250 H     1 <1>   0.0800 
 38 H      -11.8090     0.6830     1.4750 H     1 <1>   0.0800 
 39 H       -9.5050     0.9180    -1.8000 H     1 <1>   0.0800 
 40 H      -10.9610     1.6960    -1.3000 H     1 <1>   0.0800 
 41 H      -10.7710    -1.1290    -1.7420 H     1 <1>   0.0800 
 42 H       -9.2910    -1.6290    -0.9550 H     1 <1>   0.0800 
 43 H      -11.5870    -1.6220     2.0030 H     1 <1>   0.0800 
 44 H      -12.9980    -1.7270     0.9820 H     1 <1>   0.0800 
 45 H      -10.4850    -2.9610     0.5490 H     1 <1>   0.0800 
 46 H      -11.7660    -2.8430    -0.6410 H     1 <1>   0.0800 
 47 H      -14.5550     1.0750    -0.6140 H     1 <1>   0.0800 
 48 H      -13.6800     1.7900     0.7330 H     1 <1>   0.0800 
 49 H      -14.3320     0.1500     0.8640 H     1 <1>   0.0800 
@<TRIPOS>BOND
  1   1   2  1   
  2   2   3  ar  
  3   2   4  ar  
  4   3   5  1   
  5   3   6  ar  
  6   4   7  ar  
  7   4  25  1   
  8   5   8  1   
  9   6   9  ar  
 10   6  26  1   
 11   7   9  ar  
 12   7  10  1   
 13   8  27  1   
 14   8  28  1   
 15   8  29  1   
 16   9  30  1   
 17  10  11  am  
 18  10  31  1   
 19  11  12  2   
 20  11  13  am  
 21  13  14  1   
 22  13  15  1   
 23  14  16  1   
 24  14  32  1   
 25  14  33  1   
 26  15  17  1   
 27  15  34  1   
 28  15  35  1   
 29  16  18  1   
 30  16  19  1   
 31  16  20  1   
 32  17  19  1   
 33  17  36  1   
 34  17  37  1   
 35  18  21  1   
 36  18  22  1   
 37  18  38  1   
 38  19  39  1   
 39  19  40  1   
 40  20  23  1   
 41  20  41  1   
 42  20  42  1   
 43  21  24  1   
 44  22  23  1   
 45  22  43  1   
 46  22  44  1   
 47  23  45  1   
 48  23  46  1   
 49  24  47  1   
 50  24  48  1   
 51  24  49  1   
@<TRIPOS>SUBSTRUCTURE
  1 ****  11 GROUP 4 **** **** 0

# MOE 2024.06 (io_trps.svl 2023.06)
