@<TRIPOS>MOLECULE
NONAME
48 50 1 0 0 
SMALL
USER_CHARGES


@<TRIPOS>ATOM
  1 S       -1.3430    -1.8270    -0.1650 S.o2  1 <1>   1.2040 
  2 O       -1.7800    -2.5080    -1.3620 O.2   1 <1>  -0.6500 
  3 O       -1.8890    -2.2250     1.1170 O.2   1 <1>  -0.6500 
  4 C       -1.5490    -0.0440    -0.3850 C.ar  1 <1>  -0.0090 
  5 C        0.4420    -1.9770    -0.0540 C.3   1 <1>  -0.0550 
  6 C       -1.6950     0.8020     0.7090 C.ar  1 <1>  -0.1500 
  7 C       -1.5330     0.5280    -1.6520 C.ar  1 <1>  -0.1500 
  8 C        0.9090    -3.2460     0.6770 C.3   1 <1>  -0.0990 
  9 C       -1.8170     2.1710     0.5460 C.ar  1 <1>  -0.1500 
 10 C       -1.6540     1.8960    -1.8240 C.ar  1 <1>  -0.1500 
 11 C        0.4100    -4.5080     0.0090 C.2   1 <1>   0.5690 
 12 C       -1.7960     2.7200    -0.7230 C.ar  1 <1>  -0.1500 
 13 O        1.0170    -4.9360    -0.9390 O.2   1 <1>  -0.5700 
 14 N       -0.6860    -5.1220     0.5120 N.am  1 <1>  -0.7300 
 15 C       -1.2110    -6.4290     0.0510 C.3   1 <1>   0.2200 
 16 C       -2.7320    -6.4340    -0.0380 C.3   1 <1>  -0.0800 
 17 C       -0.9940    -7.4630     1.1480 C.3   1 <1>   0.1200 
 18 C       -3.1620    -6.7470     1.3990 C.3   1 <1>   0.1200 
 19 C       -3.3890    -5.1730    -0.6230 C.3   1 <1>  -0.0170 
 20 O       -2.0470    -7.2850     2.0480 O.3   1 <1>  -0.5600 
 21 C       -4.8990    -5.3330    -0.7080 C.ar  1 <1>  -0.1430 
 22 C       -5.7470    -4.7330     0.2000 C.ar  1 <1>  -0.1500 
 23 C       -5.4990    -6.0850    -1.6970 C.ar  1 <1>  -0.1500 
 24 C       -7.1140    -4.9150     0.0840 C.ar  1 <1>   0.1600 
 25 C       -6.8790    -6.2050    -1.7240 C.ar  1 <1>   0.1600 
 26 N       -7.7020    -5.6410    -0.8550 N.ar  1 <1>  -0.6200 
 27 H        0.8620    -1.9660    -1.0430 H     1 <1>   0.0800 
 28 H        0.8350    -1.1310     0.4760 H     1 <1>   0.0800 
 29 H       -1.7190     0.3870     1.7030 H     1 <1>   0.1500 
 30 H       -1.4290    -0.1050    -2.5180 H     1 <1>   0.1500 
 31 H        1.9830    -3.2750     0.6880 H     1 <1>   0.0800 
 32 H        0.5710    -3.2270     1.6970 H     1 <1>   0.0800 
 33 H       -1.9320     2.8100     1.4060 H     1 <1>   0.1500 
 34 H       -1.6420     2.3180    -2.8140 H     1 <1>   0.1500 
 35 H       -1.8920     3.7850    -0.8530 H     1 <1>   0.1500 
 36 H       -1.1830    -4.7260     1.3150 H     1 <1>   0.3700 
 37 H       -0.7430    -6.7190    -0.8750 H     1 <1>   0.0800 
 38 H       -3.0190    -7.2730    -0.6460 H     1 <1>   0.0800 
 39 H       -0.0550    -7.3380     1.6560 H     1 <1>   0.0800 
 40 H       -1.0670    -8.4600     0.7500 H     1 <1>   0.0800 
 41 H       -3.9670    -7.4610     1.4290 H     1 <1>   0.0800 
 42 H       -3.4460    -5.8550     1.9300 H     1 <1>   0.0800 
 43 H       -2.9920    -4.9790    -1.6050 H     1 <1>   0.0800 
 44 H       -3.1640    -4.3200    -0.0100 H     1 <1>   0.0800 
 45 H       -5.3560    -4.1230     0.9950 H     1 <1>   0.1500 
 46 H       -4.9060    -6.5770    -2.4470 H     1 <1>   0.1500 
 47 H       -7.7590    -4.4390     0.8020 H     1 <1>   0.1500 
 48 H       -7.3290    -6.7960    -2.5030 H     1 <1>   0.1500 
@<TRIPOS>BOND
  1   1   2  2   
  2   1   3  2   
  3   1   4  1   
  4   1   5  1   
  5   4   6  ar  
  6   4   7  ar  
  7   5   8  1   
  8   5  27  1   
  9   5  28  1   
 10   6   9  ar  
 11   6  29  1   
 12   7  10  ar  
 13   7  30  1   
 14   8  11  1   
 15   8  31  1   
 16   8  32  1   
 17   9  12  ar  
 18   9  33  1   
 19  10  12  ar  
 20  10  34  1   
 21  11  13  2   
 22  11  14  am  
 23  12  35  1   
 24  14  15  1   
 25  14  36  1   
 26  15  16  1   
 27  15  17  1   
 28  15  37  1   
 29  16  18  1   
 30  16  19  1   
 31  16  38  1   
 32  17  20  1   
 33  17  39  1   
 34  17  40  1   
 35  18  20  1   
 36  18  41  1   
 37  18  42  1   
 38  19  21  1   
 39  19  43  1   
 40  19  44  1   
 41  21  22  ar  
 42  21  23  ar  
 43  22  24  ar  
 44  22  45  1   
 45  23  25  ar  
 46  23  46  1   
 47  24  26  ar  
 48  24  47  1   
 49  25  26  ar  
 50  25  48  1   
@<TRIPOS>SUBSTRUCTURE
  1 ****   2 GROUP 4 **** **** 0

# MOE 2024.06 (io_trps.svl 2023.06)
