@<TRIPOS>MOLECULE
NONAME
40 41 1 0 0 
SMALL
USER_CHARGES


@<TRIPOS>ATOM
  1 O       -0.3130    -0.1960     0.0500 O.2   1 <1>  -0.5700 
  2 C       -0.3470    -1.3920     0.2720 C.2   1 <1>   0.7800 
  3 O        0.7640    -2.1300     0.2110 O.3   1 <1>  -0.4300 
  4 N       -1.5070    -2.0320     0.5970 N.am  1 <1>  -0.6600 
  5 C        2.0660    -1.7050    -0.1190 C.3   1 <1>   0.2800 
  6 C       -2.8150    -1.2990     0.5730 C.3   1 <1>   0.3210 
  7 C       -1.5820    -3.4960     0.9440 C.3   1 <1>   0.1400 
  8 C        2.0970    -1.1580    -1.5510 C.3   1 <1>  -0.2400 
  9 C        2.9270    -2.9670    -0.0430 C.3   1 <1>  -0.2400 
 10 C        2.5690    -0.6860     0.9100 C.3   1 <1>  -0.2400 
 11 C       -3.9180    -2.1900     0.0270 C.2   1 <1>   0.0460 
 12 C       -2.4720    -4.2730    -0.0430 C.3   1 <1>  -0.0060 
 13 N       -5.1630    -1.7950    -0.2510 N.2   1 <1>  -0.2270 
 14 C       -3.7770    -3.4910    -0.2450 C.2   1 <1>  -0.3320 
 15 C       -2.6390    -5.7120     0.4370 C.2   1 <1>   0.9060 
 16 N       -5.8020    -2.8250    -0.6940 N.2   1 <1>  -0.4180 
 17 N       -4.9700    -3.8860    -0.7010 N.pl3 1 <1>   0.3140 
 18 O       -2.6350    -5.9690     1.6460 O.co2 1 <1>  -0.9000 
 19 O       -2.7850    -6.5990    -0.4130 O.co2 1 <1>  -0.9000 
 20 C       -5.3540    -5.2540    -1.1390 C.3   1 <1>   0.0960 
 21 C       -6.7360    -5.3220    -1.8110 C.3   1 <1>  -0.2400 
 22 H       -2.7410    -0.4220    -0.0460 H     1 <1>   0.0800 
 23 H       -3.0690    -0.9950     1.5720 H     1 <1>   0.0800 
 24 H       -1.9990    -3.5860     1.9330 H     1 <1>   0.0800 
 25 H       -0.6040    -3.9450     0.9670 H     1 <1>   0.0800 
 26 H        1.6670    -1.8700    -2.2310 H     1 <1>   0.0800 
 27 H        3.1120    -0.9680    -1.8500 H     1 <1>   0.0800 
 28 H        1.5590    -0.2310    -1.6240 H     1 <1>   0.0800 
 29 H        2.5680    -3.7040    -0.7390 H     1 <1>   0.0800 
 30 H        2.8930    -3.3800     0.9490 H     1 <1>   0.0800 
 31 H        3.9490    -2.7400    -0.2830 H     1 <1>   0.0800 
 32 H        2.0280     0.2390     0.8360 H     1 <1>   0.0800 
 33 H        3.6070    -0.4710     0.7360 H     1 <1>   0.0800 
 34 H        2.4630    -1.0790     1.9050 H     1 <1>   0.0800 
 35 H       -1.9610    -4.3260    -0.9850 H     1 <1>   0.0800 
 36 H       -5.3370    -5.8950    -0.2770 H     1 <1>   0.0800 
 37 H       -4.6050    -5.6020    -1.8270 H     1 <1>   0.0800 
 38 H       -7.4990    -5.0130    -1.1200 H     1 <1>   0.0800 
 39 H       -6.9370    -6.3330    -2.1160 H     1 <1>   0.0800 
 40 H       -6.7580    -4.6870    -2.6790 H     1 <1>   0.0800 
@<TRIPOS>BOND
  1   1   2  2   
  2   2   3  1   
  3   2   4  am  
  4   3   5  1   
  5   4   6  1   
  6   4   7  1   
  7   5   8  1   
  8   5   9  1   
  9   5  10  1   
 10   6  11  1   
 11   6  22  1   
 12   6  23  1   
 13   7  12  1   
 14   7  24  1   
 15   7  25  1   
 16   8  26  1   
 17   8  27  1   
 18   8  28  1   
 19   9  29  1   
 20   9  30  1   
 21   9  31  1   
 22  10  32  1   
 23  10  33  1   
 24  10  34  1   
 25  11  13  1   
 26  11  14  2   
 27  12  14  1   
 28  12  15  1   
 29  12  35  1   
 30  13  16  2   
 31  14  17  1   
 32  15  18  ar  
 33  15  19  ar  
 34  16  17  1   
 35  17  20  1   
 36  20  21  1   
 37  20  36  1   
 38  20  37  1   
 39  21  38  1   
 40  21  39  1   
 41  21  40  1   
@<TRIPOS>SUBSTRUCTURE
  1 ****   7 GROUP 4 **** **** 0

# MOE 2024.06 (io_trps.svl 2023.06)
