@<TRIPOS>MOLECULE
NONAME
41 43 1 0 0 
SMALL
USER_CHARGES


@<TRIPOS>ATOM
  1 F       -0.0870     0.1080     0.7530 F     1 <1>  -0.3400 
  2 C       -1.2770     0.5610     1.1150 C.3   1 <1>   1.1640 
  3 F       -1.4130     0.2950     2.4050 F     1 <1>  -0.3400 
  4 F       -2.1740    -0.1820     0.4790 F     1 <1>  -0.3400 
  5 C       -1.4400     2.0650     0.8150 C.ar  1 <1>  -0.1440 
  6 C       -2.4190     2.5610    -0.0220 C.ar  1 <1>  -0.1500 
  7 C       -0.5600     2.9770     1.4110 C.ar  1 <1>  -0.1500 
  8 C       -2.5450     3.9350    -0.2770 C.ar  1 <1>   0.3610 
  9 C       -0.6670     4.3230     1.1740 C.ar  1 <1>  -0.1500 
 10 N       -3.5300     4.4100    -1.1160 N.ar  1 <1>  -0.1790 
 11 C       -1.6590     4.8490     0.3240 C.ar  1 <1>   0.0000 
 12 C       -3.6780     5.7190    -1.3880 C.ar  1 <1>   0.2180 
 13 C       -1.8080     6.2450     0.0520 C.ar  1 <1>   0.1000 
 14 C       -2.8300     6.6330    -0.8160 C.ar  1 <1>  -0.1500 
 15 C       -4.7930     6.1430    -2.3300 C.3   1 <1>  -0.0970 
 16 N       -0.9810     7.1480     0.6180 N.pl3 1 <1>  -0.8690 
 17 C       -0.9890     8.6430     0.5510 C.3   1 <1>   0.2890 
 18 C        0.0630     9.1370    -0.4340 C.3   1 <1>   0.2000 
 19 C       -0.4370     9.2020     1.8570 C.3   1 <1>   0.1200 
 20 O       -0.3200    10.4110    -0.8800 O.3   1 <1>  -0.5600 
 21 C        1.3340     9.2200     0.4310 C.3   1 <1>   0.1200 
 22 O        0.9430     9.0330     1.7640 O.3   1 <1>  -0.5600 
 23 C        0.3640    10.8730    -2.0030 C.3   1 <1>   0.0400 
 24 H       -3.1100     1.8840    -0.4950 H     1 <1>   0.1500 
 25 H        0.2150     2.6130     2.0700 H     1 <1>   0.1500 
 26 H        0.0280     4.9910     1.6540 H     1 <1>   0.1500 
 27 H       -4.1620     3.7290    -1.5400 H     1 <1>   0.4570 
 28 H       -2.9510     7.6760    -1.0430 H     1 <1>   0.1500 
 29 H       -4.7960     7.2120    -2.4580 H     1 <1>   0.0800 
 30 H       -5.7500     5.8530    -1.9350 H     1 <1>   0.0800 
 31 H       -4.6590     5.6930    -3.2980 H     1 <1>   0.0800 
 32 H       -0.2060     6.8440     1.2240 H     1 <1>   0.4000 
 33 H       -1.9700     9.0250     0.3350 H     1 <1>   0.0800 
 34 H        0.1620     8.4800    -1.2800 H     1 <1>   0.0800 
 35 H       -0.8120     8.6880     2.7250 H     1 <1>   0.0800 
 36 H       -0.6390    10.2570     1.9340 H     1 <1>   0.0800 
 37 H        1.8160    10.1770     0.3470 H     1 <1>   0.0800 
 38 H        2.0240     8.4340     0.1820 H     1 <1>   0.0800 
 39 H       -0.0160    11.8500    -2.2470 H     1 <1>   0.0800 
 40 H        0.1910    10.2040    -2.8280 H     1 <1>   0.0800 
 41 H        1.4160    10.9420    -1.7860 H     1 <1>   0.0800 
@<TRIPOS>BOND
  1   1   2  1   
  2   2   3  1   
  3   2   4  1   
  4   2   5  1   
  5   5   6  ar  
  6   5   7  ar  
  7   6   8  ar  
  8   6  24  1   
  9   7   9  ar  
 10   7  25  1   
 11   8  10  ar  
 12   8  11  ar  
 13   9  11  ar  
 14   9  26  1   
 15  10  12  ar  
 16  10  27  1   
 17  11  13  ar  
 18  12  14  ar  
 19  12  15  1   
 20  13  14  ar  
 21  13  16  1   
 22  14  28  1   
 23  15  29  1   
 24  15  30  1   
 25  15  31  1   
 26  16  17  1   
 27  16  32  1   
 28  17  18  1   
 29  17  19  1   
 30  17  33  1   
 31  18  20  1   
 32  18  21  1   
 33  18  34  1   
 34  19  22  1   
 35  19  35  1   
 36  19  36  1   
 37  20  23  1   
 38  21  22  1   
 39  21  37  1   
 40  21  38  1   
 41  23  39  1   
 42  23  40  1   
 43  23  41  1   
@<TRIPOS>SUBSTRUCTURE
  1 ****  11 GROUP 4 **** **** 0

# MOE 2024.06 (io_trps.svl 2023.06)
