@<TRIPOS>MOLECULE
NONAME
46 48 1 0 0 
SMALL
USER_CHARGES


@<TRIPOS>ATOM
  1 O        0.1850     0.0040     1.7130 O.3   1 <1>  -0.6800 
  2 C        0.7520    -0.1110     0.4500 C.3   1 <1>   0.2000 
  3 C        1.5340    -1.4240     0.4090 C.3   1 <1>  -0.0800 
  4 C        1.8410     0.9690     0.3150 C.3   1 <1>   0.3430 
  5 C        2.7840    -1.0330     1.2020 C.3   1 <1>   0.3430 
  6 C        1.8180    -1.8480    -1.0600 C.3   1 <1>  -0.0170 
  7 N        3.1370     0.3020     0.6670 N.4   1 <1>  -0.9590 
  8 C        3.2190    -2.3950    -1.3040 C.ar  1 <1>   0.1670 
  9 C        4.0060     1.1060     1.5570 C.3   1 <1>   0.4860 
 10 N        4.1880    -1.4940    -1.4180 N.ar  1 <1>  -0.6200 
 11 C        3.4250    -3.7700    -1.4040 C.ar  1 <1>   0.1600 
 12 C        4.3570     2.3990     0.8440 C.ar  1 <1>  -0.1440 
 13 C        5.3610    -2.0630    -1.6650 C.ar  1 <1>   0.1600 
 14 N        4.6000    -4.3310    -1.6210 N.ar  1 <1>  -0.6200 
 15 C        3.8310     3.6040     1.2860 C.ar  1 <1>  -0.1500 
 16 C        5.2010     2.3910    -0.2570 C.ar  1 <1>  -0.1500 
 17 C        5.5600    -3.4350    -1.7610 C.ar  1 <1>   0.1600 
 18 C        4.1420     4.7820     0.6280 C.ar  1 <1>  -0.1500 
 19 C        5.5060     3.5730    -0.9090 C.ar  1 <1>  -0.1500 
 20 C        4.9820     4.7830    -0.4760 C.ar  1 <1>   0.0730 
 21 C        5.3000     6.0030    -1.1550 C.1   1 <1>  -0.0730 
 22 C        5.5680     7.0150    -1.7230 C.1   1 <1>  -0.2000 
 23 C        5.9020     8.2780    -2.4350 C.3   1 <1>   0.3200 
 24 O        7.2750     8.3640    -2.5000 O.3   1 <1>  -0.6800 
 25 H       -0.6530    -0.5030     1.7800 H     1 <1>   0.4000 
 26 H       -0.0260    -0.0190    -0.2900 H     1 <1>   0.0800 
 27 H        1.0130    -2.2200     0.9110 H     1 <1>   0.0800 
 28 H        1.6240     1.7920     0.9760 H     1 <1>   0.0800 
 29 H        1.8880     1.3320    -0.6990 H     1 <1>   0.0800 
 30 H        3.5880    -1.7410     1.0790 H     1 <1>   0.0800 
 31 H        2.5290    -0.9530     2.2470 H     1 <1>   0.0800 
 32 H        1.6890    -1.0130    -1.7280 H     1 <1>   0.0800 
 33 H        1.0890    -2.5820    -1.3560 H     1 <1>   0.0800 
 34 H        3.6540     0.1170    -0.2140 H     1 <1>   0.4500 
 35 H        3.4930     1.3210     2.4800 H     1 <1>   0.0800 
 36 H        4.9090     0.5630     1.7820 H     1 <1>   0.0800 
 37 H        2.5870    -4.4380    -1.3020 H     1 <1>   0.1500 
 38 H        6.2120    -1.4170    -1.8010 H     1 <1>   0.1500 
 39 H        3.1790     3.6440     2.1420 H     1 <1>   0.1500 
 40 H        5.6300     1.4720    -0.6200 H     1 <1>   0.1500 
 41 H        6.5520    -3.8050    -1.9600 H     1 <1>   0.1500 
 42 H        3.7330     5.7150     0.9750 H     1 <1>   0.1500 
 43 H        6.1620     3.5650    -1.7630 H     1 <1>   0.1500 
 44 H        5.5310     9.1320    -1.8950 H     1 <1>   0.0800 
 45 H        5.5120     8.2800    -3.4380 H     1 <1>   0.0800 
 46 H        7.6490     8.0430    -1.6580 H     1 <1>   0.4000 
@<TRIPOS>BOND
  1   1   2  1   
  2   1  25  1   
  3   2   3  1   
  4   2   4  1   
  5   2  26  1   
  6   3   5  1   
  7   3   6  1   
  8   3  27  1   
  9   4   7  1   
 10   4  28  1   
 11   4  29  1   
 12   5   7  1   
 13   5  30  1   
 14   5  31  1   
 15   6   8  1   
 16   6  32  1   
 17   6  33  1   
 18   7   9  1   
 19   7  34  1   
 20   8  10  ar  
 21   8  11  ar  
 22   9  12  1   
 23   9  35  1   
 24   9  36  1   
 25  10  13  ar  
 26  11  14  ar  
 27  11  37  1   
 28  12  15  ar  
 29  12  16  ar  
 30  13  17  ar  
 31  13  38  1   
 32  14  17  ar  
 33  15  18  ar  
 34  15  39  1   
 35  16  19  ar  
 36  16  40  1   
 37  17  41  1   
 38  18  20  ar  
 39  18  42  1   
 40  19  20  ar  
 41  19  43  1   
 42  20  21  1   
 43  21  22  3   
 44  22  23  1   
 45  23  24  1   
 46  23  44  1   
 47  23  45  1   
 48  24  46  1   
@<TRIPOS>SUBSTRUCTURE
  1 ****  16 GROUP 4 **** **** 0

# MOE 2024.06 (io_trps.svl 2023.06)
