@<TRIPOS>MOLECULE
NONAME
48 50 1 0 0 
SMALL
USER_CHARGES


@<TRIPOS>ATOM
  1 S        0.1570     0.1740    -2.1680 S.o2  1 <1>   1.4470 
  2 O       -0.5340     1.1480    -2.9830 O.2   1 <1>  -0.6500 
  3 O        1.0990    -0.7220    -2.7970 O.2   1 <1>  -0.6500 
  4 N        1.0910     1.0960    -1.0720 N.am  1 <1>  -0.8490 
  5 C       -1.0010    -0.6640    -1.0590 C.ar  1 <1>  -0.0090 
  6 C        0.3300     2.2030    -0.4190 C.3   1 <1>   0.1960 
  7 C        1.7830     0.2520    -0.0850 C.3   1 <1>   0.1960 
  8 C       -0.9590    -2.0170    -0.7640 C.ar  1 <1>   0.1900 
  9 C       -1.9310     0.0850    -0.3580 C.ar  1 <1>  -0.1500 
 10 C        1.1950     3.4440    -0.1340 C.3   1 <1>   0.3430 
 11 C        3.1580     0.8260     0.2750 C.3   1 <1>  -0.1600 
 12 F       -0.1230    -2.7960    -1.3920 F     1 <1>  -0.1900 
 13 C       -1.7590    -2.5970     0.2040 C.ar  1 <1>  -0.1500 
 14 C       -2.6780    -0.4220     0.7000 C.ar  1 <1>  -0.1790 
 15 N        2.6470     3.1450    -0.3230 N.4   1 <1>  -0.9590 
 16 C        3.1590     2.2730     0.7640 C.3   1 <1>   0.3430 
 17 C       -2.6080    -1.7930     0.9430 C.ar  1 <1>  -0.1500 
 18 C       -3.4250     0.5020     1.5340 C.2   1 <1>   0.9790 
 19 C        3.4350     4.3620    -0.6660 C.3   1 <1>   0.4230 
 20 O       -4.3790     0.1200     2.2270 O.co2 1 <1>  -0.9000 
 21 O       -3.0490     1.6900     1.5850 O.co2 1 <1>  -0.9000 
 22 C        4.8370     3.9960    -1.1520 C.3   1 <1>  -0.1600 
 23 C        3.6690     5.2740     0.5390 C.3   1 <1>  -0.1600 
 24 C        5.7970     4.1490     0.0350 C.3   1 <1>  -0.1600 
 25 C        5.0400     4.9150     1.1250 C.3   1 <1>  -0.1600 
 26 H       -0.1260     1.8690     0.5000 H     1 <1>   0.0800 
 27 H       -0.4710     2.5420    -1.0530 H     1 <1>   0.0800 
 28 H        1.9480    -0.7350    -0.4890 H     1 <1>   0.0800 
 29 H        1.1770     0.1320     0.8000 H     1 <1>   0.0800 
 30 H       -2.0750     1.1240    -0.6000 H     1 <1>   0.1500 
 31 H        1.0030     3.8060     0.8630 H     1 <1>   0.0800 
 32 H        0.8970     4.2160    -0.8240 H     1 <1>   0.0800 
 33 H        3.8100     0.7340    -0.5760 H     1 <1>   0.0800 
 34 H        3.5780     0.2110     1.0510 H     1 <1>   0.0800 
 35 H       -1.7060    -3.6550     0.3890 H     1 <1>   0.1500 
 36 H        2.6300     2.5270    -1.1550 H     1 <1>   0.4500 
 37 H        4.1660     2.5460     1.0190 H     1 <1>   0.0800 
 38 H        2.5480     2.3730     1.6470 H     1 <1>   0.0800 
 39 H       -3.2210    -2.2070     1.7290 H     1 <1>   0.1500 
 40 H        2.9180     4.9030    -1.4430 H     1 <1>   0.0800 
 41 H        5.1210     4.7140    -1.9020 H     1 <1>   0.0800 
 42 H        4.8830     3.0170    -1.5960 H     1 <1>   0.0800 
 43 H        2.8850     5.2250     1.2720 H     1 <1>   0.0800 
 44 H        3.7210     6.2860     0.1750 H     1 <1>   0.0800 
 45 H        6.6800     4.6890    -0.2650 H     1 <1>   0.0800 
 46 H        6.1050     3.1840     0.4020 H     1 <1>   0.0800 
 47 H        4.9250     4.2980     2.0000 H     1 <1>   0.0800 
 48 H        5.5760     5.8050     1.4140 H     1 <1>   0.0800 
@<TRIPOS>BOND
  1   1   2  2   
  2   1   3  2   
  3   1   4  am  
  4   1   5  1   
  5   4   6  1   
  6   4   7  1   
  7   5   8  ar  
  8   5   9  ar  
  9   6  10  1   
 10   6  26  1   
 11   6  27  1   
 12   7  11  1   
 13   7  28  1   
 14   7  29  1   
 15   8  12  1   
 16   8  13  ar  
 17   9  14  ar  
 18   9  30  1   
 19  10  15  1   
 20  10  31  1   
 21  10  32  1   
 22  11  16  1   
 23  11  33  1   
 24  11  34  1   
 25  13  17  ar  
 26  13  35  1   
 27  14  17  ar  
 28  14  18  1   
 29  15  16  1   
 30  15  19  1   
 31  15  36  1   
 32  16  37  1   
 33  16  38  1   
 34  17  39  1   
 35  18  20  ar  
 36  18  21  ar  
 37  19  22  1   
 38  19  23  1   
 39  19  40  1   
 40  22  24  1   
 41  22  41  1   
 42  22  42  1   
 43  23  25  1   
 44  23  43  1   
 45  23  44  1   
 46  24  25  1   
 47  24  45  1   
 48  24  46  1   
 49  25  47  1   
 50  25  48  1   
@<TRIPOS>SUBSTRUCTURE
  1 ****   4 GROUP 4 **** **** 0

# MOE 2024.06 (io_trps.svl 2023.06)
