@<TRIPOS>MOLECULE
NONAME
47 49 1 0 0 
SMALL
USER_CHARGES


@<TRIPOS>ATOM
  1 CL       1.3980     0.2430    -1.7040 Cl    1 <1>  -0.1770 
  2 C        0.5040     1.4860    -0.8560 C.ar  1 <1>   0.1770 
  3 C        1.1220     2.3360     0.0580 C.ar  1 <1>  -0.1440 
  4 C       -0.8460     1.5880    -1.1400 C.ar  1 <1>  -0.1500 
  5 C        0.3400     3.3040     0.6770 C.ar  1 <1>  -0.1500 
  6 C        2.6070     2.2550     0.4130 C.3   1 <1>   0.3640 
  7 C       -1.6080     2.5540    -0.5100 C.ar  1 <1>  -0.1500 
  8 C       -1.0120     3.4120     0.3960 C.ar  1 <1>  -0.1500 
  9 N        2.8760     0.9240     1.0090 N.am  1 <1>  -0.7300 
 10 C        3.5430     2.5980    -0.7820 C.3   1 <1>   0.2610 
 11 C        3.8790     0.1140     0.6090 C.2   1 <1>   0.5690 
 12 O        4.8220     1.9810    -0.6470 O.3   1 <1>  -0.5600 
 13 C        3.6940     4.1190    -0.8910 C.2   1 <1>   0.5690 
 14 O        4.0530    -0.9580     1.1310 O.2   1 <1>  -0.5700 
 15 C        4.7850     0.5760    -0.5330 C.3   1 <1>   0.1810 
 16 O        2.7110     4.8150    -0.9860 O.2   1 <1>  -0.5700 
 17 N        4.9380     4.6600    -0.8620 N.am  1 <1>  -0.7300 
 18 C        5.2650     6.0980    -0.8480 C.3   1 <1>   0.2350 
 19 C        6.5690     6.3880    -0.0650 C.3   1 <1>  -0.1900 
 20 C        6.8420     7.9190    -0.0110 C.3   1 <1>   0.0150 
 21 C        7.7050     5.4050    -0.1680 C.3   1 <1>  -0.2000 
 22 C        6.9350     5.5400     1.1190 C.3   1 <1>  -0.2000 
 23 C        8.2840     8.3100     0.3530 C.3   1 <1>  -0.2400 
 24 C        5.8860     8.6080     0.9740 C.3   1 <1>  -0.2400 
 25 H       -1.2930     0.9150    -1.8490 H     1 <1>   0.1500 
 26 H        0.7780     3.9920     1.3810 H     1 <1>   0.1500 
 27 H        2.8060     2.9820     1.1820 H     1 <1>   0.0800 
 28 H       -2.6600     2.6410    -0.7260 H     1 <1>   0.1500 
 29 H       -1.6010     4.1700     0.8840 H     1 <1>   0.1500 
 30 H        2.2390     0.5900     1.7330 H     1 <1>   0.3700 
 31 H        3.1140     2.2510    -1.7030 H     1 <1>   0.0800 
 32 H        4.4360     0.1630    -1.4620 H     1 <1>   0.0800 
 33 H        5.7880     0.2330    -0.3530 H     1 <1>   0.0800 
 34 H        5.7340     4.0270    -0.7480 H     1 <1>   0.3700 
 35 H        5.3750     6.4340    -1.8650 H     1 <1>   0.0800 
 36 H        4.4390     6.6320    -0.4110 H     1 <1>   0.0800 
 37 H        6.6550     8.3240    -0.9920 H     1 <1>   0.0800 
 38 H        7.5880     4.5030    -0.7420 H     1 <1>   0.1000 
 39 H        8.7320     5.7190    -0.1550 H     1 <1>   0.1000 
 40 H        7.4250     5.9930     1.9630 H     1 <1>   0.1000 
 41 H        6.2850     4.7380     1.4230 H     1 <1>   0.1000 
 42 H        8.5640     7.9180     1.3140 H     1 <1>   0.0800 
 43 H        8.3800     9.3800     0.3850 H     1 <1>   0.0800 
 44 H        8.9710     7.9470    -0.3890 H     1 <1>   0.0800 
 45 H        6.0250     8.2170     1.9670 H     1 <1>   0.0800 
 46 H        4.8600     8.4640     0.6910 H     1 <1>   0.0800 
 47 H        6.0720     9.6670     0.9970 H     1 <1>   0.0800 
@<TRIPOS>BOND
  1   1   2  1   
  2   2   3  ar  
  3   2   4  ar  
  4   3   5  ar  
  5   3   6  1   
  6   4   7  ar  
  7   4  25  1   
  8   5   8  ar  
  9   5  26  1   
 10   6   9  1   
 11   6  10  1   
 12   6  27  1   
 13   7   8  ar  
 14   7  28  1   
 15   8  29  1   
 16   9  11  am  
 17   9  30  1   
 18  10  12  1   
 19  10  13  1   
 20  10  31  1   
 21  11  14  2   
 22  11  15  1   
 23  12  15  1   
 24  13  16  2   
 25  13  17  am  
 26  15  32  1   
 27  15  33  1   
 28  17  18  1   
 29  17  34  1   
 30  18  19  1   
 31  18  35  1   
 32  18  36  1   
 33  19  20  1   
 34  19  21  1   
 35  19  22  1   
 36  20  23  1   
 37  20  24  1   
 38  20  37  1   
 39  21  22  1   
 40  21  38  1   
 41  21  39  1   
 42  22  40  1   
 43  22  41  1   
 44  23  42  1   
 45  23  43  1   
 46  23  44  1   
 47  24  45  1   
 48  24  46  1   
 49  24  47  1   
@<TRIPOS>SUBSTRUCTURE
  1 ****  13 GROUP 4 **** **** 0

# MOE 2024.06 (io_trps.svl 2023.06)
