@<TRIPOS>MOLECULE
NONAME
47 49 1 0 0 
SMALL
USER_CHARGES


@<TRIPOS>ATOM
  1 O       -3.1390    -0.7770    -2.7220 O.co2 1 <1>  -0.9000 
  2 C       -2.6180    -0.1920    -1.7530 C.2   1 <1>   0.9790 
  3 O       -1.5360     0.3950    -1.9090 O.co2 1 <1>  -0.9000 
  4 C       -3.2310    -0.3670    -0.4550 C.ar  1 <1>  -0.1790 
  5 C       -3.8090     0.6020     0.3860 C.ar  1 <1>   0.0830 
  6 C       -3.3270    -1.6960    -0.0580 C.ar  1 <1>  -0.1500 
  7 O       -3.8290     1.9440     0.1880 O.3   1 <1>  -0.3630 
  8 C       -4.4700     0.1990     1.5380 C.ar  1 <1>  -0.1500 
  9 C       -4.0430    -2.0990     1.0530 C.ar  1 <1>  -0.1430 
 10 C       -3.0360     2.6100    -0.7680 C.3   1 <1>   0.0400 
 11 C       -4.6040    -1.1360     1.8730 C.ar  1 <1>  -0.1500 
 12 C       -4.2580    -3.5780     1.2930 C.3   1 <1>   0.4870 
 13 N       -4.7150    -4.1920     0.0070 N.4   1 <1>  -0.9590 
 14 C       -5.8580    -3.4660    -0.6610 C.3   1 <1>   0.3430 
 15 C       -5.0580    -5.6380     0.0750 C.3   1 <1>   0.3430 
 16 C       -6.9190    -4.5290    -0.9700 C.3   1 <1>   0.2000 
 17 C       -6.1270    -5.8380    -0.9980 C.3   1 <1>  -0.0800 
 18 O       -7.8530    -4.5650     0.0620 O.3   1 <1>  -0.6800 
 19 C       -6.9410    -7.1390    -0.8370 C.3   1 <1>   0.0200 
 20 C       -6.0140    -8.3180    -0.6070 C.2   1 <1>  -0.0400 
 21 O       -4.9500    -8.4650    -1.3500 O.3   1 <1>  -0.0190 
 22 C       -6.0380    -9.3210     0.2830 C.2   1 <1>  -0.1500 
 23 N       -4.2500    -9.4990    -0.9920 N.2   1 <1>  -0.4100 
 24 C       -4.8870   -10.0440    -0.0180 C.2   1 <1>   0.1080 
 25 C       -4.4370   -11.3000     0.6970 C.3   1 <1>  -0.0590 
 26 H       -2.8420    -2.4160    -0.6960 H     1 <1>   0.1500 
 27 H       -4.8970     0.9570     2.1700 H     1 <1>   0.1500 
 28 H       -3.1960     3.6660    -0.6610 H     1 <1>   0.0800 
 29 H       -3.3310     2.2980    -1.7540 H     1 <1>   0.0800 
 30 H       -2.0010     2.3790    -0.5850 H     1 <1>   0.0800 
 31 H       -5.1510    -1.4010     2.7610 H     1 <1>   0.1500 
 32 H       -5.0030    -3.7150     2.0580 H     1 <1>   0.0800 
 33 H       -3.3350    -4.0310     1.6170 H     1 <1>   0.0800 
 34 H       -3.9230    -4.0760    -0.6440 H     1 <1>   0.4500 
 35 H       -6.2670    -2.6860    -0.0390 H     1 <1>   0.0800 
 36 H       -5.5060    -3.0210    -1.5790 H     1 <1>   0.0800 
 37 H       -4.1970    -6.2630    -0.1060 H     1 <1>   0.0800 
 38 H       -5.4740    -5.8760     1.0400 H     1 <1>   0.0800 
 39 H       -7.4430    -4.3320    -1.8910 H     1 <1>   0.0800 
 40 H       -5.6140    -5.8910    -1.9430 H     1 <1>   0.0800 
 41 H       -7.4420    -4.5350     0.9460 H     1 <1>   0.4000 
 42 H       -7.5190    -7.3120    -1.7290 H     1 <1>   0.0800 
 43 H       -7.6250    -7.0800    -0.0090 H     1 <1>   0.0800 
 44 H       -6.7500    -9.5500     1.0550 H     1 <1>   0.1500 
 45 H       -4.3250   -11.1070     1.7470 H     1 <1>   0.0800 
 46 H       -3.4940   -11.6310     0.3010 H     1 <1>   0.0800 
 47 H       -5.1640   -12.0790     0.5550 H     1 <1>   0.0800 
@<TRIPOS>BOND
  1   1   2  ar  
  2   2   3  ar  
  3   2   4  1   
  4   4   5  ar  
  5   4   6  ar  
  6   5   7  1   
  7   5   8  ar  
  8   6   9  ar  
  9   6  26  1   
 10   7  10  1   
 11   8  11  ar  
 12   8  27  1   
 13   9  11  ar  
 14   9  12  1   
 15  10  28  1   
 16  10  29  1   
 17  10  30  1   
 18  11  31  1   
 19  12  13  1   
 20  12  32  1   
 21  12  33  1   
 22  13  14  1   
 23  13  15  1   
 24  13  34  1   
 25  14  16  1   
 26  14  35  1   
 27  14  36  1   
 28  15  17  1   
 29  15  37  1   
 30  15  38  1   
 31  16  17  1   
 32  16  18  1   
 33  16  39  1   
 34  17  19  1   
 35  17  40  1   
 36  18  41  1   
 37  19  20  1   
 38  19  42  1   
 39  19  43  1   
 40  20  21  1   
 41  20  22  2   
 42  21  23  1   
 43  22  24  1   
 44  22  44  1   
 45  23  24  2   
 46  24  25  1   
 47  25  45  1   
 48  25  46  1   
 49  25  47  1   
@<TRIPOS>SUBSTRUCTURE
  1 ****  13 GROUP 4 **** **** 0

# MOE 2024.06 (io_trps.svl 2023.06)
