@<TRIPOS>MOLECULE
NONAME
48 50 1 0 0 
SMALL
USER_CHARGES


@<TRIPOS>ATOM
  1 O       -0.9650    -0.4310    -2.8610 O.2   1 <1>  -0.5700 
  2 C       -1.3970     0.2340    -1.9480 C.2   1 <1>   0.5690 
  3 N       -2.0460    -0.3640    -0.8890 N.am  1 <1>  -0.6600 
  4 C       -1.2120     1.7600    -2.0670 C.3   1 <1>   0.1710 
  5 C       -2.1270    -1.8600    -0.8660 C.3   1 <1>   0.3200 
  6 C       -2.3970     0.3680     0.3830 C.3   1 <1>   0.1400 
  7 N       -0.5220     2.4310    -0.9330 N.3   1 <1>  -0.8100 
  8 C       -3.2570    -2.4010    -0.0040 C.2   1 <1>  -0.3320 
  9 C       -3.5840     1.3330     0.2010 C.3   1 <1>   0.1200 
 10 C       -0.5630     3.8970    -1.0800 C.3   1 <1>   0.2530 
 11 C        0.8700     1.9760    -0.7980 C.3   1 <1>   0.1100 
 12 N       -4.5230    -1.9440    -0.0130 N.pl3 1 <1>   0.0330 
 13 C       -3.2290    -3.4030     0.9020 C.2   1 <1>   0.0770 
 14 O       -4.4600     0.8440    -0.7630 O.3   1 <1>  -0.6800 
 15 C        0.2140     4.6070     0.0260 C.ar  1 <1>  -0.1440 
 16 C        1.4410     2.4600     0.5380 C.3   1 <1>  -0.0170 
 17 C       -5.1820    -2.6940     0.8950 C.2   1 <1>   0.0070 
 18 N       -4.4390    -3.5840     1.4640 N.2   1 <1>  -0.5650 
 19 C        1.1710     3.9380     0.7790 C.ar  1 <1>  -0.1440 
 20 C       -0.0300     5.9500     0.2720 C.ar  1 <1>  -0.1500 
 21 C       -6.6460    -2.4870     1.2110 C.3   1 <1>  -0.0600 
 22 C        1.8730     4.6150     1.7640 C.ar  1 <1>  -0.1500 
 23 C        0.6720     6.6230     1.2560 C.ar  1 <1>  -0.1500 
 24 C        1.6250     5.9550     2.0030 C.ar  1 <1>  -0.1500 
 25 H       -2.1890     2.1910    -2.1880 H     1 <1>   0.0800 
 26 H       -0.6660     1.9560    -2.9740 H     1 <1>   0.0800 
 27 H       -1.1890    -2.2490    -0.5100 H     1 <1>   0.0800 
 28 H       -2.2690    -2.2250    -1.8700 H     1 <1>   0.0800 
 29 H       -1.5440     0.9150     0.7410 H     1 <1>   0.0800 
 30 H       -2.6390    -0.3270     1.1670 H     1 <1>   0.0800 
 31 H       -3.2310     2.2960    -0.1240 H     1 <1>   0.0800 
 32 H       -4.1210     1.4610     1.1250 H     1 <1>   0.0800 
 33 H       -1.5880     4.2240    -1.0540 H     1 <1>   0.0800 
 34 H       -0.1410     4.1800    -2.0300 H     1 <1>   0.0800 
 35 H        1.4630     2.3640    -1.6100 H     1 <1>   0.0800 
 36 H        0.9190     0.9000    -0.8260 H     1 <1>   0.0800 
 37 H       -4.8920    -1.1360    -0.5330 H     1 <1>   0.2700 
 38 H       -2.3910    -4.0170     1.1880 H     1 <1>   0.1500 
 39 H       -3.9140     0.4740    -1.4900 H     1 <1>   0.4000 
 40 H        2.4990     2.2730     0.5560 H     1 <1>   0.0800 
 41 H        0.9900     1.8920     1.3320 H     1 <1>   0.0800 
 42 H       -0.7670     6.4810    -0.3040 H     1 <1>   0.1500 
 43 H       -6.8080    -1.4870     1.5690 H     1 <1>   0.0800 
 44 H       -6.9550    -3.1810     1.9720 H     1 <1>   0.0800 
 45 H       -7.2400    -2.6510     0.3310 H     1 <1>   0.0800 
 46 H        2.6120     4.1000     2.3510 H     1 <1>   0.1500 
 47 H        0.4770     7.6650     1.4410 H     1 <1>   0.1500 
 48 H        2.1730     6.4760     2.7680 H     1 <1>   0.1500 
@<TRIPOS>BOND
  1   1   2  2   
  2   2   3  am  
  3   2   4  1   
  4   3   5  1   
  5   3   6  1   
  6   4   7  1   
  7   4  25  1   
  8   4  26  1   
  9   5   8  1   
 10   5  27  1   
 11   5  28  1   
 12   6   9  1   
 13   6  29  1   
 14   6  30  1   
 15   7  10  1   
 16   7  11  1   
 17   8  12  1   
 18   8  13  2   
 19   9  14  1   
 20   9  31  1   
 21   9  32  1   
 22  10  15  1   
 23  10  33  1   
 24  10  34  1   
 25  11  16  1   
 26  11  35  1   
 27  11  36  1   
 28  12  17  1   
 29  12  37  1   
 30  13  18  1   
 31  13  38  1   
 32  14  39  1   
 33  15  19  ar  
 34  15  20  ar  
 35  16  19  1   
 36  16  40  1   
 37  16  41  1   
 38  17  18  2   
 39  17  21  1   
 40  19  22  ar  
 41  20  23  ar  
 42  20  42  1   
 43  21  43  1   
 44  21  44  1   
 45  21  45  1   
 46  22  24  ar  
 47  22  46  1   
 48  23  24  ar  
 49  23  47  1   
 50  24  48  1   
@<TRIPOS>SUBSTRUCTURE
  1 ****   6 GROUP 4 **** **** 0

# MOE 2024.06 (io_trps.svl 2023.06)
