@<TRIPOS>MOLECULE
NONAME
53 55 1 0 0 
SMALL
USER_CHARGES


@<TRIPOS>ATOM
  1 O       -2.6710     0.2390     0.5850 O.2   1 <1>  -0.5700 
  2 C       -2.6370     1.0520    -0.3240 C.2   1 <1>   0.5440 
  3 N       -3.4490     0.7800    -1.3990 N.am  1 <1>  -0.6600 
  4 C       -1.8400     2.2650    -0.2470 C.ar  1 <1>   0.0860 
  5 C       -4.8600     1.2670    -1.3110 C.3   1 <1>   0.1400 
  6 C       -3.3500    -0.5820    -2.0200 C.3   1 <1>   0.1400 
  7 C       -1.2120     2.6410     0.9430 C.ar  1 <1>  -0.1500 
  8 C       -1.6670     3.1070    -1.3470 C.ar  1 <1>  -0.1500 
  9 C       -5.7420     0.3020    -0.4680 C.3   1 <1>   0.4230 
 10 C       -4.4180    -1.5580    -1.4650 C.3   1 <1>   0.3430 
 11 C       -0.4580     3.7970     1.0450 C.ar  1 <1>  -0.1440 
 12 C       -0.9170     4.2650    -1.2630 C.ar  1 <1>  -0.1500 
 13 N       -5.0510    -1.0200    -0.2110 N.4   1 <1>  -0.9590 
 14 C       -7.1240     0.0830    -1.1240 C.3   1 <1>   0.1200 
 15 C       -0.3060     4.6220    -0.0650 C.ar  1 <1>   0.0830 
 16 C        0.2010     4.1560     2.3690 C.3   1 <1>  -0.0970 
 17 C       -5.9510    -1.9490     0.5420 C.3   1 <1>   0.4230 
 18 O       -7.8940    -0.8130    -0.3720 O.3   1 <1>  -0.5600 
 19 O        0.4380     5.7450     0.0770 O.3   1 <1>  -0.3630 
 20 C       -7.3210    -2.0770    -0.1660 C.3   1 <1>   0.1200 
 21 C       -5.2620    -3.3030     0.7740 C.3   1 <1>  -0.1600 
 22 C        0.6760     6.6330    -0.9930 C.3   1 <1>   0.0400 
 23 C       -5.9820    -4.1540     1.8320 C.3   1 <1>  -0.1600 
 24 C       -5.2200    -5.4550     2.0950 C.3   1 <1>  -0.2400 
 25 H       -4.8810     2.2470    -0.8640 H     1 <1>   0.0800 
 26 H       -5.2560     1.3640    -2.3080 H     1 <1>   0.0800 
 27 H       -3.4490    -0.5020    -3.0880 H     1 <1>   0.0800 
 28 H       -2.3730    -0.9890    -1.8200 H     1 <1>   0.0800 
 29 H       -1.3220     2.0060     1.8050 H     1 <1>   0.1500 
 30 H       -2.1230     2.8530    -2.2870 H     1 <1>   0.1500 
 31 H       -5.9180     0.7800     0.4810 H     1 <1>   0.0800 
 32 H       -3.9420    -2.5050    -1.2690 H     1 <1>   0.0800 
 33 H       -5.1740    -1.7210    -2.2140 H     1 <1>   0.0800 
 34 H       -0.8160     4.8780    -2.1390 H     1 <1>   0.1500 
 35 H       -4.2380    -0.7680     0.3930 H     1 <1>   0.4500 
 36 H       -7.0280    -0.3050    -2.1230 H     1 <1>   0.0800 
 37 H       -7.6650     1.0120    -1.1690 H     1 <1>   0.0800 
 38 H       -0.0020     3.4180     3.1230 H     1 <1>   0.0800 
 39 H       -0.1650     5.1070     2.7110 H     1 <1>   0.0800 
 40 H        1.2660     4.2260     2.2360 H     1 <1>   0.0800 
 41 H       -6.1390    -1.5160     1.5110 H     1 <1>   0.0800 
 42 H       -8.0060    -2.6390     0.4440 H     1 <1>   0.0800 
 43 H       -7.2270    -2.5730    -1.1160 H     1 <1>   0.0800 
 44 H       -5.2180    -3.8620    -0.1430 H     1 <1>   0.0800 
 45 H       -4.2580    -3.1250     1.1190 H     1 <1>   0.0800 
 46 H        1.2980     7.4310    -0.6320 H     1 <1>   0.0800 
 47 H       -0.2650     7.0280    -1.3340 H     1 <1>   0.0800 
 48 H        1.1820     6.1030    -1.7810 H     1 <1>   0.0800 
 49 H       -6.0600    -3.6040     2.7570 H     1 <1>   0.0800 
 50 H       -6.9790    -4.4020     1.5070 H     1 <1>   0.0800 
 51 H       -4.2280    -5.2500     2.4580 H     1 <1>   0.0800 
 52 H       -5.1460    -6.0430     1.1970 H     1 <1>   0.0800 
 53 H       -5.7350    -6.0390     2.8390 H     1 <1>   0.0800 
@<TRIPOS>BOND
  1   1   2  2   
  2   2   3  am  
  3   2   4  1   
  4   3   5  1   
  5   3   6  1   
  6   4   7  ar  
  7   4   8  ar  
  8   5   9  1   
  9   5  25  1   
 10   5  26  1   
 11   6  10  1   
 12   6  27  1   
 13   6  28  1   
 14   7  11  ar  
 15   7  29  1   
 16   8  12  ar  
 17   8  30  1   
 18   9  13  1   
 19   9  14  1   
 20   9  31  1   
 21  10  13  1   
 22  10  32  1   
 23  10  33  1   
 24  11  15  ar  
 25  11  16  1   
 26  12  15  ar  
 27  12  34  1   
 28  13  17  1   
 29  13  35  1   
 30  14  18  1   
 31  14  36  1   
 32  14  37  1   
 33  15  19  1   
 34  16  38  1   
 35  16  39  1   
 36  16  40  1   
 37  17  20  1   
 38  17  21  1   
 39  17  41  1   
 40  18  20  1   
 41  19  22  1   
 42  20  42  1   
 43  20  43  1   
 44  21  23  1   
 45  21  44  1   
 46  21  45  1   
 47  22  46  1   
 48  22  47  1   
 49  22  48  1   
 50  23  24  1   
 51  23  49  1   
 52  23  50  1   
 53  24  51  1   
 54  24  52  1   
 55  24  53  1   
@<TRIPOS>SUBSTRUCTURE
  1 ****   2 GROUP 4 **** **** 0

# MOE 2024.06 (io_trps.svl 2023.06)
