@<TRIPOS>MOLECULE
NONAME
43 45 1 0 0 
SMALL
USER_CHARGES


@<TRIPOS>ATOM
  1 S        0.0170    -0.3120    -0.7290 S.3   1 <1>  -0.0800 
  2 C       -1.3920    -0.9200     0.0820 C.2   1 <1>   0.4420 
  3 C       -0.4350     1.2630    -0.1750 C.2   1 <1>   0.1980 
  4 N       -2.0490     0.0160     0.6670 N.2   1 <1>  -0.3380 
  5 N       -1.6150    -2.2760     0.0040 N.am  1 <1>  -0.4940 
  6 N       -1.4990     1.2570     0.5160 N.2   1 <1>  -0.3380 
  7 C        0.4320     2.4450    -0.5460 C.3   1 <1>   0.0200 
  8 C       -2.6620    -3.0220     0.4730 C.2   1 <1>   0.7160 
  9 C       -0.2030     3.7200     0.0230 C.3   1 <1>   0.3430 
 10 O       -3.6210    -2.4830     0.9820 O.2   1 <1>  -0.5700 
 11 C       -2.5840    -4.4620     0.3220 C.2   1 <1>  -0.0860 
 12 N        0.5490     4.9670    -0.3430 N.4   1 <1>  -0.9590 
 13 C       -3.7320    -5.3180     0.1160 C.2   1 <1>  -0.1810 
 14 C       -1.4350    -5.1870     0.3510 C.2   1 <1>  -0.1100 
 15 C        1.8860     5.0520     0.3290 C.3   1 <1>   0.2630 
 16 C       -0.2740     6.1670     0.0100 C.3   1 <1>   0.2630 
 17 C       -3.4360    -6.6220     0.0050 C.2   1 <1>  -0.1400 
 18 C       -5.1740    -4.8320     0.0310 C.3   1 <1>   0.0210 
 19 S       -1.7160    -6.8980     0.1250 S.3   1 <1>  -0.0800 
 20 C       -4.3840    -7.7840    -0.1990 C.3   1 <1>   0.0200 
 21 C       -6.0980    -5.9230    -0.5490 C.3   1 <1>  -0.1600 
 22 C       -5.8250    -7.3110     0.0650 C.3   1 <1>  -0.1600 
 23 H       -0.9230    -2.8120    -0.5080 H     1 <1>   0.3700 
 24 H        0.4930     2.5070    -1.6170 H     1 <1>   0.0800 
 25 H        1.4120     2.2900    -0.1340 H     1 <1>   0.0800 
 26 H       -0.2670     3.6330     1.0970 H     1 <1>   0.0800 
 27 H       -1.2110     3.7870    -0.3540 H     1 <1>   0.0800 
 28 H        0.6900     4.9780    -1.3660 H     1 <1>   0.4500 
 29 H       -0.4120    -4.8900     0.4970 H     1 <1>   0.1500 
 30 H        1.7690     5.0290     1.4010 H     1 <1>   0.0800 
 31 H        2.3830     5.9700     0.0580 H     1 <1>   0.0800 
 32 H        2.5130     4.2270     0.0330 H     1 <1>   0.0800 
 33 H       -0.4550     6.1990     1.0730 H     1 <1>   0.0800 
 34 H       -1.2250     6.1320    -0.4990 H     1 <1>   0.0800 
 35 H        0.2360     7.0710    -0.2800 H     1 <1>   0.0800 
 36 H       -5.2330    -3.9560    -0.5900 H     1 <1>   0.0800 
 37 H       -5.5030    -4.5620     1.0190 H     1 <1>   0.0800 
 38 H       -4.1340    -8.5880     0.4700 H     1 <1>   0.0800 
 39 H       -4.2890    -8.1360    -1.2110 H     1 <1>   0.0800 
 40 H       -5.9430    -5.9790    -1.6130 H     1 <1>   0.0800 
 41 H       -7.1230    -5.6440    -0.3800 H     1 <1>   0.0800 
 42 H       -5.9810    -7.2530     1.1290 H     1 <1>   0.0800 
 43 H       -6.5180    -8.0330    -0.3310 H     1 <1>   0.0800 
@<TRIPOS>BOND
  1   1   2  1   
  2   1   3  1   
  3   2   4  2   
  4   2   5  1   
  5   3   6  2   
  6   3   7  1   
  7   4   6  1   
  8   5   8  am  
  9   5  23  1   
 10   7   9  1   
 11   7  24  1   
 12   7  25  1   
 13   8  10  2   
 14   8  11  1   
 15   9  12  1   
 16   9  26  1   
 17   9  27  1   
 18  11  13  1   
 19  11  14  2   
 20  12  15  1   
 21  12  16  1   
 22  12  28  1   
 23  13  17  2   
 24  13  18  1   
 25  14  19  1   
 26  14  29  1   
 27  15  30  1   
 28  15  31  1   
 29  15  32  1   
 30  16  33  1   
 31  16  34  1   
 32  16  35  1   
 33  17  19  1   
 34  17  20  1   
 35  18  21  1   
 36  18  36  1   
 37  18  37  1   
 38  20  22  1   
 39  20  38  1   
 40  20  39  1   
 41  21  22  1   
 42  21  40  1   
 43  21  41  1   
 44  22  42  1   
 45  22  43  1   
@<TRIPOS>SUBSTRUCTURE
  1 ****   5 GROUP 4 **** **** 0

# MOE 2024.06 (io_trps.svl 2023.06)
