@<TRIPOS>MOLECULE
NONAME
51 53 1 0 0 
SMALL
USER_CHARGES


@<TRIPOS>ATOM
  1 O       -3.1340     1.5960    -1.3100 O.2   1 <1>  -0.5700 
  2 C       -2.7300     1.4490    -0.1790 C.2   1 <1>   0.5690 
  3 N       -2.3940     0.2400     0.3530 N.am  1 <1>  -0.4930 
  4 C       -2.5650     2.6980     0.6970 C.3   1 <1>   0.1710 
  5 C       -2.3650    -1.0390    -0.2560 C.2   1 <1>   0.0630 
  6 N       -1.2010     3.2990     0.7180 N.3   1 <1>  -0.8100 
  7 C       -3.2860    -1.6460    -1.1170 C.2   1 <1>   0.1080 
  8 C       -1.3940    -1.9640    -0.0840 C.2   1 <1>  -0.3320 
  9 C       -0.7750     3.6820    -0.6480 C.3   1 <1>   0.2900 
 10 C       -0.2100     2.4450     1.3930 C.3   1 <1>   0.0300 
 11 N       -2.9220    -2.8430    -1.4550 N.2   1 <1>  -0.7070 
 12 C       -4.5790    -1.0480    -1.6230 C.3   1 <1>  -0.0590 
 13 N       -1.7540    -3.0440    -0.8240 N.pl3 1 <1>   0.3140 
 14 C       -0.1170    -1.8830     0.7410 C.3   1 <1>  -0.0600 
 15 C        0.5100     4.4920    -0.6340 C.2   1 <1>  -0.0400 
 16 C       -1.0200    -4.3180    -0.9860 C.3   1 <1>   0.0960 
 17 O        1.6650     3.8900    -0.6970 O.3   1 <1>  -0.0190 
 18 C        0.7420     5.8090    -0.5760 C.2   1 <1>  -0.1500 
 19 C       -1.3970    -5.3220     0.1120 C.3   1 <1>  -0.2400 
 20 N        2.6560     4.7280    -0.6820 N.2   1 <1>  -0.4100 
 21 C        2.1390     5.9170    -0.6050 C.2   1 <1>   0.2350 
 22 C        2.9010     7.1490    -0.5630 C.ar  1 <1>   0.0540 
 23 C        4.2500     7.1920    -0.8880 C.ar  1 <1>  -0.1500 
 24 C        2.3570     8.3730    -0.1990 C.ar  1 <1>  -0.1500 
 25 C        4.9470     8.3840    -0.8430 C.ar  1 <1>   0.1600 
 26 C        3.1400     9.5130    -0.1850 C.ar  1 <1>   0.1600 
 27 N        4.4240     9.5500    -0.5010 N.ar  1 <1>  -0.6200 
 28 H       -1.9820     0.2580     1.2820 H     1 <1>   0.3700 
 29 H       -2.8580     2.4580     1.7030 H     1 <1>   0.0800 
 30 H       -3.2570     3.4400     0.3400 H     1 <1>   0.0800 
 31 H       -1.5470     4.2840    -1.0960 H     1 <1>   0.0800 
 32 H       -0.6380     2.8080    -1.2630 H     1 <1>   0.0800 
 33 H       -0.5860     2.1250     2.3490 H     1 <1>   0.0800 
 34 H        0.6950     3.0020     1.5670 H     1 <1>   0.0800 
 35 H        0.0260     1.5850     0.7900 H     1 <1>   0.0800 
 36 H       -5.0090    -0.4050    -0.8790 H     1 <1>   0.0800 
 37 H       -5.2770    -1.8310    -1.8530 H     1 <1>   0.0800 
 38 H       -4.3850    -0.4800    -2.5140 H     1 <1>   0.0800 
 39 H       -0.0380    -0.9310     1.2320 H     1 <1>   0.0800 
 40 H        0.7420    -2.0040     0.1050 H     1 <1>   0.0800 
 41 H       -0.1090    -2.6540     1.4910 H     1 <1>   0.0800 
 42 H        0.0340    -4.1170    -0.9680 H     1 <1>   0.0800 
 43 H       -1.2710    -4.7230    -1.9500 H     1 <1>   0.0800 
 44 H        0.0350     6.6130    -0.5200 H     1 <1>   0.1500 
 45 H       -1.1450    -4.9330     1.0820 H     1 <1>   0.0800 
 46 H       -0.8670    -6.2440    -0.0390 H     1 <1>   0.0800 
 47 H       -2.4530    -5.5230     0.0740 H     1 <1>   0.0800 
 48 H        4.7580     6.2900    -1.1780 H     1 <1>   0.1500 
 49 H        1.3240     8.4480     0.0810 H     1 <1>   0.1500 
 50 H        5.9920     8.3810    -1.1020 H     1 <1>   0.1500 
 51 H        2.6880    10.4470     0.1020 H     1 <1>   0.1500 
@<TRIPOS>BOND
  1   1   2  2   
  2   2   3  am  
  3   2   4  1   
  4   3   5  1   
  5   3  28  1   
  6   4   6  1   
  7   4  29  1   
  8   4  30  1   
  9   5   7  1   
 10   5   8  2   
 11   6   9  1   
 12   6  10  1   
 13   7  11  2   
 14   7  12  1   
 15   8  13  1   
 16   8  14  1   
 17   9  15  1   
 18   9  31  1   
 19   9  32  1   
 20  10  33  1   
 21  10  34  1   
 22  10  35  1   
 23  11  13  1   
 24  12  36  1   
 25  12  37  1   
 26  12  38  1   
 27  13  16  1   
 28  14  39  1   
 29  14  40  1   
 30  14  41  1   
 31  15  17  1   
 32  15  18  2   
 33  16  19  1   
 34  16  42  1   
 35  16  43  1   
 36  17  20  1   
 37  18  21  1   
 38  18  44  1   
 39  19  45  1   
 40  19  46  1   
 41  19  47  1   
 42  20  21  2   
 43  21  22  1   
 44  22  23  ar  
 45  22  24  ar  
 46  23  25  ar  
 47  23  48  1   
 48  24  26  ar  
 49  24  49  1   
 50  25  27  ar  
 51  25  50  1   
 52  26  27  ar  
 53  26  51  1   
@<TRIPOS>SUBSTRUCTURE
  1 ****   9 GROUP 4 **** **** 0

# MOE 2024.06 (io_trps.svl 2023.06)
