@<TRIPOS>MOLECULE
NONAME
51 53 1 0 0 
SMALL
USER_CHARGES


@<TRIPOS>ATOM
  1 S       -0.2410    -0.1550     1.7110 S.o2  1 <1>   1.4470 
  2 O       -1.1010     0.6270     2.5710 O.2   1 <1>  -0.6500 
  3 O        0.5490    -1.2070     2.3180 O.2   1 <1>  -0.6500 
  4 N       -1.2610    -0.9580     0.6180 N.am  1 <1>  -0.8490 
  5 C        0.8370     0.8560     0.6380 C.ar  1 <1>  -0.0090 
  6 C       -2.0890    -1.9550     1.3170 C.3   1 <1>   0.1960 
  7 C       -2.1160    -0.0400    -0.1480 C.3   1 <1>   0.1960 
  8 C        0.7060     2.2360     0.4410 C.ar  1 <1>  -0.1440 
  9 C        1.8470     0.1990    -0.0580 C.ar  1 <1>  -0.1500 
 10 C       -2.8590    -2.8210     0.2910 C.3   1 <1>   0.4230 
 11 C       -2.9040    -0.8320    -1.2030 C.3   1 <1>  -0.1600 
 12 C        1.5690     2.9010    -0.4180 C.ar  1 <1>  -0.1500 
 13 C       -0.3620     3.0680     1.1420 C.3   1 <1>  -0.0960 
 14 C        2.7100     0.8600    -0.9140 C.ar  1 <1>  -0.1430 
 15 N       -3.6370    -3.9690     0.8730 N.4   1 <1>  -0.9590 
 16 C       -3.7920    -1.9350    -0.5610 C.3   1 <1>  -0.1060 
 17 C        2.5640     2.2210    -1.0920 C.ar  1 <1>  -0.1500 
 18 C        3.7980     0.0960    -1.6470 C.3   1 <1>  -0.0970 
 19 C       -4.3390    -4.8130    -0.1400 C.3   1 <1>   0.3430 
 20 C       -2.9480    -4.7670     1.9220 C.3   1 <1>   0.2630 
 21 C       -4.8490    -1.3070     0.3680 C.2   1 <1>   0.9060 
 22 C       -4.4950    -2.7700    -1.6700 C.3   1 <1>  -0.1600 
 23 C       -4.1890    -4.2750    -1.5700 C.3   1 <1>  -0.1600 
 24 O       -5.3010    -1.9910     1.2990 O.co2 1 <1>  -0.9000 
 25 O       -5.2190    -0.1510     0.1770 O.co2 1 <1>  -0.9000 
 26 H       -1.4420    -2.5920     1.8930 H     1 <1>   0.0800 
 27 H       -2.7710    -1.4600     1.9910 H     1 <1>   0.0800 
 28 H       -2.7890     0.4860     0.5120 H     1 <1>   0.0800 
 29 H       -1.5100     0.6920    -0.6540 H     1 <1>   0.0800 
 30 H        1.9590    -0.8630     0.0780 H     1 <1>   0.1500 
 31 H       -2.1120    -3.2340    -0.3640 H     1 <1>   0.0800 
 32 H       -3.5260    -0.1440    -1.7510 H     1 <1>   0.0800 
 33 H       -2.2080    -1.2650    -1.9000 H     1 <1>   0.0800 
 34 H        1.4760     3.9630    -0.5700 H     1 <1>   0.1500 
 35 H       -0.3360     4.0920     0.8170 H     1 <1>   0.0800 
 36 H       -0.2030     3.0550     2.2060 H     1 <1>   0.0800 
 37 H       -1.3440     2.6830     0.9330 H     1 <1>   0.0800 
 38 H       -4.4210    -3.4310     1.3350 H     1 <1>   0.4500 
 39 H        3.2230     2.7580    -1.7530 H     1 <1>   0.1500 
 40 H        4.6130     0.7500    -1.9010 H     1 <1>   0.0800 
 41 H        3.3990    -0.3290    -2.5510 H     1 <1>   0.0800 
 42 H        4.1800    -0.6960    -1.0290 H     1 <1>   0.0800 
 43 H       -3.9620    -5.8210    -0.1050 H     1 <1>   0.0800 
 44 H       -5.3880    -4.8410     0.1090 H     1 <1>   0.0800 
 45 H       -2.0820    -5.2580     1.5100 H     1 <1>   0.0800 
 46 H       -3.6180    -5.5120     2.3190 H     1 <1>   0.0800 
 47 H       -2.6360    -4.1280     2.7320 H     1 <1>   0.0800 
 48 H       -5.5620    -2.6280    -1.5900 H     1 <1>   0.0800 
 49 H       -4.2150    -2.4190    -2.6490 H     1 <1>   0.0800 
 50 H       -3.1870    -4.4650    -1.9140 H     1 <1>   0.0800 
 51 H       -4.8530    -4.8160    -2.2200 H     1 <1>   0.0800 
@<TRIPOS>BOND
  1   1   2  2   
  2   1   3  2   
  3   1   4  am  
  4   1   5  1   
  5   4   6  1   
  6   4   7  1   
  7   5   8  ar  
  8   5   9  ar  
  9   6  10  1   
 10   6  26  1   
 11   6  27  1   
 12   7  11  1   
 13   7  28  1   
 14   7  29  1   
 15   8  12  ar  
 16   8  13  1   
 17   9  14  ar  
 18   9  30  1   
 19  10  15  1   
 20  10  16  1   
 21  10  31  1   
 22  11  16  1   
 23  11  32  1   
 24  11  33  1   
 25  12  17  ar  
 26  12  34  1   
 27  13  35  1   
 28  13  36  1   
 29  13  37  1   
 30  14  17  ar  
 31  14  18  1   
 32  15  19  1   
 33  15  20  1   
 34  15  38  1   
 35  16  21  1   
 36  16  22  1   
 37  17  39  1   
 38  18  40  1   
 39  18  41  1   
 40  18  42  1   
 41  19  23  1   
 42  19  43  1   
 43  19  44  1   
 44  20  45  1   
 45  20  46  1   
 46  20  47  1   
 47  21  24  ar  
 48  21  25  ar  
 49  22  23  1   
 50  22  48  1   
 51  22  49  1   
 52  23  50  1   
 53  23  51  1   
@<TRIPOS>SUBSTRUCTURE
  1 ****   4 GROUP 4 **** **** 0

# MOE 2024.06 (io_trps.svl 2023.06)
