@<TRIPOS>MOLECULE
NONAME
52 55 1 0 0 
SMALL
USER_CHARGES


@<TRIPOS>ATOM
  1 O       -1.0250     0.1370    -1.6040 O.2   1 <1>  -0.5700 
  2 C       -1.7640     0.6500    -0.7850 C.2   1 <1>   0.5440 
  3 N       -1.4110     1.8720    -0.2510 N.am  1 <1>  -0.6600 
  4 C       -2.9670    -0.0440    -0.3970 C.ar  1 <1>   0.0860 
  5 C       -0.2920     2.6820    -0.8200 C.3   1 <1>   0.1400 
  6 C       -1.9250     2.4210     1.0390 C.3   1 <1>   0.1400 
  7 C       -2.9120    -1.3780    -0.0040 C.ar  1 <1>   0.1600 
  8 C       -4.2220     0.5580    -0.4040 C.ar  1 <1>  -0.1500 
  9 C       -0.6590     4.1750    -0.8390 C.3   1 <1>   0.1200 
 10 C       -2.2110     3.9270     0.9080 C.3   1 <1>   0.1200 
 11 N       -3.9360    -2.1150     0.3900 N.ar  1 <1>  -0.6200 
 12 C       -5.2990    -0.1940    -0.0040 C.ar  1 <1>  -0.1500 
 13 O       -1.0840     4.6030     0.4250 O.3   1 <1>  -0.5600 
 14 C       -5.1210    -1.5180     0.3870 C.ar  1 <1>   0.4100 
 15 N       -6.1950    -2.2540     0.7910 N.pl3 1 <1>  -0.8690 
 16 C       -6.1990    -3.7520     0.7700 C.3   1 <1>   0.3530 
 17 C       -7.5810    -4.3580     0.4760 C.ar  1 <1>   0.4770 
 18 N       -7.6510    -5.6780     0.5430 N.ar  1 <1>  -0.6200 
 19 N       -8.5720    -3.5230     0.1820 N.ar  1 <1>  -0.6200 
 20 C       -8.8240    -6.2110     0.2900 C.ar  1 <1>   0.1670 
 21 C       -9.7400    -4.0700    -0.0650 C.ar  1 <1>   0.1670 
 22 C       -9.9250    -5.4400    -0.0330 C.ar  1 <1>  -0.1430 
 23 C       -8.8860    -7.7300     0.3600 C.3   1 <1>  -0.0170 
 24 C      -10.8610    -3.0990    -0.3870 C.3   1 <1>  -0.0970 
 25 C      -11.2840    -6.0770    -0.3300 C.3   1 <1>  -0.0170 
 26 C      -10.3180    -8.2780     0.4090 C.3   1 <1>  -0.1600 
 27 C      -11.1890    -7.5760    -0.6350 C.3   1 <1>  -0.1600 
 28 H       -0.0680     2.3610    -1.8230 H     1 <1>   0.0800 
 29 H        0.5900     2.5380    -0.2210 H     1 <1>   0.0800 
 30 H       -1.1800     2.2760     1.8020 H     1 <1>   0.0800 
 31 H       -2.8170     1.9110     1.3530 H     1 <1>   0.0800 
 32 H       -1.9480    -1.8580    -0.0190 H     1 <1>   0.1500 
 33 H       -4.3330     1.5810    -0.7190 H     1 <1>   0.1500 
 34 H       -1.4470     4.3590    -1.5490 H     1 <1>   0.0800 
 35 H        0.1980     4.7640    -1.1150 H     1 <1>   0.0800 
 36 H       -2.4560     4.3440     1.8680 H     1 <1>   0.0800 
 37 H       -3.0320     4.1020     0.2350 H     1 <1>   0.0800 
 38 H       -6.2880     0.2240     0.0140 H     1 <1>   0.1500 
 39 H       -7.1340    -1.9160     0.5500 H     1 <1>   0.4000 
 40 H       -5.8600    -4.1130     1.7230 H     1 <1>   0.0800 
 41 H       -5.5160    -4.1060     0.0180 H     1 <1>   0.0800 
 42 H       -8.3480    -8.0670     1.2290 H     1 <1>   0.0800 
 43 H       -8.3830    -8.1200    -0.5070 H     1 <1>   0.0800 
 44 H      -10.6230    -2.1200    -0.0110 H     1 <1>   0.0800 
 45 H      -11.7830    -3.4120     0.0660 H     1 <1>   0.0800 
 46 H      -10.9880    -3.0360    -1.4520 H     1 <1>   0.0800 
 47 H      -11.7450    -5.5880    -1.1700 H     1 <1>   0.0800 
 48 H      -11.9190    -5.9340     0.5270 H     1 <1>   0.0800 
 49 H      -10.7300    -8.1130     1.3900 H     1 <1>   0.0800 
 50 H      -10.3040    -9.3390     0.2270 H     1 <1>   0.0800 
 51 H      -10.7600    -7.7160    -1.6130 H     1 <1>   0.0800 
 52 H      -12.1760    -8.0060    -0.6390 H     1 <1>   0.0800 
@<TRIPOS>BOND
  1   1   2  2   
  2   2   3  am  
  3   2   4  1   
  4   3   5  1   
  5   3   6  1   
  6   4   7  ar  
  7   4   8  ar  
  8   5   9  1   
  9   5  28  1   
 10   5  29  1   
 11   6  10  1   
 12   6  30  1   
 13   6  31  1   
 14   7  11  ar  
 15   7  32  1   
 16   8  12  ar  
 17   8  33  1   
 18   9  13  1   
 19   9  34  1   
 20   9  35  1   
 21  10  13  1   
 22  10  36  1   
 23  10  37  1   
 24  11  14  ar  
 25  12  14  ar  
 26  12  38  1   
 27  14  15  1   
 28  15  16  1   
 29  15  39  1   
 30  16  17  1   
 31  16  40  1   
 32  16  41  1   
 33  17  18  ar  
 34  17  19  ar  
 35  18  20  ar  
 36  19  21  ar  
 37  20  22  ar  
 38  20  23  1   
 39  21  22  ar  
 40  21  24  1   
 41  22  25  1   
 42  23  26  1   
 43  23  42  1   
 44  23  43  1   
 45  24  44  1   
 46  24  45  1   
 47  24  46  1   
 48  25  27  1   
 49  25  47  1   
 50  25  48  1   
 51  26  27  1   
 52  26  49  1   
 53  26  50  1   
 54  27  51  1   
 55  27  52  1   
@<TRIPOS>SUBSTRUCTURE
  1 ****  14 GROUP 4 **** **** 0

# MOE 2024.06 (io_trps.svl 2023.06)
