@<TRIPOS>MOLECULE
NONAME
59 63 1 0 0 
SMALL
USER_CHARGES


@<TRIPOS>ATOM
  1 O        0.2580     0.3150     1.1240 O.2   1 <1>  -0.5700 
  2 C       -0.7270     0.7920     0.6160 C.2   1 <1>   0.5690 
  3 N       -1.8250     0.0570     0.2930 N.am  1 <1>  -0.7300 
  4 C       -0.7420     2.2920     0.3320 C.3   1 <1>  -0.0190 
  5 C       -2.0400    -1.3890     0.4650 C.3   1 <1>   0.3000 
  6 C       -1.8940     3.0090     1.0620 C.3   1 <1>  -0.1600 
  7 C       -0.7600     2.5930    -1.1870 C.3   1 <1>  -0.1600 
  8 C       -3.4410    -1.7140    -0.0760 C.3   1 <1>  -0.1600 
  9 C       -0.9960    -2.1950    -0.3290 C.3   1 <1>  -0.1600 
 10 C       -1.9780    -1.7750     1.9550 C.3   1 <1>  -0.1600 
 11 C       -1.8100     4.5430     0.9090 C.3   1 <1>   0.2000 
 12 C       -1.2940     3.9970    -1.5330 C.3   1 <1>  -0.1600 
 13 C       -3.7460    -3.2240     0.0740 C.3   1 <1>   0.2560 
 14 C       -1.2640    -3.7030    -0.1700 C.3   1 <1>  -0.0800 
 15 C       -2.2480    -3.2830     2.1210 C.3   1 <1>  -0.0800 
 16 O       -3.1230     5.0460     0.8870 O.3   1 <1>  -0.5600 
 17 C       -1.0730     4.9840    -0.3840 C.3   1 <1>   0.2000 
 18 N       -5.1360    -3.5110    -0.4380 N.pl3 1 <1>   0.5800 
 19 C       -2.6700    -4.0230    -0.7060 C.3   1 <1>  -0.1600 
 20 C       -3.6490    -3.6060     1.5720 C.3   1 <1>  -0.1600 
 21 C       -1.1950    -4.0750     1.3230 C.3   1 <1>  -0.1600 
 22 C       -3.7100     5.2220     2.1400 C.3   1 <1>   0.0400 
 23 O       -1.5500     6.2160    -0.7810 O.3   1 <1>  -0.6800 
 24 N       -5.4130    -4.3290    -1.4490 N.2   1 <1>  -0.4180 
 25 N       -6.2230    -2.9530     0.0730 N.2   1 <1>  -0.7070 
 26 N       -6.6780    -4.3060    -1.5910 N.2   1 <1>  -0.2270 
 27 C       -7.1280    -3.4740    -0.6630 C.2   1 <1>   0.3350 
 28 C       -8.6010    -3.1820    -0.5100 C.3   1 <1>  -0.0590 
 29 H       -2.6170     0.5440    -0.1250 H     1 <1>   0.3700 
 30 H        0.1780     2.6860     0.7300 H     1 <1>   0.0800 
 31 H       -1.8650     2.7570     2.1070 H     1 <1>   0.0800 
 32 H       -2.8290     2.6640     0.6560 H     1 <1>   0.0800 
 33 H        0.2450     2.4920    -1.5600 H     1 <1>   0.0800 
 34 H       -1.3620     1.8680    -1.7080 H     1 <1>   0.0800 
 35 H       -3.4990    -1.4450    -1.1160 H     1 <1>   0.0800 
 36 H       -4.1740    -1.1470     0.4710 H     1 <1>   0.0800 
 37 H       -1.0340    -1.9240    -1.3690 H     1 <1>   0.0800 
 38 H       -0.0080    -1.9790     0.0350 H     1 <1>   0.0800 
 39 H       -1.0040    -1.5510     2.3530 H     1 <1>   0.0800 
 40 H       -2.7040    -1.2100     2.5130 H     1 <1>   0.0800 
 41 H       -1.2850     4.9720     1.7460 H     1 <1>   0.0800 
 42 H       -2.3520     3.9320    -1.7260 H     1 <1>   0.0800 
 43 H       -0.8100     4.3590    -2.4240 H     1 <1>   0.0800 
 44 H       -0.5250    -4.2630    -0.7190 H     1 <1>   0.0800 
 45 H       -2.1920    -3.5490     3.1630 H     1 <1>   0.0800 
 46 H       -0.0170     5.0830    -0.1980 H     1 <1>   0.0800 
 47 H       -2.8550    -5.0790    -0.6070 H     1 <1>   0.0800 
 48 H       -2.7140    -3.7760    -1.7530 H     1 <1>   0.0800 
 49 H       -4.3850    -3.0630     2.1390 H     1 <1>   0.0800 
 50 H       -3.8490    -4.6570     1.6920 H     1 <1>   0.0800 
 51 H       -0.2120    -3.8590     1.7060 H     1 <1>   0.0800 
 52 H       -1.3630    -5.1320     1.4450 H     1 <1>   0.0800 
 53 H       -4.7050     5.6030     1.9920 H     1 <1>   0.0800 
 54 H       -3.1320     5.9310     2.7060 H     1 <1>   0.0800 
 55 H       -3.7590     4.2760     2.6510 H     1 <1>   0.0800 
 56 H       -2.4870     6.2480    -0.4810 H     1 <1>   0.4000 
 57 H       -8.9810    -2.7590    -1.4200 H     1 <1>   0.0800 
 58 H       -8.7570    -2.4870     0.2950 H     1 <1>   0.0800 
 59 H       -9.1280    -4.0920    -0.2950 H     1 <1>   0.0800 
@<TRIPOS>BOND
  1   1   2  2   
  2   2   3  am  
  3   2   4  1   
  4   3   5  1   
  5   3  29  1   
  6   4   6  1   
  7   4   7  1   
  8   4  30  1   
  9   5   8  1   
 10   5   9  1   
 11   5  10  1   
 12   6  11  1   
 13   6  31  1   
 14   6  32  1   
 15   7  12  1   
 16   7  33  1   
 17   7  34  1   
 18   8  13  1   
 19   8  35  1   
 20   8  36  1   
 21   9  14  1   
 22   9  37  1   
 23   9  38  1   
 24  10  15  1   
 25  10  39  1   
 26  10  40  1   
 27  11  16  1   
 28  11  17  1   
 29  11  41  1   
 30  12  17  1   
 31  12  42  1   
 32  12  43  1   
 33  13  18  1   
 34  13  19  1   
 35  13  20  1   
 36  14  19  1   
 37  14  21  1   
 38  14  44  1   
 39  15  20  1   
 40  15  21  1   
 41  15  45  1   
 42  16  22  1   
 43  17  23  1   
 44  17  46  1   
 45  18  24  1   
 46  18  25  1   
 47  19  47  1   
 48  19  48  1   
 49  20  49  1   
 50  20  50  1   
 51  21  51  1   
 52  21  52  1   
 53  22  53  1   
 54  22  54  1   
 55  22  55  1   
 56  23  56  1   
 57  24  26  2   
 58  25  27  2   
 59  26  27  1   
 60  27  28  1   
 61  28  57  1   
 62  28  58  1   
 63  28  59  1   
@<TRIPOS>SUBSTRUCTURE
  1 ****   3 GROUP 4 **** **** 0

# MOE 2024.06 (io_trps.svl 2023.06)
