@<TRIPOS>MOLECULE
NONAME
49 51 1 0 0 
SMALL
USER_CHARGES


@<TRIPOS>ATOM
  1 O        0.5100     0.0480    -0.0910 O.3   1 <1>  -0.6800 
  2 C        1.7870    -0.1290    -0.6020 C.3   1 <1>   0.2000 
  3 C        2.4610    -1.3400     0.0330 C.3   1 <1>  -0.0800 
  4 C        2.6840     1.0560    -0.2430 C.3   1 <1>   0.2090 
  5 C        3.9530    -1.0100    -0.0180 C.3   1 <1>   0.2090 
  6 C        2.1160    -2.6700    -0.6570 C.3   1 <1>   0.0210 
  7 N        4.0420     0.4790    -0.0320 N.pl3 1 <1>  -0.8380 
  8 C        2.9480    -3.8100    -0.1010 C.2   1 <1>   0.1080 
  9 C        5.1800     1.1620     0.1950 C.ar  1 <1>   0.4100 
 10 N        2.9830    -4.1020     1.1610 N.2   1 <1>  -0.7070 
 11 C        3.7590    -4.6490    -0.8580 C.2   1 <1>  -0.1500 
 12 N        6.3060     0.4490     0.3430 N.ar  1 <1>  -0.6200 
 13 C        5.2170     2.5590     0.2790 C.ar  1 <1>  -0.1500 
 14 N        3.8260    -5.1490     1.2460 N.pl3 1 <1>   0.3000 
 15 C        4.3100    -5.4970     0.0350 C.2   1 <1>  -0.3320 
 16 C        7.4140     1.0800     0.5720 C.ar  1 <1>   0.5280 
 17 C        6.4000     3.1920     0.5200 C.ar  1 <1>   0.2180 
 18 C        5.2840    -6.6380    -0.1960 C.3   1 <1>  -0.0600 
 19 N        7.4980     2.4230     0.6670 N.ar  1 <1>  -0.1790 
 20 C        8.6800     0.2650     0.7420 C.3   1 <1>  -0.0970 
 21 C        6.5240     4.7060     0.6290 C.3   1 <1>  -0.0170 
 22 C        7.3330     5.3000    -0.5340 C.3   1 <1>  -0.1600 
 23 C        7.4240     6.8250    -0.4210 C.3   1 <1>  -0.2400 
 24 H        0.0000    -0.7830    -0.1450 H     1 <1>   0.4000 
 25 H        1.7240    -0.2270    -1.6720 H     1 <1>   0.0800 
 26 H        2.1890    -1.3950     1.0740 H     1 <1>   0.0800 
 27 H        2.3440     1.5090     0.6730 H     1 <1>   0.0800 
 28 H        2.6920     1.7770    -1.0410 H     1 <1>   0.0800 
 29 H        4.4010    -1.3950    -0.9180 H     1 <1>   0.0800 
 30 H        4.4630    -1.4240     0.8360 H     1 <1>   0.0800 
 31 H        2.2900    -2.5930    -1.7150 H     1 <1>   0.0800 
 32 H        1.0780    -2.9000    -0.5010 H     1 <1>   0.0800 
 33 H        3.9000    -4.6090    -1.9230 H     1 <1>   0.1500 
 34 H        4.3070     3.1130     0.1550 H     1 <1>   0.1500 
 35 H        4.0480    -5.6000     2.1410 H     1 <1>   0.2700 
 36 H        5.5170    -6.7190    -1.2440 H     1 <1>   0.0800 
 37 H        4.8530    -7.5680     0.1310 H     1 <1>   0.0800 
 38 H        6.1970    -6.4640     0.3440 H     1 <1>   0.0800 
 39 H        8.4050     2.8500     0.8480 H     1 <1>   0.4570 
 40 H        8.4570    -0.7830     0.6380 H     1 <1>   0.0800 
 41 H        9.0990     0.4220     1.7190 H     1 <1>   0.0800 
 42 H        9.4010     0.5310    -0.0080 H     1 <1>   0.0800 
 43 H        5.5400     5.1440     0.6270 H     1 <1>   0.0800 
 44 H        6.9850     4.9640     1.5680 H     1 <1>   0.0800 
 45 H        8.3310     4.8970    -0.5480 H     1 <1>   0.0800 
 46 H        6.8590     5.0490    -1.4690 H     1 <1>   0.0800 
 47 H        7.9140     7.1160     0.4920 H     1 <1>   0.0800 
 48 H        6.4430     7.2690    -0.4430 H     1 <1>   0.0800 
 49 H        7.9890     7.2220    -1.2470 H     1 <1>   0.0800 
@<TRIPOS>BOND
  1   1   2  1   
  2   1  24  1   
  3   2   3  1   
  4   2   4  1   
  5   2  25  1   
  6   3   5  1   
  7   3   6  1   
  8   3  26  1   
  9   4   7  1   
 10   4  27  1   
 11   4  28  1   
 12   5   7  1   
 13   5  29  1   
 14   5  30  1   
 15   6   8  1   
 16   6  31  1   
 17   6  32  1   
 18   7   9  1   
 19   8  10  2   
 20   8  11  1   
 21   9  12  ar  
 22   9  13  ar  
 23  10  14  1   
 24  11  15  2   
 25  11  33  1   
 26  12  16  ar  
 27  13  17  ar  
 28  13  34  1   
 29  14  15  1   
 30  14  35  1   
 31  15  18  1   
 32  16  19  ar  
 33  16  20  1   
 34  17  19  ar  
 35  17  21  1   
 36  18  36  1   
 37  18  37  1   
 38  18  38  1   
 39  19  39  1   
 40  20  40  1   
 41  20  41  1   
 42  20  42  1   
 43  21  22  1   
 44  21  43  1   
 45  21  44  1   
 46  22  23  1   
 47  22  45  1   
 48  22  46  1   
 49  23  47  1   
 50  23  48  1   
 51  23  49  1   
@<TRIPOS>SUBSTRUCTURE
  1 ****   7 GROUP 4 **** **** 0

# MOE 2024.06 (io_trps.svl 2023.06)
