@<TRIPOS>MOLECULE
NONAME
46 48 1 0 0 
SMALL
USER_CHARGES


@<TRIPOS>ATOM
  1 F        0.4150    -0.6480     0.0380 F     1 <1>  -0.1900 
  2 C       -0.2580    -1.7610    -0.1090 C.ar  1 <1>   0.1900 
  3 C        0.2750    -2.8680    -0.7780 C.ar  1 <1>   0.0820 
  4 C       -1.5260    -1.7890     0.4390 C.ar  1 <1>  -0.1500 
  5 O        1.5070    -2.9610    -1.3590 O.3   1 <1>  -0.3630 
  6 C       -0.5160    -4.0020    -0.8740 C.ar  1 <1>  -0.1500 
  7 C       -2.2860    -2.9380     0.3260 C.ar  1 <1>  -0.1500 
  8 C        2.3980    -1.8720    -1.4470 C.3   1 <1>   0.0400 
  9 C       -1.8040    -4.0720    -0.3330 C.ar  1 <1>   0.0530 
 10 C       -2.5880    -5.2810    -0.4540 C.2   1 <1>   0.0870 
 11 O       -1.9910    -6.4280    -0.6660 O.3   1 <1>  -0.0190 
 12 C       -3.9190    -5.5430    -0.3850 C.2   1 <1>  -0.2330 
 13 N       -2.8260    -7.4280    -0.7410 N.2   1 <1>  -0.4100 
 14 C       -4.0070    -6.9300    -0.5750 C.2   1 <1>   0.3720 
 15 C       -4.9650    -4.6000    -0.1730 C.2   1 <1>   1.0330 
 16 N       -5.1520    -7.7600    -0.6200 N.pl3 1 <1>  -0.8210 
 17 O       -5.5530    -4.5420     0.9210 O.co2 1 <1>  -0.9000 
 18 O       -5.2810    -3.7890    -1.0580 O.co2 1 <1>  -0.9000 
 19 C       -4.9350    -9.1670    -0.1540 C.3   1 <1>   0.2090 
 20 C       -6.4430    -7.2160    -0.0890 C.3   1 <1>   0.2090 
 21 C       -6.1780   -10.0500    -0.3940 C.3   1 <1>   0.2000 
 22 C       -7.6110    -8.2030    -0.2690 C.3   1 <1>   0.1200 
 23 O       -7.3040    -9.4800     0.2200 O.3   1 <1>  -0.5600 
 24 C       -6.0020   -11.5060     0.1030 C.3   1 <1>  -0.0800 
 25 C       -7.1870   -12.3810    -0.3350 C.3   1 <1>  -0.2400 
 26 C       -5.8230   -11.6160     1.6280 C.3   1 <1>  -0.2400 
 27 H       -1.9160    -0.9260     0.9450 H     1 <1>   0.1500 
 28 H       -0.1180    -4.8570    -1.3890 H     1 <1>   0.1500 
 29 H       -3.2720    -2.9480     0.7590 H     1 <1>   0.1500 
 30 H        3.2650    -2.1930    -1.9950 H     1 <1>   0.0800 
 31 H        2.6850    -1.5740    -0.4540 H     1 <1>   0.0800 
 32 H        1.9140    -1.0650    -1.9680 H     1 <1>   0.0800 
 33 H       -4.6900    -9.1510     0.8920 H     1 <1>   0.0800 
 34 H       -4.1060    -9.5970    -0.6870 H     1 <1>   0.0800 
 35 H       -6.7020    -6.3180    -0.6200 H     1 <1>   0.0800 
 36 H       -6.3330    -6.9720     0.9540 H     1 <1>   0.0800 
 37 H       -6.3630   -10.0760    -1.4540 H     1 <1>   0.0800 
 38 H       -7.8610    -8.2860    -1.3110 H     1 <1>   0.0800 
 39 H       -8.4730    -7.8440     0.2650 H     1 <1>   0.0800 
 40 H       -5.1170   -11.9030    -0.3640 H     1 <1>   0.0800 
 41 H       -8.0970   -12.0330     0.1220 H     1 <1>   0.0800 
 42 H       -7.0260   -13.4040    -0.0470 H     1 <1>   0.0800 
 43 H       -7.3050   -12.3420    -1.4030 H     1 <1>   0.0800 
 44 H       -6.6710   -11.1910     2.1360 H     1 <1>   0.0800 
 45 H       -4.9380   -11.0990     1.9510 H     1 <1>   0.0800 
 46 H       -5.7310   -12.6470     1.9210 H     1 <1>   0.0800 
@<TRIPOS>BOND
  1   1   2  1   
  2   2   3  ar  
  3   2   4  ar  
  4   3   5  1   
  5   3   6  ar  
  6   4   7  ar  
  7   4  27  1   
  8   5   8  1   
  9   6   9  ar  
 10   6  28  1   
 11   7   9  ar  
 12   7  29  1   
 13   8  30  1   
 14   8  31  1   
 15   8  32  1   
 16   9  10  1   
 17  10  11  1   
 18  10  12  2   
 19  11  13  1   
 20  12  14  1   
 21  12  15  1   
 22  13  14  2   
 23  14  16  1   
 24  15  17  ar  
 25  15  18  ar  
 26  16  19  1   
 27  16  20  1   
 28  19  21  1   
 29  19  33  1   
 30  19  34  1   
 31  20  22  1   
 32  20  35  1   
 33  20  36  1   
 34  21  23  1   
 35  21  24  1   
 36  21  37  1   
 37  22  23  1   
 38  22  38  1   
 39  22  39  1   
 40  24  25  1   
 41  24  26  1   
 42  24  40  1   
 43  25  41  1   
 44  25  42  1   
 45  25  43  1   
 46  26  44  1   
 47  26  45  1   
 48  26  46  1   
@<TRIPOS>SUBSTRUCTURE
  1 ****  12 GROUP 4 **** **** 0

# MOE 2024.06 (io_trps.svl 2023.06)
