@<TRIPOS>MOLECULE
NONAME
37 39 1 0 0 
SMALL
USER_CHARGES


@<TRIPOS>ATOM
  1 F        0.2470     0.7320    -0.4090 F     1 <1>  -0.1900 
  2 C        0.2720     2.0080    -0.1350 C.ar  1 <1>   0.1900 
  3 C       -0.5300     2.8620    -0.8650 C.ar  1 <1>  -0.1500 
  4 C        1.1000     2.4570     0.8750 C.ar  1 <1>  -0.1500 
  5 C       -0.4970     4.2160    -0.5750 C.ar  1 <1>  -0.1500 
  6 C        1.1270     3.8120     1.1590 C.ar  1 <1>  -0.1500 
  7 C        0.3340     4.6960     0.4320 C.ar  1 <1>  -0.1430 
  8 C        0.3800     6.1850     0.7280 C.3   1 <1>   0.4870 
  9 N        1.7230     6.7020     0.3570 N.4   1 <1>  -0.9590 
 10 C        1.9900     8.0800     0.9110 C.3   1 <1>   0.3430 
 11 C        2.0460     6.4900    -1.0970 C.3   1 <1>   0.3430 
 12 C        3.4670     8.5590     0.8090 C.3   1 <1>   0.2200 
 13 C        3.5380     6.6260    -1.4320 C.3   1 <1>  -0.0190 
 14 N        3.7950     8.9290    -0.5870 N.am  1 <1>  -0.7300 
 15 C        4.4920     7.5300     1.3500 C.3   1 <1>   0.1200 
 16 C        3.8500     8.0840    -1.6310 C.2   1 <1>   0.5690 
 17 C        4.5360     5.9580    -0.4600 C.3   1 <1>   0.1200 
 18 O        4.2560     6.2220     0.8890 O.3   1 <1>  -0.5600 
 19 O        4.1130     8.4920    -2.7280 O.2   1 <1>  -0.5700 
 20 H       -1.1650     2.4690    -1.6400 H     1 <1>   0.1500 
 21 H        1.7040     1.7550     1.4230 H     1 <1>   0.1500 
 22 H       -1.1260     4.8820    -1.1430 H     1 <1>   0.1500 
 23 H        1.7700     4.1600     1.9510 H     1 <1>   0.1500 
 24 H        0.1990     6.3400     1.7800 H     1 <1>   0.0800 
 25 H       -0.3850     6.6980     0.1700 H     1 <1>   0.0800 
 26 H        2.4200     6.0960     0.8350 H     1 <1>   0.4500 
 27 H        1.3600     8.8010     0.4160 H     1 <1>   0.0800 
 28 H        1.7240     8.0810     1.9550 H     1 <1>   0.0800 
 29 H        1.7480     5.4920    -1.3750 H     1 <1>   0.0800 
 30 H        1.4800     7.1780    -1.7040 H     1 <1>   0.0800 
 31 H        3.5630     9.4540     1.3990 H     1 <1>   0.0800 
 32 H        3.6850     6.1640    -2.3920 H     1 <1>   0.0800 
 33 H        4.0720     9.8990    -0.7790 H     1 <1>   0.3700 
 34 H        4.4230     7.4940     2.4230 H     1 <1>   0.0800 
 35 H        5.4990     7.8180     1.0950 H     1 <1>   0.0800 
 36 H        5.5470     6.2680    -0.6730 H     1 <1>   0.0800 
 37 H        4.4880     4.8880    -0.5820 H     1 <1>   0.0800 
@<TRIPOS>BOND
  1   1   2  1   
  2   2   3  ar  
  3   2   4  ar  
  4   3   5  ar  
  5   3  20  1   
  6   4   6  ar  
  7   4  21  1   
  8   5   7  ar  
  9   5  22  1   
 10   6   7  ar  
 11   6  23  1   
 12   7   8  1   
 13   8   9  1   
 14   8  24  1   
 15   8  25  1   
 16   9  10  1   
 17   9  11  1   
 18   9  26  1   
 19  10  12  1   
 20  10  27  1   
 21  10  28  1   
 22  11  13  1   
 23  11  29  1   
 24  11  30  1   
 25  12  14  1   
 26  12  15  1   
 27  12  31  1   
 28  13  16  1   
 29  13  17  1   
 30  13  32  1   
 31  14  16  am  
 32  14  33  1   
 33  15  18  1   
 34  15  34  1   
 35  15  35  1   
 36  16  19  2   
 37  17  18  1   
 38  17  36  1   
 39  17  37  1   
@<TRIPOS>SUBSTRUCTURE
  1 ****   9 GROUP 4 **** **** 0

# MOE 2024.06 (io_trps.svl 2023.06)
