@<TRIPOS>MOLECULE
NONAME
46 47 1 0 0 
SMALL
USER_CHARGES


@<TRIPOS>ATOM
  1 O       -0.2420     0.7660    -1.6730 O.2   1 <1>  -0.5700 
  2 C       -0.2400     1.8290    -1.0980 C.2   1 <1>   0.5690 
  3 N       -1.2640     2.2260    -0.2760 N.am  1 <1>  -0.6600 
  4 C        0.9610     2.7480    -1.3300 C.3   1 <1>   0.1810 
  5 C       -1.2500     3.6100     0.3350 C.3   1 <1>   0.3640 
  6 C       -2.2630     1.2120     0.1910 C.3   1 <1>   0.2200 
  7 O        1.1150     3.7140    -0.3230 O.3   1 <1>  -0.5600 
  8 C       -2.5300     4.3750    -0.0080 C.ar  1 <1>  -0.1440 
  9 C       -0.0480     4.4870    -0.1080 C.3   1 <1>   0.2610 
 10 C       -3.5660     1.3190    -0.5980 C.3   1 <1>  -0.2400 
 11 C       -2.5180     1.2910     1.6970 C.3   1 <1>  -0.2400 
 12 C       -3.2380     5.0210     0.9960 C.ar  1 <1>  -0.1500 
 13 C       -2.9880     4.4610    -1.3170 C.ar  1 <1>  -0.1500 
 14 C        0.2190     5.6370     0.8830 C.2   1 <1>   0.5690 
 15 C       -4.3860     5.7340     0.6990 C.ar  1 <1>  -0.1500 
 16 C       -4.1350     5.1740    -1.6150 C.ar  1 <1>  -0.1500 
 17 O       -0.1550     5.5190     2.0310 O.2   1 <1>  -0.5700 
 18 N        0.8520     6.7890     0.4640 N.am  1 <1>  -0.6600 
 19 C       -4.8360     5.8110    -0.6060 C.ar  1 <1>  -0.1500 
 20 C        0.9910     7.9550     1.3750 C.3   1 <1>   0.1400 
 21 C        1.4600     6.9650    -0.8850 C.3   1 <1>   0.0600 
 22 C        2.3400     7.8910     2.0870 C.3   1 <1>  -0.2400 
 23 H        0.8550     3.2480    -2.2750 H     1 <1>   0.0800 
 24 H        1.8570     2.1550    -1.3500 H     1 <1>   0.0800 
 25 H       -1.1880     3.4870     1.4010 H     1 <1>   0.0800 
 26 H       -1.8590     0.2310    -0.0010 H     1 <1>   0.0800 
 27 H       -0.3010     4.9370    -1.0490 H     1 <1>   0.0800 
 28 H       -4.1150     2.2010    -0.3270 H     1 <1>   0.0800 
 29 H       -4.1850     0.4670    -0.3860 H     1 <1>   0.0800 
 30 H       -3.3580     1.3300    -1.6530 H     1 <1>   0.0800 
 31 H       -3.0400     2.1930     1.9580 H     1 <1>   0.0800 
 32 H       -1.5880     1.2370     2.2340 H     1 <1>   0.0800 
 33 H       -3.1270     0.4580     2.0000 H     1 <1>   0.0800 
 34 H       -2.8930     4.9780     2.0160 H     1 <1>   0.1500 
 35 H       -2.4570     3.9620    -2.1090 H     1 <1>   0.1500 
 36 H       -4.9270     6.2310     1.4860 H     1 <1>   0.1500 
 37 H       -4.4850     5.2310    -2.6310 H     1 <1>   0.1500 
 38 H       -5.7290     6.3660    -0.8370 H     1 <1>   0.1500 
 39 H        0.9080     8.8680     0.8120 H     1 <1>   0.0800 
 40 H        0.1990     7.9450     2.1050 H     1 <1>   0.0800 
 41 H        2.3000     7.6350    -0.8290 H     1 <1>   0.0800 
 42 H        0.7300     7.3760    -1.5600 H     1 <1>   0.0800 
 43 H        1.8130     6.0240    -1.2690 H     1 <1>   0.0800 
 44 H        3.1480     7.9290     1.3800 H     1 <1>   0.0800 
 45 H        2.4070     6.9820     2.6590 H     1 <1>   0.0800 
 46 H        2.4340     8.7240     2.7600 H     1 <1>   0.0800 
@<TRIPOS>BOND
  1   1   2  2   
  2   2   3  am  
  3   2   4  1   
  4   3   5  1   
  5   3   6  1   
  6   4   7  1   
  7   4  23  1   
  8   4  24  1   
  9   5   8  1   
 10   5   9  1   
 11   5  25  1   
 12   6  10  1   
 13   6  11  1   
 14   6  26  1   
 15   7   9  1   
 16   8  12  ar  
 17   8  13  ar  
 18   9  14  1   
 19   9  27  1   
 20  10  28  1   
 21  10  29  1   
 22  10  30  1   
 23  11  31  1   
 24  11  32  1   
 25  11  33  1   
 26  12  15  ar  
 27  12  34  1   
 28  13  16  ar  
 29  13  35  1   
 30  14  17  2   
 31  14  18  am  
 32  15  19  ar  
 33  15  36  1   
 34  16  19  ar  
 35  16  37  1   
 36  18  20  1   
 37  18  21  1   
 38  19  38  1   
 39  20  22  1   
 40  20  39  1   
 41  20  40  1   
 42  21  41  1   
 43  21  42  1   
 44  21  43  1   
 45  22  44  1   
 46  22  45  1   
 47  22  46  1   
@<TRIPOS>SUBSTRUCTURE
  1 ****   5 GROUP 4 **** **** 0

# MOE 2024.06 (io_trps.svl 2023.06)
