@<TRIPOS>MOLECULE
NONAME
44 45 1 0 0 
SMALL
USER_CHARGES


@<TRIPOS>ATOM
  1 S       -0.0850     0.4650     0.5970 S.3   1 <1>  -0.0800 
  2 C        1.2790    -0.3240     1.3520 C.2   1 <1>   0.1980 
  3 C        1.0210     1.4010    -0.3680 C.2   1 <1>  -0.1400 
  4 N        2.4130     0.0710     0.9350 N.2   1 <1>  -0.5650 
  5 C        0.9820    -1.3700     2.4000 C.3   1 <1>  -0.0600 
  6 C        2.2820     1.0540    -0.0430 C.2   1 <1>   0.0460 
  7 C        0.4090     2.3820    -1.3490 C.3   1 <1>  -0.0600 
  8 C        3.5840     1.6120    -0.6360 C.3   1 <1>   0.3710 
  9 N        3.5690     3.0990    -0.7660 N.3   1 <1>  -0.8100 
 10 C        3.8130     0.9280    -1.9880 C.3   1 <1>  -0.2400 
 11 C        4.8050     3.6490    -1.4100 C.3   1 <1>   0.1710 
 12 C        3.3050     3.7340     0.5410 C.3   1 <1>   0.0300 
 13 C        4.8570     5.1690    -1.6250 C.2   1 <1>   0.5690 
 14 O        4.5550     5.6150    -2.7060 O.2   1 <1>  -0.5700 
 15 N        5.2930     5.9480    -0.5910 N.am  1 <1>  -0.5470 
 16 C        5.4730     7.3050    -0.4370 C.ar  1 <1>   0.4270 
 17 N        5.9330     7.6150     0.7650 N.ar  1 <1>  -0.6200 
 18 C        5.2050     8.2540    -1.4220 C.ar  1 <1>  -0.1500 
 19 C        6.1350     8.9030     0.9940 C.ar  1 <1>   0.1600 
 20 C        5.4200     9.5890    -1.1670 C.ar  1 <1>  -0.1500 
 21 C        5.9010     9.9210     0.0830 C.ar  1 <1>  -0.1440 
 22 C        6.1610    11.3770     0.4310 C.3   1 <1>  -0.0970 
 23 H        0.4290    -0.9290     3.2080 H     1 <1>   0.0800 
 24 H        1.9020    -1.7730     2.7810 H     1 <1>   0.0800 
 25 H        0.4040    -2.1640     1.9650 H     1 <1>   0.0800 
 26 H       -0.1560     3.1250    -0.8170 H     1 <1>   0.0800 
 27 H       -0.2430     1.8630    -2.0270 H     1 <1>   0.0800 
 28 H        1.1740     2.8770    -1.9190 H     1 <1>   0.0800 
 29 H        4.3860     1.3360     0.0280 H     1 <1>   0.0800 
 30 H        3.1240     1.3110    -2.7190 H     1 <1>   0.0800 
 31 H        3.6430    -0.1280    -1.8830 H     1 <1>   0.0800 
 32 H        4.8230     1.0570    -2.3270 H     1 <1>   0.0800 
 33 H        4.9080     3.2210    -2.3900 H     1 <1>   0.0800 
 34 H        5.6660     3.3550    -0.8360 H     1 <1>   0.0800 
 35 H        2.4030     3.3460     0.9820 H     1 <1>   0.0800 
 36 H        3.1600     4.7940     0.4200 H     1 <1>   0.0800 
 37 H        4.1210     3.5570     1.2210 H     1 <1>   0.0800 
 38 H        5.5180     5.4650     0.2730 H     1 <1>   0.3700 
 39 H        4.8310     7.9550    -2.3810 H     1 <1>   0.1500 
 40 H        6.5100     9.1620     1.9690 H     1 <1>   0.1500 
 41 H        5.2200    10.3370    -1.9140 H     1 <1>   0.1500 
 42 H        6.5320    11.4740     1.4360 H     1 <1>   0.0800 
 43 H        5.2500    11.9420     0.3460 H     1 <1>   0.0800 
 44 H        6.8900    11.7900    -0.2440 H     1 <1>   0.0800 
@<TRIPOS>BOND
  1   1   2  1   
  2   1   3  1   
  3   2   4  2   
  4   2   5  1   
  5   3   6  2   
  6   3   7  1   
  7   4   6  1   
  8   5  23  1   
  9   5  24  1   
 10   5  25  1   
 11   6   8  1   
 12   7  26  1   
 13   7  27  1   
 14   7  28  1   
 15   8   9  1   
 16   8  10  1   
 17   8  29  1   
 18   9  11  1   
 19   9  12  1   
 20  10  30  1   
 21  10  31  1   
 22  10  32  1   
 23  11  13  1   
 24  11  33  1   
 25  11  34  1   
 26  12  35  1   
 27  12  36  1   
 28  12  37  1   
 29  13  14  2   
 30  13  15  am  
 31  15  16  1   
 32  15  38  1   
 33  16  17  ar  
 34  16  18  ar  
 35  17  19  ar  
 36  18  20  ar  
 37  18  39  1   
 38  19  21  ar  
 39  19  40  1   
 40  20  21  ar  
 41  20  41  1   
 42  21  22  1   
 43  22  42  1   
 44  22  43  1   
 45  22  44  1   
@<TRIPOS>SUBSTRUCTURE
  1 ****  12 GROUP 4 **** **** 0

# MOE 2024.06 (io_trps.svl 2023.06)
