@<TRIPOS>MOLECULE
NONAME
40 41 1 0 0 
SMALL
USER_CHARGES


@<TRIPOS>ATOM
  1 N       -0.1430     0.5970    -0.9610 N.ar  1 <1>  -0.6200 
  2 C       -0.0920     1.8570    -0.5820 C.ar  1 <1>   0.7710 
  3 C       -0.9050    -0.2100    -0.2610 C.ar  1 <1>   0.4100 
  4 N       -0.7700     2.3340     0.4760 N.ar  1 <1>  -0.1790 
  5 N        0.6860     2.6630    -1.3060 N.pl3 1 <1>  -0.8690 
  6 N       -0.9260    -1.4750    -0.6860 N.pl3 1 <1>  -0.9000 
  7 C       -1.6530     0.2160     0.8620 C.ar  1 <1>  -0.1430 
  8 C       -1.5640     1.5230     1.2180 C.ar  1 <1>   0.2110 
  9 C        0.9520     4.1150    -1.2240 C.3   1 <1>   0.3040 
 10 C       -2.5230    -0.7680     1.6400 C.3   1 <1>  -0.0970 
 11 C        2.0160     4.3580    -0.1520 C.3   1 <1>  -0.1950 
 12 C        2.8250     5.6000     0.1040 C.3   1 <1>  -0.1900 
 13 C        3.4580     4.4250    -0.5800 C.3   1 <1>  -0.2000 
 14 C        3.2350     5.8390     1.5740 C.3   1 <1>  -0.0650 
 15 C        2.6540     6.9490    -0.6460 C.3   1 <1>  -0.0650 
 16 C        4.6100     6.5010     1.7230 C.3   1 <1>  -0.2400 
 17 C        2.1440     6.9330    -2.0920 C.3   1 <1>  -0.2400 
 18 H       -0.6300     3.3160     0.6870 H     1 <1>   0.4570 
 19 H        1.2210     2.1860    -2.0400 H     1 <1>   0.4000 
 20 H       -1.4630    -2.2320    -0.2590 H     1 <1>   0.4000 
 21 H       -0.3710    -1.7500    -1.5020 H     1 <1>   0.4000 
 22 H       -2.0940     1.9390     2.0600 H     1 <1>   0.1500 
 23 H        0.0510     4.6510    -0.9820 H     1 <1>   0.0800 
 24 H        1.2970     4.4510    -2.1860 H     1 <1>   0.0800 
 25 H       -3.2710    -1.1920     0.9930 H     1 <1>   0.0800 
 26 H       -3.0230    -0.2850     2.4610 H     1 <1>   0.0800 
 27 H       -1.9180    -1.5650     2.0360 H     1 <1>   0.0800 
 28 H        1.8040     3.7790     0.7280 H     1 <1>   0.1000 
 29 H        3.7060     4.5030    -1.6240 H     1 <1>   0.1000 
 30 H        4.1830     3.8340    -0.0440 H     1 <1>   0.1000 
 31 H        3.2720     4.8990     2.0990 H     1 <1>   0.0800 
 32 H        2.4940     6.4470     2.0640 H     1 <1>   0.0800 
 33 H        3.6110     7.4390    -0.6670 H     1 <1>   0.0800 
 34 H        1.9950     7.5790    -0.0740 H     1 <1>   0.0800 
 35 H        5.3530     5.9520     1.1720 H     1 <1>   0.0800 
 36 H        4.8970     6.5150     2.7590 H     1 <1>   0.0800 
 37 H        4.5930     7.5160     1.3700 H     1 <1>   0.0800 
 38 H        2.7230     6.2660    -2.7040 H     1 <1>   0.0800 
 39 H        2.2370     7.9210    -2.5080 H     1 <1>   0.0800 
 40 H        1.1050     6.6670    -2.1320 H     1 <1>   0.0800 
@<TRIPOS>BOND
  1   1   2  ar  
  2   1   3  ar  
  3   2   4  ar  
  4   2   5  1   
  5   3   6  1   
  6   3   7  ar  
  7   4   8  ar  
  8   4  18  1   
  9   5   9  1   
 10   5  19  1   
 11   6  20  1   
 12   6  21  1   
 13   7   8  ar  
 14   7  10  1   
 15   8  22  1   
 16   9  11  1   
 17   9  23  1   
 18   9  24  1   
 19  10  25  1   
 20  10  26  1   
 21  10  27  1   
 22  11  12  1   
 23  11  13  1   
 24  11  28  1   
 25  12  13  1   
 26  12  14  1   
 27  12  15  1   
 28  13  29  1   
 29  13  30  1   
 30  14  16  1   
 31  14  31  1   
 32  14  32  1   
 33  15  17  1   
 34  15  33  1   
 35  15  34  1   
 36  16  35  1   
 37  16  36  1   
 38  16  37  1   
 39  17  38  1   
 40  17  39  1   
 41  17  40  1   
@<TRIPOS>SUBSTRUCTURE
  1 ****   5 GROUP 4 **** **** 0

# MOE 2024.06 (io_trps.svl 2023.06)
