@<TRIPOS>MOLECULE
NONAME
63 67 1 0 0 
SMALL
USER_CHARGES


@<TRIPOS>ATOM
  1 O        0.2110     0.7970     1.4220 O.2   1 <1>  -0.5700 
  2 C       -0.5840     1.5570     0.9150 C.2   1 <1>   0.5690 
  3 N       -1.9390     1.3570     0.9980 N.am  1 <1>  -0.6600 
  4 C        0.0140     2.7550     0.1530 C.3   1 <1>   0.4040 
  5 C       -2.9950     2.2840     0.4730 C.3   1 <1>   0.1400 
  6 C       -2.5030     0.1190     1.6180 C.3   1 <1>   0.1400 
  7 N        1.4560     2.5440    -0.2540 N.4   1 <1>  -0.9590 
  8 C       -3.9620     2.7170     1.5940 C.3   1 <1>   0.1430 
  9 C       -3.4710     0.4850     2.7490 C.3   1 <1>  -0.1600 
 10 C        2.1550     3.8100    -0.6070 C.3   1 <1>   0.3430 
 11 C        1.5780     1.4980    -1.3110 C.3   1 <1>   0.3430 
 12 C       -5.0770     3.5750     1.0260 C.ar  1 <1>   0.1670 
 13 C       -4.5590     1.4720     2.2860 C.3   1 <1>  -0.1600 
 14 C       -3.3040     3.6810     2.6180 C.3   1 <1>  -0.1600 
 15 C        3.6390     3.5280    -0.8430 C.3   1 <1>  -0.1600 
 16 C        3.0550     1.1870    -1.5570 C.3   1 <1>  -0.1600 
 17 N       -5.7570     3.3080    -0.0620 N.ar  1 <1>  -0.6200 
 18 C       -5.2960     4.6820     1.7850 C.ar  1 <1>  -0.1440 
 19 C       -4.3640     4.7420     2.9690 C.3   1 <1>  -0.0170 
 20 C        3.8500     2.4510    -1.9160 C.3   1 <1>  -0.0800 
 21 C       -6.7090     4.1950    -0.3880 C.ar  1 <1>   0.6200 
 22 C       -6.2840     5.5430     1.3850 C.ar  1 <1>   0.1600 
 23 C        5.3390     2.1240    -2.0670 C.3   1 <1>  -0.2400 
 24 N       -6.9920     5.3090     0.3040 N.ar  1 <1>  -0.6200 
 25 C       -7.4900     3.9290    -1.5880 C.ar  1 <1>   0.0000 
 26 C       -7.7160     2.6260    -2.0430 C.ar  1 <1>  -0.1500 
 27 C       -8.0500     4.9640    -2.3440 C.ar  1 <1>  -0.1500 
 28 C       -8.4540     2.3690    -3.1840 C.ar  1 <1>  -0.1500 
 29 C       -8.7900     4.7150    -3.4860 C.ar  1 <1>  -0.1500 
 30 C       -8.9940     3.4150    -3.9090 C.ar  1 <1>  -0.1500 
 31 H       -0.0520     3.6120     0.8000 H     1 <1>   0.0800 
 32 H       -0.5840     2.9450    -0.7210 H     1 <1>   0.0800 
 33 H       -3.5570     1.7650    -0.2860 H     1 <1>   0.0800 
 34 H       -2.5690     3.1570     0.0170 H     1 <1>   0.0800 
 35 H       -1.7190    -0.5090     2.0090 H     1 <1>   0.0800 
 36 H       -3.0280    -0.4420     0.8630 H     1 <1>   0.0800 
 37 H        1.9100     2.1340     0.5800 H     1 <1>   0.4500 
 38 H       -2.9080     0.8980     3.5670 H     1 <1>   0.0800 
 39 H       -3.9390    -0.4140     3.1110 H     1 <1>   0.0800 
 40 H        2.0510     4.5270     0.1910 H     1 <1>   0.0800 
 41 H        1.7240     4.2280    -1.5020 H     1 <1>   0.0800 
 42 H        1.1260     1.8440    -2.2260 H     1 <1>   0.0800 
 43 H        1.0740     0.5960    -0.9990 H     1 <1>   0.0800 
 44 H       -5.2040     0.9670     1.5870 H     1 <1>   0.0800 
 45 H       -5.1660     1.7680     3.1240 H     1 <1>   0.0800 
 46 H       -2.4730     4.1830     2.1560 H     1 <1>   0.0800 
 47 H       -2.9460     3.1800     3.4990 H     1 <1>   0.0800 
 48 H        4.0930     3.2230     0.0850 H     1 <1>   0.0800 
 49 H        4.1210     4.4400    -1.1520 H     1 <1>   0.0800 
 50 H        3.1300     0.4750    -2.3600 H     1 <1>   0.0800 
 51 H        3.4670     0.7230    -0.6770 H     1 <1>   0.0800 
 52 H       -3.9280     5.7190     3.0890 H     1 <1>   0.0800 
 53 H       -4.8980     4.4670     3.8620 H     1 <1>   0.0800 
 54 H        3.4920     2.8280    -2.8610 H     1 <1>   0.0800 
 55 H       -6.4990     6.4320     1.9540 H     1 <1>   0.1500 
 56 H        5.7470     1.7410    -1.1470 H     1 <1>   0.0800 
 57 H        5.8910     3.0060    -2.3430 H     1 <1>   0.0800 
 58 H        5.4860     1.3860    -2.8370 H     1 <1>   0.0800 
 59 H       -7.3070     1.7980    -1.4910 H     1 <1>   0.1500 
 60 H       -7.9030     5.9830    -2.0300 H     1 <1>   0.1500 
 61 H       -8.6100     1.3550    -3.5080 H     1 <1>   0.1500 
 62 H       -9.2080     5.5340    -4.0440 H     1 <1>   0.1500 
 63 H       -9.5690     3.2190    -4.7970 H     1 <1>   0.1500 
@<TRIPOS>BOND
  1   1   2  2   
  2   2   3  am  
  3   2   4  1   
  4   3   5  1   
  5   3   6  1   
  6   4   7  1   
  7   4  31  1   
  8   4  32  1   
  9   5   8  1   
 10   5  33  1   
 11   5  34  1   
 12   6   9  1   
 13   6  35  1   
 14   6  36  1   
 15   7  10  1   
 16   7  11  1   
 17   7  37  1   
 18   8  12  1   
 19   8  13  1   
 20   8  14  1   
 21   9  13  1   
 22   9  38  1   
 23   9  39  1   
 24  10  15  1   
 25  10  40  1   
 26  10  41  1   
 27  11  16  1   
 28  11  42  1   
 29  11  43  1   
 30  12  17  ar  
 31  12  18  ar  
 32  13  44  1   
 33  13  45  1   
 34  14  19  1   
 35  14  46  1   
 36  14  47  1   
 37  15  20  1   
 38  15  48  1   
 39  15  49  1   
 40  16  20  1   
 41  16  50  1   
 42  16  51  1   
 43  17  21  ar  
 44  18  19  1   
 45  18  22  ar  
 46  19  52  1   
 47  19  53  1   
 48  20  23  1   
 49  20  54  1   
 50  21  24  ar  
 51  21  25  1   
 52  22  24  ar  
 53  22  55  1   
 54  23  56  1   
 55  23  57  1   
 56  23  58  1   
 57  25  26  ar  
 58  25  27  ar  
 59  26  28  ar  
 60  26  59  1   
 61  27  29  ar  
 62  27  60  1   
 63  28  30  ar  
 64  28  61  1   
 65  29  30  ar  
 66  29  62  1   
 67  30  63  1   
@<TRIPOS>SUBSTRUCTURE
  1 ****   5 GROUP 4 **** **** 0

# MOE 2024.06 (io_trps.svl 2023.06)
