@<TRIPOS>MOLECULE
NONAME
43 44 1 0 0 
SMALL
USER_CHARGES


@<TRIPOS>ATOM
  1 O       -1.5410    -0.6120    -1.5720 O.2   1 <1>  -0.5700 
  2 C       -1.7520     0.2750    -0.7770 C.2   1 <1>   0.5690 
  3 N       -2.3050     0.0080     0.4490 N.am  1 <1>  -0.6600 
  4 C       -1.3930     1.6870    -1.2060 C.3   1 <1>  -0.0990 
  5 C       -2.6070    -1.4030     0.8310 C.3   1 <1>   0.3200 
  6 C       -2.8390     1.0290     1.4020 C.3   1 <1>   0.1400 
  7 C       -0.1340     2.1980    -0.4940 C.3   1 <1>  -0.0170 
  8 C       -3.9390    -1.8320     0.2420 C.2   1 <1>   0.0060 
  9 C       -1.9270     1.1600     2.6290 C.3   1 <1>   0.1200 
 10 C        0.0850     3.6750    -0.7890 C.ar  1 <1>  -0.1440 
 11 N       -4.9890    -2.1600     0.9260 N.2   1 <1>  -0.5650 
 12 N       -4.1180    -1.8980    -1.0930 N.pl3 1 <1>   0.0330 
 13 O       -1.9330     2.4740     3.0720 O.3   1 <1>  -0.6800 
 14 C       -0.6120     4.6640    -0.0970 C.ar  1 <1>   0.0820 
 15 C        0.9950     4.0360    -1.7700 C.ar  1 <1>  -0.1500 
 16 C       -5.9030    -2.4580    -0.0190 C.2   1 <1>   0.0770 
 17 C       -5.3890    -2.3030    -1.2590 C.2   1 <1>  -0.3020 
 18 O       -1.5120     4.2760     0.8510 O.3   1 <1>  -0.3630 
 19 C       -0.3760     6.0050    -0.3960 C.ar  1 <1>  -0.1500 
 20 C        1.2210     5.3680    -2.0640 C.ar  1 <1>  -0.1500 
 21 C       -2.4170     5.2030     1.4170 C.3   1 <1>   0.0400 
 22 C        0.5360     6.3520    -1.3760 C.ar  1 <1>  -0.1500 
 23 H       -2.2220     2.3450    -1.0320 H     1 <1>   0.0800 
 24 H       -1.2130     1.6910    -2.2660 H     1 <1>   0.0800 
 25 H       -2.6440    -1.4990     1.9020 H     1 <1>   0.0800 
 26 H       -1.8310    -2.0550     0.4690 H     1 <1>   0.0800 
 27 H       -3.8250     0.7350     1.7210 H     1 <1>   0.0800 
 28 H       -2.9290     1.9810     0.9170 H     1 <1>   0.0800 
 29 H        0.7150     1.6220    -0.8190 H     1 <1>   0.0800 
 30 H       -0.2170     2.0640     0.5670 H     1 <1>   0.0800 
 31 H       -0.9100     0.9000     2.3910 H     1 <1>   0.0800 
 32 H       -2.2790     0.5360     3.4320 H     1 <1>   0.0800 
 33 H       -3.4030    -1.6560    -1.7940 H     1 <1>   0.2700 
 34 H       -1.5800     3.0740     2.3740 H     1 <1>   0.4000 
 35 H        1.5360     3.2800    -2.3130 H     1 <1>   0.1500 
 36 H       -6.8990    -2.7730     0.2480 H     1 <1>   0.1500 
 37 H       -5.8440    -2.4530    -2.2210 H     1 <1>   0.1500 
 38 H       -0.8860     6.7940     0.1210 H     1 <1>   0.1500 
 39 H        1.9300     5.6380    -2.8280 H     1 <1>   0.1500 
 40 H       -3.1070     4.6670     2.0450 H     1 <1>   0.0800 
 41 H       -2.9550     5.6950     0.6260 H     1 <1>   0.0800 
 42 H       -1.8660     5.9130     2.0090 H     1 <1>   0.0800 
 43 H        0.7140     7.3880    -1.6040 H     1 <1>   0.1500 
@<TRIPOS>BOND
  1   1   2  2   
  2   2   3  am  
  3   2   4  1   
  4   3   5  1   
  5   3   6  1   
  6   4   7  1   
  7   4  23  1   
  8   4  24  1   
  9   5   8  1   
 10   5  25  1   
 11   5  26  1   
 12   6   9  1   
 13   6  27  1   
 14   6  28  1   
 15   7  10  1   
 16   7  29  1   
 17   7  30  1   
 18   8  11  2   
 19   8  12  1   
 20   9  13  1   
 21   9  31  1   
 22   9  32  1   
 23  10  14  ar  
 24  10  15  ar  
 25  11  16  1   
 26  12  17  1   
 27  12  33  1   
 28  13  34  1   
 29  14  18  1   
 30  14  19  ar  
 31  15  20  ar  
 32  15  35  1   
 33  16  17  2   
 34  16  36  1   
 35  17  37  1   
 36  18  21  1   
 37  19  22  ar  
 38  19  38  1   
 39  20  22  ar  
 40  20  39  1   
 41  21  40  1   
 42  21  41  1   
 43  21  42  1   
 44  22  43  1   
@<TRIPOS>SUBSTRUCTURE
  1 ****   4 GROUP 4 **** **** 0

# MOE 2024.06 (io_trps.svl 2023.06)
