@<TRIPOS>MOLECULE
NONAME
41 42 1 0 0 
SMALL
USER_CHARGES


@<TRIPOS>ATOM
  1 F        5.0240     0.8030     1.4830 F     1 <1>  -0.1900 
  2 C        4.0930    -0.0320     1.1020 C.ar  1 <1>   0.1900 
  3 C        2.9770     0.4520     0.4260 C.ar  1 <1>  -0.1440 
  4 C        4.2690    -1.3720     1.3900 C.ar  1 <1>  -0.1500 
  5 C        2.0040    -0.4540     0.0210 C.ar  1 <1>  -0.1500 
  6 C        2.8130     1.9360     0.1260 C.3   1 <1>  -0.0160 
  7 C        3.2790    -2.2380     0.9730 C.ar  1 <1>   0.1900 
  8 C        2.1520    -1.8070     0.2940 C.ar  1 <1>  -0.1500 
  9 C        3.6080     2.3240    -1.1260 C.3   1 <1>  -0.0990 
 10 F        3.4110    -3.5120     1.2260 F     1 <1>  -0.1900 
 11 C        3.5610     3.8180    -1.3550 C.2   1 <1>   0.5690 
 12 O        2.7130     4.2560    -2.0910 O.2   1 <1>  -0.5700 
 13 N        4.4850     4.5810    -0.6990 N.am  1 <1>  -0.4940 
 14 C        4.7410     5.9750    -0.6900 C.2   1 <1>  -0.0880 
 15 N        3.8690     7.0030    -0.8940 N.pl3 1 <1>   0.3140 
 16 C        5.9430     6.5450    -0.4310 C.2   1 <1>  -0.1810 
 17 N        4.4830     8.2000    -0.7670 N.2   1 <1>  -0.7070 
 18 C        2.4200     6.9630    -1.1280 C.3   1 <1>   0.0160 
 19 C        5.7150     7.9170    -0.4940 C.2   1 <1>   0.1080 
 20 C        7.2650     5.8550    -0.1390 C.3   1 <1>   0.0210 
 21 C        6.7490     8.9990    -0.2780 C.3   1 <1>  -0.0590 
 22 C        7.4140     5.5970     1.3620 C.3   1 <1>  -0.2400 
 23 H        5.1370    -1.7250     1.9140 H     1 <1>   0.1500 
 24 H        1.1290    -0.1140    -0.5070 H     1 <1>   0.1500 
 25 H        3.1500     2.5120     0.9710 H     1 <1>   0.0800 
 26 H        1.7730     2.1700    -0.0260 H     1 <1>   0.0800 
 27 H        1.4070    -2.5190    -0.0120 H     1 <1>   0.1500 
 28 H        3.1920     1.8260    -1.9840 H     1 <1>   0.0800 
 29 H        4.6310     2.0110    -1.0280 H     1 <1>   0.0800 
 30 H        5.1720     4.0480    -0.1680 H     1 <1>   0.3700 
 31 H        1.9820     6.1940    -0.5220 H     1 <1>   0.0800 
 32 H        2.2400     6.7590    -2.1670 H     1 <1>   0.0800 
 33 H        1.9940     7.9140    -0.8700 H     1 <1>   0.0800 
 34 H        8.0780     6.4670    -0.4870 H     1 <1>   0.0800 
 35 H        7.3090     4.9230    -0.6740 H     1 <1>   0.0800 
 36 H        7.3410     8.7780     0.5890 H     1 <1>   0.0800 
 37 H        6.2590     9.9450    -0.1320 H     1 <1>   0.0800 
 38 H        7.3840     9.0670    -1.1410 H     1 <1>   0.0800 
 39 H        7.3880     6.5260     1.9020 H     1 <1>   0.0800 
 40 H        8.3500     5.1060     1.5630 H     1 <1>   0.0800 
 41 H        6.6120     4.9740     1.7150 H     1 <1>   0.0800 
@<TRIPOS>BOND
  1   1   2  1   
  2   2   3  ar  
  3   2   4  ar  
  4   3   5  ar  
  5   3   6  1   
  6   4   7  ar  
  7   4  23  1   
  8   5   8  ar  
  9   5  24  1   
 10   6   9  1   
 11   6  25  1   
 12   6  26  1   
 13   7   8  ar  
 14   7  10  1   
 15   8  27  1   
 16   9  11  1   
 17   9  28  1   
 18   9  29  1   
 19  11  12  2   
 20  11  13  am  
 21  13  14  1   
 22  13  30  1   
 23  14  15  1   
 24  14  16  2   
 25  15  17  1   
 26  15  18  1   
 27  16  19  1   
 28  16  20  1   
 29  17  19  2   
 30  18  31  1   
 31  18  32  1   
 32  18  33  1   
 33  19  21  1   
 34  20  22  1   
 35  20  34  1   
 36  20  35  1   
 37  21  36  1   
 38  21  37  1   
 39  21  38  1   
 40  22  39  1   
 41  22  40  1   
 42  22  41  1   
@<TRIPOS>SUBSTRUCTURE
  1 ****  13 GROUP 4 **** **** 0

# MOE 2024.06 (io_trps.svl 2023.06)
