@<TRIPOS>MOLECULE
NONAME
39 41 1 0 0 
SMALL
USER_CHARGES


@<TRIPOS>ATOM
  1 O       -1.7210     0.4250    -1.3980 O.2   1 <1>  -0.5700 
  2 C       -1.6930     0.3370    -0.1820 C.2   1 <1>   0.7150 
  3 N       -1.8120    -0.9010     0.3740 N.am  1 <1>  -0.7300 
  4 C       -1.5580     1.4900     0.6900 C.2   1 <1>   0.1010 
  5 C       -1.9730    -2.1870    -0.3400 C.3   1 <1>   0.2200 
  6 N       -1.6040     1.4350     2.0070 N.2   1 <1>  -0.5650 
  7 N       -1.3680     2.7710     0.2480 N.pl3 1 <1>   0.0480 
  8 C       -3.3960    -2.7120    -0.2160 C.3   1 <1>  -0.0800 
  9 C       -1.2050    -3.2720     0.4040 C.3   1 <1>   0.1200 
 10 C       -1.4400     2.7010     2.4050 C.2   1 <1>   0.0770 
 11 C       -1.2950     3.5290     1.3500 C.2   1 <1>  -0.3020 
 12 C       -1.2520     3.2750    -1.1360 C.3   1 <1>   0.0160 
 13 C       -3.3790    -3.4290     1.1370 C.3   1 <1>   0.1200 
 14 C       -4.5170    -1.6660    -0.3610 C.3   1 <1>  -0.0160 
 15 O       -2.0380    -3.6750     1.4490 O.3   1 <1>  -0.5600 
 16 C       -5.8860    -2.3270    -0.2970 C.ar  1 <1>  -0.1430 
 17 C       -6.6420    -2.3330     0.8580 C.ar  1 <1>  -0.1500 
 18 C       -6.4410    -2.9560    -1.3920 C.ar  1 <1>  -0.1500 
 19 C       -7.8790    -2.9560     0.8630 C.ar  1 <1>   0.1600 
 20 C       -7.6880    -3.5500    -1.2810 C.ar  1 <1>   0.1600 
 21 N       -8.4190    -3.5670    -0.1780 N.ar  1 <1>  -0.6200 
 22 H       -1.7990    -0.9480     1.3980 H     1 <1>   0.3700 
 23 H       -1.6530    -2.0940    -1.3640 H     1 <1>   0.0800 
 24 H       -3.5360    -3.4630    -0.9740 H     1 <1>   0.0800 
 25 H       -0.2680    -2.9230     0.8000 H     1 <1>   0.0800 
 26 H       -1.0420    -4.1250    -0.2320 H     1 <1>   0.0800 
 27 H       -1.4330     2.9660     3.4500 H     1 <1>   0.1500 
 28 H       -1.1470     4.5940     1.3360 H     1 <1>   0.1500 
 29 H       -1.0750     4.3340    -1.1250 H     1 <1>   0.0800 
 30 H       -2.1630     3.0690    -1.6670 H     1 <1>   0.0800 
 31 H       -0.4340     2.7810    -1.6280 H     1 <1>   0.0800 
 32 H       -3.9110    -4.3640     1.1040 H     1 <1>   0.0800 
 33 H       -3.7820    -2.8080     1.9180 H     1 <1>   0.0800 
 34 H       -4.4110    -1.1570    -1.3030 H     1 <1>   0.0800 
 35 H       -4.4450    -0.9250     0.4160 H     1 <1>   0.0800 
 36 H       -6.2820    -1.8600     1.7540 H     1 <1>   0.1500 
 37 H       -5.9180    -2.9900    -2.3290 H     1 <1>   0.1500 
 38 H       -8.4540    -2.9520     1.7730 H     1 <1>   0.1500 
 39 H       -8.1060    -4.0360    -2.1460 H     1 <1>   0.1500 
@<TRIPOS>BOND
  1   1   2  2   
  2   2   3  am  
  3   2   4  1   
  4   3   5  1   
  5   3  22  1   
  6   4   6  2   
  7   4   7  1   
  8   5   8  1   
  9   5   9  1   
 10   5  23  1   
 11   6  10  1   
 12   7  11  1   
 13   7  12  1   
 14   8  13  1   
 15   8  14  1   
 16   8  24  1   
 17   9  15  1   
 18   9  25  1   
 19   9  26  1   
 20  10  11  2   
 21  10  27  1   
 22  11  28  1   
 23  12  29  1   
 24  12  30  1   
 25  12  31  1   
 26  13  15  1   
 27  13  32  1   
 28  13  33  1   
 29  14  16  1   
 30  14  34  1   
 31  14  35  1   
 32  16  17  ar  
 33  16  18  ar  
 34  17  19  ar  
 35  17  36  1   
 36  18  20  ar  
 37  18  37  1   
 38  19  21  ar  
 39  19  38  1   
 40  20  21  ar  
 41  20  39  1   
@<TRIPOS>SUBSTRUCTURE
  1 ****  14 GROUP 4 **** **** 0

# MOE 2024.06 (io_trps.svl 2023.06)
