@<TRIPOS>MOLECULE
NONAME
41 43 1 0 0 
SMALL
USER_CHARGES


@<TRIPOS>ATOM
  1 S       -1.1810    -0.0170    -1.7870 S.3   1 <1>  -0.2820 
  2 C       -1.5470     1.0780    -0.4670 C.2   1 <1>   0.7320 
  3 C       -1.9460    -1.2990    -0.8810 C.2   1 <1>   0.6510 
  4 S       -1.0100     2.7680    -0.6910 S.3   1 <1>  -0.3710 
  5 N       -2.1570     0.5820     0.5250 N.2   1 <1>  -0.5120 
  6 N       -2.0400    -2.5110    -1.3200 N.2   1 <1>  -0.6210 
  7 N       -2.3990    -0.7890     0.3110 N.am  1 <1>  -0.0580 
  8 C       -1.5540     3.6080     0.8630 C.3   1 <1>  -0.0100 
  9 C       -2.6650    -3.3950    -0.4890 C.2   1 <1>   0.0330 
 10 C       -3.0430    -1.6720     1.1640 C.2   1 <1>   0.6160 
 11 C       -3.1540    -3.0130     0.7210 C.2   1 <1>  -0.1360 
 12 C       -2.7660    -4.8280    -1.0090 C.3   1 <1>   0.2480 
 13 O       -3.5020    -1.3190     2.2420 O.2   1 <1>  -0.5700 
 14 N       -4.0210    -5.4970    -0.5880 N.3   1 <1>  -0.8100 
 15 C       -4.0680    -6.8960    -1.0300 C.3   1 <1>   0.1100 
 16 C       -5.2140    -4.8650    -1.1770 C.3   1 <1>   0.1100 
 17 C       -5.5500    -7.2600    -0.8960 C.3   1 <1>   0.4230 
 18 C       -6.1640    -6.0150    -1.5370 C.3   1 <1>  -0.1600 
 19 N       -5.9110    -7.3310     0.5610 N.4   1 <1>  -0.9590 
 20 C       -5.2360    -8.4620     1.2700 C.3   1 <1>   0.2630 
 21 C       -7.3810    -7.3750     0.8410 C.3   1 <1>   0.2630 
 22 H       -1.2620     4.6410     0.7990 H     1 <1>   0.0800 
 23 H       -1.0700     3.1210     1.6920 H     1 <1>   0.0800 
 24 H       -2.6230     3.5140     0.9360 H     1 <1>   0.0800 
 25 H       -3.6410    -3.6970     1.3880 H     1 <1>   0.1500 
 26 H       -1.9190    -5.3810    -0.6410 H     1 <1>   0.0800 
 27 H       -2.7070    -4.8150    -2.0850 H     1 <1>   0.0800 
 28 H       -3.4160    -7.5180    -0.4440 H     1 <1>   0.0800 
 29 H       -3.7750    -6.9670    -2.0650 H     1 <1>   0.0800 
 30 H       -4.9660    -4.2990    -2.0620 H     1 <1>   0.0800 
 31 H       -5.6620    -4.2000    -0.4570 H     1 <1>   0.0800 
 32 H       -5.8080    -8.1690    -1.4150 H     1 <1>   0.0800 
 33 H       -6.1440    -6.1360    -2.6060 H     1 <1>   0.0800 
 34 H       -7.1790    -5.8060    -1.2630 H     1 <1>   0.0800 
 35 H       -5.5120    -6.4460     0.9250 H     1 <1>   0.4500 
 36 H       -5.5360    -9.4060     0.8440 H     1 <1>   0.0800 
 37 H       -5.5010    -8.4560     2.3150 H     1 <1>   0.0800 
 38 H       -4.1650    -8.3720     1.1960 H     1 <1>   0.0800 
 39 H       -7.8310    -8.2250     0.3520 H     1 <1>   0.0800 
 40 H       -7.8640    -6.4780     0.4920 H     1 <1>   0.0800 
 41 H       -7.5550    -7.4560     1.9010 H     1 <1>   0.0800 
@<TRIPOS>BOND
  1   1   2  1   
  2   1   3  1   
  3   2   4  1   
  4   2   5  2   
  5   3   6  2   
  6   3   7  1   
  7   4   8  1   
  8   5   7  1   
  9   6   9  1   
 10   7  10  am  
 11   8  22  1   
 12   8  23  1   
 13   8  24  1   
 14   9  11  2   
 15   9  12  1   
 16  10  11  1   
 17  10  13  2   
 18  11  25  1   
 19  12  14  1   
 20  12  26  1   
 21  12  27  1   
 22  14  15  1   
 23  14  16  1   
 24  15  17  1   
 25  15  28  1   
 26  15  29  1   
 27  16  18  1   
 28  16  30  1   
 29  16  31  1   
 30  17  18  1   
 31  17  19  1   
 32  17  32  1   
 33  18  33  1   
 34  18  34  1   
 35  19  20  1   
 36  19  21  1   
 37  19  35  1   
 38  20  36  1   
 39  20  37  1   
 40  20  38  1   
 41  21  39  1   
 42  21  40  1   
 43  21  41  1   
@<TRIPOS>SUBSTRUCTURE
  1 ****   9 GROUP 4 **** **** 0

# MOE 2024.06 (io_trps.svl 2023.06)
