@<TRIPOS>MOLECULE
NONAME
45 48 1 0 0 
SMALL
USER_CHARGES


@<TRIPOS>ATOM
  1 O       -1.3790    -1.2510    -1.7260 O.2   1 <1>  -0.5700 
  2 C       -1.6680    -0.1590    -1.2750 C.2   1 <1>   0.4690 
  3 C       -2.8170     0.0540    -0.4380 C.ar  1 <1>   0.0860 
  4 C       -0.8650     0.9730    -1.5570 C.2   1 <1>  -0.1360 
  5 C       -3.0570     1.3460     0.0450 C.ar  1 <1>   0.0820 
  6 C       -3.7090    -0.9590    -0.0780 C.ar  1 <1>  -0.1500 
  7 C       -1.1430     2.2070    -1.0590 C.2   1 <1>   0.0910 
  8 O       -2.2240     2.3640    -0.2690 O.3   1 <1>  -0.1590 
  9 C       -4.1520     1.6090     0.8560 C.ar  1 <1>  -0.1500 
 10 C       -4.7970    -0.6940     0.7300 C.ar  1 <1>  -0.1500 
 11 C       -0.3580     3.4000    -1.3070 C.2   1 <1>   0.6160 
 12 C       -5.0210     0.5920     1.1980 C.ar  1 <1>  -0.1500 
 13 O        0.6680     3.3630    -1.9630 O.2   1 <1>  -0.5700 
 14 N       -0.6830     4.6210    -0.7750 N.am  1 <1>  -0.6600 
 15 C       -0.2500     4.8920     0.6400 C.3   1 <1>   0.2200 
 16 C       -0.8760     5.7710    -1.7120 C.3   1 <1>   0.1400 
 17 C       -1.0660     6.0080     1.3110 C.3   1 <1>   0.1200 
 18 C        1.2700     5.1990     0.7120 C.3   1 <1>   0.3430 
 19 C       -0.1250     7.0610    -1.3310 C.3   1 <1>  -0.0800 
 20 O       -0.4980     7.2560     1.0490 O.3   1 <1>  -0.5600 
 21 N        1.8580     5.5870    -0.6190 N.4   1 <1>  -0.9590 
 22 C       -0.8110     7.8160    -0.1820 C.3   1 <1>   0.1200 
 23 C        1.3990     6.9220    -1.1180 C.3   1 <1>   0.3430 
 24 C        3.3440     5.4840    -0.6150 C.3   1 <1>   0.2630 
 25 H       -0.0170     0.7970    -2.1930 H     1 <1>   0.1500 
 26 H       -3.5380    -1.9590    -0.4410 H     1 <1>   0.1500 
 27 H       -4.3240     2.6080     1.2150 H     1 <1>   0.1500 
 28 H       -5.4760    -1.4870     0.9980 H     1 <1>   0.1500 
 29 H       -5.8730     0.7920     1.8270 H     1 <1>   0.1500 
 30 H       -0.4330     3.9990     1.2140 H     1 <1>   0.0800 
 31 H       -0.5650     5.4730    -2.7010 H     1 <1>   0.0800 
 32 H       -1.9310     5.9820    -1.7720 H     1 <1>   0.0800 
 33 H       -1.0300     5.8780     2.3790 H     1 <1>   0.0800 
 34 H       -2.0980     5.9930     1.0060 H     1 <1>   0.0800 
 35 H        1.7660     4.3110     1.0660 H     1 <1>   0.0800 
 36 H        1.4470     5.9770     1.4370 H     1 <1>   0.0800 
 37 H       -0.2380     7.7150    -2.1770 H     1 <1>   0.0800 
 38 H        1.4830     4.8730    -1.2840 H     1 <1>   0.4500 
 39 H       -1.8820     7.8360    -0.2980 H     1 <1>   0.0800 
 40 H       -0.4620     8.8350    -0.1550 H     1 <1>   0.0800 
 41 H        1.7250     7.6910    -0.4370 H     1 <1>   0.0800 
 42 H        1.8790     7.1060    -2.0660 H     1 <1>   0.0800 
 43 H        3.7670     6.1940     0.0770 H     1 <1>   0.0800 
 44 H        3.7330     5.6830    -1.6000 H     1 <1>   0.0800 
 45 H        3.6470     4.4910    -0.3240 H     1 <1>   0.0800 
@<TRIPOS>BOND
  1   1   2  2   
  2   2   3  1   
  3   2   4  1   
  4   3   5  ar  
  5   3   6  ar  
  6   4   7  2   
  7   4  25  1   
  8   5   8  1   
  9   5   9  ar  
 10   6  10  ar  
 11   6  26  1   
 12   7   8  1   
 13   7  11  1   
 14   9  12  ar  
 15   9  27  1   
 16  10  12  ar  
 17  10  28  1   
 18  11  13  2   
 19  11  14  am  
 20  12  29  1   
 21  14  15  1   
 22  14  16  1   
 23  15  17  1   
 24  15  18  1   
 25  15  30  1   
 26  16  19  1   
 27  16  31  1   
 28  16  32  1   
 29  17  20  1   
 30  17  33  1   
 31  17  34  1   
 32  18  21  1   
 33  18  35  1   
 34  18  36  1   
 35  19  22  1   
 36  19  23  1   
 37  19  37  1   
 38  20  22  1   
 39  21  23  1   
 40  21  24  1   
 41  21  38  1   
 42  22  39  1   
 43  22  40  1   
 44  23  41  1   
 45  23  42  1   
 46  24  43  1   
 47  24  44  1   
 48  24  45  1   
@<TRIPOS>SUBSTRUCTURE
  1 ****  11 GROUP 4 **** **** 0

# MOE 2024.06 (io_trps.svl 2023.06)
