@<TRIPOS>MOLECULE
NONAME
54 57 1 0 0 
SMALL
USER_CHARGES


@<TRIPOS>ATOM
  1 O       -4.1860    -0.6920     1.8650 O.2   1 <1>  -0.5700 
  2 C       -3.7370    -1.6960     1.3740 C.2   1 <1>   0.5690 
  3 N       -3.5200    -2.8080     2.1190 N.am  1 <1>  -0.5470 
  4 C       -3.3980    -1.7650    -0.1130 C.3   1 <1>   0.1810 
  5 C       -3.1770    -4.0260     1.5370 C.ar  1 <1>   0.1170 
  6 O       -3.5390    -3.0860    -0.6460 O.3   1 <1>  -0.3630 
  7 C       -3.1910    -4.1430     0.1430 C.ar  1 <1>   0.0830 
  8 C       -2.8470    -5.1380     2.2980 C.ar  1 <1>  -0.1500 
  9 C       -2.8890    -5.3460    -0.4630 C.ar  1 <1>  -0.1500 
 10 C       -2.5700    -6.3450     1.6800 C.ar  1 <1>  -0.1500 
 11 C       -2.6110    -6.4850     0.2910 C.ar  1 <1>   0.0860 
 12 C       -2.3480    -7.7630    -0.3360 C.2   1 <1>   0.5440 
 13 O       -1.2490    -7.9430    -0.8240 O.2   1 <1>  -0.5700 
 14 N       -3.2770    -8.7930    -0.3910 N.am  1 <1>  -0.6600 
 15 C       -4.7580    -8.6490    -0.5440 C.3   1 <1>   0.2200 
 16 C       -2.7980   -10.1860    -0.6310 C.3   1 <1>   0.0600 
 17 C       -5.1540    -7.7400    -1.7100 C.3   1 <1>  -0.1600 
 18 C       -5.4630    -8.1300     0.7110 C.3   1 <1>  -0.1600 
 19 C       -6.4280    -7.0010    -1.2770 C.3   1 <1>  -0.0800 
 20 C       -6.5720    -7.1810     0.2360 C.3   1 <1>  -0.0800 
 21 C       -6.4060    -5.4840    -1.5320 C.3   1 <1>  -0.1600 
 22 C       -6.4990    -5.7670     0.8260 C.3   1 <1>  -0.1600 
 23 C       -6.9910    -4.8270    -0.2780 C.3   1 <1>   0.4230 
 24 N       -8.4890    -4.8080    -0.3390 N.4   1 <1>  -0.9590 
 25 C       -9.0040    -3.9670    -1.4680 C.3   1 <1>   0.2630 
 26 C       -9.1130    -4.3170     0.9320 C.3   1 <1>   0.2630 
 27 H       -3.6390    -2.7140     3.1280 H     1 <1>   0.3700 
 28 H       -2.3780    -1.4600    -0.2580 H     1 <1>   0.0800 
 29 H       -4.0440    -1.1100    -0.6690 H     1 <1>   0.0800 
 30 H       -2.8090    -5.0630     3.3700 H     1 <1>   0.1500 
 31 H       -2.8670    -5.4070    -1.5360 H     1 <1>   0.1500 
 32 H       -2.3150    -7.2060     2.2740 H     1 <1>   0.1500 
 33 H       -5.1800    -9.6180    -0.7560 H     1 <1>   0.0800 
 34 H       -3.3610   -10.8790    -0.0310 H     1 <1>   0.0800 
 35 H       -1.7580   -10.2800    -0.3680 H     1 <1>   0.0800 
 36 H       -2.9140   -10.4340    -1.6720 H     1 <1>   0.0800 
 37 H       -4.3640    -7.0580    -1.9490 H     1 <1>   0.0800 
 38 H       -5.3450    -8.3340    -2.5860 H     1 <1>   0.0800 
 39 H       -5.8920    -8.9600     1.2440 H     1 <1>   0.0800 
 40 H       -4.7820    -7.6390     1.3730 H     1 <1>   0.0800 
 41 H       -7.2800    -7.4480    -1.7620 H     1 <1>   0.0800 
 42 H       -7.5350    -7.6150     0.4490 H     1 <1>   0.0800 
 43 H       -6.8940    -5.2240    -2.4520 H     1 <1>   0.0800 
 44 H       -5.3900    -5.1430    -1.6140 H     1 <1>   0.0800 
 45 H       -5.4710    -5.5200     1.0110 H     1 <1>   0.0800 
 46 H       -7.0150    -5.6840     1.7620 H     1 <1>   0.0800 
 47 H       -6.6060    -3.8280    -0.1430 H     1 <1>   0.0800 
 48 H       -8.7820    -5.7820    -0.4950 H     1 <1>   0.4500 
 49 H       -8.6330    -2.9580    -1.3820 H     1 <1>   0.0800 
 50 H      -10.0810    -3.9400    -1.4520 H     1 <1>   0.0800 
 51 H       -8.6940    -4.3680    -2.4180 H     1 <1>   0.0800 
 52 H       -8.7420    -3.3350     1.1770 H     1 <1>   0.0800 
 53 H       -8.8930    -4.9840     1.7480 H     1 <1>   0.0800 
 54 H      -10.1850    -4.2630     0.8250 H     1 <1>   0.0800 
@<TRIPOS>BOND
  1   1   2  2   
  2   2   3  am  
  3   2   4  1   
  4   3   5  1   
  5   3  27  1   
  6   4   6  1   
  7   4  28  1   
  8   4  29  1   
  9   5   7  ar  
 10   5   8  ar  
 11   6   7  1   
 12   7   9  ar  
 13   8  10  ar  
 14   8  30  1   
 15   9  11  ar  
 16   9  31  1   
 17  10  11  ar  
 18  10  32  1   
 19  11  12  1   
 20  12  13  2   
 21  12  14  am  
 22  14  15  1   
 23  14  16  1   
 24  15  17  1   
 25  15  18  1   
 26  15  33  1   
 27  16  34  1   
 28  16  35  1   
 29  16  36  1   
 30  17  19  1   
 31  17  37  1   
 32  17  38  1   
 33  18  20  1   
 34  18  39  1   
 35  18  40  1   
 36  19  20  1   
 37  19  21  1   
 38  19  41  1   
 39  20  22  1   
 40  20  42  1   
 41  21  23  1   
 42  21  43  1   
 43  21  44  1   
 44  22  23  1   
 45  22  45  1   
 46  22  46  1   
 47  23  24  1   
 48  23  47  1   
 49  24  25  1   
 50  24  26  1   
 51  24  48  1   
 52  25  49  1   
 53  25  50  1   
 54  25  51  1   
 55  26  52  1   
 56  26  53  1   
 57  26  54  1   
@<TRIPOS>SUBSTRUCTURE
  1 ****   9 GROUP 4 **** **** 0

# MOE 2024.06 (io_trps.svl 2023.06)
