@<TRIPOS>MOLECULE
NONAME
45 47 1 0 0 
SMALL
USER_CHARGES


@<TRIPOS>ATOM
  1 S       -1.1400    -0.8510     1.6820 S.3   1 <1>  -0.0800 
  2 C       -2.2070     0.0870     0.6470 C.2   1 <1>  -0.1400 
  3 C        0.2310     0.1580     1.2570 C.2   1 <1>  -0.1100 
  4 C       -1.5260     1.0830     0.0490 C.2   1 <1>  -0.1500 
  5 C       -3.6650    -0.3250     0.5780 C.3   1 <1>   0.0200 
  6 C       -0.1380     1.1220     0.3950 C.2   1 <1>  -0.1500 
  7 C       -3.8230    -1.6550    -0.1690 C.3   1 <1>  -0.1600 
  8 C       -5.2950    -2.0900    -0.2550 C.3   1 <1>  -0.0990 
  9 C       -5.4590    -3.3820    -1.0280 C.2   1 <1>   0.5690 
 10 O       -5.9260    -3.3510    -2.1390 O.2   1 <1>  -0.5700 
 11 N       -5.0820    -4.5420    -0.4410 N.am  1 <1>  -0.7300 
 12 C       -5.1150    -5.8710    -1.0950 C.3   1 <1>   0.2200 
 13 C       -6.2650    -6.7210    -0.5710 C.3   1 <1>  -0.0800 
 14 C       -3.9230    -6.6850    -0.6120 C.3   1 <1>   0.1200 
 15 C       -5.6810    -7.3480     0.7000 C.3   1 <1>   0.1200 
 16 C       -7.6030    -5.9880    -0.3620 C.3   1 <1>  -0.0170 
 17 O       -4.2960    -7.1590     0.6460 O.3   1 <1>  -0.5600 
 18 C       -8.6920    -6.9600     0.0630 C.ar  1 <1>  -0.1430 
 19 C       -9.0570    -7.1250     1.3840 C.ar  1 <1>  -0.1500 
 20 C       -9.3730    -7.7310    -0.8580 C.ar  1 <1>  -0.1500 
 21 C      -10.0520    -8.0320     1.7110 C.ar  1 <1>   0.1600 
 22 C      -10.3530    -8.6090    -0.4250 C.ar  1 <1>   0.1600 
 23 N      -10.7070    -8.7800     0.8380 N.ar  1 <1>  -0.6200 
 24 H        1.1790    -0.0820     1.7050 H     1 <1>   0.1500 
 25 H       -1.9430     1.8040    -0.6330 H     1 <1>   0.1500 
 26 H       -4.0530    -0.4110     1.5780 H     1 <1>   0.0800 
 27 H       -4.2210     0.4420     0.0680 H     1 <1>   0.0800 
 28 H        0.5120     1.8720    -0.0210 H     1 <1>   0.1500 
 29 H       -3.4260    -1.5470    -1.1650 H     1 <1>   0.0800 
 30 H       -3.2520    -2.4170     0.3320 H     1 <1>   0.0800 
 31 H       -5.8690    -1.3260    -0.7490 H     1 <1>   0.0800 
 32 H       -5.7000    -2.2230     0.7320 H     1 <1>   0.0800 
 33 H       -4.6940    -4.5540     0.5050 H     1 <1>   0.3700 
 34 H       -5.1310    -5.7660    -2.1680 H     1 <1>   0.0800 
 35 H       -6.4280    -7.5180    -1.2750 H     1 <1>   0.0800 
 36 H       -3.0220    -6.1030    -0.5320 H     1 <1>   0.0800 
 37 H       -3.7570    -7.5360    -1.2500 H     1 <1>   0.0800 
 38 H       -5.8890    -8.4030     0.7550 H     1 <1>   0.0800 
 39 H       -6.0410    -6.8600     1.5880 H     1 <1>   0.0800 
 40 H       -7.8920    -5.5060    -1.2800 H     1 <1>   0.0800 
 41 H       -7.5000    -5.2210     0.3850 H     1 <1>   0.0800 
 42 H       -8.5800    -6.5590     2.1620 H     1 <1>   0.1500 
 43 H       -9.1510    -7.6570    -1.9070 H     1 <1>   0.1500 
 44 H      -10.3230    -8.1480     2.7460 H     1 <1>   0.1500 
 45 H      -10.8730    -9.2020    -1.1580 H     1 <1>   0.1500 
@<TRIPOS>BOND
  1   1   2  1   
  2   1   3  1   
  3   2   4  2   
  4   2   5  1   
  5   3   6  2   
  6   3  24  1   
  7   4   6  1   
  8   4  25  1   
  9   5   7  1   
 10   5  26  1   
 11   5  27  1   
 12   6  28  1   
 13   7   8  1   
 14   7  29  1   
 15   7  30  1   
 16   8   9  1   
 17   8  31  1   
 18   8  32  1   
 19   9  10  2   
 20   9  11  am  
 21  11  12  1   
 22  11  33  1   
 23  12  13  1   
 24  12  14  1   
 25  12  34  1   
 26  13  15  1   
 27  13  16  1   
 28  13  35  1   
 29  14  17  1   
 30  14  36  1   
 31  14  37  1   
 32  15  17  1   
 33  15  38  1   
 34  15  39  1   
 35  16  18  1   
 36  16  40  1   
 37  16  41  1   
 38  18  19  ar  
 39  18  20  ar  
 40  19  21  ar  
 41  19  42  1   
 42  20  22  ar  
 43  20  43  1   
 44  21  23  ar  
 45  21  44  1   
 46  22  23  ar  
 47  22  45  1   
@<TRIPOS>SUBSTRUCTURE
  1 ****  11 GROUP 4 **** **** 0

# MOE 2024.06 (io_trps.svl 2023.06)
