@<TRIPOS>MOLECULE
NONAME
58 61 1 0 0 
SMALL
USER_CHARGES


@<TRIPOS>ATOM
  1 S       -0.3460    -0.3950    -1.3090 S.3   1 <1>  -0.0800 
  2 C        1.1220    -1.3360    -1.0560 C.ar  1 <1>   0.2970 
  3 C        0.4620     1.0720    -0.7660 C.2   1 <1>  -0.1400 
  4 N        1.1820    -2.6320    -1.2910 N.ar  1 <1>  -0.5670 
  5 C        2.1450    -0.5430    -0.5910 C.ar  1 <1>   0.0000 
  6 C        1.7350     0.8330    -0.4160 C.2   1 <1>  -0.1810 
  7 C       -0.2920     2.3830    -0.7340 C.3   1 <1>   0.0200 
  8 C        2.3760    -3.1390    -1.0420 C.ar  1 <1>   0.4770 
  9 C        3.3470    -1.2250    -0.3850 C.ar  1 <1>   0.4100 
 10 C        2.6220     1.9500     0.1150 C.3   1 <1>   0.0210 
 11 C        0.7110     3.5330    -0.5350 C.3   1 <1>  -0.1600 
 12 N        3.4590    -2.5190    -0.5990 N.ar  1 <1>  -0.6200 
 13 C        2.5070    -4.6490    -1.2580 C.3   1 <1>   0.4870 
 14 N        4.4870    -0.6300     0.0370 N.pl3 1 <1>  -0.9000 
 15 C        1.7870     3.1840     0.5140 C.3   1 <1>  -0.1600 
 16 N        1.3350    -5.4020    -0.6770 N.4   1 <1>  -0.9590 
 17 C        1.2840    -6.8130    -1.1790 C.3   1 <1>   0.3430 
 18 C        1.3130    -5.3100     0.8070 C.3   1 <1>   0.3430 
 19 C        0.2230    -7.7040    -0.4850 C.3   1 <1>   0.0000 
 20 C       -0.0190    -5.8320     1.3450 C.3   1 <1>  -0.1600 
 21 C       -0.7060    -6.8400     0.4130 C.3   1 <1>   0.2000 
 22 C       -0.6730    -8.3150    -1.5900 C.3   1 <1>   0.1200 
 23 C        0.9230    -8.8890     0.2540 C.3   1 <1>  -0.1600 
 24 O       -1.5430    -7.6370     1.1670 O.3   1 <1>  -0.6800 
 25 O        0.1160    -8.8390    -2.6070 O.3   1 <1>  -0.6800 
 26 C        1.9210    -8.5480     1.3740 C.3   1 <1>  -0.1600 
 27 C        2.5730    -9.8220     1.9170 C.3   1 <1>  -0.2400 
 28 H       -0.8340     2.5240    -1.6530 H     1 <1>   0.0800 
 29 H       -0.9960     2.3600     0.0800 H     1 <1>   0.0800 
 30 H        3.1640     1.6090     0.9790 H     1 <1>   0.0800 
 31 H        3.3280     2.2240    -0.6490 H     1 <1>   0.0800 
 32 H        1.1960     3.7370    -1.4740 H     1 <1>   0.0800 
 33 H        0.1810     4.4220    -0.2380 H     1 <1>   0.0800 
 34 H        3.4260    -4.9860    -0.8100 H     1 <1>   0.0800 
 35 H        2.5630    -4.8250    -2.3180 H     1 <1>   0.0800 
 36 H        5.3500    -1.1770     0.0320 H     1 <1>   0.4000 
 37 H        4.6130     0.3800    -0.0350 H     1 <1>   0.4000 
 38 H        1.3000     2.9840     1.4530 H     1 <1>   0.0800 
 39 H        2.4410     4.0260     0.6580 H     1 <1>   0.0800 
 40 H        0.5090    -4.8830    -1.0200 H     1 <1>   0.4500 
 41 H        1.0890    -6.7950    -2.2390 H     1 <1>   0.0800 
 42 H        2.2480    -7.2770    -1.0490 H     1 <1>   0.0800 
 43 H        2.1210    -5.8940     1.2150 H     1 <1>   0.0800 
 44 H        1.4480    -4.2880     1.1260 H     1 <1>   0.0800 
 45 H       -0.6810    -4.9930     1.4750 H     1 <1>   0.0800 
 46 H        0.1450    -6.2490     2.3210 H     1 <1>   0.0800 
 47 H       -1.3510    -6.2690    -0.2350 H     1 <1>   0.0800 
 48 H       -1.3160    -7.5710    -2.0310 H     1 <1>   0.0800 
 49 H       -1.2870    -9.1050    -1.1900 H     1 <1>   0.0800 
 50 H        0.1730    -9.5480     0.6570 H     1 <1>   0.0800 
 51 H        1.4580    -9.4710    -0.4800 H     1 <1>   0.0800 
 52 H       -1.0360    -8.2150     1.7710 H     1 <1>   0.4000 
 53 H       -0.4250    -9.3790    -3.2230 H     1 <1>   0.4000 
 54 H        2.7010    -7.9060     1.0060 H     1 <1>   0.0800 
 55 H        1.4230    -8.0620     2.1910 H     1 <1>   0.0800 
 56 H        3.1130   -10.3350     1.1400 H     1 <1>   0.0800 
 57 H        1.8290   -10.4890     2.3160 H     1 <1>   0.0800 
 58 H        3.2650    -9.5780     2.7050 H     1 <1>   0.0800 
@<TRIPOS>BOND
  1   1   2  1   
  2   1   3  1   
  3   2   4  ar  
  4   2   5  ar  
  5   3   6  2   
  6   3   7  1   
  7   4   8  ar  
  8   5   6  1   
  9   5   9  ar  
 10   6  10  1   
 11   7  11  1   
 12   7  28  1   
 13   7  29  1   
 14   8  12  ar  
 15   8  13  1   
 16   9  12  ar  
 17   9  14  1   
 18  10  15  1   
 19  10  30  1   
 20  10  31  1   
 21  11  15  1   
 22  11  32  1   
 23  11  33  1   
 24  13  16  1   
 25  13  34  1   
 26  13  35  1   
 27  14  36  1   
 28  14  37  1   
 29  15  38  1   
 30  15  39  1   
 31  16  17  1   
 32  16  18  1   
 33  16  40  1   
 34  17  19  1   
 35  17  41  1   
 36  17  42  1   
 37  18  20  1   
 38  18  43  1   
 39  18  44  1   
 40  19  21  1   
 41  19  22  1   
 42  19  23  1   
 43  20  21  1   
 44  20  45  1   
 45  20  46  1   
 46  21  24  1   
 47  21  47  1   
 48  22  25  1   
 49  22  48  1   
 50  22  49  1   
 51  23  26  1   
 52  23  50  1   
 53  23  51  1   
 54  24  52  1   
 55  25  53  1   
 56  26  27  1   
 57  26  54  1   
 58  26  55  1   
 59  27  56  1   
 60  27  57  1   
 61  27  58  1   
@<TRIPOS>SUBSTRUCTURE
  1 ****   4 GROUP 4 **** **** 0

# MOE 2024.06 (io_trps.svl 2023.06)
