@<TRIPOS>MOLECULE
NONAME
50 51 1 0 0 
SMALL
USER_CHARGES


@<TRIPOS>ATOM
  1 F        0.6610    -1.2130     1.1270 F     1 <1>  -0.1900 
  2 C        0.2910    -2.3120     0.5280 C.ar  1 <1>   0.1900 
  3 C       -0.8040    -2.2760    -0.3140 C.ar  1 <1>  -0.1500 
  4 C        1.0080    -3.4710     0.7580 C.ar  1 <1>  -0.1500 
  5 C       -1.1930    -3.4460    -0.9450 C.ar  1 <1>  -0.1500 
  6 C        0.6080    -4.6340     0.1210 C.ar  1 <1>  -0.1500 
  7 C       -0.4930    -4.6260    -0.7270 C.ar  1 <1>  -0.1430 
  8 C       -0.9340    -5.9100    -1.4110 C.3   1 <1>  -0.0160 
  9 C       -1.8710    -6.6960    -0.4820 C.3   1 <1>  -0.0990 
 10 C       -2.4070    -7.9860    -1.0870 C.2   1 <1>   0.5690 
 11 O       -2.1890    -8.2170    -2.2500 O.2   1 <1>  -0.5700 
 12 N       -3.1590    -8.8500    -0.3360 N.am  1 <1>  -0.6600 
 13 C       -3.4050   -10.2230    -0.9130 C.3   1 <1>   0.3210 
 14 C       -3.7240    -8.5010     1.0130 C.3   1 <1>   0.1400 
 15 C       -4.2520   -11.1630    -0.0520 C.2   1 <1>   0.0460 
 16 C       -5.0120    -7.6460     0.9320 C.3   1 <1>   0.3430 
 17 N       -5.5920   -11.0090     0.0570 N.2   1 <1>  -0.5650 
 18 C       -3.8350   -12.2320     0.6680 C.2   1 <1>  -0.3320 
 19 N       -6.0190    -8.1660    -0.0480 N.4   1 <1>  -0.9590 
 20 C       -5.9560   -11.9910     0.8180 C.2   1 <1>   0.0360 
 21 N       -4.9340   -12.7700     1.2260 N.pl3 1 <1>   0.0330 
 22 C       -2.4490   -12.8240     0.8780 C.3   1 <1>  -0.0600 
 23 C       -5.8290    -7.6340    -1.4320 C.3   1 <1>   0.2630 
 24 C       -7.4190    -7.9590     0.4190 C.3   1 <1>   0.2630 
 25 H       -1.3320    -1.3540    -0.4700 H     1 <1>   0.1500 
 26 H        1.8560    -3.4570     1.4170 H     1 <1>   0.1500 
 27 H       -2.0410    -3.4310    -1.6070 H     1 <1>   0.1500 
 28 H        1.1580    -5.5440     0.2890 H     1 <1>   0.1500 
 29 H       -0.0730    -6.5100    -1.6550 H     1 <1>   0.0800 
 30 H       -1.4380    -5.6770    -2.3330 H     1 <1>   0.0800 
 31 H       -2.6980    -6.0640    -0.2210 H     1 <1>   0.0800 
 32 H       -1.3290    -6.9360     0.4140 H     1 <1>   0.0800 
 33 H       -2.4510   -10.6850    -1.0970 H     1 <1>   0.0800 
 34 H       -3.8880   -10.1200    -1.8690 H     1 <1>   0.0800 
 35 H       -2.9900    -7.9560     1.5800 H     1 <1>   0.0800 
 36 H       -3.9250    -9.3880     1.5840 H     1 <1>   0.0800 
 37 H       -4.7520    -6.6330     0.6760 H     1 <1>   0.0800 
 38 H       -5.4500    -7.6250     1.9160 H     1 <1>   0.0800 
 39 H       -5.8600    -9.2000    -0.0960 H     1 <1>   0.4500 
 40 H       -6.9730   -12.1950     1.1110 H     1 <1>   0.1500 
 41 H       -4.9900   -13.6040     1.8200 H     1 <1>   0.2700 
 42 H       -1.6970   -12.2320     0.3880 H     1 <1>   0.0800 
 43 H       -2.4090   -13.8220     0.4780 H     1 <1>   0.0800 
 44 H       -2.2170   -12.8630     1.9270 H     1 <1>   0.0800 
 45 H       -5.9510    -6.5630    -1.4440 H     1 <1>   0.0800 
 46 H       -6.5530    -8.0730    -2.0990 H     1 <1>   0.0800 
 47 H       -4.8460    -7.8750    -1.8000 H     1 <1>   0.0800 
 48 H       -7.6390    -6.9070     0.4950 H     1 <1>   0.0800 
 49 H       -7.5590    -8.4170     1.3850 H     1 <1>   0.0800 
 50 H       -8.1100    -8.4110    -0.2740 H     1 <1>   0.0800 
@<TRIPOS>BOND
  1   1   2  1   
  2   2   3  ar  
  3   2   4  ar  
  4   3   5  ar  
  5   3  25  1   
  6   4   6  ar  
  7   4  26  1   
  8   5   7  ar  
  9   5  27  1   
 10   6   7  ar  
 11   6  28  1   
 12   7   8  1   
 13   8   9  1   
 14   8  29  1   
 15   8  30  1   
 16   9  10  1   
 17   9  31  1   
 18   9  32  1   
 19  10  11  2   
 20  10  12  am  
 21  12  13  1   
 22  12  14  1   
 23  13  15  1   
 24  13  33  1   
 25  13  34  1   
 26  14  16  1   
 27  14  35  1   
 28  14  36  1   
 29  15  17  1   
 30  15  18  2   
 31  16  19  1   
 32  16  37  1   
 33  16  38  1   
 34  17  20  2   
 35  18  21  1   
 36  18  22  1   
 37  19  23  1   
 38  19  24  1   
 39  19  39  1   
 40  20  21  1   
 41  20  40  1   
 42  21  41  1   
 43  22  42  1   
 44  22  43  1   
 45  22  44  1   
 46  23  45  1   
 47  23  46  1   
 48  23  47  1   
 49  24  48  1   
 50  24  49  1   
 51  24  50  1   
@<TRIPOS>SUBSTRUCTURE
  1 ****  10 GROUP 4 **** **** 0

# MOE 2024.06 (io_trps.svl 2023.06)
