@<TRIPOS>MOLECULE
NONAME
40 42 1 0 0 
SMALL
USER_CHARGES


@<TRIPOS>ATOM
  1 O        0.3280     0.6580     0.3720 O.3   1 <1>  -0.0190 
  2 N        1.2520    -0.2570     0.3180 N.2   1 <1>  -0.4100 
  3 C        0.7650     1.8210    -0.0320 C.2   1 <1>  -0.0400 
  4 C        2.3040     0.3250    -0.1320 C.2   1 <1>   0.1080 
  5 C        2.0540     1.6720    -0.3790 C.2   1 <1>  -0.1500 
  6 C       -0.1910     3.0020    -0.0340 C.3   1 <1>   0.0200 
  7 C        3.6280    -0.3690    -0.3590 C.3   1 <1>  -0.0590 
  8 C        0.5130     4.3440    -0.3020 C.3   1 <1>  -0.0800 
  9 C       -0.4270     5.5380    -0.4740 C.3   1 <1>   0.2000 
 10 C        1.4450     4.7780     0.8310 C.3   1 <1>   0.2090 
 11 O       -1.4510     5.4440     0.4800 O.3   1 <1>  -0.5600 
 12 C        0.4800     6.7460    -0.1900 C.3   1 <1>   0.2090 
 13 N        1.5900     6.2450     0.6760 N.pl3 1 <1>  -0.8380 
 14 C       -2.5650     6.2440     0.2380 C.3   1 <1>   0.0400 
 15 C        2.8480     6.8180     0.6690 C.ar  1 <1>   0.4100 
 16 N        3.1650     7.5920    -0.3600 N.ar  1 <1>  -0.6200 
 17 C        3.7190     6.5660     1.7250 C.ar  1 <1>  -0.1500 
 18 C        4.3800     8.1400    -0.3550 C.ar  1 <1>   0.3830 
 19 C        4.9750     7.1220     1.7360 C.ar  1 <1>  -0.1500 
 20 C        4.7550     8.9900    -1.4560 C.1   1 <1>   0.4840 
 21 C        5.3000     7.9250     0.6640 C.ar  1 <1>  -0.1500 
 22 N        5.1010     9.6680    -2.3090 N.1   1 <1>  -0.5570 
 23 H        2.7600     2.3850    -0.7630 H     1 <1>   0.1500 
 24 H       -0.9390     2.8320    -0.7880 H     1 <1>   0.0800 
 25 H       -0.6920     3.0380     0.9180 H     1 <1>   0.0800 
 26 H        3.9200    -0.2700    -1.3880 H     1 <1>   0.0800 
 27 H        3.5400    -1.4130    -0.1200 H     1 <1>   0.0800 
 28 H        4.3820     0.0690     0.2690 H     1 <1>   0.0800 
 29 H        1.1010     4.2610    -1.1980 H     1 <1>   0.0800 
 30 H       -0.8610     5.5700    -1.4580 H     1 <1>   0.0800 
 31 H        2.3960     4.2790     0.7720 H     1 <1>   0.0800 
 32 H        0.9900     4.5760     1.7860 H     1 <1>   0.0800 
 33 H       -0.0510     7.5400     0.3040 H     1 <1>   0.0800 
 34 H        0.8730     7.1100    -1.1220 H     1 <1>   0.0800 
 35 H       -3.2720     6.0780     1.0310 H     1 <1>   0.0800 
 36 H       -3.0060     5.9650    -0.7030 H     1 <1>   0.0800 
 37 H       -2.2730     7.2800     0.2290 H     1 <1>   0.0800 
 38 H        3.3890     5.9410     2.5320 H     1 <1>   0.1500 
 39 H        5.6670     6.9420     2.5420 H     1 <1>   0.1500 
 40 H        6.2690     8.3900     0.6190 H     1 <1>   0.1500 
@<TRIPOS>BOND
  1   1   2  1   
  2   1   3  1   
  3   2   4  2   
  4   3   5  2   
  5   3   6  1   
  6   4   5  1   
  7   4   7  1   
  8   5  23  1   
  9   6   8  1   
 10   6  24  1   
 11   6  25  1   
 12   7  26  1   
 13   7  27  1   
 14   7  28  1   
 15   8   9  1   
 16   8  10  1   
 17   8  29  1   
 18   9  11  1   
 19   9  12  1   
 20   9  30  1   
 21  10  13  1   
 22  10  31  1   
 23  10  32  1   
 24  11  14  1   
 25  12  13  1   
 26  12  33  1   
 27  12  34  1   
 28  13  15  1   
 29  14  35  1   
 30  14  36  1   
 31  14  37  1   
 32  15  16  ar  
 33  15  17  ar  
 34  16  18  ar  
 35  17  19  ar  
 36  17  38  1   
 37  18  20  1   
 38  18  21  ar  
 39  19  21  ar  
 40  19  39  1   
 41  20  22  3   
 42  21  40  1   
@<TRIPOS>SUBSTRUCTURE
  1 ****  10 GROUP 4 **** **** 0

# MOE 2024.06 (io_trps.svl 2023.06)
