@<TRIPOS>MOLECULE
NONAME
51 53 1 0 0 
SMALL
USER_CHARGES


@<TRIPOS>ATOM
  1 O       -1.5250    -1.4440     1.3740 O.2   1 <1>  -0.5700 
  2 C       -0.7090    -2.2180     0.9180 C.2   1 <1>   0.6900 
  3 N       -0.9410    -2.9410    -0.2400 N.am  1 <1>  -0.4690 
  4 N        0.4690    -2.3960     1.5680 N.am  1 <1>  -0.4900 
  5 C        0.0150    -3.8320    -0.7160 C.2   1 <1>  -0.0410 
  6 C       -2.2180    -2.7620    -1.0010 C.3   1 <1>   0.2010 
  7 C        1.4320    -3.2560     1.1440 C.2   1 <1>   0.6160 
  8 C        1.1840    -4.0040    -0.0540 C.2   1 <1>  -0.1240 
  9 C       -3.0080    -4.0620    -1.1590 C.2   1 <1>   0.5690 
 10 O        2.4490    -3.3450     1.8020 O.2   1 <1>  -0.5700 
 11 C        2.2500    -4.9740    -0.5450 C.3   1 <1>  -0.1020 
 12 O       -2.9140    -4.6330    -2.2220 O.2   1 <1>  -0.5700 
 13 N       -3.8010    -4.5580    -0.1530 N.am  1 <1>  -0.6600 
 14 C       -4.5740    -5.8280    -0.3320 C.3   1 <1>   0.1400 
 15 C       -3.9830    -3.9230     1.1840 C.3   1 <1>   0.1400 
 16 C       -6.0700    -5.5720    -0.5780 C.3   1 <1>   0.1400 
 17 C       -5.1160    -2.8870     1.1760 C.3   1 <1>  -0.1600 
 18 N       -6.6820    -4.6980     0.4750 N.am  1 <1>  -0.6600 
 19 C       -6.3400    -3.2560     0.3280 C.3   1 <1>   0.1400 
 20 C       -7.5290    -5.1160     1.4720 C.2   1 <1>   0.5690 
 21 O       -8.0110    -4.3350     2.2590 O.2   1 <1>  -0.5700 
 22 C       -7.8940    -6.5840     1.6490 C.3   1 <1>   0.0440 
 23 C       -8.8110    -7.1180     0.5520 C.ar  1 <1>  -0.1430 
 24 C       -9.8530    -6.3460     0.0530 C.ar  1 <1>   0.1600 
 25 C       -8.6170    -8.3840     0.0340 C.ar  1 <1>  -0.1500 
 26 N      -10.6840    -6.7250    -0.9050 N.ar  1 <1>  -0.6200 
 27 C       -9.4770    -8.7940    -0.9610 C.ar  1 <1>  -0.1500 
 28 C      -10.4770    -7.9380    -1.3890 C.ar  1 <1>   0.1600 
 29 H        0.6410    -1.8620     2.4110 H     1 <1>   0.3700 
 30 H       -0.2200    -4.3710    -1.6220 H     1 <1>   0.1500 
 31 H       -1.9780    -2.3940    -1.9820 H     1 <1>   0.0800 
 32 H       -2.8440    -2.0270    -0.5320 H     1 <1>   0.0800 
 33 H        2.4440    -5.7170     0.2080 H     1 <1>   0.0800 
 34 H        3.1640    -4.4430    -0.7440 H     1 <1>   0.0800 
 35 H        1.9360    -5.4710    -1.4460 H     1 <1>   0.0800 
 36 H       -4.4570    -6.4430     0.5420 H     1 <1>   0.0800 
 37 H       -4.1790    -6.3840    -1.1640 H     1 <1>   0.0800 
 38 H       -3.0700    -3.4650     1.5130 H     1 <1>   0.0800 
 39 H       -4.2240    -4.6870     1.9030 H     1 <1>   0.0800 
 40 H       -6.5770    -6.5170    -0.6320 H     1 <1>   0.0800 
 41 H       -6.1880    -5.1050    -1.5410 H     1 <1>   0.0800 
 42 H       -4.7340    -1.9420     0.8360 H     1 <1>   0.0800 
 43 H       -5.4390    -2.7360     2.1910 H     1 <1>   0.0800 
 44 H       -6.1350    -3.0420    -0.7080 H     1 <1>   0.0800 
 45 H       -7.1790    -2.6480     0.6220 H     1 <1>   0.0800 
 46 H       -8.3920    -6.7000     2.5950 H     1 <1>   0.0800 
 47 H       -6.9870    -7.1560     1.6930 H     1 <1>   0.0800 
 48 H      -10.0140    -5.3610     0.4610 H     1 <1>   0.1500 
 49 H       -7.8340    -9.0320     0.3870 H     1 <1>   0.1500 
 50 H       -9.3780    -9.7680    -1.4050 H     1 <1>   0.1500 
 51 H      -11.1420    -8.2680    -2.1680 H     1 <1>   0.1500 
@<TRIPOS>BOND
  1   1   2  2   
  2   2   3  am  
  3   2   4  am  
  4   3   5  1   
  5   3   6  1   
  6   4   7  am  
  7   4  29  1   
  8   5   8  2   
  9   5  30  1   
 10   6   9  1   
 11   6  31  1   
 12   6  32  1   
 13   7   8  1   
 14   7  10  2   
 15   8  11  1   
 16   9  12  2   
 17   9  13  am  
 18  11  33  1   
 19  11  34  1   
 20  11  35  1   
 21  13  14  1   
 22  13  15  1   
 23  14  16  1   
 24  14  36  1   
 25  14  37  1   
 26  15  17  1   
 27  15  38  1   
 28  15  39  1   
 29  16  18  1   
 30  16  40  1   
 31  16  41  1   
 32  17  19  1   
 33  17  42  1   
 34  17  43  1   
 35  18  19  1   
 36  18  20  am  
 37  19  44  1   
 38  19  45  1   
 39  20  21  2   
 40  20  22  1   
 41  22  23  1   
 42  22  46  1   
 43  22  47  1   
 44  23  24  ar  
 45  23  25  ar  
 46  24  26  ar  
 47  24  48  1   
 48  25  27  ar  
 49  25  49  1   
 50  26  28  ar  
 51  27  28  ar  
 52  27  50  1   
 53  28  51  1   
@<TRIPOS>SUBSTRUCTURE
  1 ****  13 GROUP 4 **** **** 0

# MOE 2024.06 (io_trps.svl 2023.06)
