@<TRIPOS>MOLECULE
NONAME
54 57 1 0 0 
SMALL
USER_CHARGES


@<TRIPOS>ATOM
  1 O        3.4630    -0.9210     0.9120 O.2   1 <1>  -0.5700 
  2 C        2.6990    -1.1850     0.0110 C.2   1 <1>   0.5690 
  3 N        2.4360    -0.2510    -0.9470 N.am  1 <1>  -0.6600 
  4 C        2.1140    -2.5750    -0.1060 C.3   1 <1>  -0.0990 
  5 C        3.2250    -0.2520    -2.2190 C.3   1 <1>   0.1400 
  6 C        1.8090     1.0520    -0.5890 C.3   1 <1>   0.1400 
  7 C        1.0920    -2.8590     1.0030 C.3   1 <1>   0.0630 
  8 C        4.6950     0.1750    -1.9890 C.3   1 <1>   0.3430 
  9 C        2.8030     2.0350     0.0520 C.3   1 <1>  -0.1600 
 10 C        0.4360    -4.2130     0.8450 C.ar  1 <1>  -0.1440 
 11 C       -0.1060    -1.8850     0.9860 C.3   1 <1>  -0.1600 
 12 N        4.8650     0.9290    -0.7010 N.4   1 <1>  -0.9590 
 13 C        4.1240     2.2200    -0.6990 C.3   1 <1>   0.3430 
 14 C       -0.9240    -4.1260     1.0200 C.ar  1 <1>  -0.1440 
 15 C        1.0290    -5.4340     0.5710 C.ar  1 <1>  -0.1500 
 16 C       -1.3530    -2.7160     1.3300 C.3   1 <1>  -0.0170 
 17 C        6.2890     1.0130    -0.2570 C.3   1 <1>   0.3430 
 18 C       -1.7280    -5.2460     0.9150 C.ar  1 <1>  -0.1500 
 19 C        0.2320    -6.5630     0.4630 C.ar  1 <1>  -0.1500 
 20 C        6.3940     1.2340     1.2570 C.3   1 <1>   0.0960 
 21 C       -1.1410    -6.4690     0.6320 C.ar  1 <1>  -0.1500 
 22 N        7.8140     1.2120     1.6370 N.pl3 1 <1>   0.0480 
 23 C        8.6960     2.2130     1.6290 C.2   1 <1>   0.0360 
 24 C        8.5580     0.1700     2.0140 C.2   1 <1>   0.0360 
 25 N        9.8730     1.8140     1.9580 N.2   1 <1>  -0.3380 
 26 N        9.7840     0.5060     2.2040 N.2   1 <1>  -0.3380 
 27 H        2.9150    -3.2870    -0.0410 H     1 <1>   0.0800 
 28 H        1.6400    -2.6930    -1.0640 H     1 <1>   0.0800 
 29 H        2.7650     0.4140    -2.9280 H     1 <1>   0.0800 
 30 H        3.2070    -1.2370    -2.6560 H     1 <1>   0.0800 
 31 H        1.0010     0.8720     0.1020 H     1 <1>   0.0800 
 32 H        1.3770     1.4910    -1.4730 H     1 <1>   0.0800 
 33 H        1.5710    -2.8250     1.9680 H     1 <1>   0.0800 
 34 H        5.0410     0.7630    -2.8230 H     1 <1>   0.0800 
 35 H        5.2950    -0.7200    -1.9520 H     1 <1>   0.0800 
 36 H        3.0040     1.7280     1.0640 H     1 <1>   0.0800 
 37 H        2.3180     2.9930     0.1180 H     1 <1>   0.0800 
 38 H       -0.2380    -1.4880    -0.0050 H     1 <1>   0.0800 
 39 H        0.0300    -1.0730     1.6770 H     1 <1>   0.0800 
 40 H        4.3520     0.3290    -0.0120 H     1 <1>   0.4500 
 41 H        4.7060     2.9790    -0.2020 H     1 <1>   0.0800 
 42 H        3.9360     2.5480    -1.7090 H     1 <1>   0.0800 
 43 H        2.0930    -5.5150     0.4460 H     1 <1>   0.1500 
 44 H       -2.2030    -2.4210     0.7410 H     1 <1>   0.0800 
 45 H       -1.5870    -2.6370     2.3780 H     1 <1>   0.0800 
 46 H        6.7890     1.8120    -0.7810 H     1 <1>   0.0800 
 47 H        6.7870     0.0870    -0.4960 H     1 <1>   0.0800 
 48 H       -2.7920    -5.1690     1.0520 H     1 <1>   0.1500 
 49 H        0.6800    -7.5170     0.2490 H     1 <1>   0.1500 
 50 H        5.8850     0.4470     1.7860 H     1 <1>   0.0800 
 51 H        5.9770     2.1830     1.5380 H     1 <1>   0.0800 
 52 H       -1.7540    -7.3490     0.5460 H     1 <1>   0.1500 
 53 H        8.4510     3.2290     1.3760 H     1 <1>   0.1500 
 54 H        8.1750    -0.8270     2.1390 H     1 <1>   0.1500 
@<TRIPOS>BOND
  1   1   2  2   
  2   2   3  am  
  3   2   4  1   
  4   3   5  1   
  5   3   6  1   
  6   4   7  1   
  7   4  27  1   
  8   4  28  1   
  9   5   8  1   
 10   5  29  1   
 11   5  30  1   
 12   6   9  1   
 13   6  31  1   
 14   6  32  1   
 15   7  10  1   
 16   7  11  1   
 17   7  33  1   
 18   8  12  1   
 19   8  34  1   
 20   8  35  1   
 21   9  13  1   
 22   9  36  1   
 23   9  37  1   
 24  10  14  ar  
 25  10  15  ar  
 26  11  16  1   
 27  11  38  1   
 28  11  39  1   
 29  12  13  1   
 30  12  17  1   
 31  12  40  1   
 32  13  41  1   
 33  13  42  1   
 34  14  16  1   
 35  14  18  ar  
 36  15  19  ar  
 37  15  43  1   
 38  16  44  1   
 39  16  45  1   
 40  17  20  1   
 41  17  46  1   
 42  17  47  1   
 43  18  21  ar  
 44  18  48  1   
 45  19  21  ar  
 46  19  49  1   
 47  20  22  1   
 48  20  50  1   
 49  20  51  1   
 50  21  52  1   
 51  22  23  1   
 52  22  24  1   
 53  23  25  2   
 54  23  53  1   
 55  24  26  2   
 56  24  54  1   
 57  25  26  1   
@<TRIPOS>SUBSTRUCTURE
  1 ****   1 GROUP 4 **** **** 0

# MOE 2024.06 (io_trps.svl 2023.06)
