@<TRIPOS>MOLECULE
NONAME
45 46 1 0 0 
SMALL
USER_CHARGES


@<TRIPOS>ATOM
  1 S        0.8760     0.4320     0.3180 S.o2  1 <1>   1.3330 
  2 O        1.0730     0.2900     1.7440 O.2   1 <1>  -0.6500 
  3 O        0.6880    -0.7480    -0.4940 O.2   1 <1>  -0.6500 
  4 N       -0.4530     1.4600     0.0800 N.am  1 <1>  -0.8490 
  5 C        2.2410     1.3610    -0.3730 C.3   1 <1>  -0.0550 
  6 C       -0.5520     2.5280     1.0810 C.3   1 <1>   0.1160 
  7 C       -1.7170     0.7210     0.0110 C.3   1 <1>   0.1160 
  8 C        3.5690     0.5770    -0.3750 C.3   1 <1>  -0.0800 
  9 C        4.7360     1.2880    -1.0440 C.3   1 <1>   0.2200 
 10 C        4.1180     0.2530     1.0210 C.3   1 <1>   0.1200 
 11 N        4.7500     2.7250    -0.6880 N.am  1 <1>  -0.7300 
 12 C        5.9110     0.5980    -0.3670 C.3   1 <1>   0.1200 
 13 O        5.5070     0.4030     0.9530 O.3   1 <1>  -0.5600 
 14 C        4.3410     3.7460    -1.4840 C.2   1 <1>   0.5690 
 15 O        3.9300     3.5460    -2.6020 O.2   1 <1>  -0.5700 
 16 C        4.3820     5.1740    -0.9570 C.3   1 <1>   0.1810 
 17 O        4.3290     5.1940     0.4630 O.3   1 <1>  -0.3630 
 18 C        4.3540     6.3620     1.1500 C.ar  1 <1>   0.0820 
 19 C        4.3980     7.6170     0.5460 C.ar  1 <1>  -0.1500 
 20 C        4.3340     6.2720     2.5330 C.ar  1 <1>  -0.1500 
 21 C        4.4220     8.7600     1.3260 C.ar  1 <1>  -0.1500 
 22 C        4.3580     7.4160     3.3110 C.ar  1 <1>  -0.1500 
 23 C        4.4020     8.6610     2.7070 C.ar  1 <1>  -0.1500 
 24 H        2.0010     1.6260    -1.3850 H     1 <1>   0.0800 
 25 H        2.3600     2.2710     0.1810 H     1 <1>   0.0800 
 26 H       -1.3620     3.1930     0.8330 H     1 <1>   0.0800 
 27 H        0.3590     3.1010     1.1060 H     1 <1>   0.0800 
 28 H       -0.7270     2.1130     2.0600 H     1 <1>   0.0800 
 29 H       -2.5360     1.3980    -0.1610 H     1 <1>   0.0800 
 30 H       -1.8860     0.1820     0.9280 H     1 <1>   0.0800 
 31 H       -1.6870     0.0170    -0.8040 H     1 <1>   0.0800 
 32 H        3.4110    -0.3570    -0.8870 H     1 <1>   0.0800 
 33 H        4.7460     1.1610    -2.1150 H     1 <1>   0.0800 
 34 H        3.8880    -0.7560     1.3180 H     1 <1>   0.0800 
 35 H        3.7530     0.9400     1.7660 H     1 <1>   0.0800 
 36 H        5.0420     2.9280     0.2740 H     1 <1>   0.3700 
 37 H        6.8120     1.1860    -0.3900 H     1 <1>   0.0800 
 38 H        6.0910    -0.3690    -0.8040 H     1 <1>   0.0800 
 39 H        3.5350     5.7160    -1.3360 H     1 <1>   0.0800 
 40 H        5.2940     5.6450    -1.2720 H     1 <1>   0.0800 
 41 H        4.4130     7.7290    -0.5210 H     1 <1>   0.1500 
 42 H        4.3010     5.3030     2.9970 H     1 <1>   0.1500 
 43 H        4.4560     9.7300     0.8610 H     1 <1>   0.1500 
 44 H        4.3430     7.3380     4.3840 H     1 <1>   0.1500 
 45 H        4.4210     9.5510     3.3120 H     1 <1>   0.1500 
@<TRIPOS>BOND
  1   1   2  2   
  2   1   3  2   
  3   1   4  am  
  4   1   5  1   
  5   4   6  1   
  6   4   7  1   
  7   5   8  1   
  8   5  24  1   
  9   5  25  1   
 10   6  26  1   
 11   6  27  1   
 12   6  28  1   
 13   7  29  1   
 14   7  30  1   
 15   7  31  1   
 16   8   9  1   
 17   8  10  1   
 18   8  32  1   
 19   9  11  1   
 20   9  12  1   
 21   9  33  1   
 22  10  13  1   
 23  10  34  1   
 24  10  35  1   
 25  11  14  am  
 26  11  36  1   
 27  12  13  1   
 28  12  37  1   
 29  12  38  1   
 30  14  15  2   
 31  14  16  1   
 32  16  17  1   
 33  16  39  1   
 34  16  40  1   
 35  17  18  1   
 36  18  19  ar  
 37  18  20  ar  
 38  19  21  ar  
 39  19  41  1   
 40  20  22  ar  
 41  20  42  1   
 42  21  23  ar  
 43  21  43  1   
 44  22  23  ar  
 45  22  44  1   
 46  23  45  1   
@<TRIPOS>SUBSTRUCTURE
  1 ****  11 GROUP 4 **** **** 0

# MOE 2024.06 (io_trps.svl 2023.06)
