@<TRIPOS>MOLECULE
NONAME
48 51 1 0 0 
SMALL
USER_CHARGES


@<TRIPOS>ATOM
  1 O       -0.4280     0.2940     0.9630 O.2   1 <1>  -0.5700 
  2 C       -1.4790     0.9060     0.9780 C.2   1 <1>   0.5440 
  3 N       -2.6620     0.2050     1.0590 N.am  1 <1>  -0.6600 
  4 C       -1.4720     2.3540     0.9050 C.ar  1 <1>   0.0860 
  5 C       -2.7070    -1.2900     1.1470 C.3   1 <1>   0.1400 
  6 C       -4.0080     0.8070     0.8130 C.3   1 <1>   0.1400 
  7 C       -1.3090     3.0400    -0.3060 C.ar  1 <1>  -0.1440 
  8 C       -1.6590     3.0970     2.0680 C.ar  1 <1>  -0.1500 
  9 C       -3.4850    -1.8890    -0.0400 C.3   1 <1>   0.3440 
 10 C       -4.7100     0.1000    -0.3620 C.3   1 <1>   0.2950 
 11 C       -1.3470     4.4260    -0.3370 C.ar  1 <1>  -0.1500 
 12 C       -1.0850     2.2710    -1.6020 C.3   1 <1>  -0.0970 
 13 C       -1.6940     4.4780     2.0260 C.ar  1 <1>   0.0820 
 14 O       -4.7480    -1.2810    -0.1510 O.3   1 <1>  -0.5600 
 15 C       -3.6520    -3.3960     0.1340 C.ar  1 <1>  -0.1430 
 16 C       -6.1540     0.5830    -0.5250 C.3   1 <1>  -0.1950 
 17 C       -1.5420     5.1470     0.8270 C.ar  1 <1>  -0.1500 
 18 O       -1.8750     5.1870     3.1500 O.3   1 <1>  -0.5320 
 19 C       -2.6760    -4.2520    -0.3570 C.ar  1 <1>  -0.1500 
 20 C       -4.7540    -3.9360     0.7850 C.ar  1 <1>  -0.1500 
 21 C       -6.8700     0.4560    -1.8320 C.3   1 <1>  -0.2000 
 22 C       -6.4720     1.8120    -1.3190 C.3   1 <1>  -0.2000 
 23 C       -2.7970    -5.6220    -0.2000 C.ar  1 <1>  -0.1500 
 24 C       -4.8760    -5.3050     0.9430 C.ar  1 <1>  -0.1500 
 25 C       -3.8970    -6.1500     0.4510 C.ar  1 <1>  -0.1500 
 26 H       -1.7140    -1.7040     1.1600 H     1 <1>   0.0800 
 27 H       -3.1900    -1.5770     2.0640 H     1 <1>   0.0800 
 28 H       -4.6080     0.7020     1.6990 H     1 <1>   0.0800 
 29 H       -3.9300     1.8560     0.5910 H     1 <1>   0.0800 
 30 H       -1.7750     2.5770     3.0000 H     1 <1>   0.1500 
 31 H       -2.9480    -1.6980    -0.9520 H     1 <1>   0.0800 
 32 H       -4.1670     0.2840    -1.2730 H     1 <1>   0.0800 
 33 H       -1.2220     4.9560    -1.2650 H     1 <1>   0.1500 
 34 H       -0.9600     2.9400    -2.4340 H     1 <1>   0.0800 
 35 H       -1.9220     1.6290    -1.8030 H     1 <1>   0.0800 
 36 H       -0.1980     1.6670    -1.5190 H     1 <1>   0.0800 
 37 H       -6.7360     0.4140     0.3650 H     1 <1>   0.1000 
 38 H       -1.5720     6.2220     0.8110 H     1 <1>   0.1500 
 39 H       -1.9170     4.6380     3.9530 H     1 <1>   0.4500 
 40 H       -1.8130    -3.8570    -0.8640 H     1 <1>   0.1500 
 41 H       -5.5230    -3.2880     1.1690 H     1 <1>   0.1500 
 42 H       -6.3420     0.0340    -2.6700 H     1 <1>   0.1000 
 43 H       -7.9090     0.1740    -1.8190 H     1 <1>   0.1000 
 44 H       -7.2440     2.4730    -0.9660 H     1 <1>   0.1000 
 45 H       -5.6830     2.3370    -1.8310 H     1 <1>   0.1000 
 46 H       -2.0350    -6.2770    -0.5840 H     1 <1>   0.1500 
 47 H       -5.7350    -5.7120     1.4480 H     1 <1>   0.1500 
 48 H       -3.9930    -7.2140     0.5730 H     1 <1>   0.1500 
@<TRIPOS>BOND
  1   1   2  2   
  2   2   3  am  
  3   2   4  1   
  4   3   5  1   
  5   3   6  1   
  6   4   7  ar  
  7   4   8  ar  
  8   5   9  1   
  9   5  26  1   
 10   5  27  1   
 11   6  10  1   
 12   6  28  1   
 13   6  29  1   
 14   7  11  ar  
 15   7  12  1   
 16   8  13  ar  
 17   8  30  1   
 18   9  14  1   
 19   9  15  1   
 20   9  31  1   
 21  10  14  1   
 22  10  16  1   
 23  10  32  1   
 24  11  17  ar  
 25  11  33  1   
 26  12  34  1   
 27  12  35  1   
 28  12  36  1   
 29  13  17  ar  
 30  13  18  1   
 31  15  19  ar  
 32  15  20  ar  
 33  16  21  1   
 34  16  22  1   
 35  16  37  1   
 36  17  38  1   
 37  18  39  1   
 38  19  23  ar  
 39  19  40  1   
 40  20  24  ar  
 41  20  41  1   
 42  21  22  1   
 43  21  42  1   
 44  21  43  1   
 45  22  44  1   
 46  22  45  1   
 47  23  25  ar  
 48  23  46  1   
 49  24  25  ar  
 50  24  47  1   
 51  25  48  1   
@<TRIPOS>SUBSTRUCTURE
  1 ****   3 GROUP 4 **** **** 0

# MOE 2024.06 (io_trps.svl 2023.06)
