@<TRIPOS>MOLECULE
NONAME
55 57 1 0 0 
SMALL
USER_CHARGES


@<TRIPOS>ATOM
  1 F       -0.5430    -1.5680    -1.4640 F     1 <1>  -0.1900 
  2 C       -1.4290    -1.8100    -0.5320 C.ar  1 <1>   0.1900 
  3 C       -2.0540    -0.7810     0.1790 C.ar  1 <1>   0.0830 
  4 C       -1.7180    -3.1420    -0.2990 C.ar  1 <1>  -0.1500 
  5 O       -1.8530     0.5580     0.0370 O.3   1 <1>  -0.3630 
  6 C       -2.9850    -1.1420     1.1410 C.ar  1 <1>  -0.1500 
  7 C       -2.6610    -3.4810     0.6620 C.ar  1 <1>  -0.1430 
  8 C       -0.8480     1.1040    -0.7900 C.3   1 <1>   0.0400 
  9 C       -3.2860    -2.4730     1.3840 C.ar  1 <1>  -0.1500 
 10 C       -3.0000    -4.9370     0.9060 C.3   1 <1>   0.4870 
 11 N       -3.9080    -5.3750    -0.1860 N.4   1 <1>  -0.9590 
 12 C       -3.9580    -6.8700    -0.2780 C.3   1 <1>   0.5660 
 13 C       -5.2780    -4.7790    -0.0560 C.3   1 <1>   0.3430 
 14 C       -2.5740    -7.3450    -0.7000 C.ar  1 <1>  -0.1430 
 15 C       -5.0560    -7.3970    -1.2420 C.3   1 <1>   0.2000 
 16 C       -6.2410    -5.3450    -1.1140 C.3   1 <1>   0.1200 
 17 C       -1.8610    -8.1730     0.1550 C.ar  1 <1>  -0.1500 
 18 C       -2.0020    -6.9630    -1.9100 C.ar  1 <1>  -0.1500 
 19 O       -6.2820    -6.7380    -1.0250 O.3   1 <1>  -0.5600 
 20 C       -5.2710    -8.9060    -1.0340 C.3   1 <1>   0.1200 
 21 C       -0.5890    -8.6070    -0.1760 C.ar  1 <1>   0.0830 
 22 C       -0.7260    -7.3840    -2.2410 C.ar  1 <1>  -0.1500 
 23 O       -5.3680    -9.1920     0.3260 O.3   1 <1>  -0.6800 
 24 O        0.0280    -9.4290     0.7060 O.3   1 <1>  -0.3630 
 25 C       -0.0040    -8.1880    -1.3760 C.ar  1 <1>   0.0830 
 26 C        0.3240   -10.7350     0.2600 C.3   1 <1>   0.0400 
 27 O        1.2520    -8.5300    -1.7490 O.3   1 <1>  -0.3630 
 28 C        2.3100    -8.0440    -0.9520 C.3   1 <1>   0.0400 
 29 H       -1.1960    -3.8920    -0.8700 H     1 <1>   0.1500 
 30 H       -3.4710    -0.3630     1.7040 H     1 <1>   0.1500 
 31 H       -0.8550     2.1720    -0.6640 H     1 <1>   0.0800 
 32 H       -1.0630     0.8590    -1.8140 H     1 <1>   0.0800 
 33 H        0.1070     0.7090    -0.4900 H     1 <1>   0.0800 
 34 H       -4.0100    -2.7050     2.1480 H     1 <1>   0.1500 
 35 H       -3.4720    -5.0620     1.8670 H     1 <1>   0.0800 
 36 H       -2.0890    -5.5140     0.8940 H     1 <1>   0.0800 
 37 H       -3.4880    -5.0420    -1.0570 H     1 <1>   0.4500 
 38 H       -4.1740    -7.2680     0.7000 H     1 <1>   0.0800 
 39 H       -5.6830    -4.9970     0.9180 H     1 <1>   0.0800 
 40 H       -5.2240    -3.7070    -0.1610 H     1 <1>   0.0800 
 41 H       -4.7760    -7.2260    -2.2660 H     1 <1>   0.0800 
 42 H       -5.9430    -5.0650    -2.1100 H     1 <1>   0.0800 
 43 H       -7.2380    -4.9790    -0.9390 H     1 <1>   0.0800 
 44 H       -2.2810    -8.5060     1.0890 H     1 <1>   0.1500 
 45 H       -2.5280    -6.3390    -2.6120 H     1 <1>   0.1500 
 46 H       -4.4390    -9.4650    -1.4290 H     1 <1>   0.0800 
 47 H       -6.1760    -9.2230    -1.5240 H     1 <1>   0.0800 
 48 H       -0.2740    -7.0910    -3.1730 H     1 <1>   0.1500 
 49 H       -5.7380   -10.0910     0.4630 H     1 <1>   0.4000 
 50 H        0.6990   -11.2990     1.0950 H     1 <1>   0.0800 
 51 H        1.0700   -10.6910    -0.5130 H     1 <1>   0.0800 
 52 H       -0.5760   -11.1880    -0.1160 H     1 <1>   0.0800 
 53 H        3.2380    -8.3200    -1.4210 H     1 <1>   0.0800 
 54 H        2.2540    -8.4830     0.0270 H     1 <1>   0.0800 
 55 H        2.2350    -6.9730    -0.8880 H     1 <1>   0.0800 
@<TRIPOS>BOND
  1   1   2  1   
  2   2   3  ar  
  3   2   4  ar  
  4   3   5  1   
  5   3   6  ar  
  6   4   7  ar  
  7   4  29  1   
  8   5   8  1   
  9   6   9  ar  
 10   6  30  1   
 11   7   9  ar  
 12   7  10  1   
 13   8  31  1   
 14   8  32  1   
 15   8  33  1   
 16   9  34  1   
 17  10  11  1   
 18  10  35  1   
 19  10  36  1   
 20  11  12  1   
 21  11  13  1   
 22  11  37  1   
 23  12  14  1   
 24  12  15  1   
 25  12  38  1   
 26  13  16  1   
 27  13  39  1   
 28  13  40  1   
 29  14  17  ar  
 30  14  18  ar  
 31  15  19  1   
 32  15  20  1   
 33  15  41  1   
 34  16  19  1   
 35  16  42  1   
 36  16  43  1   
 37  17  21  ar  
 38  17  44  1   
 39  18  22  ar  
 40  18  45  1   
 41  20  23  1   
 42  20  46  1   
 43  20  47  1   
 44  21  24  1   
 45  21  25  ar  
 46  22  25  ar  
 47  22  48  1   
 48  23  49  1   
 49  24  26  1   
 50  25  27  1   
 51  26  50  1   
 52  26  51  1   
 53  26  52  1   
 54  27  28  1   
 55  28  53  1   
 56  28  54  1   
 57  28  55  1   
@<TRIPOS>SUBSTRUCTURE
  1 ****  11 GROUP 4 **** **** 0

# MOE 2024.06 (io_trps.svl 2023.06)
