@<TRIPOS>MOLECULE
NONAME
40 42 1 0 0 
SMALL
USER_CHARGES


@<TRIPOS>ATOM
  1 S       -1.8250    -0.7960     0.5440 S.3   1 <1>  -0.0800 
  2 C       -1.9880    -1.3360    -1.0940 C.2   1 <1>   0.4420 
  3 C       -1.2590     0.7120    -0.0860 C.2   1 <1>   0.1980 
  4 N       -1.6370    -0.4370    -1.9390 N.2   1 <1>  -0.3380 
  5 N       -2.4520    -2.6190    -1.2760 N.am  1 <1>  -0.4940 
  6 N       -1.2220     0.7290    -1.3570 N.2   1 <1>  -0.3380 
  7 C       -0.8870     1.7920     0.9110 C.3   1 <1>   0.0200 
  8 C       -2.7680    -3.2940    -2.4220 C.2   1 <1>   0.5690 
  9 C       -0.4100     3.0600     0.2060 C.3   1 <1>   0.1200 
 10 O       -2.7070    -2.8060    -3.5210 O.2   1 <1>  -0.5700 
 11 C       -3.2060    -4.7410    -2.3230 C.3   1 <1>   0.1570 
 12 O       -0.0880     3.9990     1.1800 O.3   1 <1>  -0.5600 
 13 N       -4.0930    -4.9420    -1.1650 N.pl3 1 <1>   0.3140 
 14 C        0.3620     5.2070     0.6660 C.3   1 <1>   0.1200 
 15 N       -3.6280    -4.8430     0.0920 N.2   1 <1>  -0.7070 
 16 C       -5.4010    -5.2250    -1.2070 C.2   1 <1>  -0.3020 
 17 C        0.6700     6.1200     1.8450 C.3   1 <1>  -0.2400 
 18 C       -4.6820    -5.0840     0.8450 C.ar  1 <1>   0.2890 
 19 C       -5.8350    -5.3280     0.0780 C.ar  1 <1>   0.0000 
 20 C       -4.7720    -5.1170     2.2550 C.ar  1 <1>  -0.1500 
 21 C       -7.0700    -5.5980     0.7200 C.ar  1 <1>  -0.1500 
 22 C       -5.9670    -5.3790     2.8590 C.ar  1 <1>  -0.1500 
 23 C       -7.1280    -5.6220     2.0820 C.ar  1 <1>  -0.1500 
 24 H       -2.6480    -3.1440    -0.4130 H     1 <1>   0.3700 
 25 H       -0.1020     1.4250     1.5470 H     1 <1>   0.0800 
 26 H       -1.7470     2.0230     1.5110 H     1 <1>   0.0800 
 27 H       -1.1900     3.4580    -0.4210 H     1 <1>   0.0800 
 28 H        0.4660     2.8550    -0.3860 H     1 <1>   0.0800 
 29 H       -2.3430    -5.3670    -2.2100 H     1 <1>   0.0800 
 30 H       -3.7260    -5.0200    -3.2190 H     1 <1>   0.0800 
 31 H       -0.4090     5.6320     0.0460 H     1 <1>   0.0800 
 32 H        1.2490     5.0280     0.0810 H     1 <1>   0.0800 
 33 H       -5.9670    -5.3400    -2.1120 H     1 <1>   0.1500 
 34 H       -0.2180     6.2810     2.4290 H     1 <1>   0.0800 
 35 H        1.0240     7.0700     1.4880 H     1 <1>   0.0800 
 36 H        1.4310     5.6800     2.4640 H     1 <1>   0.0800 
 37 H       -3.8740    -4.9310     2.8130 H     1 <1>   0.1500 
 38 H       -7.9350    -5.7790     0.1080 H     1 <1>   0.1500 
 39 H       -6.0550    -5.4090     3.9320 H     1 <1>   0.1500 
 40 H       -8.0520    -5.8250     2.5960 H     1 <1>   0.1500 
@<TRIPOS>BOND
  1   1   2  1   
  2   1   3  1   
  3   2   4  2   
  4   2   5  1   
  5   3   6  2   
  6   3   7  1   
  7   4   6  1   
  8   5   8  am  
  9   5  24  1   
 10   7   9  1   
 11   7  25  1   
 12   7  26  1   
 13   8  10  2   
 14   8  11  1   
 15   9  12  1   
 16   9  27  1   
 17   9  28  1   
 18  11  13  1   
 19  11  29  1   
 20  11  30  1   
 21  12  14  1   
 22  13  15  1   
 23  13  16  1   
 24  14  17  1   
 25  14  31  1   
 26  14  32  1   
 27  15  18  2   
 28  16  19  2   
 29  16  33  1   
 30  17  34  1   
 31  17  35  1   
 32  17  36  1   
 33  18  19  ar  
 34  18  20  ar  
 35  19  21  ar  
 36  20  22  ar  
 37  20  37  1   
 38  21  23  ar  
 39  21  38  1   
 40  22  23  ar  
 41  22  39  1   
 42  23  40  1   
@<TRIPOS>SUBSTRUCTURE
  1 ****   2 GROUP 4 **** **** 0

# MOE 2024.06 (io_trps.svl 2023.06)
