@<TRIPOS>MOLECULE
NONAME
44 45 1 0 0 
SMALL
USER_CHARGES


@<TRIPOS>ATOM
  1 O       -0.5420    -0.1520     0.2360 O.2   1 <1>  -0.5700 
  2 C       -0.4810    -1.3520     0.4120 C.2   1 <1>   0.7800 
  3 O        0.6630    -2.0190     0.2420 O.3   1 <1>  -0.4300 
  4 N       -1.5730    -2.0800     0.7900 N.am  1 <1>  -0.6600 
  5 C        1.9130    -1.4910    -0.1450 C.3   1 <1>   0.2800 
  6 C       -2.9260    -1.4370     0.8600 C.3   1 <1>   0.3210 
  7 C       -1.5280    -3.5530     1.0820 C.3   1 <1>   0.1400 
  8 C        1.8200    -0.8790    -1.5480 C.3   1 <1>  -0.2400 
  9 C        2.8590    -2.6920    -0.1810 C.3   1 <1>  -0.2400 
 10 C        2.4120    -0.4870     0.9010 C.3   1 <1>  -0.2400 
 11 C       -3.9840    -2.3950     0.3340 C.2   1 <1>   0.0460 
 12 C       -2.4020    -4.3530     0.0950 C.3   1 <1>   0.1610 
 13 N       -5.2650    -2.0800     0.1400 N.2   1 <1>  -0.2270 
 14 C       -3.7680    -3.6720    -0.0070 C.2   1 <1>  -0.3320 
 15 C       -2.4550    -5.8100     0.5390 C.2   1 <1>   0.6590 
 16 N       -5.8540    -3.1290    -0.3230 N.2   1 <1>  -0.4180 
 17 N       -4.9590    -4.1200    -0.4260 N.pl3 1 <1>   0.3140 
 18 O       -2.7220    -6.1330     1.6690 O.2   1 <1>  -0.5700 
 19 O       -2.1930    -6.7130    -0.3990 O.3   1 <1>  -0.4300 
 20 C       -5.3440    -5.4520    -0.9420 C.3   1 <1>   0.0960 
 21 C       -2.1920    -8.0990    -0.1210 C.3   1 <1>   0.0400 
 22 C       -4.8300    -5.6700    -2.3710 C.3   1 <1>  -0.2400 
 23 H       -2.9480    -0.5380     0.2700 H     1 <1>   0.0800 
 24 H       -3.1500    -1.1820     1.8810 H     1 <1>   0.0800 
 25 H       -1.8950    -3.7060     2.0830 H     1 <1>   0.0800 
 26 H       -0.5180    -3.9240     1.0490 H     1 <1>   0.0800 
 27 H        1.4010    -1.5880    -2.2390 H     1 <1>   0.0800 
 28 H        2.8000    -0.6050    -1.8940 H     1 <1>   0.0800 
 29 H        1.2180     0.0100    -1.5450 H     1 <1>   0.0800 
 30 H        2.5120    -3.4190    -0.8930 H     1 <1>   0.0800 
 31 H        2.9170    -3.1510     0.7900 H     1 <1>   0.0800 
 32 H        3.8470    -2.3810    -0.4680 H     1 <1>   0.0800 
 33 H        1.8110     0.4030     0.9030 H     1 <1>   0.0800 
 34 H        3.4210    -0.1940     0.6750 H     1 <1>   0.0800 
 35 H        2.3960    -0.9280     1.8810 H     1 <1>   0.0800 
 36 H       -1.9320    -4.3180    -0.8710 H     1 <1>   0.0800 
 37 H       -6.4180    -5.5140    -0.9330 H     1 <1>   0.0800 
 38 H       -4.9640    -6.2070    -0.2800 H     1 <1>   0.0800 
 39 H       -1.9580    -8.6300    -1.0270 H     1 <1>   0.0800 
 40 H       -3.1660    -8.3850     0.2360 H     1 <1>   0.0800 
 41 H       -1.4480    -8.3040     0.6300 H     1 <1>   0.0800 
 42 H       -5.2380    -4.9210    -3.0270 H     1 <1>   0.0800 
 43 H       -5.1400    -6.6370    -2.7250 H     1 <1>   0.0800 
 44 H       -3.7570    -5.6240    -2.4040 H     1 <1>   0.0800 
@<TRIPOS>BOND
  1   1   2  2   
  2   2   3  1   
  3   2   4  am  
  4   3   5  1   
  5   4   6  1   
  6   4   7  1   
  7   5   8  1   
  8   5   9  1   
  9   5  10  1   
 10   6  11  1   
 11   6  23  1   
 12   6  24  1   
 13   7  12  1   
 14   7  25  1   
 15   7  26  1   
 16   8  27  1   
 17   8  28  1   
 18   8  29  1   
 19   9  30  1   
 20   9  31  1   
 21   9  32  1   
 22  10  33  1   
 23  10  34  1   
 24  10  35  1   
 25  11  13  1   
 26  11  14  2   
 27  12  14  1   
 28  12  15  1   
 29  12  36  1   
 30  13  16  2   
 31  14  17  1   
 32  15  18  2   
 33  15  19  1   
 34  16  17  1   
 35  17  20  1   
 36  19  21  1   
 37  20  22  1   
 38  20  37  1   
 39  20  38  1   
 40  21  39  1   
 41  21  40  1   
 42  21  41  1   
 43  22  42  1   
 44  22  43  1   
 45  22  44  1   
@<TRIPOS>SUBSTRUCTURE
  1 ****  12 GROUP 4 **** **** 0

# MOE 2024.06 (io_trps.svl 2023.06)
