@<TRIPOS>MOLECULE
NONAME
63 65 1 0 0 
SMALL
USER_CHARGES


@<TRIPOS>ATOM
  1 O       -1.7790     1.6720     2.1040 O.2   1 <1>  -0.5700 
  2 C       -1.9290     1.2170     0.9910 C.2   1 <1>   0.5690 
  3 N       -2.5270    -0.0040     0.7810 N.am  1 <1>  -0.6600 
  4 C       -1.3890     2.0830    -0.1790 C.3   1 <1>   0.4840 
  5 C       -2.7660    -0.6390    -0.5440 C.3   1 <1>   0.1400 
  6 C       -3.1410    -0.7600     1.9090 C.3   1 <1>   0.1400 
  7 N       -0.2060     2.9320     0.2670 N.4   1 <1>  -0.9590 
  8 C       -2.5420     2.9410    -0.7510 C.3   1 <1>  -0.1600 
  9 C       -4.2700    -0.7250    -0.8090 C.3   1 <1>  -0.1600 
 10 C       -4.6570    -0.8000     1.7210 C.3   1 <1>  -0.1600 
 11 C        0.2030     4.0310    -0.6510 C.3   1 <1>   0.3430 
 12 C        0.9430     2.0460     0.6480 C.3   1 <1>   0.2630 
 13 C       -2.4750     3.1470    -2.2760 C.3   1 <1>  -0.2400 
 14 C       -5.1170    -1.3090     0.3400 C.3   1 <1>   0.4240 
 15 C        1.1610     4.9820     0.0570 C.3   1 <1>  -0.2400 
 16 O       -6.3810    -0.7390     0.1160 O.3   1 <1>  -0.5600 
 17 C       -5.1920    -2.8590     0.2740 C.ar  1 <1>  -0.1430 
 18 C       -7.4800    -1.3380     0.7270 C.3   1 <1>   0.1200 
 19 C       -6.4150    -3.5080     0.1440 C.ar  1 <1>  -0.1430 
 20 C       -4.0530    -3.6530     0.3510 C.ar  1 <1>  -0.1500 
 21 C       -7.6980    -2.7020     0.0860 C.3   1 <1>  -0.0170 
 22 C       -6.4850    -4.8900     0.0680 C.ar  1 <1>  -0.1500 
 23 C       -4.1000    -5.0350     0.2860 C.ar  1 <1>   0.0820 
 24 C       -5.3380    -5.6750     0.1270 C.ar  1 <1>   0.0820 
 25 O       -2.8780    -5.6360     0.3880 O.3   1 <1>  -0.3630 
 26 O       -5.4090    -7.0350     0.0220 O.3   1 <1>  -0.3620 
 27 C       -2.7250    -6.9920     0.7440 C.3   1 <1>   0.0400 
 28 C       -6.5860    -7.6970    -0.3860 C.3   1 <1>   0.0400 
 29 H       -1.0580     1.4110    -0.9490 H     1 <1>   0.0800 
 30 H       -2.3210    -1.6170    -0.5590 H     1 <1>   0.0800 
 31 H       -2.3090    -0.0780    -1.3380 H     1 <1>   0.0800 
 32 H       -2.9170    -0.2900     2.8530 H     1 <1>   0.0800 
 33 H       -2.7320    -1.7540     1.9470 H     1 <1>   0.0800 
 34 H       -0.5430     3.3550     1.1500 H     1 <1>   0.4500 
 35 H       -2.6040     3.8830    -0.2340 H     1 <1>   0.0800 
 36 H       -3.4710     2.4320    -0.5550 H     1 <1>   0.0800 
 37 H       -4.4400    -1.3100    -1.6950 H     1 <1>   0.0800 
 38 H       -4.6130     0.2730    -1.0150 H     1 <1>   0.0800 
 39 H       -5.0240     0.2000     1.8660 H     1 <1>   0.0800 
 40 H       -5.0800    -1.4210     2.4890 H     1 <1>   0.0800 
 41 H       -0.6640     4.5960    -0.9500 H     1 <1>   0.0800 
 42 H        0.6660     3.6260    -1.5370 H     1 <1>   0.0800 
 43 H        1.3380     1.5460    -0.2210 H     1 <1>   0.0800 
 44 H        0.6240     1.3030     1.3620 H     1 <1>   0.0800 
 45 H        1.7310     2.6250     1.1020 H     1 <1>   0.0800 
 46 H       -1.5970     3.6810    -2.5870 H     1 <1>   0.0800 
 47 H       -3.3340     3.7110    -2.5990 H     1 <1>   0.0800 
 48 H       -2.4950     2.1990    -2.7860 H     1 <1>   0.0800 
 49 H        0.7310     5.3500     0.9710 H     1 <1>   0.0800 
 50 H        1.3500     5.8270    -0.5820 H     1 <1>   0.0800 
 51 H        2.1070     4.5150     0.2590 H     1 <1>   0.0800 
 52 H       -8.3340    -0.7040     0.5680 H     1 <1>   0.0800 
 53 H       -7.2970    -1.4270     1.7840 H     1 <1>   0.0800 
 54 H       -3.0830    -3.2240     0.4690 H     1 <1>   0.1500 
 55 H       -7.9970    -2.5700    -0.9390 H     1 <1>   0.0800 
 56 H       -8.4870    -3.2140     0.6060 H     1 <1>   0.0800 
 57 H       -7.4530    -5.3400    -0.0370 H     1 <1>   0.1500 
 58 H       -1.6920    -7.1610     0.9860 H     1 <1>   0.0800 
 59 H       -3.0070    -7.6040    -0.0930 H     1 <1>   0.0800 
 60 H       -3.3430    -7.2010     1.5990 H     1 <1>   0.0800 
 61 H       -6.3590    -8.7410    -0.5000 H     1 <1>   0.0800 
 62 H       -6.9080    -7.2880    -1.3280 H     1 <1>   0.0800 
 63 H       -7.3390    -7.5690     0.3710 H     1 <1>   0.0800 
@<TRIPOS>BOND
  1   1   2  2   
  2   2   3  am  
  3   2   4  1   
  4   3   5  1   
  5   3   6  1   
  6   4   7  1   
  7   4   8  1   
  8   4  29  1   
  9   5   9  1   
 10   5  30  1   
 11   5  31  1   
 12   6  10  1   
 13   6  32  1   
 14   6  33  1   
 15   7  11  1   
 16   7  12  1   
 17   7  34  1   
 18   8  13  1   
 19   8  35  1   
 20   8  36  1   
 21   9  14  1   
 22   9  37  1   
 23   9  38  1   
 24  10  14  1   
 25  10  39  1   
 26  10  40  1   
 27  11  15  1   
 28  11  41  1   
 29  11  42  1   
 30  12  43  1   
 31  12  44  1   
 32  12  45  1   
 33  13  46  1   
 34  13  47  1   
 35  13  48  1   
 36  14  16  1   
 37  14  17  1   
 38  15  49  1   
 39  15  50  1   
 40  15  51  1   
 41  16  18  1   
 42  17  19  ar  
 43  17  20  ar  
 44  18  21  1   
 45  18  52  1   
 46  18  53  1   
 47  19  21  1   
 48  19  22  ar  
 49  20  23  ar  
 50  20  54  1   
 51  21  55  1   
 52  21  56  1   
 53  22  24  ar  
 54  22  57  1   
 55  23  24  ar  
 56  23  25  1   
 57  24  26  1   
 58  25  27  1   
 59  26  28  1   
 60  27  58  1   
 61  27  59  1   
 62  27  60  1   
 63  28  61  1   
 64  28  62  1   
 65  28  63  1   
@<TRIPOS>SUBSTRUCTURE
  1 ****   5 GROUP 4 **** **** 0

# MOE 2024.06 (io_trps.svl 2023.06)
