@<TRIPOS>MOLECULE
NONAME
56 58 1 0 0 
SMALL
USER_CHARGES


@<TRIPOS>ATOM
  1 O       -0.6690     1.4790    -0.1950 O.2   1 <1>  -0.5700 
  2 C       -1.8440     1.5260     0.1420 C.2   1 <1>   0.5440 
  3 N       -2.5100     0.3170     0.3150 N.am  1 <1>  -0.6600 
  4 C       -2.4770     2.8010     0.3310 C.ar  1 <1>   0.0860 
  5 C       -3.8850    -0.0020    -0.1860 C.3   1 <1>   0.2200 
  6 C       -1.7230    -0.8850     0.7080 C.3   1 <1>   0.0600 
  7 C       -3.0980     3.1520     1.5330 C.ar  1 <1>  -0.1500 
  8 C       -2.5120     3.7510    -0.6950 C.ar  1 <1>  -0.1500 
  9 C       -4.2850     0.7050    -1.4820 C.3   1 <1>  -0.1600 
 10 C       -4.9630     0.3260     0.8400 C.3   1 <1>  -0.1600 
 11 C       -3.7980     4.3230     1.6840 C.ar  1 <1>   0.0820 
 12 C       -3.2030     4.9320    -0.5770 C.ar  1 <1>   0.0820 
 13 C       -5.8010     0.9450    -1.4040 C.3   1 <1>  -0.0800 
 14 C       -6.2250     0.7040     0.0520 C.3   1 <1>  -0.0800 
 15 O       -4.3980     4.5190     2.8960 O.3   1 <1>  -0.3630 
 16 C       -3.9110     5.2470     0.6120 C.ar  1 <1>  -0.1710 
 17 O       -3.1970     5.7500    -1.6710 O.3   1 <1>  -0.3630 
 18 C       -6.2010     2.3910    -1.7340 C.3   1 <1>  -0.1600 
 19 C       -6.8590     2.0160     0.5370 C.3   1 <1>  -0.1600 
 20 C       -4.2070     5.7900     3.4810 C.3   1 <1>   0.0400 
 21 O       -4.6580     6.2670     0.6890 O.3   1 <1>  -0.8290 
 22 C       -2.9060     7.1090    -1.4240 C.3   1 <1>   0.0400 
 23 C       -6.2940     3.0940    -0.3830 C.3   1 <1>   0.4230 
 24 N       -7.1650     4.2950    -0.4310 N.4   1 <1>  -0.9590 
 25 C       -6.5710     5.3130    -1.3560 C.3   1 <1>   0.2630 
 26 C       -7.2150     4.9200     0.9300 C.3   1 <1>   0.2630 
 27 H       -3.9440    -1.0590    -0.3840 H     1 <1>   0.0800 
 28 H       -2.2920    -1.4920     1.3900 H     1 <1>   0.0800 
 29 H       -0.8080    -0.5900     1.1930 H     1 <1>   0.0800 
 30 H       -1.4790    -1.4590    -0.1690 H     1 <1>   0.0800 
 31 H       -3.0280     2.4760     2.3640 H     1 <1>   0.1500 
 32 H       -1.9880     3.5410    -1.6080 H     1 <1>   0.1500 
 33 H       -3.7710     1.6340    -1.6060 H     1 <1>   0.0800 
 34 H       -4.0450     0.0840    -2.3260 H     1 <1>   0.0800 
 35 H       -5.1480    -0.5260     1.4700 H     1 <1>   0.0800 
 36 H       -4.6500     1.1370     1.4620 H     1 <1>   0.0800 
 37 H       -6.3070     0.2550    -2.0590 H     1 <1>   0.0800 
 38 H       -6.9380    -0.1020     0.1060 H     1 <1>   0.0800 
 39 H       -7.1680     2.3810    -2.2050 H     1 <1>   0.0800 
 40 H       -5.4920     2.8720    -2.3840 H     1 <1>   0.0800 
 41 H       -6.6340     2.2190     1.5700 H     1 <1>   0.0800 
 42 H       -7.9240     1.9510     0.4090 H     1 <1>   0.0800 
 43 H       -4.3560     5.7020     4.5410 H     1 <1>   0.0800 
 44 H       -4.9220     6.4750     3.0640 H     1 <1>   0.0800 
 45 H       -3.2080     6.1280     3.2680 H     1 <1>   0.0800 
 46 H       -2.5390     7.5490    -2.3310 H     1 <1>   0.0800 
 47 H       -2.1630     7.1740    -0.6480 H     1 <1>   0.0800 
 48 H       -3.8060     7.6050    -1.1100 H     1 <1>   0.0800 
 49 H       -5.3030     3.3620    -0.0550 H     1 <1>   0.0800 
 50 H       -8.1050     4.0400    -0.7410 H     1 <1>   0.4500 
 51 H       -5.5340     5.4720    -1.1240 H     1 <1>   0.0800 
 52 H       -7.0800     6.2560    -1.2560 H     1 <1>   0.0800 
 53 H       -6.6370     4.9820    -2.3770 H     1 <1>   0.0800 
 54 H       -6.2290     4.9620     1.3590 H     1 <1>   0.0800 
 55 H       -7.8400     4.3420     1.5890 H     1 <1>   0.0800 
 56 H       -7.5950     5.9250     0.8720 H     1 <1>   0.0800 
@<TRIPOS>BOND
  1   1   2  2   
  2   2   3  am  
  3   2   4  1   
  4   3   5  1   
  5   3   6  1   
  6   4   7  ar  
  7   4   8  ar  
  8   5   9  1   
  9   5  10  1   
 10   5  27  1   
 11   6  28  1   
 12   6  29  1   
 13   6  30  1   
 14   7  11  ar  
 15   7  31  1   
 16   8  12  ar  
 17   8  32  1   
 18   9  13  1   
 19   9  33  1   
 20   9  34  1   
 21  10  14  1   
 22  10  35  1   
 23  10  36  1   
 24  11  15  1   
 25  11  16  ar  
 26  12  16  ar  
 27  12  17  1   
 28  13  14  1   
 29  13  18  1   
 30  13  37  1   
 31  14  19  1   
 32  14  38  1   
 33  15  20  1   
 34  16  21  1   
 35  17  22  1   
 36  18  23  1   
 37  18  39  1   
 38  18  40  1   
 39  19  23  1   
 40  19  41  1   
 41  19  42  1   
 42  20  43  1   
 43  20  44  1   
 44  20  45  1   
 45  22  46  1   
 46  22  47  1   
 47  22  48  1   
 48  23  24  1   
 49  23  49  1   
 50  24  25  1   
 51  24  26  1   
 52  24  50  1   
 53  25  51  1   
 54  25  52  1   
 55  25  53  1   
 56  26  54  1   
 57  26  55  1   
 58  26  56  1   
@<TRIPOS>SUBSTRUCTURE
  1 ****   4 GROUP 4 **** **** 0

# MOE 2024.06 (io_trps.svl 2023.06)
