@<TRIPOS>MOLECULE
NONAME
49 51 1 0 0 
SMALL
USER_CHARGES


@<TRIPOS>ATOM
  1 S        0.1750     0.5550    -0.8200 S.o2  1 <1>   1.3330 
  2 O       -0.4190    -0.6380    -1.3780 O.2   1 <1>  -0.6500 
  3 O        0.6540     1.5950    -1.7040 O.2   1 <1>  -0.6500 
  4 N        1.4680     0.0580     0.1650 N.am  1 <1>  -0.8490 
  5 C       -0.9750     1.2700     0.3650 C.3   1 <1>  -0.0550 
  6 C        1.3000    -1.2880     0.7230 C.3   1 <1>   0.1160 
  7 C        2.7680     0.1630    -0.5080 C.3   1 <1>   0.1160 
  8 C       -0.6830     2.7020     0.8680 C.3   1 <1>  -0.0800 
  9 C       -0.9810     3.7930    -0.1650 C.3   1 <1>   0.2000 
 10 C        0.7450     2.9960     1.3330 C.3   1 <1>   0.1400 
 11 O       -2.3280     4.1190    -0.1070 O.3   1 <1>  -0.6800 
 12 C       -0.1060     4.9870     0.2210 C.3   1 <1>   0.1400 
 13 N        0.8910     4.4600     1.1900 N.am  1 <1>  -0.6600 
 14 C        2.0630     5.1030     1.5170 C.2   1 <1>   0.5440 
 15 O        2.9570     4.4590     2.0330 O.2   1 <1>  -0.5700 
 16 C        2.2540     6.5110     1.2380 C.ar  1 <1>   0.0860 
 17 C        1.3570     7.4800     1.6850 C.ar  1 <1>  -0.1500 
 18 C        3.3480     6.9540     0.4980 C.ar  1 <1>  -0.1500 
 19 C        1.5310     8.8170     1.3850 C.ar  1 <1>  -0.1500 
 20 C        3.5220     8.2910     0.1990 C.ar  1 <1>  -0.1500 
 21 C        2.6160     9.2630     0.6270 C.ar  1 <1>   0.0540 
 22 C        2.8000    10.6650     0.2960 C.2   1 <1>   0.4620 
 23 N        1.9770    11.6280     0.7310 N.2   1 <1>  -0.2270 
 24 N        3.7560    11.1290    -0.4440 N.2   1 <1>  -0.7070 
 25 N        2.4140    12.7250     0.2630 N.2   1 <1>  -0.4180 
 26 N        3.4840    12.4110    -0.4400 N.pl3 1 <1>   0.5800 
 27 C        4.2930    13.3990    -1.1580 C.3   1 <1>   0.0160 
 28 H       -1.9510     1.2790    -0.0800 H     1 <1>   0.0800 
 29 H       -1.0300     0.6170     1.2140 H     1 <1>   0.0800 
 30 H        2.0950    -1.5020     1.4180 H     1 <1>   0.0800 
 31 H        1.3140    -2.0250    -0.0630 H     1 <1>   0.0800 
 32 H        0.3620    -1.3600     1.2460 H     1 <1>   0.0800 
 33 H        3.5580    -0.1420     0.1560 H     1 <1>   0.0800 
 34 H        2.9520     1.1840    -0.7990 H     1 <1>   0.0800 
 35 H        2.7830    -0.4560    -1.3900 H     1 <1>   0.0800 
 36 H       -1.3100     2.8760     1.7240 H     1 <1>   0.0800 
 37 H       -0.7550     3.4870    -1.1710 H     1 <1>   0.0800 
 38 H        1.4820     2.5330     0.7040 H     1 <1>   0.0800 
 39 H        0.9080     2.6920     2.3530 H     1 <1>   0.0800 
 40 H       -2.5690     4.4200     0.7900 H     1 <1>   0.4000 
 41 H       -0.6910     5.7610     0.6860 H     1 <1>   0.0800 
 42 H        0.3960     5.3760    -0.6480 H     1 <1>   0.0800 
 43 H        0.5150     7.1720     2.2800 H     1 <1>   0.1500 
 44 H        4.0670     6.2280     0.1570 H     1 <1>   0.1500 
 45 H        0.8120     9.5310     1.7480 H     1 <1>   0.1500 
 46 H        4.3790     8.5930    -0.3800 H     1 <1>   0.1500 
 47 H        5.3270    13.1210    -1.0880 H     1 <1>   0.0800 
 48 H        4.1430    14.3660    -0.7160 H     1 <1>   0.0800 
 49 H        3.9880    13.4150    -2.1860 H     1 <1>   0.0800 
@<TRIPOS>BOND
  1   1   2  2   
  2   1   3  2   
  3   1   4  am  
  4   1   5  1   
  5   4   6  1   
  6   4   7  1   
  7   5   8  1   
  8   5  28  1   
  9   5  29  1   
 10   6  30  1   
 11   6  31  1   
 12   6  32  1   
 13   7  33  1   
 14   7  34  1   
 15   7  35  1   
 16   8   9  1   
 17   8  10  1   
 18   8  36  1   
 19   9  11  1   
 20   9  12  1   
 21   9  37  1   
 22  10  13  1   
 23  10  38  1   
 24  10  39  1   
 25  11  40  1   
 26  12  13  1   
 27  12  41  1   
 28  12  42  1   
 29  13  14  am  
 30  14  15  2   
 31  14  16  1   
 32  16  17  ar  
 33  16  18  ar  
 34  17  19  ar  
 35  17  43  1   
 36  18  20  ar  
 37  18  44  1   
 38  19  21  ar  
 39  19  45  1   
 40  20  21  ar  
 41  20  46  1   
 42  21  22  1   
 43  22  23  1   
 44  22  24  2   
 45  23  25  2   
 46  24  26  1   
 47  25  26  1   
 48  26  27  1   
 49  27  47  1   
 50  27  48  1   
 51  27  49  1   
@<TRIPOS>SUBSTRUCTURE
  1 ****  16 GROUP 4 **** **** 0

# MOE 2024.06 (io_trps.svl 2023.06)
