@<TRIPOS>MOLECULE
NONAME
53 55 1 0 0 
SMALL
USER_CHARGES


@<TRIPOS>ATOM
  1 CL       2.4600     0.3840    -1.2100 Cl    1 <1>  -0.1770 
  2 C        1.1830     1.4470    -0.6580 C.ar  1 <1>   0.1770 
  3 C        1.4000     2.3880     0.3450 C.ar  1 <1>  -0.1440 
  4 C       -0.0490     1.3160    -1.2730 C.ar  1 <1>  -0.1500 
  5 C        0.3390     3.2090     0.7070 C.ar  1 <1>  -0.1500 
  6 C        2.7390     2.5670     1.0590 C.3   1 <1>   0.3640 
  7 C       -1.0940     2.1390    -0.8960 C.ar  1 <1>  -0.1500 
  8 C       -0.8960     3.0860     0.0930 C.ar  1 <1>  -0.1500 
  9 N        3.1130     1.2960     1.7200 N.am  1 <1>  -0.7300 
 10 C        3.8450     3.0990     0.0990 C.3   1 <1>   0.2610 
 11 C        4.3440     0.7490     1.6520 C.2   1 <1>   0.5690 
 12 O        5.1590     2.8000     0.5770 O.3   1 <1>  -0.5600 
 13 C        3.7330     4.6150    -0.1260 C.2   1 <1>   0.5690 
 14 O        4.6170    -0.2490     2.2660 O.2   1 <1>  -0.5700 
 15 C        5.3980     1.4170     0.7670 C.3   1 <1>   0.1810 
 16 O        2.9490     5.2550     0.5360 O.2   1 <1>  -0.5700 
 17 N        4.6010     5.2610    -0.9780 N.am  1 <1>  -0.6600 
 18 C        4.9960     6.6700    -0.6630 C.3   1 <1>   0.1400 
 19 C        5.6490     4.5880    -1.8150 C.3   1 <1>   0.1400 
 20 C        6.2580     6.6820     0.2640 C.3   1 <1>   0.5030 
 21 C        7.0660     4.8530    -1.2470 C.3   1 <1>   0.3430 
 22 N        7.0070     5.3730     0.1670 N.4   1 <1>  -0.9590 
 23 C        5.8130     6.8430     1.7210 C.3   1 <1>  -0.2400 
 24 C        7.1710     7.8500    -0.1270 C.3   1 <1>  -0.2400 
 25 C        8.3230     5.3190     0.8590 C.3   1 <1>   0.3430 
 26 C        8.6490     3.8720     1.2100 C.3   1 <1>  -0.2400 
 27 H       -0.1860     0.5770    -2.0420 H     1 <1>   0.1500 
 28 H        0.4650     3.9610     1.4700 H     1 <1>   0.1500 
 29 H        2.6080     3.2850     1.8500 H     1 <1>   0.0800 
 30 H       -2.0570     2.0440    -1.3690 H     1 <1>   0.1500 
 31 H       -1.7070     3.7310     0.3870 H     1 <1>   0.1500 
 32 H        2.4010     0.8250     2.2820 H     1 <1>   0.3700 
 33 H        3.7350     2.6250    -0.8570 H     1 <1>   0.0800 
 34 H        5.4090     0.9330    -0.1930 H     1 <1>   0.0800 
 35 H        6.3630     1.3040     1.2250 H     1 <1>   0.0800 
 36 H        5.2090     7.1820    -1.5850 H     1 <1>   0.0800 
 37 H        4.1820     7.2030    -0.2010 H     1 <1>   0.0800 
 38 H        5.4800     3.5280    -1.8710 H     1 <1>   0.0800 
 39 H        5.5940     4.9640    -2.8220 H     1 <1>   0.0800 
 40 H        7.5690     5.5690    -1.8740 H     1 <1>   0.0800 
 41 H        7.6280     3.9350    -1.2870 H     1 <1>   0.0800 
 42 H        6.3850     4.7050     0.6520 H     1 <1>   0.4500 
 43 H        5.2210     7.7360     1.8260 H     1 <1>   0.0800 
 44 H        6.6470     6.9340     2.3910 H     1 <1>   0.0800 
 45 H        5.2020     6.0130     2.0280 H     1 <1>   0.0800 
 46 H        6.6110     8.7690    -0.1030 H     1 <1>   0.0800 
 47 H        7.5550     7.7270    -1.1240 H     1 <1>   0.0800 
 48 H        7.9920     7.9620     0.5580 H     1 <1>   0.0800 
 49 H        9.0940     5.7380     0.2310 H     1 <1>   0.0800 
 50 H        8.2850     5.8920     1.7700 H     1 <1>   0.0800 
 51 H        8.7890     3.2710     0.3300 H     1 <1>   0.0800 
 52 H        7.8750     3.4470     1.8230 H     1 <1>   0.0800 
 53 H        9.5670     3.8460     1.7710 H     1 <1>   0.0800 
@<TRIPOS>BOND
  1   1   2  1   
  2   2   3  ar  
  3   2   4  ar  
  4   3   5  ar  
  5   3   6  1   
  6   4   7  ar  
  7   4  27  1   
  8   5   8  ar  
  9   5  28  1   
 10   6   9  1   
 11   6  10  1   
 12   6  29  1   
 13   7   8  ar  
 14   7  30  1   
 15   8  31  1   
 16   9  11  am  
 17   9  32  1   
 18  10  12  1   
 19  10  13  1   
 20  10  33  1   
 21  11  14  2   
 22  11  15  1   
 23  12  15  1   
 24  13  16  2   
 25  13  17  am  
 26  15  34  1   
 27  15  35  1   
 28  17  18  1   
 29  17  19  1   
 30  18  20  1   
 31  18  36  1   
 32  18  37  1   
 33  19  21  1   
 34  19  38  1   
 35  19  39  1   
 36  20  22  1   
 37  20  23  1   
 38  20  24  1   
 39  21  22  1   
 40  21  40  1   
 41  21  41  1   
 42  22  25  1   
 43  22  42  1   
 44  23  43  1   
 45  23  44  1   
 46  23  45  1   
 47  24  46  1   
 48  24  47  1   
 49  24  48  1   
 50  25  26  1   
 51  25  49  1   
 52  25  50  1   
 53  26  51  1   
 54  26  52  1   
 55  26  53  1   
@<TRIPOS>SUBSTRUCTURE
  1 ****  10 GROUP 4 **** **** 0

# MOE 2024.06 (io_trps.svl 2023.06)
