@<TRIPOS>MOLECULE
NONAME
46 48 1 0 0 
SMALL
USER_CHARGES


@<TRIPOS>ATOM
  1 CL      -3.1980    -0.0880    -2.8710 Cl    1 <1>  -0.1770 
  2 C       -3.4630    -0.8440    -1.3160 C.ar  1 <1>   0.1770 
  3 C       -3.8090    -0.0900    -0.2060 C.ar  1 <1>   0.1900 
  4 C       -3.3260    -2.2140    -1.1970 C.ar  1 <1>  -0.1500 
  5 F       -3.9420     1.2080    -0.3120 F     1 <1>  -0.1900 
  6 C       -4.0210    -0.6780     1.0280 C.ar  1 <1>  -0.1500 
  7 C       -3.5360    -2.8230     0.0320 C.ar  1 <1>   0.0820 
  8 C       -3.8830    -2.0530     1.1460 C.ar  1 <1>  -0.1500 
  9 O       -3.3870    -4.1680     0.0670 O.3   1 <1>  -0.3630 
 10 C       -3.6920    -4.9200     1.2340 C.3   1 <1>   0.1810 
 11 C       -3.5350    -6.4200     0.9980 C.2   1 <1>   0.5690 
 12 O       -2.6940    -6.9910     1.6560 O.2   1 <1>  -0.5700 
 13 N       -4.3550    -7.1010     0.1320 N.am  1 <1>  -0.6600 
 14 C       -4.2190    -8.5830    -0.0990 C.3   1 <1>   0.1400 
 15 C       -5.4650    -6.4950    -0.6530 C.3   1 <1>   0.1400 
 16 C       -5.5880    -9.3080    -0.2680 C.3   1 <1>  -0.1060 
 17 C       -6.8110    -7.0630    -0.1720 C.3   1 <1>  -0.1600 
 18 C       -5.9870    -9.4340    -1.7440 C.2   1 <1>   0.9060 
 19 C       -6.7030    -8.4820     0.4170 C.3   1 <1>   0.2000 
 20 C       -5.5220   -10.7340     0.3450 C.3   1 <1>  -0.0650 
 21 O       -7.1380    -9.8010    -2.0130 O.co2 1 <1>  -0.9000 
 22 O       -5.1880    -9.1470    -2.6430 O.co2 1 <1>  -0.9000 
 23 O       -6.4040    -8.3380     1.7660 O.3   1 <1>  -0.6800 
 24 C       -4.4260   -11.6230    -0.2650 C.3   1 <1>  -0.1950 
 25 C       -3.9890   -12.8690     0.4370 C.3   1 <1>  -0.2000 
 26 C       -3.0540   -11.6990     0.3260 C.3   1 <1>  -0.2000 
 27 H       -3.0570    -2.8080    -2.0520 H     1 <1>   0.1500 
 28 H       -4.2870    -0.0690     1.8740 H     1 <1>   0.1500 
 29 H       -4.0450    -2.5020     2.1080 H     1 <1>   0.1500 
 30 H       -3.0190    -4.6140     2.0130 H     1 <1>   0.0800 
 31 H       -4.7050    -4.7110     1.5230 H     1 <1>   0.0800 
 32 H       -3.5860    -8.7550    -0.9520 H     1 <1>   0.0800 
 33 H       -3.7130    -9.0050     0.7500 H     1 <1>   0.0800 
 34 H       -5.4730    -5.4230    -0.5870 H     1 <1>   0.0800 
 35 H       -5.3190    -6.7500    -1.6910 H     1 <1>   0.0800 
 36 H       -7.4660    -7.1010    -1.0250 H     1 <1>   0.0800 
 37 H       -7.2670    -6.4020     0.5420 H     1 <1>   0.0800 
 38 H       -7.6540    -8.9860     0.3470 H     1 <1>   0.0800 
 39 H       -5.3710   -10.6720     1.4080 H     1 <1>   0.0800 
 40 H       -6.4720   -11.2160     0.1860 H     1 <1>   0.0800 
 41 H       -5.4910    -7.9860     1.8060 H     1 <1>   0.4000 
 42 H       -4.5040   -11.6860    -1.3400 H     1 <1>   0.1000 
 43 H       -4.4190   -13.1000     1.3960 H     1 <1>   0.1000 
 44 H       -3.8000   -13.7470    -0.1550 H     1 <1>   0.1000 
 45 H       -2.2190   -11.7500    -0.3500 H     1 <1>   0.1000 
 46 H       -2.8300   -11.1370     1.2160 H     1 <1>   0.1000 
@<TRIPOS>BOND
  1   1   2  1   
  2   2   3  ar  
  3   2   4  ar  
  4   3   5  1   
  5   3   6  ar  
  6   4   7  ar  
  7   4  27  1   
  8   6   8  ar  
  9   6  28  1   
 10   7   8  ar  
 11   7   9  1   
 12   8  29  1   
 13   9  10  1   
 14  10  11  1   
 15  10  30  1   
 16  10  31  1   
 17  11  12  2   
 18  11  13  am  
 19  13  14  1   
 20  13  15  1   
 21  14  16  1   
 22  14  32  1   
 23  14  33  1   
 24  15  17  1   
 25  15  34  1   
 26  15  35  1   
 27  16  18  1   
 28  16  19  1   
 29  16  20  1   
 30  17  19  1   
 31  17  36  1   
 32  17  37  1   
 33  18  21  ar  
 34  18  22  ar  
 35  19  23  1   
 36  19  38  1   
 37  20  24  1   
 38  20  39  1   
 39  20  40  1   
 40  23  41  1   
 41  24  25  1   
 42  24  26  1   
 43  24  42  1   
 44  25  26  1   
 45  25  43  1   
 46  25  44  1   
 47  26  45  1   
 48  26  46  1   
@<TRIPOS>SUBSTRUCTURE
  1 ****  13 GROUP 4 **** **** 0

# MOE 2024.06 (io_trps.svl 2023.06)
