@<TRIPOS>MOLECULE
NONAME
46 48 1 0 0 
SMALL
USER_CHARGES


@<TRIPOS>ATOM
  1 F        0.9200     0.9060    -2.1740 F     1 <1>  -0.1900 
  2 C        1.6480     1.0660    -1.0970 C.ar  1 <1>   0.1900 
  3 C        2.0930    -0.0500    -0.3960 C.ar  1 <1>   0.0820 
  4 C        1.9360     2.3520    -0.6840 C.ar  1 <1>  -0.1500 
  5 O        1.8020    -1.3040    -0.8190 O.3   1 <1>  -0.3630 
  6 C        2.8590     0.1420     0.7450 C.ar  1 <1>  -0.1500 
  7 C        2.6930     2.5300     0.4640 C.ar  1 <1>  -0.1500 
  8 C        0.8430    -2.0320    -0.0940 C.3   1 <1>   0.2000 
  9 C        3.1520     1.4280     1.1720 C.ar  1 <1>  -0.1500 
 10 C        1.0000    -3.4990    -0.4930 C.3   1 <1>  -0.1600 
 11 C       -0.5510    -1.5040    -0.4520 C.3   1 <1>  -0.1600 
 12 C       -0.1310    -4.3520     0.0730 C.3   1 <1>   0.3430 
 13 C       -1.6450    -2.4040     0.1120 C.3   1 <1>   0.3430 
 14 N       -1.4470    -3.8010    -0.3720 N.4   1 <1>  -0.9590 
 15 C       -2.5980    -4.6550     0.0570 C.3   1 <1>   0.3430 
 16 C       -2.6340    -5.9960    -0.6790 C.3   1 <1>  -0.0170 
 17 C       -3.8920    -6.7330    -0.2630 C.ar  1 <1>  -0.1430 
 18 C       -5.0820    -6.5120    -0.9420 C.ar  1 <1>  -0.1500 
 19 C       -3.8650    -7.6190     0.8050 C.ar  1 <1>  -0.1500 
 20 C       -6.2370    -7.1650    -0.5500 C.ar  1 <1>  -0.1500 
 21 C       -5.0190    -8.2750     1.1980 C.ar  1 <1>  -0.1500 
 22 C       -6.2030    -8.0420     0.5190 C.ar  1 <1>   0.0820 
 23 O       -7.3310    -8.6640     0.8880 O.3   1 <1>  -0.5330 
 24 H        1.5750     3.1940    -1.2480 H     1 <1>   0.1500 
 25 H        3.2320    -0.7060     1.2910 H     1 <1>   0.1500 
 26 H        2.9280     3.5240     0.8040 H     1 <1>   0.1500 
 27 H        1.0400    -1.9090     0.9590 H     1 <1>   0.0800 
 28 H        3.7460     1.5760     2.0590 H     1 <1>   0.1500 
 29 H        1.9390    -3.8670    -0.1190 H     1 <1>   0.0800 
 30 H        1.0100    -3.5880    -1.5650 H     1 <1>   0.0800 
 31 H       -0.6570    -1.4400    -1.5210 H     1 <1>   0.0800 
 32 H       -0.6760    -0.5160    -0.0450 H     1 <1>   0.0800 
 33 H       -0.0790    -4.3540     1.1500 H     1 <1>   0.0800 
 34 H       -0.0130    -5.3660    -0.2740 H     1 <1>   0.0800 
 35 H       -2.6070    -2.0340    -0.2060 H     1 <1>   0.0800 
 36 H       -1.6130    -2.3800     1.1900 H     1 <1>   0.0800 
 37 H       -1.4390    -3.7640    -1.4010 H     1 <1>   0.4500 
 38 H       -3.5230    -4.1390    -0.1470 H     1 <1>   0.0800 
 39 H       -2.5520    -4.8330     1.1200 H     1 <1>   0.0800 
 40 H       -1.7760    -6.5950    -0.4330 H     1 <1>   0.0800 
 41 H       -2.6530    -5.8370    -1.7430 H     1 <1>   0.0800 
 42 H       -5.1280    -5.8380    -1.7790 H     1 <1>   0.1500 
 43 H       -2.9510    -7.8120     1.3400 H     1 <1>   0.1500 
 44 H       -7.1660    -7.0030    -1.0670 H     1 <1>   0.1500 
 45 H       -4.9930    -8.9600     2.0250 H     1 <1>   0.1500 
 46 H       -7.2090    -9.2780     1.6340 H     1 <1>   0.4500 
@<TRIPOS>BOND
  1   1   2  1   
  2   2   3  ar  
  3   2   4  ar  
  4   3   5  1   
  5   3   6  ar  
  6   4   7  ar  
  7   4  24  1   
  8   5   8  1   
  9   6   9  ar  
 10   6  25  1   
 11   7   9  ar  
 12   7  26  1   
 13   8  10  1   
 14   8  11  1   
 15   8  27  1   
 16   9  28  1   
 17  10  12  1   
 18  10  29  1   
 19  10  30  1   
 20  11  13  1   
 21  11  31  1   
 22  11  32  1   
 23  12  14  1   
 24  12  33  1   
 25  12  34  1   
 26  13  14  1   
 27  13  35  1   
 28  13  36  1   
 29  14  15  1   
 30  14  37  1   
 31  15  16  1   
 32  15  38  1   
 33  15  39  1   
 34  16  17  1   
 35  16  40  1   
 36  16  41  1   
 37  17  18  ar  
 38  17  19  ar  
 39  18  20  ar  
 40  18  42  1   
 41  19  21  ar  
 42  19  43  1   
 43  20  22  ar  
 44  20  44  1   
 45  21  22  ar  
 46  21  45  1   
 47  22  23  1   
 48  23  46  1   
@<TRIPOS>SUBSTRUCTURE
  1 ****  14 GROUP 4 **** **** 0

# MOE 2024.06 (io_trps.svl 2023.06)
