@<TRIPOS>MOLECULE
NONAME
42 44 1 0 0 
SMALL
USER_CHARGES


@<TRIPOS>ATOM
  1 O       -0.4420     0.3160     0.2940 O.2   1 <1>  -0.5700 
  2 C       -1.5020     0.9070     0.3940 C.2   1 <1>   0.7150 
  3 N       -2.6640     0.1740     0.3880 N.am  1 <1>  -0.6600 
  4 C       -1.5250     2.3460     0.5010 C.2   1 <1>  -0.2370 
  5 C       -3.9960     0.7080     0.0090 C.3   1 <1>   0.1400 
  6 C       -2.6600    -1.3090     0.3090 C.3   1 <1>   0.1400 
  7 N       -0.6320     3.1760    -0.1310 N.pl3 1 <1>   0.0480 
  8 C       -2.3770     3.1440     1.2230 C.2   1 <1>  -0.1500 
  9 C       -4.7390    -0.4840    -0.5890 C.3   1 <1>   0.2000 
 10 C       -4.1170    -1.7100     0.0730 C.3   1 <1>  -0.0800 
 11 C       -0.9450     4.4520     0.1900 C.2   1 <1>  -0.3020 
 12 C        0.4860     2.7770    -1.0100 C.3   1 <1>   0.0160 
 13 C       -2.0220     4.4810     1.0280 C.2   1 <1>   0.0190 
 14 O       -6.0970    -0.4280    -0.3230 O.3   1 <1>  -0.6800 
 15 C       -4.2760    -2.9950    -0.7540 C.3   1 <1>   0.0210 
 16 C       -2.6780     5.6170     1.6120 C.1   1 <1>   0.5380 
 17 C       -3.5330    -4.1510    -0.1130 C.2   1 <1>   0.1080 
 18 N       -3.2090     6.5130     2.0760 N.1   1 <1>  -0.5570 
 19 N       -3.7610    -4.5480     1.1010 N.2   1 <1>  -0.7070 
 20 C       -2.5350    -4.8970    -0.7310 C.2   1 <1>  -0.1500 
 21 N       -2.9050    -5.5700     1.2910 N.pl3 1 <1>   0.3000 
 22 C       -2.1510    -5.7990     0.1960 C.2   1 <1>  -0.3320 
 23 C       -1.0930    -6.8830     0.1010 C.3   1 <1>  -0.0600 
 24 H       -4.4980     1.0600     0.8930 H     1 <1>   0.0800 
 25 H       -3.9020     1.5030    -0.7110 H     1 <1>   0.0800 
 26 H       -2.0370    -1.6190    -0.5130 H     1 <1>   0.0800 
 27 H       -2.2800    -1.7400     1.2210 H     1 <1>   0.0800 
 28 H       -3.1870     2.8180     1.8520 H     1 <1>   0.1500 
 29 H       -4.6010    -0.4990    -1.6570 H     1 <1>   0.0800 
 30 H       -4.5610    -1.8610     1.0420 H     1 <1>   0.0800 
 31 H       -0.3900     5.2950    -0.1860 H     1 <1>   0.1500 
 32 H        0.9240     3.6480    -1.4620 H     1 <1>   0.0800 
 33 H        0.1200     2.1190    -1.7770 H     1 <1>   0.0800 
 34 H        1.2270     2.2630    -0.4260 H     1 <1>   0.0800 
 35 H       -6.2640    -0.6030     0.6240 H     1 <1>   0.4000 
 36 H       -3.9020    -2.8420    -1.7500 H     1 <1>   0.0800 
 37 H       -5.3180    -3.2510    -0.8230 H     1 <1>   0.0800 
 38 H       -2.1660    -4.7610    -1.7320 H     1 <1>   0.1500 
 39 H       -2.8610    -6.0880     2.1760 H     1 <1>   0.2700 
 40 H       -0.6310    -6.8650    -0.8700 H     1 <1>   0.0800 
 41 H       -1.5370    -7.8510     0.2510 H     1 <1>   0.0800 
 42 H       -0.3310    -6.7260     0.8450 H     1 <1>   0.0800 
@<TRIPOS>BOND
  1   1   2  2   
  2   2   3  am  
  3   2   4  1   
  4   3   5  1   
  5   3   6  1   
  6   4   7  1   
  7   4   8  2   
  8   5   9  1   
  9   5  24  1   
 10   5  25  1   
 11   6  10  1   
 12   6  26  1   
 13   6  27  1   
 14   7  11  1   
 15   7  12  1   
 16   8  13  1   
 17   8  28  1   
 18   9  10  1   
 19   9  14  1   
 20   9  29  1   
 21  10  15  1   
 22  10  30  1   
 23  11  13  2   
 24  11  31  1   
 25  12  32  1   
 26  12  33  1   
 27  12  34  1   
 28  13  16  1   
 29  14  35  1   
 30  15  17  1   
 31  15  36  1   
 32  15  37  1   
 33  16  18  3   
 34  17  19  2   
 35  17  20  1   
 36  19  21  1   
 37  20  22  2   
 38  20  38  1   
 39  21  22  1   
 40  21  39  1   
 41  22  23  1   
 42  23  40  1   
 43  23  41  1   
 44  23  42  1   
@<TRIPOS>SUBSTRUCTURE
  1 ****   3 GROUP 4 **** **** 0

# MOE 2024.06 (io_trps.svl 2023.06)
