@<TRIPOS>MOLECULE
NONAME
37 39 1 0 0 
SMALL
USER_CHARGES


@<TRIPOS>ATOM
  1 O       -1.9610     1.7930    -2.3760 O.2   1 <1>  -0.5700 
  2 C       -2.2640     1.5030    -1.2490 C.2   1 <1>   0.4230 
  3 C       -2.9200     0.2670    -0.9230 C.ar  1 <1>   0.0860 
  4 C       -1.8560     2.4800    -0.1640 C.3   1 <1>  -0.1790 
  5 C       -3.9760     0.1010    -0.0280 C.ar  1 <1>   0.1660 
  6 C       -2.4910    -0.8990    -1.5370 C.ar  1 <1>   0.1600 
  7 N       -4.4760    -1.0750     0.2560 N.ar  1 <1>  -0.6200 
  8 C       -4.6540     1.2680     0.6710 C.3   1 <1>  -0.0960 
  9 N       -2.9810    -2.0840    -1.2770 N.ar  1 <1>  -0.6200 
 10 C       -3.9530    -2.1150    -0.3740 C.ar  1 <1>   0.7200 
 11 N       -4.4910    -3.3010    -0.0490 N.pl3 1 <1>  -0.8690 
 12 C       -4.2350    -4.6110    -0.6800 C.3   1 <1>   0.2890 
 13 C       -5.4730    -5.0130    -1.5000 C.3   1 <1>  -0.0170 
 14 C       -4.1070    -5.6720     0.4270 C.3   1 <1>  -0.0170 
 15 C       -6.2720    -5.8590    -0.5370 C.ar  1 <1>  -0.1430 
 16 C       -5.5070    -6.2280     0.5430 C.ar  1 <1>  -0.1430 
 17 C       -7.5920    -6.2580    -0.6380 C.ar  1 <1>  -0.1500 
 18 C       -6.0390    -7.0070     1.5530 C.ar  1 <1>  -0.1500 
 19 C       -8.1350    -7.0390     0.3710 C.ar  1 <1>  -0.1500 
 20 C       -7.3620    -7.4120     1.4610 C.ar  1 <1>  -0.1500 
 21 H       -1.8200     1.9980     0.7950 H     1 <1>   0.0800 
 22 H       -2.5460     3.3020    -0.1340 H     1 <1>   0.0800 
 23 H       -0.8770     2.8660    -0.3860 H     1 <1>   0.0800 
 24 H       -1.7020    -0.8340    -2.2680 H     1 <1>   0.1500 
 25 H       -4.6920     2.1310     0.0330 H     1 <1>   0.0800 
 26 H       -4.1320     1.5080     1.5790 H     1 <1>   0.0800 
 27 H       -5.6660     1.0040     0.9250 H     1 <1>   0.0800 
 28 H       -5.2920    -3.2650     0.5810 H     1 <1>   0.4000 
 29 H       -3.3490    -4.5730    -1.2920 H     1 <1>   0.0800 
 30 H       -5.1770    -5.6190    -2.3370 H     1 <1>   0.0800 
 31 H       -6.0220    -4.1560    -1.8490 H     1 <1>   0.0800 
 32 H       -3.7540    -5.2510     1.3510 H     1 <1>   0.0800 
 33 H       -3.4450    -6.4560     0.1090 H     1 <1>   0.0800 
 34 H       -8.1880    -5.9650    -1.4840 H     1 <1>   0.1500 
 35 H       -5.4370    -7.2930     2.3970 H     1 <1>   0.1500 
 36 H       -9.1600    -7.3570     0.3070 H     1 <1>   0.1500 
 37 H       -7.7910    -8.0170     2.2400 H     1 <1>   0.1500 
@<TRIPOS>BOND
  1   1   2  2   
  2   2   3  1   
  3   2   4  1   
  4   3   5  ar  
  5   3   6  ar  
  6   4  21  1   
  7   4  22  1   
  8   4  23  1   
  9   5   7  ar  
 10   5   8  1   
 11   6   9  ar  
 12   6  24  1   
 13   7  10  ar  
 14   8  25  1   
 15   8  26  1   
 16   8  27  1   
 17   9  10  ar  
 18  10  11  1   
 19  11  12  1   
 20  11  28  1   
 21  12  13  1   
 22  12  14  1   
 23  12  29  1   
 24  13  15  1   
 25  13  30  1   
 26  13  31  1   
 27  14  16  1   
 28  14  32  1   
 29  14  33  1   
 30  15  16  ar  
 31  15  17  ar  
 32  16  18  ar  
 33  17  19  ar  
 34  17  34  1   
 35  18  20  ar  
 36  18  35  1   
 37  19  20  ar  
 38  19  36  1   
 39  20  37  1   
@<TRIPOS>SUBSTRUCTURE
  1 ****  11 GROUP 4 **** **** 0

# MOE 2024.06 (io_trps.svl 2023.06)
