@<TRIPOS>MOLECULE
NONAME
58 61 1 0 0 
SMALL
USER_CHARGES


@<TRIPOS>ATOM
  1 O       -0.3990     0.2010    -0.2040 O.2   1 <1>  -0.5700 
  2 C       -1.4740     0.6210     0.1770 C.2   1 <1>   0.5440 
  3 N       -2.5700    -0.2240     0.1200 N.am  1 <1>  -0.6600 
  4 C       -1.5380     1.9850     0.6710 C.ar  1 <1>   0.0860 
  5 C       -3.9530     0.1580    -0.3010 C.3   1 <1>   0.2200 
  6 C       -2.3450    -1.6980     0.1330 C.3   1 <1>   0.0600 
  7 C       -1.3280     3.0690    -0.1790 C.ar  1 <1>  -0.1500 
  8 C       -1.7640     2.2600     2.0170 C.ar  1 <1>  -0.1500 
  9 C       -3.9860     1.0700    -1.5320 C.3   1 <1>  -0.1600 
 10 C       -4.7470     0.8380     0.8140 C.3   1 <1>  -0.1600 
 11 C       -1.3880     4.3800     0.2680 C.ar  1 <1>  -0.1430 
 12 C       -1.8110     3.5600     2.4860 C.ar  1 <1>  -0.1500 
 13 C       -5.0950     2.1040    -1.2920 C.3   1 <1>  -0.0800 
 14 C       -5.5230     1.9970     0.1720 C.3   1 <1>  -0.0800 
 15 C       -1.6300     4.6190     1.6140 C.ar  1 <1>  -0.1500 
 16 C       -1.1560     5.5200    -0.7260 C.3   1 <1>   0.2390 
 17 C       -4.6590     3.5620    -1.5110 C.3   1 <1>  -0.1600 
 18 C       -5.2290     3.3670     0.7920 C.3   1 <1>  -0.1600 
 19 N       -2.0460     6.6870    -0.4970 N.pl3 1 <1>   0.3140 
 20 C       -5.2590     4.3720    -0.3590 C.3   1 <1>   0.4230 
 21 N       -3.2920     6.8020    -1.0230 N.2   1 <1>  -0.7070 
 22 C       -1.7070     7.8000     0.1850 C.2   1 <1>  -0.3020 
 23 N       -6.6490     4.8040    -0.7020 N.4   1 <1>  -0.9590 
 24 C       -3.6890     7.9890    -0.6670 C.2   1 <1>   0.1390 
 25 C       -2.7430     8.6570     0.0980 C.2   1 <1>  -0.1500 
 26 C       -6.6190     5.8140    -1.8080 C.3   1 <1>   0.2630 
 27 C       -7.3770     5.3990     0.4620 C.3   1 <1>   0.2630 
 28 H       -4.4910    -0.7360    -0.5680 H     1 <1>   0.0800 
 29 H       -3.1040    -2.1820     0.7220 H     1 <1>   0.0800 
 30 H       -1.3840    -1.9270     0.5620 H     1 <1>   0.0800 
 31 H       -2.3720    -2.0780    -0.8730 H     1 <1>   0.0800 
 32 H       -1.1060     2.8570    -1.2110 H     1 <1>   0.1500 
 33 H       -1.8960     1.4370     2.6990 H     1 <1>   0.1500 
 34 H       -3.0380     1.5390    -1.7000 H     1 <1>   0.0800 
 35 H       -4.2130     0.4840    -2.4040 H     1 <1>   0.0800 
 36 H       -5.4350     0.1300     1.2410 H     1 <1>   0.0800 
 37 H       -4.1030     1.1770     1.5990 H     1 <1>   0.0800 
 38 H       -1.9830     3.7480     3.5320 H     1 <1>   0.1500 
 39 H       -5.9410     1.8730    -1.9200 H     1 <1>   0.0800 
 40 H       -6.5810     1.7960     0.2180 H     1 <1>   0.0800 
 41 H       -1.6690     5.6230     2.0000 H     1 <1>   0.1500 
 42 H       -1.3230     5.1750    -1.7290 H     1 <1>   0.0800 
 43 H       -0.1370     5.8520    -0.6530 H     1 <1>   0.0800 
 44 H       -4.9120     3.9140    -2.4920 H     1 <1>   0.0800 
 45 H       -3.5950     3.6440    -1.4190 H     1 <1>   0.0800 
 46 H       -4.2230     3.3720     1.1660 H     1 <1>   0.0800 
 47 H       -5.8720     3.5940     1.6200 H     1 <1>   0.0800 
 48 H       -4.6550     5.2300    -0.1190 H     1 <1>   0.0800 
 49 H       -0.7610     7.9250     0.6810 H     1 <1>   0.1500 
 50 H       -7.1480     3.9630    -1.0220 H     1 <1>   0.4500 
 51 H       -4.6410     8.4140    -0.9360 H     1 <1>   0.1500 
 52 H       -2.8390     9.6470     0.5100 H     1 <1>   0.1500 
 53 H       -5.9790     6.6380    -1.5390 H     1 <1>   0.0800 
 54 H       -7.6100     6.1910    -2.0000 H     1 <1>   0.0800 
 55 H       -6.2420     5.3770    -2.7170 H     1 <1>   0.0800 
 56 H       -6.8060     6.2110     0.8810 H     1 <1>   0.0800 
 57 H       -7.5410     4.6580     1.2260 H     1 <1>   0.0800 
 58 H       -8.3370     5.7760     0.1490 H     1 <1>   0.0800 
@<TRIPOS>BOND
  1   1   2  2   
  2   2   3  am  
  3   2   4  1   
  4   3   5  1   
  5   3   6  1   
  6   4   7  ar  
  7   4   8  ar  
  8   5   9  1   
  9   5  10  1   
 10   5  28  1   
 11   6  29  1   
 12   6  30  1   
 13   6  31  1   
 14   7  11  ar  
 15   7  32  1   
 16   8  12  ar  
 17   8  33  1   
 18   9  13  1   
 19   9  34  1   
 20   9  35  1   
 21  10  14  1   
 22  10  36  1   
 23  10  37  1   
 24  11  15  ar  
 25  11  16  1   
 26  12  15  ar  
 27  12  38  1   
 28  13  14  1   
 29  13  17  1   
 30  13  39  1   
 31  14  18  1   
 32  14  40  1   
 33  15  41  1   
 34  16  19  1   
 35  16  42  1   
 36  16  43  1   
 37  17  20  1   
 38  17  44  1   
 39  17  45  1   
 40  18  20  1   
 41  18  46  1   
 42  18  47  1   
 43  19  21  1   
 44  19  22  1   
 45  20  23  1   
 46  20  48  1   
 47  21  24  2   
 48  22  25  2   
 49  22  49  1   
 50  23  26  1   
 51  23  27  1   
 52  23  50  1   
 53  24  25  1   
 54  24  51  1   
 55  25  52  1   
 56  26  53  1   
 57  26  54  1   
 58  26  55  1   
 59  27  56  1   
 60  27  57  1   
 61  27  58  1   
@<TRIPOS>SUBSTRUCTURE
  1 ****  17 GROUP 4 **** **** 0

# MOE 2024.06 (io_trps.svl 2023.06)
