@<TRIPOS>MOLECULE
NONAME
55 58 1 0 0 
SMALL
USER_CHARGES


@<TRIPOS>ATOM
  1 O       -3.6390     2.3610    -1.9880 O.2   1 <1>  -0.5700 
  2 C       -3.2010     1.5820    -1.1620 C.2   1 <1>   0.5440 
  3 N       -3.7170     0.2970    -1.1290 N.am  1 <1>  -0.6600 
  4 C       -2.1690     2.0410    -0.2550 C.ar  1 <1>   0.0860 
  5 C       -3.1600    -0.7920    -0.2380 C.3   1 <1>   0.3640 
  6 C       -4.9570    -0.0080    -1.9060 C.3   1 <1>   0.1400 
  7 C       -0.9200     2.4130    -0.7290 C.ar  1 <1>  -0.1500 
  8 C       -2.4040     2.1010     1.1360 C.ar  1 <1>  -0.1500 
  9 C       -1.6420    -0.8730    -0.4280 C.ar  1 <1>  -0.1430 
 10 C       -3.7600    -2.2200    -0.4470 C.3   1 <1>   0.2000 
 11 C       -5.0870    -1.4930    -2.2350 C.3   1 <1>   0.1200 
 12 C        0.0820     2.7920     0.1540 C.ar  1 <1>   0.2270 
 13 C       -1.4200     2.4710     2.0230 C.ar  1 <1>  -0.1500 
 14 C       -0.7970    -0.8160     0.6730 C.ar  1 <1>  -0.1500 
 15 C       -1.0870    -0.9810    -1.6970 C.ar  1 <1>  -0.1500 
 16 O       -5.0240    -2.2230    -1.0550 O.3   1 <1>  -0.5600 
 17 C       -3.9310    -2.9950     0.8710 C.3   1 <1>   0.1200 
 18 N        1.3680     3.1710    -0.0980 N.2   1 <1>  -0.5650 
 19 C       -0.1650     2.8060     1.5140 C.ar  1 <1>  -0.1520 
 20 C        0.5780    -0.8490     0.5230 C.ar  1 <1>   0.0830 
 21 C        0.2870    -1.0040    -1.8620 C.ar  1 <1>  -0.1500 
 22 O       -2.7580    -3.0160     1.6190 O.3   1 <1>  -0.6800 
 23 C        1.8720     3.3860     1.0650 C.2   1 <1>   0.0060 
 24 N        1.0020     3.1820     2.0870 N.pl3 1 <1>   0.0330 
 25 O        1.3190    -0.8090     1.6620 O.3   1 <1>  -0.3630 
 26 C        1.1240    -0.9150    -0.7640 C.ar  1 <1>   0.0830 
 27 C        3.3020     3.8240     1.2970 C.3   1 <1>  -0.0600 
 28 C        2.3140    -1.7950     1.8350 C.3   1 <1>   0.0400 
 29 O        2.4560    -0.8670    -0.9960 O.3   1 <1>  -0.3630 
 30 C        3.0270     0.4170    -0.8680 C.3   1 <1>   0.0400 
 31 H       -3.3630    -0.5050     0.7790 H     1 <1>   0.0800 
 32 H       -5.8130     0.3030    -1.3350 H     1 <1>   0.0800 
 33 H       -4.9590     0.5460    -2.8290 H     1 <1>   0.0800 
 34 H       -0.7050     2.4000    -1.7810 H     1 <1>   0.1500 
 35 H       -3.3840     1.8420     1.4970 H     1 <1>   0.1500 
 36 H       -3.1110    -2.7870    -1.0900 H     1 <1>   0.0800 
 37 H       -4.3060    -1.8160    -2.9020 H     1 <1>   0.0800 
 38 H       -6.0410    -1.6880    -2.6930 H     1 <1>   0.0800 
 39 H       -1.6020     2.5030     3.0830 H     1 <1>   0.1500 
 40 H       -1.1990    -0.7380     1.6680 H     1 <1>   0.1500 
 41 H       -1.7240    -1.0270    -2.5630 H     1 <1>   0.1500 
 42 H       -4.2160    -4.0130     0.6690 H     1 <1>   0.0800 
 43 H       -4.6890    -2.5270     1.4750 H     1 <1>   0.0800 
 44 H        0.7170    -1.0720    -2.8450 H     1 <1>   0.1500 
 45 H       -2.0290    -3.4470     1.1280 H     1 <1>   0.4000 
 46 H        1.1870     3.2760     3.0870 H     1 <1>   0.2700 
 47 H        3.8060     3.9300     0.3530 H     1 <1>   0.0800 
 48 H        3.8210     3.0910     1.8860 H     1 <1>   0.0800 
 49 H        3.3200     4.7710     1.8050 H     1 <1>   0.0800 
 50 H        2.5520    -1.8510     2.8810 H     1 <1>   0.0800 
 51 H        3.1890    -1.5170     1.2770 H     1 <1>   0.0800 
 52 H        1.9340    -2.7420     1.4910 H     1 <1>   0.0800 
 53 H        4.0740     0.3480    -1.0960 H     1 <1>   0.0800 
 54 H        2.8870     0.7640     0.1410 H     1 <1>   0.0800 
 55 H        2.5390     1.0850    -1.5560 H     1 <1>   0.0800 
@<TRIPOS>BOND
  1   1   2  2   
  2   2   3  am  
  3   2   4  1   
  4   3   5  1   
  5   3   6  1   
  6   4   7  ar  
  7   4   8  ar  
  8   5   9  1   
  9   5  10  1   
 10   5  31  1   
 11   6  11  1   
 12   6  32  1   
 13   6  33  1   
 14   7  12  ar  
 15   7  34  1   
 16   8  13  ar  
 17   8  35  1   
 18   9  14  ar  
 19   9  15  ar  
 20  10  16  1   
 21  10  17  1   
 22  10  36  1   
 23  11  16  1   
 24  11  37  1   
 25  11  38  1   
 26  12  18  1   
 27  12  19  ar  
 28  13  19  ar  
 29  13  39  1   
 30  14  20  ar  
 31  14  40  1   
 32  15  21  ar  
 33  15  41  1   
 34  17  22  1   
 35  17  42  1   
 36  17  43  1   
 37  18  23  2   
 38  19  24  1   
 39  20  25  1   
 40  20  26  ar  
 41  21  26  ar  
 42  21  44  1   
 43  22  45  1   
 44  23  24  1   
 45  23  27  1   
 46  24  46  1   
 47  25  28  1   
 48  26  29  1   
 49  27  47  1   
 50  27  48  1   
 51  27  49  1   
 52  28  50  1   
 53  28  51  1   
 54  28  52  1   
 55  29  30  1   
 56  30  53  1   
 57  30  54  1   
 58  30  55  1   
@<TRIPOS>SUBSTRUCTURE
  1 ****  14 GROUP 4 **** **** 0

# MOE 2024.06 (io_trps.svl 2023.06)
