@<TRIPOS>MOLECULE
NONAME
48 52 1 0 0 
SMALL
USER_CHARGES


@<TRIPOS>ATOM
  1 O       -0.5830     0.3170    -0.0610 O.2   1 <1>  -0.5700 
  2 C       -1.5770     0.9380     0.2830 C.2   1 <1>   0.7160 
  3 N       -2.7400     0.2070     0.4690 N.am  1 <1>  -0.6600 
  4 C       -1.4820     2.3890     0.4630 C.2   1 <1>   0.2030 
  5 C       -2.7320    -1.2790     0.6550 C.3   1 <1>   0.1400 
  6 C       -4.1180     0.7860     0.4240 C.3   1 <1>   0.1400 
  7 N       -2.3470     3.1970     1.0600 N.2   1 <1>  -0.7070 
  8 C       -0.3840     3.1330     0.0090 C.2   1 <1>  -0.1500 
  9 C       -3.7180    -1.9670    -0.3050 C.3   1 <1>   0.3440 
 10 C       -5.0480    -0.0320    -0.5040 C.3   1 <1>   0.2950 
 11 N       -1.8040     4.4220     0.9870 N.pl3 1 <1>   0.3000 
 12 C       -0.6190     4.4130     0.3530 C.2   1 <1>  -0.2370 
 13 O       -4.9910    -1.3900    -0.1790 O.3   1 <1>  -0.5600 
 14 C       -3.8010    -3.4620    -0.0110 C.ar  1 <1>  -0.1430 
 15 C       -6.5310     0.3770    -0.4500 C.3   1 <1>  -0.1950 
 16 C        0.2140     5.6570     0.1260 C.3   1 <1>  -0.0150 
 17 C       -2.9490    -4.3380    -0.6710 C.ar  1 <1>  -0.1500 
 18 C       -4.7020    -3.9710     0.9150 C.ar  1 <1>  -0.1500 
 19 C       -6.9970     1.7720    -0.1600 C.3   1 <1>  -0.2000 
 20 C       -7.2710     0.6650     0.8200 C.3   1 <1>  -0.2000 
 21 C        1.7050     5.5670     0.0970 C.3   1 <1>  -0.2000 
 22 C        1.0120     6.2240     1.2540 C.3   1 <1>  -0.2000 
 23 C       -2.9960    -5.6960    -0.4090 C.ar  1 <1>  -0.1500 
 24 C       -4.7500    -5.3290     1.1780 C.ar  1 <1>  -0.1500 
 25 C       -3.8970    -6.1930     0.5160 C.ar  1 <1>  -0.1500 
 26 H       -1.7490    -1.6830     0.4940 H     1 <1>   0.0800 
 27 H       -3.0160    -1.5080     1.6670 H     1 <1>   0.0800 
 28 H       -4.5180     0.8090     1.4210 H     1 <1>   0.0800 
 29 H       -4.0910     1.7920     0.0520 H     1 <1>   0.0800 
 30 H        0.4660     2.7230    -0.5090 H     1 <1>   0.1500 
 31 H       -3.3900    -1.8260    -1.3210 H     1 <1>   0.0800 
 32 H       -4.7050     0.0810    -1.5180 H     1 <1>   0.0800 
 33 H       -2.2550     5.2550     1.3830 H     1 <1>   0.2700 
 34 H       -7.0830    -0.1530    -1.2070 H     1 <1>   0.1000 
 35 H       -0.2450     6.3480    -0.5610 H     1 <1>   0.1000 
 36 H       -2.2420    -3.9660    -1.3920 H     1 <1>   0.1500 
 37 H       -5.3720    -3.3060     1.4330 H     1 <1>   0.1500 
 38 H       -6.3010     2.5400     0.1330 H     1 <1>   0.1000 
 39 H       -7.8200     2.1680    -0.7300 H     1 <1>   0.1000 
 40 H       -8.2750     0.2900     0.9160 H     1 <1>   0.1000 
 41 H       -6.7420     0.6510     1.7570 H     1 <1>   0.1000 
 42 H        2.1740     4.6120     0.2560 H     1 <1>   0.1000 
 43 H        2.2440     6.1800    -0.6040 H     1 <1>   0.1000 
 44 H        1.0810     7.2930     1.3580 H     1 <1>   0.1000 
 45 H        1.0110     5.7140     2.2020 H     1 <1>   0.1000 
 46 H       -2.3320    -6.3670    -0.9260 H     1 <1>   0.1500 
 47 H       -5.4540    -5.7120     1.8960 H     1 <1>   0.1500 
 48 H       -3.9350    -7.2490     0.7190 H     1 <1>   0.1500 
@<TRIPOS>BOND
  1   1   2  2   
  2   2   3  am  
  3   2   4  1   
  4   3   5  1   
  5   3   6  1   
  6   4   7  2   
  7   4   8  1   
  8   5   9  1   
  9   5  26  1   
 10   5  27  1   
 11   6  10  1   
 12   6  28  1   
 13   6  29  1   
 14   7  11  1   
 15   8  12  2   
 16   8  30  1   
 17   9  13  1   
 18   9  14  1   
 19   9  31  1   
 20  10  13  1   
 21  10  15  1   
 22  10  32  1   
 23  11  12  1   
 24  11  33  1   
 25  12  16  1   
 26  14  17  ar  
 27  14  18  ar  
 28  15  19  1   
 29  15  20  1   
 30  15  34  1   
 31  16  21  1   
 32  16  22  1   
 33  16  35  1   
 34  17  23  ar  
 35  17  36  1   
 36  18  24  ar  
 37  18  37  1   
 38  19  20  1   
 39  19  38  1   
 40  19  39  1   
 41  20  40  1   
 42  20  41  1   
 43  21  22  1   
 44  21  42  1   
 45  21  43  1   
 46  22  44  1   
 47  22  45  1   
 48  23  25  ar  
 49  23  46  1   
 50  24  25  ar  
 51  24  47  1   
 52  25  48  1   
@<TRIPOS>SUBSTRUCTURE
  1 ****   3 GROUP 4 **** **** 0

# MOE 2024.06 (io_trps.svl 2023.06)
