@<TRIPOS>MOLECULE
NONAME
48 51 1 0 0 
SMALL
USER_CHARGES


@<TRIPOS>ATOM
  1 O        1.0720    -0.9630    -1.3630 O.3   1 <1>  -0.0190 
  2 N        1.3140     0.3150    -1.4110 N.2   1 <1>  -0.4100 
  3 C        1.2550    -1.4490    -0.1630 C.2   1 <1>  -0.0400 
  4 C        1.6580     0.6580    -0.2200 C.2   1 <1>   0.1080 
  5 C        1.6410    -0.4420     0.6340 C.2   1 <1>  -0.1500 
  6 C        1.0330    -2.9280     0.0980 C.3   1 <1>   0.2900 
  7 C        2.0280     2.0710     0.1880 C.3   1 <1>   0.0210 
  8 N       -0.3760    -3.2220     0.4180 N.3   1 <1>  -0.8100 
  9 C        3.5440     2.2270     0.3450 C.3   1 <1>  -0.2400 
 10 C       -1.3240    -2.7860    -0.6180 C.3   1 <1>   0.1100 
 11 C       -0.6260    -4.6540     0.6500 C.3   1 <1>   0.1100 
 12 C       -2.5690    -3.6270    -0.3660 C.3   1 <1>   0.2000 
 13 C       -1.9880    -4.9880     0.0120 C.3   1 <1>  -0.0800 
 14 O       -3.2030    -3.1140     0.7490 O.3   1 <1>  -0.6800 
 15 C       -1.8530    -5.8890    -1.2330 C.3   1 <1>  -0.0170 
 16 C       -1.2410    -7.2490    -0.9050 C.ar  1 <1>  -0.1440 
 17 C       -1.9580    -8.2640    -0.2270 C.ar  1 <1>   0.0000 
 18 C        0.0460    -7.5240    -1.2690 C.ar  1 <1>  -0.1500 
 19 C       -1.2770    -9.4740     0.0540 C.ar  1 <1>   0.3100 
 20 C       -3.3070    -8.1540     0.1820 C.ar  1 <1>  -0.1500 
 21 C        0.6210    -8.7600    -0.9530 C.ar  1 <1>   0.1600 
 22 N        0.0080    -9.7050    -0.3150 N.ar  1 <1>  -0.6200 
 23 C       -1.9560   -10.4920     0.7420 C.ar  1 <1>  -0.1500 
 24 C       -3.9410    -9.1680     0.8490 C.ar  1 <1>  -0.1500 
 25 C       -3.2580   -10.3520     1.1360 C.ar  1 <1>  -0.1500 
 26 H        1.8820    -0.4460     1.6810 H     1 <1>   0.1500 
 27 H        1.6420    -3.2240     0.9340 H     1 <1>   0.0800 
 28 H        1.3450    -3.4910    -0.7650 H     1 <1>   0.0800 
 29 H        1.6730     2.7560    -0.5630 H     1 <1>   0.0800 
 30 H        1.5380     2.3110     1.1140 H     1 <1>   0.0800 
 31 H        4.0350     1.9920    -0.5840 H     1 <1>   0.0800 
 32 H        3.9120     1.5630     1.1070 H     1 <1>   0.0800 
 33 H        3.7870     3.2380     0.6190 H     1 <1>   0.0800 
 34 H       -1.5330    -1.7310    -0.5480 H     1 <1>   0.0800 
 35 H       -0.9320    -3.0040    -1.5970 H     1 <1>   0.0800 
 36 H        0.1590    -5.2580     0.2290 H     1 <1>   0.0800 
 37 H       -0.6610    -4.8360     1.7110 H     1 <1>   0.0800 
 38 H       -3.2650    -3.6450    -1.1860 H     1 <1>   0.0800 
 39 H       -2.6190    -5.4780     0.7310 H     1 <1>   0.0800 
 40 H       -2.4940    -2.8800     1.3850 H     1 <1>   0.4000 
 41 H       -1.2420    -5.3930    -1.9670 H     1 <1>   0.0800 
 42 H       -2.8190    -6.0370    -1.6830 H     1 <1>   0.0800 
 43 H        0.6480    -6.8080    -1.7980 H     1 <1>   0.1500 
 44 H       -3.8550    -7.2570    -0.0340 H     1 <1>   0.1500 
 45 H        1.6390    -8.9350    -1.2580 H     1 <1>   0.1500 
 46 H       -1.4120   -11.3960     0.9480 H     1 <1>   0.1500 
 47 H       -4.9680    -9.0690     1.1580 H     1 <1>   0.1500 
 48 H       -3.7660   -11.1410     1.6630 H     1 <1>   0.1500 
@<TRIPOS>BOND
  1   1   2  1   
  2   1   3  1   
  3   2   4  2   
  4   3   5  2   
  5   3   6  1   
  6   4   5  1   
  7   4   7  1   
  8   5  26  1   
  9   6   8  1   
 10   6  27  1   
 11   6  28  1   
 12   7   9  1   
 13   7  29  1   
 14   7  30  1   
 15   8  10  1   
 16   8  11  1   
 17   9  31  1   
 18   9  32  1   
 19   9  33  1   
 20  10  12  1   
 21  10  34  1   
 22  10  35  1   
 23  11  13  1   
 24  11  36  1   
 25  11  37  1   
 26  12  13  1   
 27  12  14  1   
 28  12  38  1   
 29  13  15  1   
 30  13  39  1   
 31  14  40  1   
 32  15  16  1   
 33  15  41  1   
 34  15  42  1   
 35  16  17  ar  
 36  16  18  ar  
 37  17  19  ar  
 38  17  20  ar  
 39  18  21  ar  
 40  18  43  1   
 41  19  22  ar  
 42  19  23  ar  
 43  20  24  ar  
 44  20  44  1   
 45  21  22  ar  
 46  21  45  1   
 47  23  25  ar  
 48  23  46  1   
 49  24  25  ar  
 50  24  47  1   
 51  25  48  1   
@<TRIPOS>SUBSTRUCTURE
  1 ****  11 GROUP 4 **** **** 0

# MOE 2024.06 (io_trps.svl 2023.06)
