@<TRIPOS>MOLECULE
NONAME
52 54 1 0 0 
SMALL
USER_CHARGES


@<TRIPOS>ATOM
  1 F       -0.1280    -0.6750     0.0990 F     1 <1>  -0.1900 
  2 C       -0.1370    -1.9800     0.1610 C.ar  1 <1>   0.1900 
  3 C       -0.5520    -2.5890     1.3290 C.ar  1 <1>  -0.1500 
  4 C        0.2700    -2.7020    -0.9440 C.ar  1 <1>  -0.1500 
  5 C       -0.5590    -3.9730     1.3880 C.ar  1 <1>  -0.1500 
  6 C        0.2580    -4.0860    -0.8730 C.ar  1 <1>  -0.1500 
  7 C       -0.1560    -4.7230     0.2900 C.ar  1 <1>  -0.1430 
  8 C       -0.1750    -6.2420     0.3610 C.3   1 <1>  -0.0160 
  9 C       -1.5440    -6.7750    -0.0870 C.3   1 <1>  -0.0990 
 10 C       -1.6490    -8.2930    -0.0690 C.2   1 <1>   0.5690 
 11 O       -0.8030    -8.9310     0.5110 O.2   1 <1>  -0.5700 
 12 N       -2.7020    -8.9290    -0.6780 N.am  1 <1>  -0.6600 
 13 C       -2.7420   -10.4150    -0.7520 C.3   1 <1>   0.1400 
 14 C       -3.9790    -8.2720    -1.0760 C.3   1 <1>   0.1400 
 15 C       -3.8400   -10.9410     0.1970 C.3   1 <1>   0.4230 
 16 C       -5.0830    -8.7710    -0.1340 C.3   1 <1>  -0.1600 
 17 N       -3.8540   -12.4570     0.3460 N.4   1 <1>  -0.9590 
 18 C       -5.2360   -10.3210    -0.1180 C.3   1 <1>   0.0000 
 19 C       -5.1300   -13.0060     0.9110 C.3   1 <1>   0.3430 
 20 C       -3.4620   -13.2320    -0.8770 C.3   1 <1>   0.2630 
 21 C       -6.2360   -10.7120     1.0100 C.3   1 <1>  -0.1600 
 22 C       -5.7490   -10.8270    -1.4970 C.3   1 <1>   0.1200 
 23 C       -5.8270   -11.9730     1.7960 C.3   1 <1>  -0.1600 
 24 O       -6.8770   -10.1380    -1.9090 O.3   1 <1>  -0.6800 
 25 H       -0.8600    -1.9930     2.1680 H     1 <1>   0.1500 
 26 H        0.5880    -2.1920    -1.8350 H     1 <1>   0.1500 
 27 H       -0.8790    -4.4630     2.2910 H     1 <1>   0.1500 
 28 H        0.5730    -4.6630    -1.7250 H     1 <1>   0.1500 
 29 H        0.5970    -6.6470    -0.2700 H     1 <1>   0.0800 
 30 H        0.0300    -6.5600     1.3690 H     1 <1>   0.0800 
 31 H       -1.7310    -6.4290    -1.0870 H     1 <1>   0.0800 
 32 H       -2.3010    -6.3720     0.5590 H     1 <1>   0.0800 
 33 H       -2.9320   -10.6990    -1.7710 H     1 <1>   0.0800 
 34 H       -1.7910   -10.8270    -0.4640 H     1 <1>   0.0800 
 35 H       -3.9080    -7.2010    -1.0080 H     1 <1>   0.0800 
 36 H       -4.2120    -8.5180    -2.0990 H     1 <1>   0.0800 
 37 H       -3.5740   -10.5490     1.1650 H     1 <1>   0.0800 
 38 H       -4.8440    -8.4160     0.8540 H     1 <1>   0.0800 
 39 H       -6.0110    -8.3010    -0.4110 H     1 <1>   0.0800 
 40 H       -3.1290   -12.6460     1.0560 H     1 <1>   0.4500 
 41 H       -5.7990   -13.2730     0.1090 H     1 <1>   0.0800 
 42 H       -4.9250   -13.8980     1.4820 H     1 <1>   0.0800 
 43 H       -4.1560   -13.0470    -1.6810 H     1 <1>   0.0800 
 44 H       -3.4590   -14.2890    -0.6640 H     1 <1>   0.0800 
 45 H       -2.4730   -12.9530    -1.2020 H     1 <1>   0.0800 
 46 H       -6.3370    -9.9100     1.7230 H     1 <1>   0.0800 
 47 H       -7.2180   -10.8630     0.5960 H     1 <1>   0.0800 
 48 H       -6.0050   -11.8710    -1.4670 H     1 <1>   0.0800 
 49 H       -5.0130   -10.6820    -2.2670 H     1 <1>   0.0800 
 50 H       -6.7060   -12.4160     2.2320 H     1 <1>   0.0800 
 51 H       -5.1730   -11.7080     2.6100 H     1 <1>   0.0800 
 52 H       -7.6410   -10.2870    -1.3170 H     1 <1>   0.4000 
@<TRIPOS>BOND
  1   1   2  1   
  2   2   3  ar  
  3   2   4  ar  
  4   3   5  ar  
  5   3  25  1   
  6   4   6  ar  
  7   4  26  1   
  8   5   7  ar  
  9   5  27  1   
 10   6   7  ar  
 11   6  28  1   
 12   7   8  1   
 13   8   9  1   
 14   8  29  1   
 15   8  30  1   
 16   9  10  1   
 17   9  31  1   
 18   9  32  1   
 19  10  11  2   
 20  10  12  am  
 21  12  13  1   
 22  12  14  1   
 23  13  15  1   
 24  13  33  1   
 25  13  34  1   
 26  14  16  1   
 27  14  35  1   
 28  14  36  1   
 29  15  17  1   
 30  15  18  1   
 31  15  37  1   
 32  16  18  1   
 33  16  38  1   
 34  16  39  1   
 35  17  19  1   
 36  17  20  1   
 37  17  40  1   
 38  18  21  1   
 39  18  22  1   
 40  19  23  1   
 41  19  41  1   
 42  19  42  1   
 43  20  43  1   
 44  20  44  1   
 45  20  45  1   
 46  21  23  1   
 47  21  46  1   
 48  21  47  1   
 49  22  24  1   
 50  22  48  1   
 51  22  49  1   
 52  23  50  1   
 53  23  51  1   
 54  24  52  1   
@<TRIPOS>SUBSTRUCTURE
  1 ****  10 GROUP 4 **** **** 0

# MOE 2024.06 (io_trps.svl 2023.06)
