@<TRIPOS>MOLECULE
NONAME
54 57 1 0 0 
SMALL
USER_CHARGES


@<TRIPOS>ATOM
  1 O        0.6270    -0.4680    -2.0320 O.2   1 <1>  -0.5700 
  2 C        1.5310    -1.0290    -1.4430 C.2   1 <1>   0.5440 
  3 N        2.5980    -0.2880    -0.9750 N.am  1 <1>  -0.6600 
  4 C        1.4480    -2.4620    -1.2470 C.ar  1 <1>   0.0860 
  5 C        2.7740     1.1460    -1.3420 C.3   1 <1>   0.1400 
  6 C        3.5370    -0.7650     0.0800 C.3   1 <1>   0.1400 
  7 C        0.3530    -3.0550    -0.6500 C.ar  1 <1>  -0.1500 
  8 C        2.4470    -3.3360    -1.6490 C.ar  1 <1>  -0.1500 
  9 C        2.6080     2.0220    -0.0960 C.3   1 <1>  -0.1600 
 10 C        3.3830     0.0980     1.3370 C.3   1 <1>  -0.1600 
 11 C        0.2860    -4.4330    -0.4640 C.ar  1 <1>   0.4100 
 12 C        2.3090    -4.6880    -1.4210 C.ar  1 <1>   0.1600 
 13 C        3.5590     1.5910     1.0290 C.3   1 <1>  -0.1600 
 14 N        1.2670    -5.2470    -0.8350 N.ar  1 <1>  -0.6200 
 15 N       -0.8160    -5.0250     0.1410 N.pl3 1 <1>  -0.8380 
 16 C       -2.1350    -4.3440     0.2550 C.3   1 <1>   0.2090 
 17 C       -1.0510    -6.4970     0.0210 C.3   1 <1>   0.2090 
 18 C       -3.0650    -5.4160     0.8170 C.3   1 <1>   0.2000 
 19 C       -2.5670    -6.6920     0.1390 C.3   1 <1>  -0.0800 
 20 O       -2.8320    -5.5010     2.1830 O.3   1 <1>  -0.6800 
 21 C       -2.9730    -8.0100     0.8210 C.3   1 <1>   0.0210 
 22 C       -2.4300    -9.2000     0.0560 C.2   1 <1>   0.1080 
 23 N       -2.7860    -9.4770    -1.1600 N.2   1 <1>  -0.7070 
 24 C       -1.4970   -10.1060     0.5500 C.2   1 <1>  -0.1500 
 25 N       -2.0820   -10.5800    -1.4770 N.pl3 1 <1>   0.3000 
 26 C       -1.2930   -10.9800    -0.4570 C.2   1 <1>  -0.3320 
 27 C       -0.3780   -12.1890    -0.5110 C.3   1 <1>  -0.0600 
 28 H        3.7580     1.2820    -1.7560 H     1 <1>   0.0800 
 29 H        2.0570     1.4400    -2.0900 H     1 <1>   0.0800 
 30 H        3.3460    -1.7920     0.3360 H     1 <1>   0.0800 
 31 H        4.5450    -0.6920    -0.2910 H     1 <1>   0.0800 
 32 H       -0.4510    -2.4250    -0.3280 H     1 <1>   0.1500 
 33 H        3.3240    -2.9530    -2.1390 H     1 <1>   0.1500 
 34 H        2.7950     3.0480    -0.3570 H     1 <1>   0.0800 
 35 H        1.5880     1.9500     0.2400 H     1 <1>   0.0800 
 36 H        2.4060    -0.0720     1.7550 H     1 <1>   0.0800 
 37 H        4.1090    -0.2080     2.0700 H     1 <1>   0.0800 
 38 H        3.0970    -5.3510    -1.7360 H     1 <1>   0.1500 
 39 H        3.3620     2.1720     1.9140 H     1 <1>   0.0800 
 40 H        4.5760     1.7770     0.7270 H     1 <1>   0.0800 
 41 H       -2.0900    -3.4880     0.9050 H     1 <1>   0.0800 
 42 H       -2.4660    -4.0440    -0.7250 H     1 <1>   0.0800 
 43 H       -0.6960    -6.8800    -0.9220 H     1 <1>   0.0800 
 44 H       -0.5320    -6.9980     0.8200 H     1 <1>   0.0800 
 45 H       -4.1090    -5.2150     0.6500 H     1 <1>   0.0800 
 46 H       -2.9590    -6.7030    -0.8630 H     1 <1>   0.0800 
 47 H       -1.8590    -5.4790     2.3090 H     1 <1>   0.4000 
 48 H       -4.0450    -8.0820     0.8540 H     1 <1>   0.0800 
 49 H       -2.6070    -8.0440     1.8310 H     1 <1>   0.0800 
 50 H       -1.0510   -10.0880     1.5290 H     1 <1>   0.1500 
 51 H       -2.1600   -11.0320    -2.3960 H     1 <1>   0.2700 
 52 H        0.1440   -12.2990     0.4240 H     1 <1>   0.0800 
 53 H        0.3470   -12.0730    -1.2960 H     1 <1>   0.0800 
 54 H       -0.9510   -13.0820    -0.6900 H     1 <1>   0.0800 
@<TRIPOS>BOND
  1   1   2  2   
  2   2   3  am  
  3   2   4  1   
  4   3   5  1   
  5   3   6  1   
  6   4   7  ar  
  7   4   8  ar  
  8   5   9  1   
  9   5  28  1   
 10   5  29  1   
 11   6  10  1   
 12   6  30  1   
 13   6  31  1   
 14   7  11  ar  
 15   7  32  1   
 16   8  12  ar  
 17   8  33  1   
 18   9  13  1   
 19   9  34  1   
 20   9  35  1   
 21  10  13  1   
 22  10  36  1   
 23  10  37  1   
 24  11  14  ar  
 25  11  15  1   
 26  12  14  ar  
 27  12  38  1   
 28  13  39  1   
 29  13  40  1   
 30  15  16  1   
 31  15  17  1   
 32  16  18  1   
 33  16  41  1   
 34  16  42  1   
 35  17  19  1   
 36  17  43  1   
 37  17  44  1   
 38  18  19  1   
 39  18  20  1   
 40  18  45  1   
 41  19  21  1   
 42  19  46  1   
 43  20  47  1   
 44  21  22  1   
 45  21  48  1   
 46  21  49  1   
 47  22  23  2   
 48  22  24  1   
 49  23  25  1   
 50  24  26  2   
 51  24  50  1   
 52  25  26  1   
 53  25  51  1   
 54  26  27  1   
 55  27  52  1   
 56  27  53  1   
 57  27  54  1   
@<TRIPOS>SUBSTRUCTURE
  1 ****  11 GROUP 4 **** **** 0

# MOE 2024.06 (io_trps.svl 2023.06)
