@<TRIPOS>MOLECULE
NONAME
53 54 1 0 0 
SMALL
USER_CHARGES


@<TRIPOS>ATOM
  1 O       -1.9500    -0.1540     1.3730 O.2   1 <1>  -0.5700 
  2 C       -2.3730     0.6410     0.5730 C.2   1 <1>   0.5690 
  3 N       -3.0510     0.2300    -0.5490 N.am  1 <1>  -0.6600 
  4 C       -2.1120     2.1120     0.8730 C.3   1 <1>  -0.0990 
  5 C       -2.8530    -1.1880    -1.0070 C.3   1 <1>   0.3210 
  6 C       -3.7500     1.1450    -1.5170 C.3   1 <1>   0.1400 
  7 C       -0.9940     2.6920    -0.0120 C.3   1 <1>  -0.1600 
  8 C       -3.9410    -2.1380    -0.5040 C.2   1 <1>   0.0460 
  9 C       -5.2660     0.8800    -1.6580 C.3   1 <1>   0.3430 
 10 C       -0.7800     4.1960     0.2250 C.3   1 <1>  -0.0800 
 11 N       -5.1440    -2.2210    -1.1150 N.2   1 <1>  -0.5650 
 12 C       -3.8700    -3.0160     0.5250 C.2   1 <1>  -0.3320 
 13 N       -5.9370     0.4500    -0.3900 N.4   1 <1>  -0.9590 
 14 C        0.3100     4.7770    -0.6710 C.3   1 <1>  -0.1600 
 15 C       -0.3020     4.5450     1.6340 C.3   1 <1>  -0.1600 
 16 C       -5.7600    -3.1560    -0.4650 C.2   1 <1>   0.0360 
 17 N       -5.0420    -3.6740     0.5510 N.pl3 1 <1>   0.0330 
 18 C       -2.7520    -3.3180     1.5110 C.3   1 <1>  -0.0600 
 19 C       -7.3560     0.0740    -0.6420 C.3   1 <1>   0.2630 
 20 C       -5.8100     1.3940     0.7570 C.3   1 <1>   0.2630 
 21 C        0.7230     6.0790     0.0140 C.3   1 <1>  -0.1600 
 22 C        0.3940     5.9020     1.5010 C.3   1 <1>  -0.1600 
 23 H       -1.8130     2.1880     1.9040 H     1 <1>   0.0800 
 24 H       -3.0110     2.6840     0.7670 H     1 <1>   0.0800 
 25 H       -1.8980    -1.5440    -0.6620 H     1 <1>   0.0800 
 26 H       -2.8280    -1.2270    -2.0810 H     1 <1>   0.0800 
 27 H       -3.2910     1.0470    -2.4860 H     1 <1>   0.0800 
 28 H       -3.6220     2.1700    -1.2260 H     1 <1>   0.0800 
 29 H       -1.2320     2.5380    -1.0490 H     1 <1>   0.0800 
 30 H       -0.0780     2.1610     0.1900 H     1 <1>   0.0800 
 31 H       -5.3920     0.0960    -2.3880 H     1 <1>   0.0800 
 32 H       -5.7440     1.7630    -2.0490 H     1 <1>   0.0800 
 33 H       -1.6950     4.7310     0.0310 H     1 <1>   0.0800 
 34 H       -5.4340    -0.4370    -0.1490 H     1 <1>   0.4500 
 35 H       -0.0370     4.9450    -1.6760 H     1 <1>   0.0800 
 36 H        1.1560     4.1120    -0.6960 H     1 <1>   0.0800 
 37 H        0.4180     3.8150     1.9650 H     1 <1>   0.0800 
 38 H       -1.1120     4.5830     2.3400 H     1 <1>   0.0800 
 39 H       -6.7500    -3.5120    -0.6950 H     1 <1>   0.1500 
 40 H       -5.3170    -4.4270     1.1900 H     1 <1>   0.2700 
 41 H       -1.8620    -2.7660     1.2690 H     1 <1>   0.0800 
 42 H       -2.5110    -4.3660     1.4940 H     1 <1>   0.0800 
 43 H       -3.0520    -3.0450     2.5070 H     1 <1>   0.0800 
 44 H       -7.9250     0.9340    -0.9550 H     1 <1>   0.0800 
 45 H       -7.7980    -0.3300     0.2540 H     1 <1>   0.0800 
 46 H       -7.4050    -0.6780    -1.4140 H     1 <1>   0.0800 
 47 H       -6.2470     2.3470     0.5110 H     1 <1>   0.0800 
 48 H       -4.7730     1.5350     1.0080 H     1 <1>   0.0800 
 49 H       -6.3120     0.9930     1.6220 H     1 <1>   0.0800 
 50 H        0.1460     6.8970    -0.3840 H     1 <1>   0.0800 
 51 H        1.7680     6.2850    -0.1390 H     1 <1>   0.0800 
 52 H        1.2870     5.9290     2.1020 H     1 <1>   0.0800 
 53 H       -0.2650     6.6900     1.8230 H     1 <1>   0.0800 
@<TRIPOS>BOND
  1   1   2  2   
  2   2   3  am  
  3   2   4  1   
  4   3   5  1   
  5   3   6  1   
  6   4   7  1   
  7   4  23  1   
  8   4  24  1   
  9   5   8  1   
 10   5  25  1   
 11   5  26  1   
 12   6   9  1   
 13   6  27  1   
 14   6  28  1   
 15   7  10  1   
 16   7  29  1   
 17   7  30  1   
 18   8  11  1   
 19   8  12  2   
 20   9  13  1   
 21   9  31  1   
 22   9  32  1   
 23  10  14  1   
 24  10  15  1   
 25  10  33  1   
 26  11  16  2   
 27  12  17  1   
 28  12  18  1   
 29  13  19  1   
 30  13  20  1   
 31  13  34  1   
 32  14  21  1   
 33  14  35  1   
 34  14  36  1   
 35  15  22  1   
 36  15  37  1   
 37  15  38  1   
 38  16  17  1   
 39  16  39  1   
 40  17  40  1   
 41  18  41  1   
 42  18  42  1   
 43  18  43  1   
 44  19  44  1   
 45  19  45  1   
 46  19  46  1   
 47  20  47  1   
 48  20  48  1   
 49  20  49  1   
 50  21  22  1   
 51  21  50  1   
 52  21  51  1   
 53  22  52  1   
 54  22  53  1   
@<TRIPOS>SUBSTRUCTURE
  1 ****   3 GROUP 4 **** **** 0

# MOE 2024.06 (io_trps.svl 2023.06)
