@<TRIPOS>MOLECULE
NONAME
42 43 1 0 0 
SMALL
USER_CHARGES


@<TRIPOS>ATOM
  1 S        0.5080     0.6970    -1.4760 S.o2  1 <1>   1.3330 
  2 O       -0.2670     1.7400    -2.1070 O.2   1 <1>  -0.6500 
  3 O        0.7120    -0.5600    -2.1610 O.2   1 <1>  -0.6500 
  4 N       -0.2260     0.3600     0.0200 N.am  1 <1>  -0.8490 
  5 C        2.1180     1.3490    -1.0260 C.3   1 <1>  -0.0550 
  6 C       -1.2140    -0.7190    -0.0810 C.3   1 <1>   0.1160 
  7 C       -0.8430     1.5370     0.6420 C.3   1 <1>   0.1160 
  8 C        3.0640     0.3150    -0.3790 C.3   1 <1>  -0.0800 
  9 C        4.4950     0.7940    -0.1810 C.3   1 <1>   0.2200 
 10 C        2.6630    -0.1500     1.0280 C.3   1 <1>   0.1200 
 11 N        4.5180     2.1830     0.3390 N.am  1 <1>  -0.7300 
 12 C        4.9480    -0.1440     0.9280 C.3   1 <1>   0.1200 
 13 O        3.8440    -0.2420     1.7740 O.3   1 <1>  -0.5600 
 14 C        4.7950     3.2980    -0.3950 C.2   1 <1>   0.5440 
 15 O        4.9800     3.1630    -1.5870 O.2   1 <1>  -0.5700 
 16 C        4.8590     4.6140     0.2210 C.ar  1 <1>   0.0860 
 17 C        4.2770     4.8800     1.4610 C.ar  1 <1>  -0.1500 
 18 C        5.5090     5.6720    -0.4210 C.ar  1 <1>  -0.1500 
 19 C        4.3670     6.1460     1.9980 C.ar  1 <1>   0.1900 
 20 C        5.5990     6.9500     0.1230 C.ar  1 <1>   0.0730 
 21 F        3.8160     6.3720     3.1580 F     1 <1>  -0.1900 
 22 C        5.0130     7.1830     1.3600 C.ar  1 <1>  -0.1500 
 23 C        6.2790     8.0040    -0.5750 C.1   1 <1>   0.4840 
 24 N        6.8200     8.8450    -1.1230 N.1   1 <1>  -0.5570 
 25 H        2.5900     1.7150    -1.9180 H     1 <1>   0.0800 
 26 H        1.9890     2.1860    -0.3690 H     1 <1>   0.0800 
 27 H       -1.6540    -0.9150     0.8810 H     1 <1>   0.0800 
 28 H       -0.7400    -1.6240    -0.4230 H     1 <1>   0.0800 
 29 H       -1.9910    -0.4520    -0.7790 H     1 <1>   0.0800 
 30 H       -1.2100     1.2870     1.6220 H     1 <1>   0.0800 
 31 H       -1.6640     1.8950     0.0410 H     1 <1>   0.0800 
 32 H       -0.1200     2.3280     0.7410 H     1 <1>   0.0800 
 33 H        3.0960    -0.5560    -1.0110 H     1 <1>   0.0800 
 34 H        5.0960     0.7030    -1.0710 H     1 <1>   0.0800 
 35 H        2.1860    -1.1150     1.0070 H     1 <1>   0.0800 
 36 H        2.0230     0.5600     1.5210 H     1 <1>   0.0800 
 37 H        4.3790     2.2310     1.3510 H     1 <1>   0.3700 
 38 H        5.7970     0.2280     1.4740 H     1 <1>   0.0800 
 39 H        5.1590    -1.1260     0.5400 H     1 <1>   0.0800 
 40 H        3.7520     4.1190     2.0070 H     1 <1>   0.1500 
 41 H        5.9600     5.4860    -1.3830 H     1 <1>   0.1500 
 42 H        5.0570     8.1550     1.8210 H     1 <1>   0.1500 
@<TRIPOS>BOND
  1   1   2  2   
  2   1   3  2   
  3   1   4  am  
  4   1   5  1   
  5   4   6  1   
  6   4   7  1   
  7   5   8  1   
  8   5  25  1   
  9   5  26  1   
 10   6  27  1   
 11   6  28  1   
 12   6  29  1   
 13   7  30  1   
 14   7  31  1   
 15   7  32  1   
 16   8   9  1   
 17   8  10  1   
 18   8  33  1   
 19   9  11  1   
 20   9  12  1   
 21   9  34  1   
 22  10  13  1   
 23  10  35  1   
 24  10  36  1   
 25  11  14  am  
 26  11  37  1   
 27  12  13  1   
 28  12  38  1   
 29  12  39  1   
 30  14  15  2   
 31  14  16  1   
 32  16  17  ar  
 33  16  18  ar  
 34  17  19  ar  
 35  17  40  1   
 36  18  20  ar  
 37  18  41  1   
 38  19  21  1   
 39  19  22  ar  
 40  20  22  ar  
 41  20  23  1   
 42  22  42  1   
 43  23  24  3   
@<TRIPOS>SUBSTRUCTURE
  1 ****  11 GROUP 4 **** **** 0

# MOE 2024.06 (io_trps.svl 2023.06)
