@<TRIPOS>MOLECULE
NONAME
52 54 1 0 0 
SMALL
USER_CHARGES


@<TRIPOS>ATOM
  1 O       -0.1290    -0.5020     0.0720 O.2   1 <1>  -0.5700 
  2 C       -0.8360    -1.4710    -0.0140 C.2   1 <1>   0.5690 
  3 N       -1.8380    -1.7270     0.8790 N.am  1 <1>  -0.3680 
  4 C       -0.6710    -2.4560    -1.1480 C.3   1 <1>  -0.0990 
  5 N       -2.6700    -2.8260     0.9040 N.2   1 <1>  -0.5120 
  6 C       -1.1480    -3.8580    -0.7260 C.3   1 <1>  -0.0990 
  7 C       -2.4210    -3.8480     0.1460 C.2   1 <1>   0.3890 
  8 C       -3.2400    -5.0540     0.0790 C.2   1 <1>   0.6300 
  9 O       -2.7630    -6.0780    -0.3950 O.2   1 <1>  -0.5700 
 10 N       -4.5570    -5.1430     0.5220 N.am  1 <1>  -0.6600 
 11 C       -5.1510    -6.4810     0.8250 C.3   1 <1>   0.1400 
 12 C       -5.4410    -3.9490     0.6890 C.3   1 <1>   0.1400 
 13 C       -5.8150    -7.0880    -0.4190 C.3   1 <1>   0.1400 
 14 C       -6.8950    -4.1730     0.2490 C.3   1 <1>  -0.1600 
 15 N       -7.1270    -6.4340    -0.7260 N.am  1 <1>  -0.6600 
 16 C       -7.0440    -4.9800    -1.0450 C.3   1 <1>   0.1400 
 17 C       -8.3460    -7.0680    -0.7040 C.2   1 <1>   0.5690 
 18 O       -9.3760    -6.4680    -0.9090 O.2   1 <1>  -0.5700 
 19 C       -8.4340    -8.5590    -0.4090 C.3   1 <1>  -0.0990 
 20 C       -9.8670    -9.1060    -0.4170 C.3   1 <1>   0.0210 
 21 C       -9.9980   -10.5940    -0.0980 C.2   1 <1>  -0.1810 
 22 C       -9.1360   -11.5990     0.1670 C.2   1 <1>  -0.0400 
 23 C      -11.2420   -11.2270    -0.0250 C.2   1 <1>   0.1080 
 24 O       -9.8390   -12.6820     0.3680 O.3   1 <1>  -0.0190 
 25 C       -7.6300   -11.7490     0.2760 C.3   1 <1>  -0.0600 
 26 N      -11.1130   -12.4720     0.2550 N.2   1 <1>  -0.4100 
 27 C      -12.5870   -10.5660    -0.2410 C.3   1 <1>  -0.0590 
 28 H       -1.9710    -0.9900     1.5800 H     1 <1>   0.3700 
 29 H        0.3580    -2.4850    -1.4560 H     1 <1>   0.0800 
 30 H       -1.2630    -2.1040    -1.9730 H     1 <1>   0.0800 
 31 H       -0.3710    -4.3340    -0.1550 H     1 <1>   0.0800 
 32 H       -1.3050    -4.4450    -1.6140 H     1 <1>   0.0800 
 33 H       -5.8620    -6.4050     1.6290 H     1 <1>   0.0800 
 34 H       -4.3670    -7.1430     1.1520 H     1 <1>   0.0800 
 35 H       -5.0510    -3.1420     0.0940 H     1 <1>   0.0800 
 36 H       -5.4200    -3.6360     1.7190 H     1 <1>   0.0800 
 37 H       -5.9460    -8.1390    -0.2470 H     1 <1>   0.0800 
 38 H       -5.1550    -6.9850    -1.2630 H     1 <1>   0.0800 
 39 H       -7.3330    -3.2040     0.0920 H     1 <1>   0.0800 
 40 H       -7.4600    -4.6380     1.0380 H     1 <1>   0.0800 
 41 H       -6.2190    -4.7940    -1.7100 H     1 <1>   0.0800 
 42 H       -7.9430    -4.6690    -1.5510 H     1 <1>   0.0800 
 43 H       -8.0080    -8.7340     0.5610 H     1 <1>   0.0800 
 44 H       -7.8640    -9.0780    -1.1560 H     1 <1>   0.0800 
 45 H      -10.2990    -8.9260    -1.3860 H     1 <1>   0.0800 
 46 H      -10.4470    -8.5550     0.3030 H     1 <1>   0.0800 
 47 H       -7.1130   -10.8290     0.1000 H     1 <1>   0.0800 
 48 H       -7.2920   -12.4730    -0.4430 H     1 <1>   0.0800 
 49 H       -7.3790   -12.1010     1.2600 H     1 <1>   0.0800 
 50 H      -12.6320   -10.1390    -1.2260 H     1 <1>   0.0800 
 51 H      -12.7380    -9.7940     0.4900 H     1 <1>   0.0800 
 52 H      -13.3730   -11.2930    -0.1440 H     1 <1>   0.0800 
@<TRIPOS>BOND
  1   1   2  2   
  2   2   3  am  
  3   2   4  1   
  4   3   5  1   
  5   3  28  1   
  6   4   6  1   
  7   4  29  1   
  8   4  30  1   
  9   5   7  2   
 10   6   7  1   
 11   6  31  1   
 12   6  32  1   
 13   7   8  1   
 14   8   9  2   
 15   8  10  am  
 16  10  11  1   
 17  10  12  1   
 18  11  13  1   
 19  11  33  1   
 20  11  34  1   
 21  12  14  1   
 22  12  35  1   
 23  12  36  1   
 24  13  15  1   
 25  13  37  1   
 26  13  38  1   
 27  14  16  1   
 28  14  39  1   
 29  14  40  1   
 30  15  16  1   
 31  15  17  am  
 32  16  41  1   
 33  16  42  1   
 34  17  18  2   
 35  17  19  1   
 36  19  20  1   
 37  19  43  1   
 38  19  44  1   
 39  20  21  1   
 40  20  45  1   
 41  20  46  1   
 42  21  22  2   
 43  21  23  1   
 44  22  24  1   
 45  22  25  1   
 46  23  26  2   
 47  23  27  1   
 48  24  26  1   
 49  25  47  1   
 50  25  48  1   
 51  25  49  1   
 52  27  50  1   
 53  27  51  1   
 54  27  52  1   
@<TRIPOS>SUBSTRUCTURE
  1 ****  13 GROUP 4 **** **** 0

# MOE 2024.06 (io_trps.svl 2023.06)
