@<TRIPOS>MOLECULE
NONAME
51 54 1 0 0 
SMALL
USER_CHARGES


@<TRIPOS>ATOM
  1 O        0.1690     1.7050     0.3420 O.2   1 <1>  -0.5700 
  2 C        1.0470     0.8780     0.2890 C.2   1 <1>   0.5690 
  3 N        2.3550     1.0930    -0.0450 N.am  1 <1>  -0.4770 
  4 C        0.7870    -0.5680     0.6130 C.3   1 <1>  -0.0990 
  5 C        2.9800     2.3230    -0.3180 C.ar  1 <1>   0.1170 
  6 C        3.1260    -0.1680     0.0250 C.3   1 <1>   0.1400 
  7 C        2.0770    -1.2760     0.1850 C.3   1 <1>  -0.1600 
  8 C        3.9870     2.4340    -1.2730 C.ar  1 <1>  -0.1500 
  9 C        2.6120     3.4820     0.3590 C.ar  1 <1>  -0.1500 
 10 C        4.6000     3.6450    -1.5300 C.ar  1 <1>  -0.1500 
 11 C        3.2230     4.6930     0.0980 C.ar  1 <1>  -0.1500 
 12 C        4.2400     4.8120    -0.8520 C.ar  1 <1>   0.0860 
 13 C        4.8940     6.0800    -1.1290 C.2   1 <1>   0.5440 
 14 O        5.7450     6.1970    -1.9940 O.2   1 <1>  -0.5700 
 15 N        4.6260     7.2140    -0.4060 N.am  1 <1>  -0.6600 
 16 C        5.4510     7.4540     0.8280 C.3   1 <1>   0.2200 
 17 C        4.0340     8.3790    -1.1330 C.3   1 <1>   0.1400 
 18 C        4.7700     8.4040     1.8260 C.3   1 <1>   0.1200 
 19 C        6.8750     7.9600     0.4720 C.3   1 <1>   0.3430 
 20 C        4.7140     9.7340    -0.8620 C.3   1 <1>  -0.0800 
 21 O        5.0770     9.7340     1.5290 O.3   1 <1>  -0.5600 
 22 N        6.9700     8.5080    -0.9250 N.4   1 <1>  -0.9590 
 23 C        4.3330    10.3130     0.5100 C.3   1 <1>   0.1200 
 24 C        6.2330     9.7950    -1.1280 C.3   1 <1>   0.3430 
 25 C        8.3820     8.5960    -1.3880 C.3   1 <1>   0.2630 
 26 H        0.6220    -0.6620     1.6700 H     1 <1>   0.0800 
 27 H       -0.0690    -0.9290     0.0730 H     1 <1>   0.0800 
 28 H        3.7050    -0.3220    -0.8680 H     1 <1>   0.0800 
 29 H        3.7780    -0.1330     0.8800 H     1 <1>   0.0800 
 30 H        1.9280    -1.7560    -0.7660 H     1 <1>   0.0800 
 31 H        2.3900    -2.0160     0.9010 H     1 <1>   0.0800 
 32 H        4.2890     1.5690    -1.8320 H     1 <1>   0.1500 
 33 H        1.8320     3.4320     1.0980 H     1 <1>   0.1500 
 34 H        5.3730     3.6930    -2.2790 H     1 <1>   0.1500 
 35 H        2.8930     5.5610     0.6410 H     1 <1>   0.1500 
 36 H        5.5580     6.5110     1.3350 H     1 <1>   0.0800 
 37 H        4.0720     8.1820    -2.1930 H     1 <1>   0.0800 
 38 H        2.9920     8.4460    -0.8690 H     1 <1>   0.0800 
 39 H        5.1570     8.2170     2.8120 H     1 <1>   0.0800 
 40 H        3.7020     8.2630     1.8520 H     1 <1>   0.0800 
 41 H        7.5490     7.1260     0.5640 H     1 <1>   0.0800 
 42 H        7.1840     8.7060     1.1860 H     1 <1>   0.0800 
 43 H        4.2710    10.4170    -1.5650 H     1 <1>   0.0800 
 44 H        6.4830     7.7840    -1.5050 H     1 <1>   0.4500 
 45 H        3.2840    10.1840     0.7230 H     1 <1>   0.0800 
 46 H        4.5480    11.3680     0.5330 H     1 <1>   0.0800 
 47 H        6.6660    10.5580    -0.5020 H     1 <1>   0.0800 
 48 H        6.3740    10.1000    -2.1520 H     1 <1>   0.0800 
 49 H        8.9280     9.3090    -0.7920 H     1 <1>   0.0800 
 50 H        8.4170     8.9060    -2.4200 H     1 <1>   0.0800 
 51 H        8.8600     7.6330    -1.3060 H     1 <1>   0.0800 
@<TRIPOS>BOND
  1   1   2  2   
  2   2   3  am  
  3   2   4  1   
  4   3   5  1   
  5   3   6  1   
  6   4   7  1   
  7   4  26  1   
  8   4  27  1   
  9   5   8  ar  
 10   5   9  ar  
 11   6   7  1   
 12   6  28  1   
 13   6  29  1   
 14   7  30  1   
 15   7  31  1   
 16   8  10  ar  
 17   8  32  1   
 18   9  11  ar  
 19   9  33  1   
 20  10  12  ar  
 21  10  34  1   
 22  11  12  ar  
 23  11  35  1   
 24  12  13  1   
 25  13  14  2   
 26  13  15  am  
 27  15  16  1   
 28  15  17  1   
 29  16  18  1   
 30  16  19  1   
 31  16  36  1   
 32  17  20  1   
 33  17  37  1   
 34  17  38  1   
 35  18  21  1   
 36  18  39  1   
 37  18  40  1   
 38  19  22  1   
 39  19  41  1   
 40  19  42  1   
 41  20  23  1   
 42  20  24  1   
 43  20  43  1   
 44  21  23  1   
 45  22  24  1   
 46  22  25  1   
 47  22  44  1   
 48  23  45  1   
 49  23  46  1   
 50  24  47  1   
 51  24  48  1   
 52  25  49  1   
 53  25  50  1   
 54  25  51  1   
@<TRIPOS>SUBSTRUCTURE
  1 ****  12 GROUP 4 **** **** 0

# MOE 2024.06 (io_trps.svl 2023.06)
