@<TRIPOS>MOLECULE
NONAME
44 46 1 0 0 
SMALL
USER_CHARGES


@<TRIPOS>ATOM
  1 S        0.9710     0.9860    -1.3940 S.o2  1 <1>   1.3330 
  2 O        0.4280     2.2170    -1.9210 O.2   1 <1>  -0.6500 
  3 O        1.1050    -0.1640    -2.2600 O.2   1 <1>  -0.6500 
  4 N        0.0010     0.5330    -0.0740 N.am  1 <1>  -0.8490 
  5 C        2.5750     1.3120    -0.6610 C.3   1 <1>  -0.0550 
  6 C       -1.1340    -0.2970    -0.4870 C.3   1 <1>   0.1160 
  7 C       -0.4800     1.6760     0.7110 C.3   1 <1>   0.1160 
  8 C        3.2970     0.0540    -0.1300 C.3   1 <1>  -0.0800 
  9 C        4.7190     0.2940     0.3510 C.3   1 <1>   0.2890 
 10 C        2.6400    -0.6050     1.0880 C.3   1 <1>   0.1200 
 11 N        4.7940     1.5470     1.1350 N.pl3 1 <1>  -0.8530 
 12 C        4.9120    -0.8990     1.2790 C.3   1 <1>   0.1200 
 13 O        3.6720    -1.1190     1.8810 O.3   1 <1>  -0.5600 
 14 C        5.3690     2.7060     0.7220 C.2   1 <1>   0.5620 
 15 O        5.7630     2.8320    -0.5380 O.3   1 <1>  -0.2800 
 16 N        5.5540     3.7320     1.4700 N.2   1 <1>  -0.5650 
 17 C        6.2520     4.0550    -0.6160 C.ar  1 <1>   0.1400 
 18 C        6.1290     4.6240     0.6260 C.ar  1 <1>   0.2270 
 19 C        6.8050     4.7300    -1.6930 C.ar  1 <1>  -0.1500 
 20 C        6.5720     5.9260     0.8330 C.ar  1 <1>  -0.1500 
 21 C        7.2430     6.0250    -1.4830 C.ar  1 <1>  -0.1500 
 22 C        7.1290     6.6250    -0.2250 C.ar  1 <1>  -0.1440 
 23 C        7.6220     8.0480    -0.0360 C.3   1 <1>  -0.0970 
 24 H        3.1990     1.7600    -1.4090 H     1 <1>   0.0800 
 25 H        2.4640     2.0290     0.1280 H     1 <1>   0.0800 
 26 H       -1.7210    -0.5800     0.3700 H     1 <1>   0.0800 
 27 H       -0.7810    -1.1960    -0.9630 H     1 <1>   0.0800 
 28 H       -1.7570     0.2400    -1.1820 H     1 <1>   0.0800 
 29 H       -1.0170     1.3290     1.5770 H     1 <1>   0.0800 
 30 H       -1.1350     2.2930     0.1170 H     1 <1>   0.0800 
 31 H        0.3490     2.2750     1.0450 H     1 <1>   0.0800 
 32 H        3.3340    -0.6800    -0.9170 H     1 <1>   0.0800 
 33 H        5.4360     0.3010    -0.4530 H     1 <1>   0.0800 
 34 H        1.9780    -1.4060     0.8060 H     1 <1>   0.0800 
 35 H        2.1060     0.1140     1.6840 H     1 <1>   0.0800 
 36 H        4.5570     1.4730     2.1270 H     1 <1>   0.4000 
 37 H        5.6580    -0.7220     2.0340 H     1 <1>   0.0800 
 38 H        5.1620    -1.7810     0.7150 H     1 <1>   0.0800 
 39 H        6.8830     4.2490    -2.6510 H     1 <1>   0.1500 
 40 H        6.4690     6.3560     1.8130 H     1 <1>   0.1500 
 41 H        7.6780     6.5790    -2.2980 H     1 <1>   0.1500 
 42 H        7.0860     8.7120    -0.6910 H     1 <1>   0.0800 
 43 H        8.6710     8.1060    -0.2640 H     1 <1>   0.0800 
 44 H        7.4740     8.3760     0.9780 H     1 <1>   0.0800 
@<TRIPOS>BOND
  1   1   2  2   
  2   1   3  2   
  3   1   4  am  
  4   1   5  1   
  5   4   6  1   
  6   4   7  1   
  7   5   8  1   
  8   5  24  1   
  9   5  25  1   
 10   6  26  1   
 11   6  27  1   
 12   6  28  1   
 13   7  29  1   
 14   7  30  1   
 15   7  31  1   
 16   8   9  1   
 17   8  10  1   
 18   8  32  1   
 19   9  11  1   
 20   9  12  1   
 21   9  33  1   
 22  10  13  1   
 23  10  34  1   
 24  10  35  1   
 25  11  14  1   
 26  11  36  1   
 27  12  13  1   
 28  12  37  1   
 29  12  38  1   
 30  14  15  1   
 31  14  16  2   
 32  15  17  1   
 33  16  18  1   
 34  17  18  ar  
 35  17  19  ar  
 36  18  20  ar  
 37  19  21  ar  
 38  19  39  1   
 39  20  22  ar  
 40  20  40  1   
 41  21  22  ar  
 42  21  41  1   
 43  22  23  1   
 44  23  42  1   
 45  23  43  1   
 46  23  44  1   
@<TRIPOS>SUBSTRUCTURE
  1 ****  14 GROUP 4 **** **** 0

# MOE 2024.06 (io_trps.svl 2023.06)
