@<TRIPOS>MOLECULE
NONAME
56 59 1 0 0 
SMALL
USER_CHARGES


@<TRIPOS>ATOM
  1 O       -0.9960     1.0870     1.8290 O.3   1 <1>  -0.5600 
  2 C       -0.0060     0.9650     0.8660 C.3   1 <1>   0.1200 
  3 C       -2.2280     1.2690     1.1950 C.3   1 <1>   0.1200 
  4 C       -0.3900     2.0410    -0.1430 C.3   1 <1>   0.4230 
  5 C       -1.9040     1.8480    -0.1960 C.3   1 <1>  -0.0800 
  6 N       -0.1130     3.3740     0.4580 N.4   1 <1>  -0.9060 
  7 C       -2.3180     0.8910    -1.3320 C.3   1 <1>  -0.0170 
  8 C        1.3040     3.7900     0.4930 C.3   1 <1>   0.4230 
  9 C       -3.8270     0.7180    -1.3750 C.ar  1 <1>  -0.1440 
 10 C        1.4100     5.0020     1.4220 C.3   1 <1>  -0.1600 
 11 C        1.7900     4.0940    -0.9300 C.3   1 <1>  -0.1600 
 12 C       -4.4500    -0.4170    -0.8930 C.ar  1 <1>  -0.1500 
 13 C       -4.6570     1.6880    -1.9030 C.ar  1 <1>  -0.1500 
 14 C        2.8250     5.5700     1.4030 C.3   1 <1>   0.2090 
 15 C        3.1970     4.6850    -0.8990 C.3   1 <1>   0.2090 
 16 C       -5.8300    -0.5170    -0.9480 C.ar  1 <1>   0.1600 
 17 C       -6.0270     1.4880    -1.9120 C.ar  1 <1>   0.1600 
 18 N        3.1650     5.8560    -0.0040 N.pl3 1 <1>  -0.8380 
 19 N       -6.6320     0.4110    -1.4410 N.ar  1 <1>  -0.6200 
 20 C        4.1560     6.8100    -0.2100 C.ar  1 <1>   0.1000 
 21 C        3.8180     8.0560    -0.7190 C.ar  1 <1>  -0.1500 
 22 C        5.4890     6.5460     0.0860 C.ar  1 <1>  -0.1500 
 23 C        4.7820     9.0260    -0.9350 C.ar  1 <1>  -0.1440 
 24 C        6.4580     7.5080    -0.1260 C.ar  1 <1>  -0.1500 
 25 C        6.1060     8.7460    -0.6350 C.ar  1 <1>  -0.1500 
 26 C        4.4060    10.3870    -1.4930 C.3   1 <1>  -0.0970 
 27 H        0.9600     1.1080     1.3160 H     1 <1>   0.0800 
 28 H       -0.0660    -0.0230     0.4400 H     1 <1>   0.0800 
 29 H       -2.7230     0.3140     1.1420 H     1 <1>   0.0800 
 30 H       -2.8230     1.9430     1.7890 H     1 <1>   0.0800 
 31 H        0.0860     1.9230    -1.1030 H     1 <1>   0.0800 
 32 H       -2.4200     2.7810    -0.3430 H     1 <1>   0.0800 
 33 H       -0.6590     4.1060    -0.0050 H     1 <1>   0.4500 
 34 H       -0.4570     3.3030     1.4280 H     1 <1>   0.4500 
 35 H       -1.8530    -0.0730    -1.2080 H     1 <1>   0.0800 
 36 H       -1.9940     1.2850    -2.2810 H     1 <1>   0.0800 
 37 H        1.9110     2.9990     0.9050 H     1 <1>   0.0800 
 38 H        0.7400     5.7830     1.1050 H     1 <1>   0.0800 
 39 H        1.1670     4.7240     2.4310 H     1 <1>   0.0800 
 40 H        1.8150     3.2020    -1.5260 H     1 <1>   0.0800 
 41 H        1.1440     4.8120    -1.4040 H     1 <1>   0.0800 
 42 H       -3.8840    -1.2290    -0.4740 H     1 <1>   0.1500 
 43 H       -4.2590     2.5980    -2.3130 H     1 <1>   0.1500 
 44 H        3.5320     4.8690     1.8150 H     1 <1>   0.0800 
 45 H        2.8720     6.4810     1.9780 H     1 <1>   0.0800 
 46 H        3.4950     4.9950    -1.8880 H     1 <1>   0.0800 
 47 H        3.9130     3.9670    -0.5350 H     1 <1>   0.0800 
 48 H       -6.3000    -1.4080    -0.5660 H     1 <1>   0.1500 
 49 H       -6.6610     2.2530    -2.3280 H     1 <1>   0.1500 
 50 H        2.7860     8.2510    -0.9430 H     1 <1>   0.1500 
 51 H        5.7640     5.5870     0.4810 H     1 <1>   0.1500 
 52 H        7.4870     7.2970     0.1050 H     1 <1>   0.1500 
 53 H        6.8650     9.4910    -0.7980 H     1 <1>   0.1500 
 54 H        4.9930    10.5980    -2.3690 H     1 <1>   0.0800 
 55 H        4.5930    11.1470    -0.7550 H     1 <1>   0.0800 
 56 H        3.3660    10.4170    -1.7620 H     1 <1>   0.0800 
@<TRIPOS>BOND
  1   1   2  1   
  2   1   3  1   
  3   2   4  1   
  4   2  27  1   
  5   2  28  1   
  6   3   5  1   
  7   3  29  1   
  8   3  30  1   
  9   4   5  1   
 10   4   6  1   
 11   4  31  1   
 12   5   7  1   
 13   5  32  1   
 14   6   8  1   
 15   6  33  1   
 16   6  34  1   
 17   7   9  1   
 18   7  35  1   
 19   7  36  1   
 20   8  10  1   
 21   8  11  1   
 22   8  37  1   
 23   9  12  ar  
 24   9  13  ar  
 25  10  14  1   
 26  10  38  1   
 27  10  39  1   
 28  11  15  1   
 29  11  40  1   
 30  11  41  1   
 31  12  16  ar  
 32  12  42  1   
 33  13  17  ar  
 34  13  43  1   
 35  14  18  1   
 36  14  44  1   
 37  14  45  1   
 38  15  18  1   
 39  15  46  1   
 40  15  47  1   
 41  16  19  ar  
 42  16  48  1   
 43  17  19  ar  
 44  17  49  1   
 45  18  20  1   
 46  20  21  ar  
 47  20  22  ar  
 48  21  23  ar  
 49  21  50  1   
 50  22  24  ar  
 51  22  51  1   
 52  23  25  ar  
 53  23  26  1   
 54  24  25  ar  
 55  24  52  1   
 56  25  53  1   
 57  26  54  1   
 58  26  55  1   
 59  26  56  1   
@<TRIPOS>SUBSTRUCTURE
  1 ****   6 GROUP 4 **** **** 0

# MOE 2024.06 (io_trps.svl 2023.06)
