@<TRIPOS>MOLECULE
NONAME
45 46 1 0 0 
SMALL
USER_CHARGES


@<TRIPOS>ATOM
  1 F        1.4400     1.1410     1.7160 F     1 <1>  -0.1900 
  2 C        2.4500     1.9190     1.4310 C.ar  1 <1>   0.1900 
  3 C        3.4400     1.4460     0.5930 C.ar  1 <1>  -0.1500 
  4 C        2.4900     3.1860     1.9800 C.ar  1 <1>  -0.1500 
  5 C        4.5070     2.2770     0.2960 C.ar  1 <1>  -0.1500 
  6 C        3.5640     4.0070     1.6750 C.ar  1 <1>  -0.1500 
  7 C        4.5750     3.5570     0.8330 C.ar  1 <1>  -0.1430 
  8 C        5.7570     4.4600     0.5020 C.3   1 <1>   0.2540 
  9 N        5.9320     4.6060    -0.9570 N.3   1 <1>  -0.8100 
 10 C        7.2140     5.2940    -1.2730 C.3   1 <1>   0.1710 
 11 C        4.7730     5.2540    -1.5880 C.3   1 <1>   0.0300 
 12 C        7.3550     6.7310    -0.7480 C.2   1 <1>   0.5690 
 13 O        7.8430     6.9190     0.3430 O.2   1 <1>  -0.5700 
 14 N        6.9380     7.7710    -1.5220 N.am  1 <1>  -0.7300 
 15 C        6.9670     9.1870    -1.0880 C.3   1 <1>   0.1400 
 16 C        8.3640     9.7760    -1.2910 C.3   1 <1>   0.0200 
 17 C        8.5000    11.0520    -0.4860 C.2   1 <1>   0.0060 
 18 N        8.2840    12.2290    -0.9640 N.2   1 <1>  -0.3380 
 19 N        8.8460    11.1000     0.8060 N.pl3 1 <1>   0.0480 
 20 N        8.4900    13.0970     0.0270 N.2   1 <1>  -0.3380 
 21 C        8.8220    12.4080     1.0630 C.2   1 <1>   0.0360 
 22 C        9.1690    10.0020     1.7450 C.3   1 <1>   0.0960 
 23 C       10.6710     9.7000     1.7290 C.3   1 <1>  -0.2400 
 24 H        3.3760     0.4550     0.1830 H     1 <1>   0.1500 
 25 H        1.7000     3.5180     2.6280 H     1 <1>   0.1500 
 26 H        5.2900     1.9360    -0.3610 H     1 <1>   0.1500 
 27 H        3.6080     4.9970     2.0950 H     1 <1>   0.1500 
 28 H        6.6450     4.0230     0.9260 H     1 <1>   0.0800 
 29 H        5.6190     5.4280     0.9530 H     1 <1>   0.0800 
 30 H        7.3460     5.3040    -2.3400 H     1 <1>   0.0800 
 31 H        8.0230     4.7140    -0.8640 H     1 <1>   0.0800 
 32 H        3.8930     4.6470    -1.4530 H     1 <1>   0.0800 
 33 H        4.9410     5.3620    -2.6450 H     1 <1>   0.0800 
 34 H        4.5930     6.2220    -1.1530 H     1 <1>   0.0800 
 35 H        6.5280     7.5880    -2.4400 H     1 <1>   0.3700 
 36 H        6.7060     9.2340    -0.0440 H     1 <1>   0.0800 
 37 H        6.2410     9.7620    -1.6380 H     1 <1>   0.0800 
 38 H        8.5140     9.9940    -2.3330 H     1 <1>   0.0800 
 39 H        9.1160     9.0760    -0.9770 H     1 <1>   0.0800 
 40 H        9.0550    12.8240     2.0260 H     1 <1>   0.1500 
 41 H        8.6140     9.1240     1.4680 H     1 <1>   0.0800 
 42 H        8.8640    10.2920     2.7340 H     1 <1>   0.0800 
 43 H       10.9830     9.3950     0.7460 H     1 <1>   0.0800 
 44 H       10.8860     8.9000     2.4150 H     1 <1>   0.0800 
 45 H       11.2330    10.5670     2.0280 H     1 <1>   0.0800 
@<TRIPOS>BOND
  1   1   2  1   
  2   2   3  ar  
  3   2   4  ar  
  4   3   5  ar  
  5   3  24  1   
  6   4   6  ar  
  7   4  25  1   
  8   5   7  ar  
  9   5  26  1   
 10   6   7  ar  
 11   6  27  1   
 12   7   8  1   
 13   8   9  1   
 14   8  28  1   
 15   8  29  1   
 16   9  10  1   
 17   9  11  1   
 18  10  12  1   
 19  10  30  1   
 20  10  31  1   
 21  11  32  1   
 22  11  33  1   
 23  11  34  1   
 24  12  13  2   
 25  12  14  am  
 26  14  15  1   
 27  14  35  1   
 28  15  16  1   
 29  15  36  1   
 30  15  37  1   
 31  16  17  1   
 32  16  38  1   
 33  16  39  1   
 34  17  18  2   
 35  17  19  1   
 36  18  20  1   
 37  19  21  1   
 38  19  22  1   
 39  20  21  2   
 40  21  40  1   
 41  22  23  1   
 42  22  41  1   
 43  22  42  1   
 44  23  43  1   
 45  23  44  1   
 46  23  45  1   
@<TRIPOS>SUBSTRUCTURE
  1 ****  12 GROUP 4 **** **** 0

# MOE 2024.06 (io_trps.svl 2023.06)
