@<TRIPOS>MOLECULE
NONAME
41 43 1 0 0 
SMALL
USER_CHARGES


@<TRIPOS>ATOM
  1 F       -1.7980    -0.9800    -0.8960 F     1 <1>  -0.1900 
  2 C       -2.1760     0.2440    -0.6500 C.ar  1 <1>   0.1900 
  3 C       -3.4860     0.5940    -0.9030 C.ar  1 <1>  -0.1500 
  4 C       -1.2520     1.1360    -0.1510 C.ar  1 <1>  -0.1500 
  5 C       -3.8960     1.8940    -0.6420 C.ar  1 <1>   0.0730 
  6 C       -1.6310     2.4510     0.1130 C.ar  1 <1>   0.0860 
  7 C       -5.2510     2.3010    -0.8880 C.1   1 <1>   0.4840 
  8 C       -2.9630     2.7960    -0.1380 C.ar  1 <1>  -0.1500 
  9 C       -0.6720     3.4130     0.6350 C.2   1 <1>   0.5440 
 10 N       -6.3190     2.6470    -1.0830 N.1   1 <1>  -0.5570 
 11 O        0.3490     3.0490     1.1860 O.2   1 <1>  -0.5700 
 12 N       -0.8290     4.7660     0.4730 N.am  1 <1>  -0.6600 
 13 C       -0.4890     5.6830     1.6280 C.3   1 <1>   0.2200 
 14 C       -0.8230     5.3200    -0.9130 C.3   1 <1>   0.1400 
 15 C       -1.1960     7.0450     1.5390 C.3   1 <1>   0.1200 
 16 C        1.0410     5.8850     1.7800 C.3   1 <1>   0.3430 
 17 C        0.1050     6.5350    -1.1050 C.3   1 <1>  -0.0800 
 18 O       -0.4330     7.9440     0.7900 O.3   1 <1>  -0.5600 
 19 N        1.7930     5.4740     0.5480 N.4   1 <1>  -0.9590 
 20 C       -0.5370     7.8350    -0.5890 C.3   1 <1>   0.1200 
 21 C        1.5700     6.3670    -0.6370 C.3   1 <1>   0.3430 
 22 C        3.2400     5.2820     0.8430 C.3   1 <1>   0.2630 
 23 H       -4.1710    -0.1400    -1.2940 H     1 <1>   0.1500 
 24 H       -0.2440     0.8070     0.0340 H     1 <1>   0.1500 
 25 H       -3.2870     3.8010     0.0730 H     1 <1>   0.1500 
 26 H       -0.8450     5.2110     2.5280 H     1 <1>   0.0800 
 27 H       -0.5150     4.5440    -1.5950 H     1 <1>   0.0800 
 28 H       -1.8310     5.5940    -1.1800 H     1 <1>   0.0800 
 29 H       -1.2770     7.4650     2.5270 H     1 <1>   0.0800 
 30 H       -2.1880     6.9610     1.1280 H     1 <1>   0.0800 
 31 H        1.3660     5.2750     2.6070 H     1 <1>   0.0800 
 32 H        1.2550     6.9120     2.0280 H     1 <1>   0.0800 
 33 H        0.1600     6.6820    -2.1690 H     1 <1>   0.0800 
 34 H        1.3760     4.5420     0.3430 H     1 <1>   0.4500 
 35 H       -1.5760     7.9070    -0.8680 H     1 <1>   0.0800 
 36 H       -0.0240     8.6850    -1.0050 H     1 <1>   0.0800 
 37 H        1.9740     7.3440    -0.4240 H     1 <1>   0.0800 
 38 H        2.1320     5.9640    -1.4640 H     1 <1>   0.0800 
 39 H        3.6930     6.2190     1.1240 H     1 <1>   0.0800 
 40 H        3.7490     4.8950    -0.0250 H     1 <1>   0.0800 
 41 H        3.3630     4.5800     1.6510 H     1 <1>   0.0800 
@<TRIPOS>BOND
  1   1   2  1   
  2   2   3  ar  
  3   2   4  ar  
  4   3   5  ar  
  5   3  23  1   
  6   4   6  ar  
  7   4  24  1   
  8   5   7  1   
  9   5   8  ar  
 10   6   8  ar  
 11   6   9  1   
 12   7  10  3   
 13   8  25  1   
 14   9  11  2   
 15   9  12  am  
 16  12  13  1   
 17  12  14  1   
 18  13  15  1   
 19  13  16  1   
 20  13  26  1   
 21  14  17  1   
 22  14  27  1   
 23  14  28  1   
 24  15  18  1   
 25  15  29  1   
 26  15  30  1   
 27  16  19  1   
 28  16  31  1   
 29  16  32  1   
 30  17  20  1   
 31  17  21  1   
 32  17  33  1   
 33  18  20  1   
 34  19  21  1   
 35  19  22  1   
 36  19  34  1   
 37  20  35  1   
 38  20  36  1   
 39  21  37  1   
 40  21  38  1   
 41  22  39  1   
 42  22  40  1   
 43  22  41  1   
@<TRIPOS>SUBSTRUCTURE
  1 ****  12 GROUP 4 **** **** 0

# MOE 2024.06 (io_trps.svl 2023.06)
