@<TRIPOS>MOLECULE
NONAME
56 60 1 0 0 
SMALL
USER_CHARGES


@<TRIPOS>ATOM
  1 O       -0.2460    -0.3600    -0.8340 O.2   1 <1>  -0.5700 
  2 C        0.7630     0.2780    -0.5780 C.2   1 <1>   0.5440 
  3 N        0.6230     1.4780     0.0840 N.am  1 <1>  -0.6600 
  4 C        2.0610    -0.2320    -0.9550 C.ar  1 <1>   0.0860 
  5 C        1.7000     2.1440     0.8520 C.3   1 <1>   0.1400 
  6 C       -0.7030     2.0180     0.4620 C.3   1 <1>   0.1400 
  7 C        2.4260    -1.5580    -0.6550 C.ar  1 <1>   0.4100 
  8 C        2.9870     0.5550    -1.6260 C.ar  1 <1>  -0.1500 
  9 C        0.9750     2.9220     1.9430 C.3   1 <1>  -0.1600 
 10 C       -0.4010     3.2170     1.3530 C.3   1 <1>  -0.1600 
 11 N        3.6070    -2.0940    -0.9570 N.ar  1 <1>  -0.6200 
 12 N        1.5420    -2.3860    -0.0120 N.pl3 1 <1>  -0.8690 
 13 C        4.2070     0.0010    -1.9410 C.ar  1 <1>  -0.1500 
 14 C        4.4620    -1.3120    -1.5840 C.ar  1 <1>   0.1600 
 15 C        1.5030    -3.8460    -0.2570 C.3   1 <1>   0.2890 
 16 C        0.0950    -4.4220    -0.1820 C.3   1 <1>  -0.0800 
 17 C        2.2650    -4.6490     0.7980 C.3   1 <1>   0.1200 
 18 C        0.4210    -5.8660     0.1890 C.3   1 <1>   0.1200 
 19 C       -0.8180    -3.7740     0.8880 C.3   1 <1>  -0.0170 
 20 O        1.4940    -5.7890     1.0730 O.3   1 <1>  -0.5600 
 21 C       -2.2210    -4.3700     0.8580 C.ar  1 <1>  -0.1440 
 22 C       -3.1710    -4.0040    -0.1250 C.ar  1 <1>   0.0000 
 23 C       -2.5980    -5.2880     1.7920 C.ar  1 <1>  -0.1500 
 24 C       -4.4360    -4.6400    -0.0820 C.ar  1 <1>   0.3100 
 25 C       -2.9460    -3.0440    -1.1400 C.ar  1 <1>  -0.1500 
 26 C       -3.8790    -5.8500     1.7510 C.ar  1 <1>   0.1600 
 27 N       -4.7730    -5.5590     0.8590 N.ar  1 <1>  -0.6200 
 28 C       -5.3950    -4.3110    -1.0530 C.ar  1 <1>  -0.1500 
 29 C       -3.9050    -2.7440    -2.0680 C.ar  1 <1>  -0.1500 
 30 C       -5.1450    -3.3850    -2.0290 C.ar  1 <1>  -0.1500 
 31 H        2.3860     1.4270     1.2710 H     1 <1>   0.0800 
 32 H        2.2280     2.8220     0.2030 H     1 <1>   0.0800 
 33 H       -1.2630     2.3000    -0.4130 H     1 <1>   0.0800 
 34 H       -1.2470     1.2670     1.0100 H     1 <1>   0.0800 
 35 H        2.7490     1.5690    -1.8950 H     1 <1>   0.1500 
 36 H        0.8720     2.2930     2.8110 H     1 <1>   0.0800 
 37 H        1.5050     3.8160     2.2190 H     1 <1>   0.0800 
 38 H       -0.3560     4.1030     0.7430 H     1 <1>   0.0800 
 39 H       -1.1530     3.3510     2.1100 H     1 <1>   0.0800 
 40 H        0.5960    -1.9820     0.0270 H     1 <1>   0.4000 
 41 H        4.9560     0.5730    -2.4590 H     1 <1>   0.1500 
 42 H        5.4200    -1.7370    -1.8320 H     1 <1>   0.1500 
 43 H        1.9280    -4.0630    -1.2230 H     1 <1>   0.0800 
 44 H       -0.3770    -4.3840    -1.1470 H     1 <1>   0.0800 
 45 H        2.3700    -4.0900     1.7110 H     1 <1>   0.0800 
 46 H        3.2280    -4.9560     0.4330 H     1 <1>   0.0800 
 47 H        0.7470    -6.4200    -0.6750 H     1 <1>   0.0800 
 48 H       -0.3930    -6.3870     0.6610 H     1 <1>   0.0800 
 49 H       -0.9040    -2.7130     0.7430 H     1 <1>   0.0800 
 50 H       -0.3810    -3.9150     1.8620 H     1 <1>   0.0800 
 51 H       -1.9280    -5.6040     2.5720 H     1 <1>   0.1500 
 52 H       -2.0040    -2.5300    -1.1890 H     1 <1>   0.1500 
 53 H       -4.1360    -6.5720     2.5070 H     1 <1>   0.1500 
 54 H       -6.3430    -4.8150    -1.0000 H     1 <1>   0.1500 
 55 H       -3.7170    -2.0100    -2.8340 H     1 <1>   0.1500 
 56 H       -5.8910    -3.1410    -2.7660 H     1 <1>   0.1500 
@<TRIPOS>BOND
  1   1   2  2   
  2   2   3  am  
  3   2   4  1   
  4   3   5  1   
  5   3   6  1   
  6   4   7  ar  
  7   4   8  ar  
  8   5   9  1   
  9   5  31  1   
 10   5  32  1   
 11   6  10  1   
 12   6  33  1   
 13   6  34  1   
 14   7  11  ar  
 15   7  12  1   
 16   8  13  ar  
 17   8  35  1   
 18   9  10  1   
 19   9  36  1   
 20   9  37  1   
 21  10  38  1   
 22  10  39  1   
 23  11  14  ar  
 24  12  15  1   
 25  12  40  1   
 26  13  14  ar  
 27  13  41  1   
 28  14  42  1   
 29  15  16  1   
 30  15  17  1   
 31  15  43  1   
 32  16  18  1   
 33  16  19  1   
 34  16  44  1   
 35  17  20  1   
 36  17  45  1   
 37  17  46  1   
 38  18  20  1   
 39  18  47  1   
 40  18  48  1   
 41  19  21  1   
 42  19  49  1   
 43  19  50  1   
 44  21  22  ar  
 45  21  23  ar  
 46  22  24  ar  
 47  22  25  ar  
 48  23  26  ar  
 49  23  51  1   
 50  24  27  ar  
 51  24  28  ar  
 52  25  29  ar  
 53  25  52  1   
 54  26  27  ar  
 55  26  53  1   
 56  28  30  ar  
 57  28  54  1   
 58  29  30  ar  
 59  29  55  1   
 60  30  56  1   
@<TRIPOS>SUBSTRUCTURE
  1 ****  12 GROUP 4 **** **** 0

# MOE 2024.06 (io_trps.svl 2023.06)
