@<TRIPOS>MOLECULE
NONAME
54 57 1 0 0 
SMALL
USER_CHARGES


@<TRIPOS>ATOM
  1 F       -0.6130     0.1920    -1.8450 F     1 <1>  -0.3400 
  2 C       -0.8880     0.5780    -0.6030 C.3   1 <1>   1.1640 
  3 F       -2.0740     0.0430    -0.3160 F     1 <1>  -0.3400 
  4 F       -0.0160    -0.0470     0.1840 F     1 <1>  -0.3400 
  5 C       -0.8630     2.1210    -0.4290 C.ar  1 <1>   0.1660 
  6 N        0.2680     2.7830    -0.6160 N.ar  1 <1>  -0.6200 
  7 C       -2.0110     2.8060    -0.0800 C.ar  1 <1>  -0.1500 
  8 C        0.2440     4.1030    -0.4620 C.ar  1 <1>   0.7200 
  9 C       -1.9380     4.1700     0.0640 C.ar  1 <1>   0.1660 
 10 N       -0.8220     4.8210    -0.1210 N.ar  1 <1>  -0.6200 
 11 N        1.4260     4.7780    -0.6680 N.pl3 1 <1>  -0.8380 
 12 C       -3.1530     4.9890     0.4470 C.3   1 <1>  -0.0970 
 13 C        1.5440     6.2620    -0.5080 C.3   1 <1>   0.2090 
 14 C        2.7630     4.1140    -0.5140 C.3   1 <1>   0.2090 
 15 C        2.1430     6.6230     0.8670 C.3   1 <1>   0.2090 
 16 C        3.3850     4.4470     0.8560 C.3   1 <1>   0.2090 
 17 N        3.4490     5.9280     1.1050 N.pl3 1 <1>  -0.8380 
 18 C        4.6230     6.6090     0.8820 C.ar  1 <1>   0.4100 
 19 N        5.4100     6.1720    -0.0960 N.ar  1 <1>  -0.6200 
 20 C        4.9480     7.7110     1.6690 C.ar  1 <1>  -0.1500 
 21 C        6.5340     6.8430    -0.2840 C.ar  1 <1>   0.1600 
 22 C        6.1170     8.3990     1.4530 C.ar  1 <1>  -0.1500 
 23 C        6.9530     7.9640     0.4290 C.ar  1 <1>   0.0860 
 24 C        8.2070     8.6080     0.1100 C.2   1 <1>   0.5440 
 25 O        9.1650     7.9220    -0.1960 O.2   1 <1>  -0.5700 
 26 N        8.3590     9.9790     0.1270 N.am  1 <1>  -0.6600 
 27 C        9.7080    10.6230     0.1300 C.3   1 <1>   0.1400 
 28 C        7.2550    10.9400    -0.1730 C.3   1 <1>   0.1400 
 29 C        9.9020    11.4810    -1.1300 C.3   1 <1>   0.1200 
 30 C        7.5960    11.7920    -1.4090 C.3   1 <1>   0.1200 
 31 O        8.8500    12.3950    -1.2670 O.3   1 <1>  -0.5600 
 32 H       -2.9460     2.2990     0.0790 H     1 <1>   0.1500 
 33 H       -4.0180     4.3650     0.5770 H     1 <1>   0.0800 
 34 H       -3.3560     5.7100    -0.3240 H     1 <1>   0.0800 
 35 H       -2.9580     5.5120     1.3650 H     1 <1>   0.0800 
 36 H        0.5900     6.7440    -0.6250 H     1 <1>   0.0800 
 37 H        2.1920     6.6440    -1.2770 H     1 <1>   0.0800 
 38 H        3.4220     4.4670    -1.2880 H     1 <1>   0.0800 
 39 H        2.6880     3.0470    -0.6200 H     1 <1>   0.0800 
 40 H        1.4450     6.3370     1.6350 H     1 <1>   0.0800 
 41 H        2.2780     7.6880     0.9200 H     1 <1>   0.0800 
 42 H        4.3730     4.0230     0.9100 H     1 <1>   0.0800 
 43 H        2.7920     3.9880     1.6270 H     1 <1>   0.0800 
 44 H        4.2720     7.9970     2.4530 H     1 <1>   0.1500 
 45 H        7.1830     6.4840    -1.0660 H     1 <1>   0.1500 
 46 H        6.3910     9.2430     2.0610 H     1 <1>   0.1500 
 47 H       10.4860     9.8810     0.1800 H     1 <1>   0.0800 
 48 H        9.7980    11.2500     1.0000 H     1 <1>   0.0800 
 49 H        7.1090    11.5890     0.6730 H     1 <1>   0.0800 
 50 H        6.3340    10.4160    -0.3590 H     1 <1>   0.0800 
 51 H        9.9400    10.8580    -2.0070 H     1 <1>   0.0800 
 52 H       10.8180    12.0400    -1.0610 H     1 <1>   0.0800 
 53 H        6.8690    12.5750    -1.5340 H     1 <1>   0.0800 
 54 H        7.6050    11.1840    -2.2970 H     1 <1>   0.0800 
@<TRIPOS>BOND
  1   1   2  1   
  2   2   3  1   
  3   2   4  1   
  4   2   5  1   
  5   5   6  ar  
  6   5   7  ar  
  7   6   8  ar  
  8   7   9  ar  
  9   7  32  1   
 10   8  10  ar  
 11   8  11  1   
 12   9  10  ar  
 13   9  12  1   
 14  11  13  1   
 15  11  14  1   
 16  12  33  1   
 17  12  34  1   
 18  12  35  1   
 19  13  15  1   
 20  13  36  1   
 21  13  37  1   
 22  14  16  1   
 23  14  38  1   
 24  14  39  1   
 25  15  17  1   
 26  15  40  1   
 27  15  41  1   
 28  16  17  1   
 29  16  42  1   
 30  16  43  1   
 31  17  18  1   
 32  18  19  ar  
 33  18  20  ar  
 34  19  21  ar  
 35  20  22  ar  
 36  20  44  1   
 37  21  23  ar  
 38  21  45  1   
 39  22  23  ar  
 40  22  46  1   
 41  23  24  1   
 42  24  25  2   
 43  24  26  am  
 44  26  27  1   
 45  26  28  1   
 46  27  29  1   
 47  27  47  1   
 48  27  48  1   
 49  28  30  1   
 50  28  49  1   
 51  28  50  1   
 52  29  31  1   
 53  29  51  1   
 54  29  52  1   
 55  30  31  1   
 56  30  53  1   
 57  30  54  1   
@<TRIPOS>SUBSTRUCTURE
  1 ****  17 GROUP 4 **** **** 0

# MOE 2024.06 (io_trps.svl 2023.06)
