@<TRIPOS>MOLECULE
NONAME
48 50 1 0 0 
SMALL
USER_CHARGES


@<TRIPOS>ATOM
  1 S       -0.3050     1.1890     1.0700 S.3   1 <1>  -0.0800 
  2 C       -1.8790     0.4150     1.1870 C.2   1 <1>  -0.1400 
  3 C       -0.8890     2.2870    -0.1660 C.2   1 <1>  -0.1100 
  4 C       -2.7520     0.9830     0.3300 C.2   1 <1>  -0.1810 
  5 C       -2.0170    -0.7320     2.1720 C.3   1 <1>   0.3200 
  6 C       -2.1840     2.0490    -0.4380 C.2   1 <1>  -0.1500 
  7 C       -4.2020     0.5800     0.1270 C.3   1 <1>  -0.0590 
  8 N       -2.1020    -2.0220     1.4270 N.am  1 <1>  -0.6600 
  9 C       -3.2290    -2.8030     1.5260 C.2   1 <1>   0.5690 
 10 C       -0.8680    -2.4080     0.6730 C.3   1 <1>   0.1400 
 11 O       -4.0590    -2.5820     2.3820 O.2   1 <1>  -0.5700 
 12 C       -3.4830    -3.9500     0.5360 C.3   1 <1>   0.2610 
 13 C       -0.9040    -1.9690    -0.8030 C.3   1 <1>   0.1200 
 14 O       -2.7380    -5.1110     0.8730 O.3   1 <1>  -0.5600 
 15 C       -4.9920    -4.2740     0.4110 C.3   1 <1>   0.3640 
 16 O       -1.1770    -3.0560    -1.6300 O.3   1 <1>  -0.6800 
 17 C       -2.8000    -6.1280    -0.1050 C.3   1 <1>   0.1810 
 18 N       -5.2110    -5.5420    -0.3260 N.am  1 <1>  -0.7300 
 19 C       -5.7350    -3.1530    -0.3120 C.ar  1 <1>  -0.1430 
 20 C       -4.2290    -6.4390    -0.5650 C.2   1 <1>   0.5690 
 21 C       -6.6020    -2.3310     0.3940 C.ar  1 <1>  -0.1500 
 22 C       -5.5510    -2.9280    -1.6710 C.ar  1 <1>  -0.1500 
 23 O       -4.4630    -7.4630    -1.1560 O.2   1 <1>  -0.5700 
 24 C       -7.2770    -1.3060    -0.2460 C.ar  1 <1>  -0.1500 
 25 C       -6.2240    -1.9020    -2.3110 C.ar  1 <1>  -0.1500 
 26 C       -7.0890    -1.0910    -1.5990 C.ar  1 <1>  -0.1500 
 27 H       -0.1920     3.0040    -0.5610 H     1 <1>   0.1500 
 28 H       -2.9010    -0.5690     2.7630 H     1 <1>   0.0800 
 29 H       -1.1760    -0.7540     2.8420 H     1 <1>   0.0800 
 30 H       -2.7760     2.5860    -1.1590 H     1 <1>   0.1500 
 31 H       -4.8460     1.4260     0.2870 H     1 <1>   0.0800 
 32 H       -4.4850    -0.1970     0.8130 H     1 <1>   0.0800 
 33 H       -4.3450     0.2160    -0.8740 H     1 <1>   0.0800 
 34 H       -0.0240    -1.9330     1.1440 H     1 <1>   0.0800 
 35 H       -0.7110    -3.4700     0.7430 H     1 <1>   0.0800 
 36 H       -3.1540    -3.6210    -0.4270 H     1 <1>   0.0800 
 37 H        0.0480    -1.5630    -1.0980 H     1 <1>   0.0800 
 38 H       -1.6640    -1.2250    -0.9650 H     1 <1>   0.0800 
 39 H       -5.4040    -4.3940     1.3990 H     1 <1>   0.0800 
 40 H       -0.3850    -3.6210    -1.7260 H     1 <1>   0.4000 
 41 H       -2.2150    -5.8180    -0.9510 H     1 <1>   0.0800 
 42 H       -2.3610    -7.0140     0.3160 H     1 <1>   0.0800 
 43 H       -6.1580    -5.7370    -0.6500 H     1 <1>   0.3700 
 44 H       -6.7510    -2.4800     1.4500 H     1 <1>   0.1500 
 45 H       -4.8820    -3.5520    -2.2400 H     1 <1>   0.1500 
 46 H       -7.9480    -0.6750     0.3120 H     1 <1>   0.1500 
 47 H       -6.0750    -1.7380    -3.3640 H     1 <1>   0.1500 
 48 H       -7.6140    -0.2950    -2.0970 H     1 <1>   0.1500 
@<TRIPOS>BOND
  1   1   2  1   
  2   1   3  1   
  3   2   4  2   
  4   2   5  1   
  5   3   6  2   
  6   3  27  1   
  7   4   6  1   
  8   4   7  1   
  9   5   8  1   
 10   5  28  1   
 11   5  29  1   
 12   6  30  1   
 13   7  31  1   
 14   7  32  1   
 15   7  33  1   
 16   8   9  am  
 17   8  10  1   
 18   9  11  2   
 19   9  12  1   
 20  10  13  1   
 21  10  34  1   
 22  10  35  1   
 23  12  14  1   
 24  12  15  1   
 25  12  36  1   
 26  13  16  1   
 27  13  37  1   
 28  13  38  1   
 29  14  17  1   
 30  15  18  1   
 31  15  19  1   
 32  15  39  1   
 33  16  40  1   
 34  17  20  1   
 35  17  41  1   
 36  17  42  1   
 37  18  20  am  
 38  18  43  1   
 39  19  21  ar  
 40  19  22  ar  
 41  20  23  2   
 42  21  24  ar  
 43  21  44  1   
 44  22  25  ar  
 45  22  45  1   
 46  24  26  ar  
 47  24  46  1   
 48  25  26  ar  
 49  25  47  1   
 50  26  48  1   
@<TRIPOS>SUBSTRUCTURE
  1 ****   9 GROUP 4 **** **** 0

# MOE 2024.06 (io_trps.svl 2023.06)
