@<TRIPOS>MOLECULE
NONAME
51 54 1 0 0 
SMALL
USER_CHARGES


@<TRIPOS>ATOM
  1 O       -0.0960    -0.5000     0.5950 O.2   1 <1>  -0.5700 
  2 C       -1.0740     0.2040     0.5120 C.2   1 <1>   0.5690 
  3 N       -2.2740    -0.2890     0.0800 N.am  1 <1>  -0.6600 
  4 C       -0.9330     1.6660     0.8940 C.3   1 <1>  -0.0990 
  5 C       -3.5250     0.4770    -0.1410 C.3   1 <1>   0.1400 
  6 C       -2.4450    -1.7070    -0.3120 C.3   1 <1>   0.1400 
  7 C       -0.5430     2.5240    -0.3180 C.3   1 <1>  -0.0650 
  8 C       -4.4520    -0.4910    -0.8770 C.3   1 <1>   0.2000 
  9 C       -3.9480    -1.8900    -0.5280 C.3   1 <1>  -0.0800 
 10 C       -0.5980     4.0290    -0.0100 C.3   1 <1>  -0.1900 
 11 O       -5.7680    -0.3440    -0.4690 O.3   1 <1>  -0.6800 
 12 C       -4.2900    -2.9330    -1.6040 C.3   1 <1>  -0.0170 
 13 C       -0.9050     4.9610    -1.1360 C.3   1 <1>  -0.2000 
 14 C       -1.9190     4.7240    -0.0460 C.3   1 <1>  -0.2000 
 15 C        0.4420     4.4850     1.0220 C.3   1 <1>  -0.1450 
 16 C       -3.8110    -4.3220    -1.1950 C.ar  1 <1>  -0.1440 
 17 C       -4.5170    -5.1220    -0.2650 C.ar  1 <1>   0.0000 
 18 C       -2.6620    -4.8340    -1.7230 C.ar  1 <1>  -0.1500 
 19 C       -3.9700    -6.3880     0.0610 C.ar  1 <1>   0.3100 
 20 C       -5.7290    -4.7440     0.3590 C.ar  1 <1>  -0.1500 
 21 C       -2.2120    -6.1020    -1.3370 C.ar  1 <1>   0.1600 
 22 N       -2.8220    -6.8620    -0.4840 N.ar  1 <1>  -0.6200 
 23 C       -4.6410    -7.1980     0.9900 C.ar  1 <1>  -0.1500 
 24 C       -6.3590    -5.5600     1.2590 C.ar  1 <1>  -0.1500 
 25 C       -5.8090    -6.8020     1.5820 C.ar  1 <1>  -0.1500 
 26 H       -1.8500     2.0220     1.3220 H     1 <1>   0.0800 
 27 H       -0.1720     1.7400     1.6480 H     1 <1>   0.0800 
 28 H       -3.9400     0.7560     0.8120 H     1 <1>   0.0800 
 29 H       -3.3380     1.3510    -0.7380 H     1 <1>   0.0800 
 30 H       -1.8970    -1.8820    -1.2220 H     1 <1>   0.0800 
 31 H       -2.0730    -2.3640     0.4560 H     1 <1>   0.0800 
 32 H       -1.2100     2.3050    -1.1330 H     1 <1>   0.0800 
 33 H        0.4490     2.2570    -0.6400 H     1 <1>   0.0800 
 34 H       -4.4010    -0.3070    -1.9370 H     1 <1>   0.0800 
 35 H       -4.3640    -2.1920     0.4170 H     1 <1>   0.0800 
 36 H       -5.8520    -0.5280     0.4870 H     1 <1>   0.4000 
 37 H       -3.8270    -2.6500    -2.5340 H     1 <1>   0.0800 
 38 H       -5.3510    -2.9480    -1.7810 H     1 <1>   0.0800 
 39 H       -0.4140     5.9170    -1.1780 H     1 <1>   0.1000 
 40 H       -1.1010     4.5610    -2.1160 H     1 <1>   0.1000 
 41 H       -2.8060     4.1640    -0.2870 H     1 <1>   0.1000 
 42 H       -2.1140     5.5170     0.6550 H     1 <1>   0.1000 
 43 H        0.4200     5.5540     1.1370 H     1 <1>   0.0800 
 44 H        1.4290     4.1990     0.7040 H     1 <1>   0.0800 
 45 H        0.2450     4.0430     1.9810 H     1 <1>   0.0800 
 46 H       -2.0750    -4.2870    -2.4380 H     1 <1>   0.1500 
 47 H       -6.1730    -3.7960     0.1220 H     1 <1>   0.1500 
 48 H       -1.3000    -6.4670    -1.7780 H     1 <1>   0.1500 
 49 H       -4.2000    -8.1510     1.2220 H     1 <1>   0.1500 
 50 H       -7.2810    -5.2600     1.7270 H     1 <1>   0.1500 
 51 H       -6.3120    -7.4350     2.2930 H     1 <1>   0.1500 
@<TRIPOS>BOND
  1   1   2  2   
  2   2   3  am  
  3   2   4  1   
  4   3   5  1   
  5   3   6  1   
  6   4   7  1   
  7   4  26  1   
  8   4  27  1   
  9   5   8  1   
 10   5  28  1   
 11   5  29  1   
 12   6   9  1   
 13   6  30  1   
 14   6  31  1   
 15   7  10  1   
 16   7  32  1   
 17   7  33  1   
 18   8   9  1   
 19   8  11  1   
 20   8  34  1   
 21   9  12  1   
 22   9  35  1   
 23  10  13  1   
 24  10  14  1   
 25  10  15  1   
 26  11  36  1   
 27  12  16  1   
 28  12  37  1   
 29  12  38  1   
 30  13  14  1   
 31  13  39  1   
 32  13  40  1   
 33  14  41  1   
 34  14  42  1   
 35  15  43  1   
 36  15  44  1   
 37  15  45  1   
 38  16  17  ar  
 39  16  18  ar  
 40  17  19  ar  
 41  17  20  ar  
 42  18  21  ar  
 43  18  46  1   
 44  19  22  ar  
 45  19  23  ar  
 46  20  24  ar  
 47  20  47  1   
 48  21  22  ar  
 49  21  48  1   
 50  23  25  ar  
 51  23  49  1   
 52  24  25  ar  
 53  24  50  1   
 54  25  51  1   
@<TRIPOS>SUBSTRUCTURE
  1 ****   6 GROUP 4 **** **** 0

# MOE 2024.06 (io_trps.svl 2023.06)
