@<TRIPOS>MOLECULE
NONAME
43 45 1 0 0 
SMALL
USER_CHARGES


@<TRIPOS>ATOM
  1 CL      -1.2220    -0.4290    -1.7150 Cl    1 <1>  -0.1770 
  2 C       -2.0040     0.7470    -0.6770 C.ar  1 <1>   0.1770 
  3 C       -1.7110     2.0960    -0.8480 C.ar  1 <1>   0.0830 
  4 C       -2.9030     0.3210     0.2890 C.ar  1 <1>  -0.1440 
  5 O       -0.8410     2.5120    -1.7860 O.3   1 <1>  -0.5320 
  6 C       -2.3200     3.0430    -0.0420 C.ar  1 <1>  -0.1500 
  7 C       -3.4930     1.2900     1.0900 C.ar  1 <1>   0.1770 
  8 C       -3.2210    -1.1490     0.4850 C.3   1 <1>   0.4870 
  9 C       -3.2150     2.6370     0.9340 C.ar  1 <1>  -0.1500 
 10 CL      -4.6350     0.8200     2.3260 Cl    1 <1>  -0.1770 
 11 N       -3.8640    -1.7570    -0.7300 N.4   1 <1>  -0.9590 
 12 C       -5.3330    -1.5490    -0.9440 C.3   1 <1>   0.4230 
 13 C       -3.5560    -3.2200    -0.7700 C.3   1 <1>   0.2630 
 14 C       -6.2140    -1.8320     0.2710 C.3   1 <1>  -0.1600 
 15 C       -5.7120    -0.1420    -1.3870 C.3   1 <1>  -0.1600 
 16 C       -7.5460    -1.1410    -0.0550 C.3   1 <1>  -0.0800 
 17 C       -7.2100    -0.0240    -1.0760 C.3   1 <1>  -0.0800 
 18 C       -8.3170    -0.6890     1.2050 C.3   1 <1>   0.1400 
 19 C       -7.6210     1.3920    -0.6220 C.3   1 <1>  -0.0990 
 20 N       -9.2870     0.3610     0.8400 N.am  1 <1>  -0.7300 
 21 C       -9.0020     1.3710    -0.0070 C.2   1 <1>   0.5690 
 22 O       -9.8050     2.2290    -0.2630 O.2   1 <1>  -0.5700 
 23 H       -0.3980     1.7900    -2.2740 H     1 <1>   0.4500 
 24 H       -2.0900     4.0860    -0.1790 H     1 <1>   0.1500 
 25 H       -3.8410    -1.2930     1.3530 H     1 <1>   0.0800 
 26 H       -2.2890    -1.6550     0.6780 H     1 <1>   0.0800 
 27 H       -3.6920     3.3630     1.5710 H     1 <1>   0.1500 
 28 H       -3.3870    -1.3290    -1.5380 H     1 <1>   0.4500 
 29 H       -5.6590    -2.2110    -1.7310 H     1 <1>   0.0800 
 30 H       -4.0150    -3.7240     0.0660 H     1 <1>   0.0800 
 31 H       -2.4910    -3.3810    -0.7290 H     1 <1>   0.0800 
 32 H       -3.9300    -3.6560    -1.6820 H     1 <1>   0.0800 
 33 H       -6.3580    -2.8880     0.4240 H     1 <1>   0.0800 
 34 H       -5.8080    -1.3930     1.1600 H     1 <1>   0.0800 
 35 H       -5.1850     0.6030    -0.8300 H     1 <1>   0.0800 
 36 H       -5.5270     0.0040    -2.4370 H     1 <1>   0.0800 
 37 H       -8.1720    -1.8560    -0.5630 H     1 <1>   0.0800 
 38 H       -7.7650    -0.2420    -1.9750 H     1 <1>   0.0800 
 39 H       -7.6420    -0.2800     1.9380 H     1 <1>   0.0800 
 40 H       -8.8340    -1.5250     1.6460 H     1 <1>   0.0800 
 41 H       -7.6140     2.0690    -1.4580 H     1 <1>   0.0800 
 42 H       -6.9440     1.7680     0.1230 H     1 <1>   0.0800 
 43 H      -10.2050     0.3720     1.2940 H     1 <1>   0.3700 
@<TRIPOS>BOND
  1   1   2  1   
  2   2   3  ar  
  3   2   4  ar  
  4   3   5  1   
  5   3   6  ar  
  6   4   7  ar  
  7   4   8  1   
  8   5  23  1   
  9   6   9  ar  
 10   6  24  1   
 11   7   9  ar  
 12   7  10  1   
 13   8  11  1   
 14   8  25  1   
 15   8  26  1   
 16   9  27  1   
 17  11  12  1   
 18  11  13  1   
 19  11  28  1   
 20  12  14  1   
 21  12  15  1   
 22  12  29  1   
 23  13  30  1   
 24  13  31  1   
 25  13  32  1   
 26  14  16  1   
 27  14  33  1   
 28  14  34  1   
 29  15  17  1   
 30  15  35  1   
 31  15  36  1   
 32  16  17  1   
 33  16  18  1   
 34  16  37  1   
 35  17  19  1   
 36  17  38  1   
 37  18  20  1   
 38  18  39  1   
 39  18  40  1   
 40  19  21  1   
 41  19  41  1   
 42  19  42  1   
 43  20  21  am  
 44  20  43  1   
 45  21  22  2   
@<TRIPOS>SUBSTRUCTURE
  1 ****  15 GROUP 4 **** **** 0

# MOE 2024.06 (io_trps.svl 2023.06)
