@<TRIPOS>MOLECULE
NONAME
38 39 1 0 0 
SMALL
USER_CHARGES


@<TRIPOS>ATOM
  1 O        4.3800    -0.7090    -0.3540 O.2   1 <1>  -0.5700 
  2 C        3.3840    -1.2070     0.1170 C.2   1 <1>   0.5690 
  3 N        2.4760    -0.4790     0.8430 N.am  1 <1>  -0.4940 
  4 C        3.1380    -2.7180    -0.1130 C.3   1 <1>   0.3170 
  5 C        2.4290     0.8700     1.2070 C.2   1 <1>   0.2040 
  6 N        1.9800    -3.1660     0.7380 N.pl3 1 <1>   0.0480 
  7 C        4.3840    -3.5480     0.2660 C.3   1 <1>  -0.2400 
  8 C        2.8370    -2.9760    -1.6050 C.3   1 <1>  -0.2400 
  9 O        1.7410     1.1760     2.2800 O.3   1 <1>  -0.0190 
 10 C        2.9220     2.0250     0.7050 C.2   1 <1>  -0.1810 
 11 C        1.9990    -3.3110     2.0970 C.2   1 <1>  -0.3020 
 12 C        0.6780    -3.3390     0.3600 C.2   1 <1>  -0.3020 
 13 N        1.7540     2.4570     2.5310 N.2   1 <1>  -0.4100 
 14 C        2.4580     2.9900     1.6000 C.2   1 <1>   0.1080 
 15 C        3.7560     2.3010    -0.5370 C.3   1 <1>   0.0210 
 16 C        0.7510    -3.5780     2.5570 C.2   1 <1>  -0.1500 
 17 C       -0.0940    -3.5960     1.4470 C.2   1 <1>  -0.1500 
 18 C        2.7170     4.4800     1.5200 C.3   1 <1>  -0.0590 
 19 C        5.2340     2.4740    -0.1800 C.3   1 <1>  -0.2400 
 20 H        1.7490    -1.0440     1.2970 H     1 <1>   0.3700 
 21 H        4.6960    -3.3310     1.2720 H     1 <1>   0.0800 
 22 H        5.2050    -3.3030    -0.3850 H     1 <1>   0.0800 
 23 H        4.1800    -4.6000     0.1760 H     1 <1>   0.0800 
 24 H        2.0190    -2.3630    -1.9380 H     1 <1>   0.0800 
 25 H        2.6050    -4.0120    -1.7740 H     1 <1>   0.0800 
 26 H        3.6950    -2.7190    -2.2020 H     1 <1>   0.0800 
 27 H        2.8980    -3.2150     2.6820 H     1 <1>   0.1500 
 28 H        0.3460    -3.2720    -0.6610 H     1 <1>   0.1500 
 29 H        3.3950     3.1900    -1.0230 H     1 <1>   0.0800 
 30 H        3.6440     1.4940    -1.2380 H     1 <1>   0.0800 
 31 H        0.4400    -3.7460     3.5750 H     1 <1>   0.1500 
 32 H       -1.1550    -3.7810     1.4780 H     1 <1>   0.1500 
 33 H        2.4370     4.8520     0.5520 H     1 <1>   0.0800 
 34 H        3.7570     4.6790     1.6940 H     1 <1>   0.0800 
 35 H        2.1380     4.9920     2.2670 H     1 <1>   0.0800 
 36 H        5.3710     3.3080     0.4830 H     1 <1>   0.0800 
 37 H        5.8110     2.6390    -1.0720 H     1 <1>   0.0800 
 38 H        5.6000     1.5860     0.3040 H     1 <1>   0.0800 
@<TRIPOS>BOND
  1   1   2  2   
  2   2   3  am  
  3   2   4  1   
  4   3   5  1   
  5   3  20  1   
  6   4   6  1   
  7   4   7  1   
  8   4   8  1   
  9   5   9  1   
 10   5  10  2   
 11   6  11  1   
 12   6  12  1   
 13   7  21  1   
 14   7  22  1   
 15   7  23  1   
 16   8  24  1   
 17   8  25  1   
 18   8  26  1   
 19   9  13  1   
 20  10  14  1   
 21  10  15  1   
 22  11  16  2   
 23  11  27  1   
 24  12  17  2   
 25  12  28  1   
 26  13  14  2   
 27  14  18  1   
 28  15  19  1   
 29  15  29  1   
 30  15  30  1   
 31  16  17  1   
 32  16  31  1   
 33  17  32  1   
 34  18  33  1   
 35  18  34  1   
 36  18  35  1   
 37  19  36  1   
 38  19  37  1   
 39  19  38  1   
@<TRIPOS>SUBSTRUCTURE
  1 ****   3 GROUP 4 **** **** 0

# MOE 2024.06 (io_trps.svl 2023.06)
