@<TRIPOS>MOLECULE
NONAME
29 30 1 0 0 
SMALL
USER_CHARGES


@<TRIPOS>ATOM
  1 S       -1.1900     0.2260     0.7920 S.3   1 <1>  -0.0800 
  2 C       -1.0400    -1.0810    -0.3330 C.2   1 <1>   0.4420 
  3 C       -0.0730     1.1120    -0.1920 C.2   1 <1>   0.1980 
  4 N       -0.2270    -0.8100    -1.2880 N.2   1 <1>  -0.3380 
  5 N       -1.7790    -2.2140    -0.0670 N.am  1 <1>  -0.4940 
  6 N        0.3200     0.4400    -1.2010 N.2   1 <1>  -0.3380 
  7 C        0.3140     2.5220     0.2580 C.3   1 <1>   0.3800 
  8 C       -1.8940    -3.3670    -0.7990 C.2   1 <1>   0.5690 
  9 O       -0.8470     3.2360     0.5840 O.3   1 <1>  -0.5600 
 10 C        1.0620     3.3010    -0.8300 C.3   1 <1>  -0.2400 
 11 O       -1.3690    -3.5350    -1.8680 O.2   1 <1>  -0.5700 
 12 C       -2.7160    -4.5130    -0.2540 C.3   1 <1>   0.1570 
 13 C       -0.6980     4.2310     1.5490 C.3   1 <1>   0.0400 
 14 N       -3.9970    -4.0100     0.2450 N.pl3 1 <1>   0.3140 
 15 N       -4.1180    -3.4130     1.4110 N.2   1 <1>  -0.4180 
 16 C       -5.1840    -4.0040    -0.3310 C.2   1 <1>   0.0360 
 17 N       -5.3530    -3.0730     1.5160 N.2   1 <1>   0.0000 
 18 N       -6.0330    -3.4350     0.4330 N.2   1 <1>  -0.3380 
 19 H       -2.3600    -2.1520     0.7730 H     1 <1>   0.3700 
 20 H        0.9250     2.4340     1.1390 H     1 <1>   0.0800 
 21 H        0.4330     3.4120    -1.6960 H     1 <1>   0.0800 
 22 H        1.9440     2.7600    -1.1200 H     1 <1>   0.0800 
 23 H        1.3630     4.2690    -0.4760 H     1 <1>   0.0800 
 24 H       -2.1860    -4.9870     0.5490 H     1 <1>   0.0800 
 25 H       -2.8950    -5.2320    -1.0310 H     1 <1>   0.0800 
 26 H       -1.6610     4.6840     1.7090 H     1 <1>   0.0800 
 27 H       -0.0050     4.9760     1.2000 H     1 <1>   0.0800 
 28 H       -0.3520     3.7890     2.4670 H     1 <1>   0.0800 
 29 H       -5.3900    -4.4170    -1.3010 H     1 <1>   0.1500 
@<TRIPOS>BOND
  1   1   2  1   
  2   1   3  1   
  3   2   4  2   
  4   2   5  1   
  5   3   6  2   
  6   3   7  1   
  7   4   6  1   
  8   5   8  am  
  9   5  19  1   
 10   7   9  1   
 11   7  10  1   
 12   7  20  1   
 13   8  11  2   
 14   8  12  1   
 15   9  13  1   
 16  10  21  1   
 17  10  22  1   
 18  10  23  1   
 19  12  14  1   
 20  12  24  1   
 21  12  25  1   
 22  13  26  1   
 23  13  27  1   
 24  13  28  1   
 25  14  15  1   
 26  14  16  1   
 27  15  17  2   
 28  16  18  2   
 29  16  29  1   
 30  17  18  1   
@<TRIPOS>SUBSTRUCTURE
  1 ****   2 GROUP 4 **** **** 0

# MOE 2024.06 (io_trps.svl 2023.06)
