@<TRIPOS>MOLECULE
NONAME
58 61 1 0 0 
SMALL
USER_CHARGES


@<TRIPOS>ATOM
  1 S        0.0550    -0.7920    -1.8170 S.3   1 <1>  -0.0800 
  2 C        1.3930    -1.4890    -0.9060 C.ar  1 <1>   0.2970 
  3 C        0.5290     0.8320    -1.3330 C.2   1 <1>  -0.1400 
  4 N        1.6050    -2.7880    -0.8440 N.ar  1 <1>  -0.5670 
  5 C        2.1340    -0.5090    -0.2860 C.ar  1 <1>   0.0000 
  6 C        1.6250     0.8170    -0.5590 C.2   1 <1>  -0.1810 
  7 C       -0.2790     2.0240    -1.7970 C.3   1 <1>   0.0200 
  8 C        2.6510    -3.0980    -0.1000 C.ar  1 <1>   0.4770 
  9 C        3.1970    -0.9980     0.4780 C.ar  1 <1>   0.4100 
 10 C        2.2300     2.1120    -0.0370 C.3   1 <1>   0.0210 
 11 C        0.1300     3.2560    -0.9700 C.3   1 <1>  -0.1600 
 12 N        3.4540    -2.2860     0.5710 N.ar  1 <1>  -0.6200 
 13 C        2.9350    -4.5960     0.0480 C.3   1 <1>   0.4870 
 14 N        4.0400    -0.2130     1.1900 N.pl3 1 <1>  -0.9000 
 15 C        1.6580     3.3380    -0.7800 C.3   1 <1>  -0.1600 
 16 N        1.6930    -5.3750     0.3990 N.4   1 <1>  -0.9590 
 17 C        1.9050    -6.8480     0.3070 C.3   1 <1>   0.3430 
 18 C        1.1280    -4.9510     1.7120 C.3   1 <1>   0.3430 
 19 C        0.5740    -7.6120     0.4530 C.3   1 <1>   0.0000 
 20 C       -0.2030    -5.6580     1.9590 C.3   1 <1>  -0.1600 
 21 C       -0.0620    -7.1770     1.8000 C.3   1 <1>   0.2000 
 22 C       -0.3620    -7.2760    -0.7390 C.3   1 <1>   0.1200 
 23 C        0.8560    -9.1410     0.4160 C.3   1 <1>  -0.1600 
 24 O       -1.3120    -7.7410     1.9670 O.3   1 <1>  -0.6800 
 25 O        0.3720    -7.1960    -1.9150 O.3   1 <1>  -0.6800 
 26 C        1.8070    -9.6880     1.4980 C.3   1 <1>  -0.1600 
 27 C        2.0300   -11.1910     1.3040 C.3   1 <1>  -0.2400 
 28 H       -0.0820     2.1940    -2.8410 H     1 <1>   0.0800 
 29 H       -1.3300     1.8320    -1.6730 H     1 <1>   0.0800 
 30 H        2.0170     2.1940     1.0150 H     1 <1>   0.0800 
 31 H        3.2960     2.1010    -0.1730 H     1 <1>   0.0800 
 32 H       -0.2300     4.1470    -1.4550 H     1 <1>   0.0800 
 33 H       -0.3370     3.1960    -0.0020 H     1 <1>   0.0800 
 34 H        3.6850    -4.7310     0.8080 H     1 <1>   0.0800 
 35 H        3.3330    -4.9500    -0.8880 H     1 <1>   0.0800 
 36 H        4.8680    -0.6370     1.6120 H     1 <1>   0.4000 
 37 H        4.0710     0.7990     1.0690 H     1 <1>   0.4000 
 38 H        1.9090     4.2330    -0.2360 H     1 <1>   0.0800 
 39 H        2.1220     3.4040    -1.7490 H     1 <1>   0.0800 
 40 H        1.0180    -5.1160    -0.3410 H     1 <1>   0.4500 
 41 H        2.3460    -7.0980    -0.6450 H     1 <1>   0.0800 
 42 H        2.5840    -7.1610     1.0830 H     1 <1>   0.0800 
 43 H        1.8190    -5.1990     2.5020 H     1 <1>   0.0800 
 44 H        0.9720    -3.8830     1.7240 H     1 <1>   0.0800 
 45 H       -0.9420    -5.2580     1.2900 H     1 <1>   0.0800 
 46 H       -0.5210    -5.4400     2.9640 H     1 <1>   0.0800 
 47 H        0.5450    -7.5380     2.6130 H     1 <1>   0.0800 
 48 H       -0.8590    -6.3310    -0.6130 H     1 <1>   0.0800 
 49 H       -1.1120    -8.0410    -0.8580 H     1 <1>   0.0800 
 50 H       -0.0800    -9.6680     0.5030 H     1 <1>   0.0800 
 51 H        1.2640    -9.3940    -0.5490 H     1 <1>   0.0800 
 52 H       -1.9870    -7.3330     1.3930 H     1 <1>   0.4000 
 53 H       -0.2190    -7.2160    -2.7000 H     1 <1>   0.4000 
 54 H        2.7640    -9.2000     1.4590 H     1 <1>   0.0800 
 55 H        1.3860    -9.5400     2.4780 H     1 <1>   0.0800 
 56 H        2.4750   -11.3900     0.3440 H     1 <1>   0.0800 
 57 H        1.0970   -11.7230     1.3680 H     1 <1>   0.0800 
 58 H        2.6870   -11.5690     2.0670 H     1 <1>   0.0800 
@<TRIPOS>BOND
  1   1   2  1   
  2   1   3  1   
  3   2   4  ar  
  4   2   5  ar  
  5   3   6  2   
  6   3   7  1   
  7   4   8  ar  
  8   5   6  1   
  9   5   9  ar  
 10   6  10  1   
 11   7  11  1   
 12   7  28  1   
 13   7  29  1   
 14   8  12  ar  
 15   8  13  1   
 16   9  12  ar  
 17   9  14  1   
 18  10  15  1   
 19  10  30  1   
 20  10  31  1   
 21  11  15  1   
 22  11  32  1   
 23  11  33  1   
 24  13  16  1   
 25  13  34  1   
 26  13  35  1   
 27  14  36  1   
 28  14  37  1   
 29  15  38  1   
 30  15  39  1   
 31  16  17  1   
 32  16  18  1   
 33  16  40  1   
 34  17  19  1   
 35  17  41  1   
 36  17  42  1   
 37  18  20  1   
 38  18  43  1   
 39  18  44  1   
 40  19  21  1   
 41  19  22  1   
 42  19  23  1   
 43  20  21  1   
 44  20  45  1   
 45  20  46  1   
 46  21  24  1   
 47  21  47  1   
 48  22  25  1   
 49  22  48  1   
 50  22  49  1   
 51  23  26  1   
 52  23  50  1   
 53  23  51  1   
 54  24  52  1   
 55  25  53  1   
 56  26  27  1   
 57  26  54  1   
 58  26  55  1   
 59  27  56  1   
 60  27  57  1   
 61  27  58  1   
@<TRIPOS>SUBSTRUCTURE
  1 ****   4 GROUP 4 **** **** 0

# MOE 2024.06 (io_trps.svl 2023.06)
