@<TRIPOS>MOLECULE
NONAME
49 53 1 0 0 
SMALL
USER_CHARGES


@<TRIPOS>ATOM
  1 S       -0.1580     1.1100     2.5100 S.3   1 <1>  -0.0800 
  2 C       -0.1190     2.2310     1.1660 C.2   1 <1>  -0.1400 
  3 C        1.5300     1.4470     2.8650 C.2   1 <1>  -0.1100 
  4 C        1.0890     2.7900     1.0150 C.2   1 <1>  -0.1810 
  5 C       -1.3220     2.5120     0.3070 C.3   1 <1>   0.0200 
  6 C        2.0370     2.3440     1.9960 C.2   1 <1>  -0.1500 
  7 C        1.3590     3.7920    -0.1100 C.3   1 <1>   0.4610 
  8 C       -1.0480     3.8260    -0.4410 C.3   1 <1>   0.1200 
  9 O        0.2490     3.8410    -0.9900 O.3   1 <1>  -0.5600 
 10 C        1.6150     5.1980     0.4520 C.3   1 <1>  -0.1600 
 11 C        2.5510     3.3330    -0.9580 C.3   1 <1>  -0.1600 
 12 C        1.9620     6.1960    -0.6540 C.3   1 <1>   0.1400 
 13 C        2.8930     4.3490    -2.0480 C.3   1 <1>   0.1400 
 14 N        3.1280     5.6790    -1.4210 N.am  1 <1>  -0.6600 
 15 C        4.3780     6.2650    -1.4040 C.2   1 <1>   0.5440 
 16 O        5.3480     5.5880    -1.6930 O.2   1 <1>  -0.5700 
 17 C        4.5690     7.6530    -1.0320 C.ar  1 <1>   0.0860 
 18 C        5.5060     8.0110    -0.0630 C.ar  1 <1>  -0.1500 
 19 C        3.8310     8.6780    -1.6280 C.ar  1 <1>  -0.1500 
 20 C        5.6910     9.3270     0.3230 C.ar  1 <1>  -0.1430 
 21 C        4.0020     9.9960    -1.2510 C.ar  1 <1>  -0.1500 
 22 C        4.9230    10.3250    -0.2720 C.ar  1 <1>   0.0830 
 23 C        6.7240     9.6760     1.3800 C.3   1 <1>  -0.0170 
 24 O        5.0540    11.6270     0.0660 O.3   1 <1>  -0.3620 
 25 C        7.0750    11.1640     1.3060 C.3   1 <1>  -0.1600 
 26 C        5.7940    11.9960     1.2130 C.3   1 <1>   0.1200 
 27 H        1.9700     0.9300     3.6990 H     1 <1>   0.1500 
 28 H       -2.2030     2.6130     0.9140 H     1 <1>   0.0800 
 29 H       -1.4700     1.7080    -0.3910 H     1 <1>   0.0800 
 30 H        3.0480     2.7130     2.0060 H     1 <1>   0.1500 
 31 H       -1.1470     4.6640     0.2260 H     1 <1>   0.0800 
 32 H       -1.7480     3.9450    -1.2490 H     1 <1>   0.0800 
 33 H        2.4380     5.1550     1.1410 H     1 <1>   0.0800 
 34 H        0.7600     5.5380     1.0040 H     1 <1>   0.0800 
 35 H        2.3250     2.3800    -1.4010 H     1 <1>   0.0800 
 36 H        3.4170     3.2050    -0.3360 H     1 <1>   0.0800 
 37 H        2.1800     7.1510    -0.2110 H     1 <1>   0.0800 
 38 H        1.1250     6.3150    -1.3210 H     1 <1>   0.0800 
 39 H        2.0780     4.4280    -2.7470 H     1 <1>   0.0800 
 40 H        3.7640     4.0230    -2.5910 H     1 <1>   0.0800 
 41 H        6.0950     7.2290     0.3850 H     1 <1>   0.1500 
 42 H        3.1180     8.4290    -2.3940 H     1 <1>   0.1500 
 43 H        3.4290    10.7800    -1.7130 H     1 <1>   0.1500 
 44 H        7.6140     9.0870     1.2400 H     1 <1>   0.0800 
 45 H        6.3160     9.4490     2.3490 H     1 <1>   0.0800 
 46 H        7.6800    11.3560     0.4370 H     1 <1>   0.0800 
 47 H        7.6380    11.4510     2.1760 H     1 <1>   0.0800 
 48 H        5.1680    11.8340     2.0730 H     1 <1>   0.0800 
 49 H        6.0210    13.0440     1.1320 H     1 <1>   0.0800 
@<TRIPOS>BOND
  1   1   2  1   
  2   1   3  1   
  3   2   4  2   
  4   2   5  1   
  5   3   6  2   
  6   3  27  1   
  7   4   6  1   
  8   4   7  1   
  9   5   8  1   
 10   5  28  1   
 11   5  29  1   
 12   6  30  1   
 13   7   9  1   
 14   7  10  1   
 15   7  11  1   
 16   8   9  1   
 17   8  31  1   
 18   8  32  1   
 19  10  12  1   
 20  10  33  1   
 21  10  34  1   
 22  11  13  1   
 23  11  35  1   
 24  11  36  1   
 25  12  14  1   
 26  12  37  1   
 27  12  38  1   
 28  13  14  1   
 29  13  39  1   
 30  13  40  1   
 31  14  15  am  
 32  15  16  2   
 33  15  17  1   
 34  17  18  ar  
 35  17  19  ar  
 36  18  20  ar  
 37  18  41  1   
 38  19  21  ar  
 39  19  42  1   
 40  20  22  ar  
 41  20  23  1   
 42  21  22  ar  
 43  21  43  1   
 44  22  24  1   
 45  23  25  1   
 46  23  44  1   
 47  23  45  1   
 48  24  26  1   
 49  25  26  1   
 50  25  46  1   
 51  25  47  1   
 52  26  48  1   
 53  26  49  1   
@<TRIPOS>SUBSTRUCTURE
  1 ****  12 GROUP 4 **** **** 0

# MOE 2024.06 (io_trps.svl 2023.06)
