@<TRIPOS>MOLECULE
NONAME
48 50 1 0 0 
SMALL
USER_CHARGES


@<TRIPOS>ATOM
  1 CL       3.3810    -2.6320     4.2140 Cl    1 <1>  -0.1770 
  2 C        3.5260    -2.5410     2.4790 C.ar  1 <1>   0.1770 
  3 C        2.7830    -3.3670     1.6830 C.ar  1 <1>  -0.1500 
  4 C        4.4150    -1.6200     1.9380 C.ar  1 <1>  -0.1500 
  5 C        2.8640    -3.2930     0.2770 C.ar  1 <1>   0.0000 
  6 C        4.5840    -1.5590     0.5750 C.ar  1 <1>  -0.1440 
  7 C        3.8440    -2.4250    -0.2590 C.ar  1 <1>   0.3610 
  8 C        2.0600    -4.0810    -0.6170 C.ar  1 <1>   0.1000 
  9 C        5.5890    -0.5550     0.0110 C.3   1 <1>  -0.0960 
 10 N        4.1030    -2.4760    -1.6100 N.ar  1 <1>  -0.1790 
 11 N        0.9310    -4.7410    -0.2470 N.pl3 1 <1>  -0.8380 
 12 C        2.4590    -4.1160    -1.9570 C.ar  1 <1>  -0.1500 
 13 C        3.4610    -3.3180    -2.4350 C.ar  1 <1>   0.2110 
 14 C        0.4200    -5.9640    -0.9870 C.3   1 <1>   0.2090 
 15 C       -0.0190    -4.2470     0.8210 C.3   1 <1>   0.2090 
 16 C       -0.6020    -6.7490    -0.1550 C.3   1 <1>   0.2000 
 17 C       -1.4650    -4.4140     0.3530 C.3   1 <1>  -0.1600 
 18 O       -0.9610    -7.9310    -0.7820 O.3   1 <1>  -0.6800 
 19 C       -1.8590    -5.9190     0.2170 C.3   1 <1>  -0.1060 
 20 C       -2.2700    -6.5240     1.5700 C.2   1 <1>   0.9060 
 21 C       -3.0690    -6.0340    -0.7690 C.3   1 <1>  -0.1600 
 22 O       -2.2030    -5.8480     2.6030 O.co2 1 <1>  -0.9000 
 23 O       -2.5960    -7.7200     1.5920 O.co2 1 <1>  -0.9000 
 24 C       -2.8030    -5.7200    -2.2540 C.3   1 <1>  -0.1600 
 25 C       -4.0940    -5.8320    -3.0710 C.3   1 <1>  -0.2400 
 26 H        2.1410    -4.0880     2.1530 H     1 <1>   0.1500 
 27 H        4.9590    -0.9830     2.6160 H     1 <1>   0.1500 
 28 H        5.9990     0.0540     0.7980 H     1 <1>   0.0800 
 29 H        5.1140     0.1070    -0.6930 H     1 <1>   0.0800 
 30 H        6.4100    -1.0620    -0.4660 H     1 <1>   0.0800 
 31 H        4.8390    -1.8610    -1.9630 H     1 <1>   0.4570 
 32 H        1.9430    -4.7590    -2.6460 H     1 <1>   0.1500 
 33 H        3.7360    -3.3460    -3.4770 H     1 <1>   0.1500 
 34 H       -0.0460    -5.6530    -1.9030 H     1 <1>   0.0800 
 35 H        1.2470    -6.6130    -1.2120 H     1 <1>   0.0800 
 36 H        0.1190    -4.8080     1.7320 H     1 <1>   0.0800 
 37 H        0.1620    -3.2070     1.0270 H     1 <1>   0.0800 
 38 H       -0.0920    -7.0420     0.7490 H     1 <1>   0.0800 
 39 H       -2.1240    -3.9290     1.0510 H     1 <1>   0.0800 
 40 H       -1.5620    -3.8880    -0.5760 H     1 <1>   0.0800 
 41 H       -1.6370    -8.3430    -0.1850 H     1 <1>   0.4000 
 42 H       -3.4620    -7.0360    -0.7130 H     1 <1>   0.0800 
 43 H       -3.8500    -5.3870    -0.4080 H     1 <1>   0.0800 
 44 H       -2.4070    -4.7290    -2.3750 H     1 <1>   0.0800 
 45 H       -2.0890    -6.4200    -2.6490 H     1 <1>   0.0800 
 46 H       -4.8270    -5.1310    -2.7120 H     1 <1>   0.0800 
 47 H       -4.4980    -6.8270    -2.9920 H     1 <1>   0.0800 
 48 H       -3.8950    -5.6240    -4.1060 H     1 <1>   0.0800 
@<TRIPOS>BOND
  1   1   2  1   
  2   2   3  ar  
  3   2   4  ar  
  4   3   5  ar  
  5   3  26  1   
  6   4   6  ar  
  7   4  27  1   
  8   5   7  ar  
  9   5   8  ar  
 10   6   7  ar  
 11   6   9  1   
 12   7  10  ar  
 13   8  11  1   
 14   8  12  ar  
 15   9  28  1   
 16   9  29  1   
 17   9  30  1   
 18  10  13  ar  
 19  10  31  1   
 20  11  14  1   
 21  11  15  1   
 22  12  13  ar  
 23  12  32  1   
 24  13  33  1   
 25  14  16  1   
 26  14  34  1   
 27  14  35  1   
 28  15  17  1   
 29  15  36  1   
 30  15  37  1   
 31  16  18  1   
 32  16  19  1   
 33  16  38  1   
 34  17  19  1   
 35  17  39  1   
 36  17  40  1   
 37  18  41  1   
 38  19  20  1   
 39  19  21  1   
 40  20  22  ar  
 41  20  23  ar  
 42  21  24  1   
 43  21  42  1   
 44  21  43  1   
 45  24  25  1   
 46  24  44  1   
 47  24  45  1   
 48  25  46  1   
 49  25  47  1   
 50  25  48  1   
@<TRIPOS>SUBSTRUCTURE
  1 ****  11 GROUP 4 **** **** 0

# MOE 2024.06 (io_trps.svl 2023.06)
