@<TRIPOS>MOLECULE
NONAME
47 49 1 0 0 
SMALL
USER_CHARGES


@<TRIPOS>ATOM
  1 F       -2.8470    -0.0170     2.0180 F     1 <1>  -0.1900 
  2 C       -2.7640     0.9290     1.1220 C.ar  1 <1>   0.1900 
  3 C       -2.5000     2.2160     1.5370 C.ar  1 <1>  -0.1500 
  4 C       -2.9410     0.6020    -0.2060 C.ar  1 <1>  -0.1500 
  5 C       -2.3970     3.2390     0.5970 C.ar  1 <1>   0.0860 
  6 C       -2.8510     1.6120    -1.1480 C.ar  1 <1>  -0.1500 
  7 C       -2.5840     2.9180    -0.7560 C.ar  1 <1>  -0.1440 
  8 C       -2.0930     4.5860     1.0400 C.2   1 <1>   0.5440 
  9 C       -2.5070     4.0080    -1.8180 C.3   1 <1>  -0.0960 
 10 O       -2.9850     5.4100     1.1030 O.2   1 <1>  -0.5700 
 11 N       -0.8090     4.9570     1.3820 N.am  1 <1>  -0.6600 
 12 C        0.3860     4.0640     1.2710 C.3   1 <1>   0.1400 
 13 C       -0.5030     6.3280     1.8670 C.3   1 <1>   0.1400 
 14 C        1.2580     4.4120     0.0570 C.3   1 <1>   0.1400 
 15 C       -0.2850     7.2920     0.6960 C.3   1 <1>  -0.1600 
 16 N        1.6890     5.8480     0.0550 N.am  1 <1>  -0.6600 
 17 C        0.6450     6.8000    -0.4240 C.3   1 <1>   0.1400 
 18 C        3.0080     6.2050     0.2430 C.2   1 <1>   0.7150 
 19 O        3.8470     5.3280     0.3510 O.2   1 <1>  -0.5700 
 20 C        3.4220     7.5820     0.2880 C.2   1 <1>  -0.2370 
 21 N        4.4090     8.0960    -0.5140 N.pl3 1 <1>   0.0480 
 22 C        2.9690     8.6030     1.0860 C.2   1 <1>  -0.1500 
 23 C        4.5440     9.4140    -0.2280 C.2   1 <1>  -0.3020 
 24 C        5.2080     7.3520    -1.5060 C.3   1 <1>   0.0160 
 25 C        3.6710     9.7570     0.7540 C.2   1 <1>  -0.1500 
 26 H       -2.3740     2.4300     2.5830 H     1 <1>   0.1500 
 27 H       -3.1470    -0.4140    -0.4920 H     1 <1>   0.1500 
 28 H       -2.9940     1.3730    -2.1880 H     1 <1>   0.1500 
 29 H       -1.5420     4.4790    -1.7980 H     1 <1>   0.0800 
 30 H       -3.2580     4.7550    -1.6280 H     1 <1>   0.0800 
 31 H       -2.6720     3.6070    -2.8010 H     1 <1>   0.0800 
 32 H        0.0830     3.0360     1.1920 H     1 <1>   0.0800 
 33 H        0.9810     4.1500     2.1630 H     1 <1>   0.0800 
 34 H        0.3820     6.3020     2.4810 H     1 <1>   0.0800 
 35 H       -1.3140     6.6840     2.4790 H     1 <1>   0.0800 
 36 H        0.7100     4.2000    -0.8440 H     1 <1>   0.0800 
 37 H        2.1150     3.7620     0.0600 H     1 <1>   0.0800 
 38 H        0.0950     8.2160     1.0860 H     1 <1>   0.0800 
 39 H       -1.2420     7.5210     0.2630 H     1 <1>   0.0800 
 40 H        1.1060     7.6460    -0.9050 H     1 <1>   0.0800 
 41 H        0.0480     6.3040    -1.1690 H     1 <1>   0.0800 
 42 H        2.2160     8.5400     1.8500 H     1 <1>   0.1500 
 43 H        5.2560    10.0450    -0.7290 H     1 <1>   0.1500 
 44 H        4.5490     6.8450    -2.1860 H     1 <1>   0.0800 
 45 H        5.8180     6.6300    -0.9950 H     1 <1>   0.0800 
 46 H        5.8350     8.0320    -2.0520 H     1 <1>   0.0800 
 47 H        3.5360    10.7240     1.2070 H     1 <1>   0.1500 
@<TRIPOS>BOND
  1   1   2  1   
  2   2   3  ar  
  3   2   4  ar  
  4   3   5  ar  
  5   3  26  1   
  6   4   6  ar  
  7   4  27  1   
  8   5   7  ar  
  9   5   8  1   
 10   6   7  ar  
 11   6  28  1   
 12   7   9  1   
 13   8  10  2   
 14   8  11  am  
 15   9  29  1   
 16   9  30  1   
 17   9  31  1   
 18  11  12  1   
 19  11  13  1   
 20  12  14  1   
 21  12  32  1   
 22  12  33  1   
 23  13  15  1   
 24  13  34  1   
 25  13  35  1   
 26  14  16  1   
 27  14  36  1   
 28  14  37  1   
 29  15  17  1   
 30  15  38  1   
 31  15  39  1   
 32  16  17  1   
 33  16  18  am  
 34  17  40  1   
 35  17  41  1   
 36  18  19  2   
 37  18  20  1   
 38  20  21  1   
 39  20  22  2   
 40  21  23  1   
 41  21  24  1   
 42  22  25  1   
 43  22  42  1   
 44  23  25  2   
 45  23  43  1   
 46  24  44  1   
 47  24  45  1   
 48  24  46  1   
 49  25  47  1   
@<TRIPOS>SUBSTRUCTURE
  1 ****  14 GROUP 4 **** **** 0

# MOE 2024.06 (io_trps.svl 2023.06)
