@<TRIPOS>MOLECULE
Untitled Document
50 53 1 0 0 
SMALL
USER_CHARGES


@<TRIPOS>ATOM
  1 CL       2.5340     0.9330     3.5940 Cl    1 <1>  -0.1770 
  2 C        3.2740     1.1320     2.0340 C.ar  1 <1>   0.7970 
  3 N        2.9770     2.2890     1.4120 N.ar  1 <1>  -0.6200 
  4 N        4.0370     0.1460     1.6260 N.ar  1 <1>  -0.5670 
  5 C        3.5260     2.4620     0.2350 C.ar  1 <1>   0.1670 
  6 C        4.5780     0.3630     0.4230 C.ar  1 <1>   0.1050 
  7 C        4.3640     1.4970    -0.3250 C.ar  1 <1>   0.2270 
  8 C        3.2210     3.7510    -0.5030 C.3   1 <1>  -0.0970 
  9 N        5.4110    -0.4190    -0.2990 N.pl3 1 <1>   0.0480 
 10 N        5.0570     1.4230    -1.5010 N.2   1 <1>  -0.5650 
 11 C        5.6620     0.2870    -1.4410 C.2   1 <1>   0.0060 
 12 C        5.9100    -1.7450     0.1140 C.3   1 <1>   0.2390 
 13 C        6.5810    -0.2120    -2.5390 C.3   1 <1>  -0.0600 
 14 C        7.3460    -1.6400     0.6050 C.ar  1 <1>  -0.1440 
 15 C        8.3800    -2.2170    -0.1170 C.ar  1 <1>  -0.1500 
 16 C        7.6310    -0.9620     1.7810 C.ar  1 <1>  -0.1500 
 17 C        9.6890    -2.1150     0.3240 C.ar  1 <1>   0.0830 
 18 C        8.9380    -0.8440     2.2220 C.ar  1 <1>  -0.1500 
 19 O       10.6410    -2.7270    -0.4230 O.3   1 <1>  -0.3630 
 20 C        9.9740    -1.4000     1.4910 C.ar  1 <1>   0.0830 
 21 C       11.3690    -3.7810     0.1780 C.3   1 <1>   0.2000 
 22 O       11.2350    -1.2110     1.9510 O.3   1 <1>  -0.3630 
 23 C       12.5850    -4.0640    -0.6960 C.3   1 <1>  -0.1600 
 24 C       10.5590    -5.0720     0.0860 C.3   1 <1>  -0.1600 
 25 C       12.0830    -0.4220     1.1470 C.3   1 <1>   0.0400 
 26 C       12.0740    -4.9500    -1.8380 C.3   1 <1>  -0.1600 
 27 C       10.7600    -5.5730    -1.3470 C.3   1 <1>  -0.1600 
 28 H        2.1620     3.8320    -0.6660 H     1 <1>   0.0800 
 29 H        3.7220     3.7770    -1.4530 H     1 <1>   0.0800 
 30 H        3.5480     4.5890     0.0850 H     1 <1>   0.0800 
 31 H        5.8430    -2.4170    -0.7210 H     1 <1>   0.0800 
 32 H        5.2860    -2.1250     0.9030 H     1 <1>   0.0800 
 33 H        6.2500    -1.1670    -2.9020 H     1 <1>   0.0800 
 34 H        7.5860    -0.2970    -2.1680 H     1 <1>   0.0800 
 35 H        6.5810     0.4840    -3.3590 H     1 <1>   0.0800 
 36 H        8.1900    -2.7560    -1.0270 H     1 <1>   0.1500 
 37 H        6.8380    -0.5150     2.3580 H     1 <1>   0.1500 
 38 H        9.1610    -0.3130     3.1290 H     1 <1>   0.1500 
 39 H       11.6350    -3.5190     1.1870 H     1 <1>   0.0800 
 40 H       13.3020    -4.6180    -0.1160 H     1 <1>   0.0800 
 41 H       13.0470    -3.1590    -1.0480 H     1 <1>   0.0800 
 42 H        9.5240    -4.9280     0.3370 H     1 <1>   0.0800 
 43 H       10.9820    -5.7880     0.7690 H     1 <1>   0.0800 
 44 H       13.0090    -0.2780     1.6740 H     1 <1>   0.0800 
 45 H       11.6080     0.5270     0.9690 H     1 <1>   0.0800 
 46 H       12.2670    -0.9270     0.2170 H     1 <1>   0.0800 
 47 H       12.7980    -5.7050    -2.0920 H     1 <1>   0.0800 
 48 H       11.8810    -4.3450    -2.7080 H     1 <1>   0.0800 
 49 H        9.9490    -5.2270    -1.9660 H     1 <1>   0.0800 
 50 H       10.7920    -6.6490    -1.3820 H     1 <1>   0.0800 
@<TRIPOS>BOND
  1   1   2  1   
  2   2   3  ar  
  3   2   4  ar  
  4   3   5  ar  
  5   4   6  ar  
  6   5   7  ar  
  7   5   8  1   
  8   6   7  ar  
  9   6   9  1   
 10   7  10  1   
 11   8  28  1   
 12   8  29  1   
 13   8  30  1   
 14   9  11  1   
 15   9  12  1   
 16  10  11  2   
 17  11  13  1   
 18  12  14  1   
 19  12  31  1   
 20  12  32  1   
 21  13  33  1   
 22  13  34  1   
 23  13  35  1   
 24  14  15  ar  
 25  14  16  ar  
 26  15  17  ar  
 27  15  36  1   
 28  16  18  ar  
 29  16  37  1   
 30  17  19  1   
 31  17  20  ar  
 32  18  20  ar  
 33  18  38  1   
 34  19  21  1   
 35  20  22  1   
 36  21  23  1   
 37  21  24  1   
 38  21  39  1   
 39  22  25  1   
 40  23  26  1   
 41  23  40  1   
 42  23  41  1   
 43  24  27  1   
 44  24  42  1   
 45  24  43  1   
 46  25  44  1   
 47  25  45  1   
 48  25  46  1   
 49  26  27  1   
 50  26  47  1   
 51  26  48  1   
 52  27  49  1   
 53  27  50  1   
@<TRIPOS>SUBSTRUCTURE
  1 ****  14 GROUP 4 **** **** 0

# MOE 2024.06 (io_trps.svl 2023.06)
