@<TRIPOS>MOLECULE
NONAME
53 55 1 0 0 
SMALL
USER_CHARGES


@<TRIPOS>ATOM
  1 O        0.1460     0.3750    -1.3690 O.2   1 <1>  -0.5700 
  2 C       -0.8970     0.8390    -0.9460 C.2   1 <1>   0.5440 
  3 N       -1.8110    -0.0010    -0.3490 N.am  1 <1>  -0.6600 
  4 C       -1.1500     2.2590    -1.0860 C.ar  1 <1>   0.0860 
  5 C       -1.6560    -1.5040    -0.4320 C.3   1 <1>   0.1400 
  6 C       -3.0070     0.4690     0.4160 C.3   1 <1>   0.1400 
  7 C       -0.3380     3.1950    -0.4560 C.ar  1 <1>  -0.1500 
  8 C       -2.2150     2.7300    -1.8520 C.ar  1 <1>  -0.1500 
  9 C       -2.8520    -2.2910     0.2790 C.3   1 <1>  -0.1060 
 10 C       -4.2620    -0.1800    -0.1730 C.3   1 <1>  -0.1600 
 11 C       -0.5670     4.5590    -0.5620 C.ar  1 <1>   0.1000 
 12 C       -2.4610     4.0860    -1.9750 C.ar  1 <1>  -0.1500 
 13 C       -4.0060    -2.9950     1.0220 C.2   1 <1>   0.9060 
 14 C       -3.9000    -1.5670    -0.7120 C.3   1 <1>   0.2000 
 15 C       -1.8200    -3.0670     1.2310 C.3   1 <1>  -0.0160 
 16 N        0.2810     5.4490     0.0940 N.pl3 1 <1>  -0.8380 
 17 C       -1.6410     4.9940    -1.3320 C.ar  1 <1>  -0.1500 
 18 O       -4.4910    -4.0540     0.5880 O.co2 1 <1>  -0.9000 
 19 O       -4.4400    -2.4730     2.0580 O.co2 1 <1>  -0.9000 
 20 O       -5.0780    -2.2110    -1.0980 O.3   1 <1>  -0.6800 
 21 C       -0.8890    -4.0340     0.4860 C.ar  1 <1>  -0.1430 
 22 C       -0.2710     6.6820     0.7140 C.3   1 <1>   0.1290 
 23 C        1.6730     5.5690    -0.4150 C.3   1 <1>   0.1290 
 24 C       -1.4190    -5.0340    -0.3150 C.ar  1 <1>  -0.1500 
 25 C        0.4890    -3.9270     0.6060 C.ar  1 <1>  -0.1500 
 26 C       -0.5870    -5.9080    -0.9930 C.ar  1 <1>  -0.1500 
 27 C        1.3240    -4.7990    -0.0710 C.ar  1 <1>  -0.1500 
 28 C        0.7860    -5.7900    -0.8730 C.ar  1 <1>  -0.1500 
 29 H       -1.5730    -1.8020    -1.4650 H     1 <1>   0.0800 
 30 H       -0.6630    -1.6770    -0.0570 H     1 <1>   0.0800 
 31 H       -2.8980     0.1540     1.4410 H     1 <1>   0.0800 
 32 H       -3.0990     1.5400     0.4110 H     1 <1>   0.0800 
 33 H        0.4900     2.8530     0.1360 H     1 <1>   0.1500 
 34 H       -2.8490     2.0190    -2.3530 H     1 <1>   0.1500 
 35 H       -4.6490     0.4250    -0.9700 H     1 <1>   0.0800 
 36 H       -5.0080    -0.2620     0.5980 H     1 <1>   0.0800 
 37 H       -3.2870     4.4330    -2.5710 H     1 <1>   0.1500 
 38 H       -3.4660    -1.3910    -1.6830 H     1 <1>   0.0800 
 39 H       -1.2450    -2.3470     1.7910 H     1 <1>   0.0800 
 40 H       -2.2200    -3.6800     2.0290 H     1 <1>   0.0800 
 41 H       -1.8260     6.0460    -1.4350 H     1 <1>   0.1500 
 42 H       -5.1490    -3.0490    -0.5460 H     1 <1>   0.4000 
 43 H        0.3240     6.9550     1.5670 H     1 <1>   0.0800 
 44 H       -1.2810     6.5060     1.0420 H     1 <1>   0.0800 
 45 H       -0.2650     7.4880     0.0020 H     1 <1>   0.0800 
 46 H        2.3550     5.6480     0.4130 H     1 <1>   0.0800 
 47 H        1.7630     6.4420    -1.0370 H     1 <1>   0.0800 
 48 H        1.9340     4.7020    -0.9970 H     1 <1>   0.0800 
 49 H       -2.4880    -5.1350    -0.4090 H     1 <1>   0.1500 
 50 H        0.9170    -3.1590     1.2260 H     1 <1>   0.1500 
 51 H       -1.0160    -6.6760    -1.6110 H     1 <1>   0.1500 
 52 H        2.3910    -4.7040     0.0250 H     1 <1>   0.1500 
 53 H        1.4320    -6.4680    -1.4010 H     1 <1>   0.1500 
@<TRIPOS>BOND
  1   1   2  2   
  2   2   3  am  
  3   2   4  1   
  4   3   5  1   
  5   3   6  1   
  6   4   7  ar  
  7   4   8  ar  
  8   5   9  1   
  9   5  29  1   
 10   5  30  1   
 11   6  10  1   
 12   6  31  1   
 13   6  32  1   
 14   7  11  ar  
 15   7  33  1   
 16   8  12  ar  
 17   8  34  1   
 18   9  13  1   
 19   9  14  1   
 20   9  15  1   
 21  10  14  1   
 22  10  35  1   
 23  10  36  1   
 24  11  16  1   
 25  11  17  ar  
 26  12  17  ar  
 27  12  37  1   
 28  13  18  ar  
 29  13  19  ar  
 30  14  20  1   
 31  14  38  1   
 32  15  21  1   
 33  15  39  1   
 34  15  40  1   
 35  16  22  1   
 36  16  23  1   
 37  17  41  1   
 38  20  42  1   
 39  21  24  ar  
 40  21  25  ar  
 41  22  43  1   
 42  22  44  1   
 43  22  45  1   
 44  23  46  1   
 45  23  47  1   
 46  23  48  1   
 47  24  26  ar  
 48  24  49  1   
 49  25  27  ar  
 50  25  50  1   
 51  26  28  ar  
 52  26  51  1   
 53  27  28  ar  
 54  27  52  1   
 55  28  53  1   
@<TRIPOS>SUBSTRUCTURE
  1 ****   3 GROUP 4 **** **** 0

# MOE 2024.06 (io_trps.svl 2023.06)
