@<TRIPOS>MOLECULE
NONAME
53 54 1 0 0 
SMALL
USER_CHARGES


@<TRIPOS>ATOM
  1 S        1.6490    -0.6360    -0.5290 S.o2  1 <1>   1.3330 
  2 O        2.1060    -0.7350     0.8400 O.2   1 <1>  -0.6500 
  3 O        2.3660    -1.3380    -1.5690 O.2   1 <1>  -0.6500 
  4 N        0.0420    -1.1850    -0.5840 N.am  1 <1>  -0.8490 
  5 C        1.5160     1.1000    -0.9870 C.3   1 <1>  -0.0550 
  6 C       -0.1960    -2.3010     0.3380 C.3   1 <1>   0.1160 
  7 C       -0.4030    -1.5560    -1.9330 C.3   1 <1>   0.1160 
  8 C        1.0640     2.1040     0.0980 C.3   1 <1>  -0.0800 
  9 C        2.0780     2.2710     1.2340 C.3   1 <1>   0.2200 
 10 C       -0.2550     1.8030     0.8220 C.3   1 <1>   0.1200 
 11 N        2.5130     3.6860     1.2890 N.am  1 <1>  -0.7300 
 12 C        1.2630     1.9250     2.4770 C.3   1 <1>   0.1200 
 13 O       -0.0520     2.2200     2.1320 O.3   1 <1>  -0.5600 
 14 C        3.5320     4.2130     0.5520 C.2   1 <1>   0.5440 
 15 O        4.1060     3.4890    -0.2390 O.2   1 <1>  -0.5700 
 16 C        3.9160     5.6090     0.6770 C.ar  1 <1>   0.0860 
 17 C        4.6390     6.2350    -0.3390 C.ar  1 <1>  -0.1500 
 18 C        3.6000     6.3780     1.7990 C.ar  1 <1>  -0.1500 
 19 C        5.0430     7.5580    -0.2490 C.ar  1 <1>  -0.1440 
 20 C        3.9820     7.7030     1.8950 C.ar  1 <1>  -0.1500 
 21 C        4.7020     8.2960     0.8740 C.ar  1 <1>  -0.1500 
 22 C        5.8550     8.1820    -1.3690 C.3   1 <1>   0.4860 
 23 N        7.2170     7.5730    -1.3640 N.4   1 <1>  -0.9590 
 24 C        7.9680     7.9100    -0.1130 C.3   1 <1>   0.2630 
 25 C        7.9930     7.9520    -2.5830 C.3   1 <1>   0.2630 
 26 H        2.4810     1.4240    -1.3290 H     1 <1>   0.0800 
 27 H        0.8520     1.1830    -1.8250 H     1 <1>   0.0800 
 28 H       -1.2230    -2.6190     0.2830 H     1 <1>   0.0800 
 29 H        0.0060    -1.9930     1.3500 H     1 <1>   0.0800 
 30 H        0.4470    -3.1310     0.0940 H     1 <1>   0.0800 
 31 H       -1.4510    -1.8010    -1.9220 H     1 <1>   0.0800 
 32 H        0.1520    -2.4070    -2.2930 H     1 <1>   0.0800 
 33 H       -0.2540    -0.7360    -2.6140 H     1 <1>   0.0800 
 34 H        0.9350     3.0490    -0.3990 H     1 <1>   0.0800 
 35 H        2.9390     1.6290     1.1440 H     1 <1>   0.0800 
 36 H       -0.4870     0.7550     0.8570 H     1 <1>   0.0800 
 37 H       -1.0860     2.3450     0.4070 H     1 <1>   0.0800 
 38 H        1.8640     4.2960     1.7900 H     1 <1>   0.3700 
 39 H        1.5510     2.4920     3.3430 H     1 <1>   0.0800 
 40 H        1.3220     0.8710     2.6910 H     1 <1>   0.0800 
 41 H        4.8800     5.6520    -1.2120 H     1 <1>   0.1500 
 42 H        3.0520     5.9350     2.6120 H     1 <1>   0.1500 
 43 H        3.7180     8.2750     2.7700 H     1 <1>   0.1500 
 44 H        4.9890     9.3300     0.9700 H     1 <1>   0.1500 
 45 H        5.9200     9.2490    -1.2300 H     1 <1>   0.0800 
 46 H        5.3660     7.9880    -2.3100 H     1 <1>   0.0800 
 47 H        7.0710     6.5520    -1.3660 H     1 <1>   0.4500 
 48 H        8.1200     8.9740    -0.0390 H     1 <1>   0.0800 
 49 H        8.9300     7.4230    -0.1120 H     1 <1>   0.0800 
 50 H        7.4190     7.5780     0.7540 H     1 <1>   0.0800 
 51 H        8.1550     9.0180    -2.6090 H     1 <1>   0.0800 
 52 H        7.4600     7.6610    -3.4740 H     1 <1>   0.0800 
 53 H        8.9520     7.4590    -2.5830 H     1 <1>   0.0800 
@<TRIPOS>BOND
  1   1   2  2   
  2   1   3  2   
  3   1   4  am  
  4   1   5  1   
  5   4   6  1   
  6   4   7  1   
  7   5   8  1   
  8   5  26  1   
  9   5  27  1   
 10   6  28  1   
 11   6  29  1   
 12   6  30  1   
 13   7  31  1   
 14   7  32  1   
 15   7  33  1   
 16   8   9  1   
 17   8  10  1   
 18   8  34  1   
 19   9  11  1   
 20   9  12  1   
 21   9  35  1   
 22  10  13  1   
 23  10  36  1   
 24  10  37  1   
 25  11  14  am  
 26  11  38  1   
 27  12  13  1   
 28  12  39  1   
 29  12  40  1   
 30  14  15  2   
 31  14  16  1   
 32  16  17  ar  
 33  16  18  ar  
 34  17  19  ar  
 35  17  41  1   
 36  18  20  ar  
 37  18  42  1   
 38  19  21  ar  
 39  19  22  1   
 40  20  21  ar  
 41  20  43  1   
 42  21  44  1   
 43  22  23  1   
 44  22  45  1   
 45  22  46  1   
 46  23  24  1   
 47  23  25  1   
 48  23  47  1   
 49  24  48  1   
 50  24  49  1   
 51  24  50  1   
 52  25  51  1   
 53  25  52  1   
 54  25  53  1   
@<TRIPOS>SUBSTRUCTURE
  1 ****  14 GROUP 4 **** **** 0

# MOE 2024.06 (io_trps.svl 2023.06)
