@<TRIPOS>MOLECULE
NONAME
53 55 1 0 0 
SMALL
USER_CHARGES


@<TRIPOS>ATOM
  1 F       -0.5580    -0.0960     0.6130 F     1 <1>  -0.1900 
  2 C       -1.8030     0.2880     0.4940 C.ar  1 <1>   0.1900 
  3 C       -2.1590     1.6370     0.3940 C.ar  1 <1>   0.0830 
  4 C       -2.7560    -0.7120     0.4760 C.ar  1 <1>  -0.1500 
  5 O       -1.3170     2.7100     0.4000 O.3   1 <1>  -0.3630 
  6 C       -3.5050     1.9390     0.2740 C.ar  1 <1>  -0.1500 
  7 C       -4.0910    -0.3750     0.3570 C.ar  1 <1>  -0.1500 
  8 C        0.0860     2.5880     0.4770 C.3   1 <1>   0.0400 
  9 C       -4.5000     0.9580     0.2510 C.ar  1 <1>   0.0530 
 10 C       -5.8920     1.3260     0.1270 C.2   1 <1>   0.0870 
 11 O       -6.2790     2.5450     0.4110 O.3   1 <1>  -0.0190 
 12 C       -7.0090     0.6440    -0.2410 C.2   1 <1>  -0.0860 
 13 N       -7.5630     2.7260     0.2570 N.2   1 <1>  -0.4100 
 14 C       -8.0300     1.5960    -0.1480 C.2   1 <1>   0.3720 
 15 C       -7.1690    -0.7170    -0.6400 C.2   1 <1>   0.7160 
 16 N       -9.3850     1.3720    -0.4470 N.pl3 1 <1>  -0.8210 
 17 O       -6.7200    -1.0680    -1.7170 O.2   1 <1>  -0.5700 
 18 N       -7.7750    -1.6560     0.1710 N.am  1 <1>  -0.6600 
 19 C       -9.6580     0.8000    -1.7980 C.3   1 <1>   0.1290 
 20 C      -10.3340     2.4560    -0.0650 C.3   1 <1>   0.1290 
 21 C       -7.9830    -3.0670    -0.2620 C.3   1 <1>   0.1400 
 22 C       -8.3600    -1.3380     1.5030 C.3   1 <1>   0.1400 
 23 C       -9.4850    -3.3960    -0.3080 C.3   1 <1>  -0.0800 
 24 C       -9.8600    -1.6410     1.4870 C.3   1 <1>  -0.1600 
 25 C      -10.1500    -3.0830     1.0480 C.3   1 <1>  -0.1600 
 26 C       -9.6820    -4.8670    -0.7250 C.3   1 <1>  -0.1600 
 27 C      -11.1500    -5.2400    -0.9700 C.3   1 <1>  -0.2400 
 28 H       -2.4520    -1.7410     0.5540 H     1 <1>   0.1500 
 29 H       -3.7830     2.9750     0.1930 H     1 <1>   0.1500 
 30 H       -4.8180    -1.1660     0.3480 H     1 <1>   0.1500 
 31 H        0.5100     3.5750     0.4440 H     1 <1>   0.0800 
 32 H        0.4350     2.0140    -0.3630 H     1 <1>   0.0800 
 33 H        0.3470     2.1120     1.4060 H     1 <1>   0.0800 
 34 H       -8.8340     1.0000    -2.4630 H     1 <1>   0.0800 
 35 H      -10.5510     1.2240    -2.2220 H     1 <1>   0.0800 
 36 H       -9.7870    -0.2650    -1.7170 H     1 <1>   0.0800 
 37 H      -10.1490     2.7620     0.9510 H     1 <1>   0.0800 
 38 H      -11.3470     2.1010    -0.1360 H     1 <1>   0.0800 
 39 H      -10.2040     3.3040    -0.7140 H     1 <1>   0.0800 
 40 H       -7.4880    -3.7200     0.4360 H     1 <1>   0.0800 
 41 H       -7.5500    -3.2350    -1.2330 H     1 <1>   0.0800 
 42 H       -8.2060    -0.3060     1.7660 H     1 <1>   0.0800 
 43 H       -7.8760    -1.9450     2.2500 H     1 <1>   0.0800 
 44 H       -9.9290    -2.7710    -1.0640 H     1 <1>   0.0800 
 45 H      -10.3440    -0.9520     0.8170 H     1 <1>   0.0800 
 46 H      -10.2650    -1.4740     2.4690 H     1 <1>   0.0800 
 47 H       -9.7800    -3.7630     1.7960 H     1 <1>   0.0800 
 48 H      -11.2160    -3.2120     0.9790 H     1 <1>   0.0800 
 49 H       -9.2710    -5.5180     0.0270 H     1 <1>   0.0800 
 50 H       -9.1380    -5.0430    -1.6380 H     1 <1>   0.0800 
 51 H      -11.7160    -5.2050    -0.0570 H     1 <1>   0.0800 
 52 H      -11.2110    -6.2410    -1.3600 H     1 <1>   0.0800 
 53 H      -11.5960    -4.5700    -1.6840 H     1 <1>   0.0800 
@<TRIPOS>BOND
  1   1   2  1   
  2   2   3  ar  
  3   2   4  ar  
  4   3   5  1   
  5   3   6  ar  
  6   4   7  ar  
  7   4  28  1   
  8   5   8  1   
  9   6   9  ar  
 10   6  29  1   
 11   7   9  ar  
 12   7  30  1   
 13   8  31  1   
 14   8  32  1   
 15   8  33  1   
 16   9  10  1   
 17  10  11  1   
 18  10  12  2   
 19  11  13  1   
 20  12  14  1   
 21  12  15  1   
 22  13  14  2   
 23  14  16  1   
 24  15  17  2   
 25  15  18  am  
 26  16  19  1   
 27  16  20  1   
 28  18  21  1   
 29  18  22  1   
 30  19  34  1   
 31  19  35  1   
 32  19  36  1   
 33  20  37  1   
 34  20  38  1   
 35  20  39  1   
 36  21  23  1   
 37  21  40  1   
 38  21  41  1   
 39  22  24  1   
 40  22  42  1   
 41  22  43  1   
 42  23  25  1   
 43  23  26  1   
 44  23  44  1   
 45  24  25  1   
 46  24  45  1   
 47  24  46  1   
 48  25  47  1   
 49  25  48  1   
 50  26  27  1   
 51  26  49  1   
 52  26  50  1   
 53  27  51  1   
 54  27  52  1   
 55  27  53  1   
@<TRIPOS>SUBSTRUCTURE
  1 ****  12 GROUP 4 **** **** 0

# MOE 2024.06 (io_trps.svl 2023.06)
