@<TRIPOS>MOLECULE
NONAME
47 49 1 0 0 
SMALL
USER_CHARGES


@<TRIPOS>ATOM
  1 S        0.2140     0.4920    -0.3420 S.o2  1 <1>   1.3330 
  2 O        0.1040    -0.8870     0.0730 O.2   1 <1>  -0.6500 
  3 O        0.0820     0.8130    -1.7450 O.2   1 <1>  -0.6500 
  4 N        1.7390     1.0290     0.1740 N.am  1 <1>  -0.8490 
  5 C       -0.9970     1.4460     0.5920 C.3   1 <1>  -0.0550 
  6 C        2.0980     0.5680     1.5210 C.3   1 <1>   0.1160 
  7 C        2.7930     0.6190    -0.7590 C.3   1 <1>   0.1160 
  8 C       -1.1040     2.9770     0.3840 C.3   1 <1>  -0.0800 
  9 C       -1.3280     3.4130    -1.0700 C.3   1 <1>   0.2000 
 10 C        0.1080     3.7860     0.8740 C.3   1 <1>   0.2090 
 11 O       -2.2310     4.4650    -1.0490 O.3   1 <1>  -0.6800 
 12 C        0.0190     3.9670    -1.5310 C.3   1 <1>   0.2090 
 13 N        0.6270     4.5370    -0.2970 N.pl3 1 <1>  -0.8380 
 14 C        1.9530     4.9530    -0.2650 C.ar  1 <1>   0.1000 
 15 C        2.3390     6.1090     0.4570 C.ar  1 <1>   0.0000 
 16 C        2.9510     4.2600    -0.8990 C.ar  1 <1>  -0.1500 
 17 C        3.7170     6.4390     0.5110 C.ar  1 <1>   0.3100 
 18 C        1.4110     6.9480     1.1130 C.ar  1 <1>  -0.1500 
 19 C        4.2780     4.6700    -0.8060 C.ar  1 <1>   0.1670 
 20 N        4.6680     5.7060    -0.1280 N.ar  1 <1>  -0.6200 
 21 C        4.0790     7.5860     1.2620 C.ar  1 <1>   0.1900 
 22 C        1.8370     8.0400     1.8150 C.ar  1 <1>   0.1900 
 23 C        5.3580     3.8810    -1.5170 C.3   1 <1>  -0.0970 
 24 F        5.3440     7.9120     1.3470 F     1 <1>  -0.1900 
 25 C        3.1810     8.3860     1.9110 C.ar  1 <1>  -0.1500 
 26 F        0.9640     8.7970     2.4210 F     1 <1>  -0.1900 
 27 H       -1.9610     1.0360     0.3600 H     1 <1>   0.0800 
 28 H       -0.8410     1.2630     1.6370 H     1 <1>   0.0800 
 29 H        3.0420     0.9940     1.8160 H     1 <1>   0.0800 
 30 H        2.1760    -0.5070     1.5450 H     1 <1>   0.0800 
 31 H        1.3540     0.8760     2.2340 H     1 <1>   0.0800 
 32 H        3.7460     1.0040    -0.4370 H     1 <1>   0.0800 
 33 H        2.5880     1.0050    -1.7440 H     1 <1>   0.0800 
 34 H        2.8450    -0.4560    -0.8170 H     1 <1>   0.0800 
 35 H       -1.9530     3.2830     0.9710 H     1 <1>   0.0800 
 36 H       -1.7200     2.6440    -1.7140 H     1 <1>   0.0800 
 37 H        0.8800     3.1590     1.2810 H     1 <1>   0.0800 
 38 H       -0.1980     4.4840     1.6330 H     1 <1>   0.0800 
 39 H       -1.7660     5.2460    -0.6820 H     1 <1>   0.4000 
 40 H       -0.0980     4.7170    -2.2940 H     1 <1>   0.0800 
 41 H        0.6320     3.1720    -1.9130 H     1 <1>   0.0800 
 42 H        2.7190     3.3830    -1.4650 H     1 <1>   0.1500 
 43 H        0.3620     6.7250     1.0540 H     1 <1>   0.1500 
 44 H        4.9390     3.0870    -2.1050 H     1 <1>   0.0800 
 45 H        6.0320     3.4640    -0.7910 H     1 <1>   0.0800 
 46 H        5.9110     4.5380    -2.1640 H     1 <1>   0.0800 
 47 H        3.4850     9.2500     2.4730 H     1 <1>   0.1500 
@<TRIPOS>BOND
  1   1   2  2   
  2   1   3  2   
  3   1   4  am  
  4   1   5  1   
  5   4   6  1   
  6   4   7  1   
  7   5   8  1   
  8   5  27  1   
  9   5  28  1   
 10   6  29  1   
 11   6  30  1   
 12   6  31  1   
 13   7  32  1   
 14   7  33  1   
 15   7  34  1   
 16   8   9  1   
 17   8  10  1   
 18   8  35  1   
 19   9  11  1   
 20   9  12  1   
 21   9  36  1   
 22  10  13  1   
 23  10  37  1   
 24  10  38  1   
 25  11  39  1   
 26  12  13  1   
 27  12  40  1   
 28  12  41  1   
 29  13  14  1   
 30  14  15  ar  
 31  14  16  ar  
 32  15  17  ar  
 33  15  18  ar  
 34  16  19  ar  
 35  16  42  1   
 36  17  20  ar  
 37  17  21  ar  
 38  18  22  ar  
 39  18  43  1   
 40  19  20  ar  
 41  19  23  1   
 42  21  24  1   
 43  21  25  ar  
 44  22  25  ar  
 45  22  26  1   
 46  23  44  1   
 47  23  45  1   
 48  23  46  1   
 49  25  47  1   
@<TRIPOS>SUBSTRUCTURE
  1 ****  14 GROUP 4 **** **** 0

# MOE 2024.06 (io_trps.svl 2023.06)
