@<TRIPOS>MOLECULE
NONAME
40 41 1 0 0 
SMALL
USER_CHARGES


@<TRIPOS>ATOM
  1 O        3.6800    -1.5610     2.2810 O.2   1 <1>  -0.5700 
  2 C        2.6710    -1.5650     1.6220 C.2   1 <1>   0.5690 
  3 N        2.2110    -0.4840     0.9250 N.am  1 <1>  -0.4940 
  4 C        1.8600    -2.8500     1.5610 C.3   1 <1>   0.0450 
  5 C        2.7330     0.8050     0.7920 C.2   1 <1>   0.2040 
  6 C        0.6070    -2.7060     0.7010 C.ar  1 <1>  -0.1440 
  7 O        3.8400     1.1830     1.3860 O.3   1 <1>  -0.0190 
  8 C        2.2630     1.8560     0.0910 C.2   1 <1>  -0.1810 
  9 C       -0.5840    -2.2810     1.2660 C.ar  1 <1>  -0.1500 
 10 C        0.6590    -2.9650    -0.6590 C.ar  1 <1>  -0.1500 
 11 N        4.1320     2.4310     1.1170 N.2   1 <1>  -0.4100 
 12 C        3.2010     2.8570     0.3410 C.2   1 <1>   0.1080 
 13 C        1.0170     1.9570    -0.7730 C.3   1 <1>  -0.0590 
 14 C       -1.7090    -2.1110     0.4780 C.ar  1 <1>  -0.1500 
 15 C       -0.4660    -2.7940    -1.4460 C.ar  1 <1>  -0.1500 
 16 C        3.1640     4.2720    -0.2110 C.3   1 <1>   0.0210 
 17 C       -1.6570    -2.3660    -0.8820 C.ar  1 <1>  -0.1430 
 18 C        3.8290     4.3490    -1.5890 C.3   1 <1>  -0.2400 
 19 C       -2.8940    -2.1810    -1.7470 C.3   1 <1>  -0.0170 
 20 C       -2.9610    -0.7540    -2.2940 C.3   1 <1>  -0.2400 
 21 H        1.3400    -0.6580     0.4190 H     1 <1>   0.3700 
 22 H        1.5880    -3.1270     2.5630 H     1 <1>   0.0800 
 23 H        2.4880    -3.6290     1.1690 H     1 <1>   0.0800 
 24 H       -0.6450    -2.0760     2.3220 H     1 <1>   0.1500 
 25 H        1.5750    -3.2990    -1.1170 H     1 <1>   0.1500 
 26 H        0.4880     1.0210    -0.7910 H     1 <1>   0.0800 
 27 H        1.2880     2.2170    -1.7800 H     1 <1>   0.0800 
 28 H        0.3600     2.7140    -0.3810 H     1 <1>   0.0800 
 29 H       -2.6280    -1.7790     0.9300 H     1 <1>   0.1500 
 30 H       -0.4130    -2.9980    -2.5010 H     1 <1>   0.1500 
 31 H        3.6820     4.9230     0.4720 H     1 <1>   0.0800 
 32 H        2.1450     4.6080    -0.2750 H     1 <1>   0.0800 
 33 H        4.8530     4.0270    -1.5180 H     1 <1>   0.0800 
 34 H        3.8090     5.3600    -1.9550 H     1 <1>   0.0800 
 35 H        3.3170     3.7150    -2.2890 H     1 <1>   0.0800 
 36 H       -3.7770    -2.3860    -1.1660 H     1 <1>   0.0800 
 37 H       -2.8740    -2.8810    -2.5640 H     1 <1>   0.0800 
 38 H       -3.0010    -0.0470    -1.4850 H     1 <1>   0.0800 
 39 H       -3.8390    -0.6330    -2.9040 H     1 <1>   0.0800 
 40 H       -2.0920    -0.5450    -2.8940 H     1 <1>   0.0800 
@<TRIPOS>BOND
  1   1   2  2   
  2   2   3  am  
  3   2   4  1   
  4   3   5  1   
  5   3  21  1   
  6   4   6  1   
  7   4  22  1   
  8   4  23  1   
  9   5   7  1   
 10   5   8  2   
 11   6   9  ar  
 12   6  10  ar  
 13   7  11  1   
 14   8  12  1   
 15   8  13  1   
 16   9  14  ar  
 17   9  24  1   
 18  10  15  ar  
 19  10  25  1   
 20  11  12  2   
 21  12  16  1   
 22  13  26  1   
 23  13  27  1   
 24  13  28  1   
 25  14  17  ar  
 26  14  29  1   
 27  15  17  ar  
 28  15  30  1   
 29  16  18  1   
 30  16  31  1   
 31  16  32  1   
 32  17  19  1   
 33  18  33  1   
 34  18  34  1   
 35  18  35  1   
 36  19  20  1   
 37  19  36  1   
 38  19  37  1   
 39  20  38  1   
 40  20  39  1   
 41  20  40  1   
@<TRIPOS>SUBSTRUCTURE
  1 ****   3 GROUP 4 **** **** 0

# MOE 2024.06 (io_trps.svl 2023.06)
