@<TRIPOS>MOLECULE
NONAME
50 52 1 0 0 
SMALL
USER_CHARGES


@<TRIPOS>ATOM
  1 F       -2.8820     0.0830     1.2340 F     1 <1>  -0.3400 
  2 C       -2.9260    -1.2190     1.4920 C.3   1 <1>   1.1640 
  3 F       -3.3240    -1.3340     2.7520 F     1 <1>  -0.3400 
  4 F       -1.6680    -1.6440     1.4590 F     1 <1>  -0.3400 
  5 C       -3.8450    -1.9840     0.5260 C.ar  1 <1>  -0.1440 
  6 C       -5.0000    -1.3910     0.0270 C.ar  1 <1>  -0.1500 
  7 C       -3.5510    -3.2870     0.1350 C.ar  1 <1>  -0.1500 
  8 C       -5.8320    -2.0760    -0.8410 C.ar  1 <1>  -0.1500 
  9 C       -4.3830    -3.9710    -0.7330 C.ar  1 <1>  -0.1500 
 10 C       -5.5310    -3.3730    -1.2260 C.ar  1 <1>  -0.1430 
 11 C       -6.4440    -4.1280    -2.1900 C.3   1 <1>   0.0450 
 12 C       -6.7670    -5.5500    -1.7460 C.2   1 <1>   0.5690 
 13 O       -6.3710    -6.4530    -2.4470 O.2   1 <1>  -0.5700 
 14 N       -7.5080    -5.8110    -0.6190 N.am  1 <1>  -0.6600 
 15 C       -7.7860    -7.2120    -0.1790 C.3   1 <1>   0.1400 
 16 C       -8.2120    -4.7940     0.2130 C.3   1 <1>   0.1400 
 17 C       -9.3000    -7.4890    -0.3300 C.3   1 <1>   0.4230 
 18 C       -9.7240    -5.0500     0.1170 C.3   1 <1>  -0.1600 
 19 N       -9.7110    -8.9040    -0.0330 N.4   1 <1>  -0.9590 
 20 C      -10.1070    -6.5000     0.5400 C.3   1 <1>  -0.1060 
 21 C      -11.1460    -9.1400    -0.3280 C.3   1 <1>   0.3430 
 22 C       -8.8290    -9.9590    -0.6000 C.3   1 <1>   0.2630 
 23 C       -9.7560    -6.7470     2.0210 C.2   1 <1>   0.9060 
 24 C      -11.6200    -6.7100     0.2910 C.3   1 <1>  -0.1600 
 25 C      -12.0250    -8.1800     0.4800 C.3   1 <1>  -0.1600 
 26 O       -9.5030    -7.9050     2.3920 O.co2 1 <1>  -0.9000 
 27 O       -9.7140    -5.7980     2.8010 O.co2 1 <1>  -0.9000 
 28 H       -5.2600    -0.3850     0.3120 H     1 <1>   0.1500 
 29 H       -2.6690    -3.7840     0.5050 H     1 <1>   0.1500 
 30 H       -6.7160    -1.5890    -1.2140 H     1 <1>   0.1500 
 31 H       -4.1310    -4.9780    -1.0230 H     1 <1>   0.1500 
 32 H       -5.9560    -4.1740    -3.1470 H     1 <1>   0.0800 
 33 H       -7.3660    -3.5980    -2.3300 H     1 <1>   0.0800 
 34 H       -7.2200    -7.8980    -0.7800 H     1 <1>   0.0800 
 35 H       -7.4770    -7.3280     0.8450 H     1 <1>   0.0800 
 36 H       -7.8830    -4.8800     1.2370 H     1 <1>   0.0800 
 37 H       -7.9930    -3.7950    -0.1130 H     1 <1>   0.0800 
 38 H       -9.5400    -7.2910    -1.3610 H     1 <1>   0.0800 
 39 H      -10.2300    -4.3450     0.7560 H     1 <1>   0.0800 
 40 H      -10.0420    -4.8540    -0.8910 H     1 <1>   0.0800 
 41 H       -9.6260    -8.9130     1.0210 H     1 <1>   0.4500 
 42 H      -11.3270    -8.9930    -1.3800 H     1 <1>   0.0800 
 43 H      -11.4090   -10.1540    -0.0740 H     1 <1>   0.0800 
 44 H       -8.8120    -9.8950    -1.6750 H     1 <1>   0.0800 
 45 H       -9.1860   -10.9330    -0.3110 H     1 <1>   0.0800 
 46 H       -7.8250    -9.8440    -0.2260 H     1 <1>   0.0800 
 47 H      -12.1810    -6.0930     0.9740 H     1 <1>   0.0800 
 48 H      -11.8710    -6.4040    -0.7100 H     1 <1>   0.0800 
 49 H      -13.0510    -8.3080     0.1860 H     1 <1>   0.0800 
 50 H      -11.9600    -8.4430     1.5230 H     1 <1>   0.0800 
@<TRIPOS>BOND
  1   1   2  1   
  2   2   3  1   
  3   2   4  1   
  4   2   5  1   
  5   5   6  ar  
  6   5   7  ar  
  7   6   8  ar  
  8   6  28  1   
  9   7   9  ar  
 10   7  29  1   
 11   8  10  ar  
 12   8  30  1   
 13   9  10  ar  
 14   9  31  1   
 15  10  11  1   
 16  11  12  1   
 17  11  32  1   
 18  11  33  1   
 19  12  13  2   
 20  12  14  am  
 21  14  15  1   
 22  14  16  1   
 23  15  17  1   
 24  15  34  1   
 25  15  35  1   
 26  16  18  1   
 27  16  36  1   
 28  16  37  1   
 29  17  19  1   
 30  17  20  1   
 31  17  38  1   
 32  18  20  1   
 33  18  39  1   
 34  18  40  1   
 35  19  21  1   
 36  19  22  1   
 37  19  41  1   
 38  20  23  1   
 39  20  24  1   
 40  21  25  1   
 41  21  42  1   
 42  21  43  1   
 43  22  44  1   
 44  22  45  1   
 45  22  46  1   
 46  23  26  ar  
 47  23  27  ar  
 48  24  25  1   
 49  24  47  1   
 50  24  48  1   
 51  25  49  1   
 52  25  50  1   
@<TRIPOS>SUBSTRUCTURE
  1 ****  16 GROUP 4 **** **** 0

# MOE 2024.06 (io_trps.svl 2023.06)
