@<TRIPOS>MOLECULE
NONAME
54 58 1 0 0 
SMALL
USER_CHARGES


@<TRIPOS>ATOM
  1 S        1.3420     0.0700     1.1660 S.3   1 <1>  -0.0800 
  2 C        0.7060     1.6740     0.8700 C.2   1 <1>  -0.1400 
  3 C        2.8640     0.5140     0.4060 C.2   1 <1>  -0.1100 
  4 C        1.5880     2.4550     0.2330 C.2   1 <1>  -0.1810 
  5 C       -0.6720     2.0920     1.3020 C.3   1 <1>   0.0200 
  6 C        2.8340     1.7900    -0.0270 C.2   1 <1>  -0.1500 
  7 C        1.2370     3.8970    -0.1520 C.3   1 <1>   0.4610 
  8 C       -0.6850     3.6280     1.3240 C.3   1 <1>   0.1200 
  9 O       -0.1230     4.1620     0.1470 O.3   1 <1>  -0.5600 
 10 C        2.1040     4.8980     0.6300 C.3   1 <1>  -0.1600 
 11 C        1.3400     4.0930    -1.6780 C.3   1 <1>  -0.1600 
 12 C        2.2380     6.2130    -0.1280 C.3   1 <1>   0.1400 
 13 C        2.6700     4.7000    -2.1310 C.3   1 <1>   0.1400 
 14 N        2.9900     5.9560    -1.3910 N.am  1 <1>  -0.6600 
 15 C        4.0750     6.7200    -1.7820 C.2   1 <1>   0.5440 
 16 O        4.6760     6.3950    -2.7930 O.2   1 <1>  -0.5700 
 17 C        4.5100     7.8920    -1.0570 C.ar  1 <1>   0.0860 
 18 C        5.2030     7.8110     0.1680 C.ar  1 <1>   0.1000 
 19 C        4.2340     9.1530    -1.5870 C.ar  1 <1>  -0.1500 
 20 N        5.5220     6.5840     0.7560 N.pl3 1 <1>  -0.8380 
 21 C        5.5820     8.9920     0.8030 C.ar  1 <1>  -0.1500 
 22 C        4.6130    10.3110    -0.9390 C.ar  1 <1>  -0.1500 
 23 C        6.3610     5.5890     0.0170 C.3   1 <1>   0.2090 
 24 C        5.4390     6.3260     2.2240 C.3   1 <1>   0.2090 
 25 C        5.2910    10.2280     0.2650 C.ar  1 <1>  -0.1500 
 26 C        7.6890     5.3280     0.7510 C.3   1 <1>   0.1200 
 27 C        6.8310     6.0350     2.8140 C.3   1 <1>   0.1200 
 28 O        7.4760     5.0160     2.1010 O.3   1 <1>  -0.5600 
 29 H        3.6310    -0.2380     0.3650 H     1 <1>   0.1500 
 30 H       -0.8900     1.7110     2.2830 H     1 <1>   0.0800 
 31 H       -1.4050     1.7200     0.6100 H     1 <1>   0.0800 
 32 H        3.6460     2.2920    -0.5200 H     1 <1>   0.1500 
 33 H       -0.1260     3.9920     2.1670 H     1 <1>   0.0800 
 34 H       -1.6950     3.9900     1.3990 H     1 <1>   0.0800 
 35 H        3.0910     4.4980     0.7670 H     1 <1>   0.0800 
 36 H        1.6960     5.0750     1.6060 H     1 <1>   0.0800 
 37 H        0.5600     4.7540    -2.0100 H     1 <1>   0.0800 
 38 H        1.1930     3.1510    -2.1730 H     1 <1>   0.0800 
 39 H        2.7500     6.9280     0.4900 H     1 <1>   0.0800 
 40 H        1.2640     6.6080    -0.3640 H     1 <1>   0.0800 
 41 H        2.6240     4.9160    -3.1850 H     1 <1>   0.0800 
 42 H        3.4690     3.9990    -1.9750 H     1 <1>   0.0800 
 43 H        3.7140     9.2120    -2.5270 H     1 <1>   0.1500 
 44 H        6.1240     8.9400     1.7280 H     1 <1>   0.1500 
 45 H        4.3860    11.2730    -1.3660 H     1 <1>   0.1500 
 46 H        6.5760     5.9500    -0.9740 H     1 <1>   0.0800 
 47 H        5.8150     4.6670    -0.0780 H     1 <1>   0.0800 
 48 H        4.8060     5.4730     2.3930 H     1 <1>   0.0800 
 49 H        4.9960     7.1670     2.7260 H     1 <1>   0.0800 
 50 H        5.5930    11.1280     0.7730 H     1 <1>   0.1500 
 51 H        8.3190     6.1980     0.6950 H     1 <1>   0.0800 
 52 H        8.2030     4.5000     0.2980 H     1 <1>   0.0800 
 53 H        6.7410     5.7140     3.8360 H     1 <1>   0.0800 
 54 H        7.4440     6.9190     2.7810 H     1 <1>   0.0800 
@<TRIPOS>BOND
  1   1   2  1   
  2   1   3  1   
  3   2   4  2   
  4   2   5  1   
  5   3   6  2   
  6   3  29  1   
  7   4   6  1   
  8   4   7  1   
  9   5   8  1   
 10   5  30  1   
 11   5  31  1   
 12   6  32  1   
 13   7   9  1   
 14   7  10  1   
 15   7  11  1   
 16   8   9  1   
 17   8  33  1   
 18   8  34  1   
 19  10  12  1   
 20  10  35  1   
 21  10  36  1   
 22  11  13  1   
 23  11  37  1   
 24  11  38  1   
 25  12  14  1   
 26  12  39  1   
 27  12  40  1   
 28  13  14  1   
 29  13  41  1   
 30  13  42  1   
 31  14  15  am  
 32  15  16  2   
 33  15  17  1   
 34  17  18  ar  
 35  17  19  ar  
 36  18  20  1   
 37  18  21  ar  
 38  19  22  ar  
 39  19  43  1   
 40  20  23  1   
 41  20  24  1   
 42  21  25  ar  
 43  21  44  1   
 44  22  25  ar  
 45  22  45  1   
 46  23  26  1   
 47  23  46  1   
 48  23  47  1   
 49  24  27  1   
 50  24  48  1   
 51  24  49  1   
 52  25  50  1   
 53  26  28  1   
 54  26  51  1   
 55  26  52  1   
 56  27  28  1   
 57  27  53  1   
 58  27  54  1   
@<TRIPOS>SUBSTRUCTURE
  1 ****  10 GROUP 4 **** **** 0

# MOE 2024.06 (io_trps.svl 2023.06)
