@<TRIPOS>MOLECULE
NONAME
47 50 1 0 0 
SMALL
USER_CHARGES


@<TRIPOS>ATOM
  1 O       -0.2410    -3.2430    -1.8330 O.2   1 <1>  -0.5700 
  2 C        0.6730    -2.8810    -1.1260 C.2   1 <1>   0.6900 
  3 N        0.6060    -2.7290     0.2270 N.am  1 <1>  -0.4200 
  4 N        1.9030    -2.5810    -1.5880 N.am  1 <1>  -0.7300 
  5 C        1.8210    -2.3430     0.7090 C.2   1 <1>   0.5690 
  6 C       -0.5370    -3.1620     1.0660 C.3   1 <1>   0.2010 
  7 C        2.7980    -2.2400    -0.4530 C.3   1 <1>   0.2010 
  8 O        2.0910    -2.1000     1.8590 O.2   1 <1>  -0.5700 
  9 C       -0.6950    -4.6830     1.0730 C.2   1 <1>   0.5690 
 10 O        0.1470    -5.3330     1.6470 O.2   1 <1>  -0.5700 
 11 N       -1.7540    -5.3000     0.4600 N.am  1 <1>  -0.6600 
 12 C       -2.8050    -4.6620    -0.3790 C.3   1 <1>   0.1400 
 13 C       -1.8490    -6.7780     0.3550 C.3   1 <1>   0.1400 
 14 C       -3.8050    -5.7830    -0.6520 C.3   1 <1>   0.2000 
 15 C       -2.9280    -7.0400    -0.7040 C.3   1 <1>  -0.0800 
 16 O       -4.6710    -5.8600     0.4300 O.3   1 <1>  -0.6800 
 17 C       -3.6950    -8.3660    -0.5120 C.3   1 <1>  -0.0170 
 18 C       -2.8930    -9.6610    -0.6990 C.ar  1 <1>  -0.1440 
 19 C       -3.4770   -10.9040    -0.3470 C.ar  1 <1>   0.0000 
 20 C       -1.6240    -9.6980    -1.2070 C.ar  1 <1>  -0.1500 
 21 C       -2.7020   -12.0770    -0.5190 C.ar  1 <1>   0.3100 
 22 C       -4.7910   -11.0530     0.1610 C.ar  1 <1>  -0.1500 
 23 C       -0.9470   -10.9150    -1.3410 C.ar  1 <1>   0.1600 
 24 N       -1.4410   -12.0660    -1.0150 N.ar  1 <1>  -0.6200 
 25 C       -3.2550   -13.3190    -0.1680 C.ar  1 <1>  -0.1500 
 26 C       -5.3010   -12.2790     0.4910 C.ar  1 <1>  -0.1500 
 27 C       -4.5250   -13.4290     0.3280 C.ar  1 <1>  -0.1500 
 28 H        2.2050    -2.7680    -2.5450 H     1 <1>   0.3700 
 29 H       -0.3740    -2.8380     2.0780 H     1 <1>   0.0800 
 30 H       -1.4300    -2.6890     0.7070 H     1 <1>   0.0800 
 31 H        3.5900    -2.9590    -0.3500 H     1 <1>   0.0800 
 32 H        3.1830    -1.2400    -0.5450 H     1 <1>   0.0800 
 33 H       -3.2740    -3.8290     0.1140 H     1 <1>   0.0800 
 34 H       -2.3710    -4.3390    -1.3080 H     1 <1>   0.0800 
 35 H       -0.8980    -7.1980     0.0730 H     1 <1>   0.0800 
 36 H       -2.1400    -7.1800     1.3110 H     1 <1>   0.0800 
 37 H       -4.3840    -5.6250    -1.5460 H     1 <1>   0.0800 
 38 H       -2.4560    -7.0480    -1.6700 H     1 <1>   0.0800 
 39 H       -4.1430    -5.8710     1.2540 H     1 <1>   0.4000 
 40 H       -4.5200    -8.3830    -1.2030 H     1 <1>   0.0800 
 41 H       -4.1080    -8.3700     0.4810 H     1 <1>   0.0800 
 42 H       -1.0960    -8.8200    -1.5230 H     1 <1>   0.1500 
 43 H       -5.4120   -10.1880     0.2910 H     1 <1>   0.1500 
 44 H        0.0530   -10.8910    -1.7410 H     1 <1>   0.1500 
 45 H       -2.6400   -14.1890    -0.3050 H     1 <1>   0.1500 
 46 H       -6.3010   -12.3750     0.8780 H     1 <1>   0.1500 
 47 H       -4.9370   -14.3880     0.5920 H     1 <1>   0.1500 
@<TRIPOS>BOND
  1   1   2  2   
  2   2   3  am  
  3   2   4  am  
  4   3   5  am  
  5   3   6  1   
  6   4   7  1   
  7   4  28  1   
  8   5   7  1   
  9   5   8  2   
 10   6   9  1   
 11   6  29  1   
 12   6  30  1   
 13   7  31  1   
 14   7  32  1   
 15   9  10  2   
 16   9  11  am  
 17  11  12  1   
 18  11  13  1   
 19  12  14  1   
 20  12  33  1   
 21  12  34  1   
 22  13  15  1   
 23  13  35  1   
 24  13  36  1   
 25  14  15  1   
 26  14  16  1   
 27  14  37  1   
 28  15  17  1   
 29  15  38  1   
 30  16  39  1   
 31  17  18  1   
 32  17  40  1   
 33  17  41  1   
 34  18  19  ar  
 35  18  20  ar  
 36  19  21  ar  
 37  19  22  ar  
 38  20  23  ar  
 39  20  42  1   
 40  21  24  ar  
 41  21  25  ar  
 42  22  26  ar  
 43  22  43  1   
 44  23  24  ar  
 45  23  44  1   
 46  25  27  ar  
 47  25  45  1   
 48  26  27  ar  
 49  26  46  1   
 50  27  47  1   
@<TRIPOS>SUBSTRUCTURE
  1 ****  13 GROUP 4 **** **** 0

# MOE 2024.06 (io_trps.svl 2023.06)
