@<TRIPOS>MOLECULE
NONAME
57 60 1 0 0 
SMALL
USER_CHARGES


@<TRIPOS>ATOM
  1 O       -1.0420    -1.0790     0.9230 O.3   1 <1>  -0.3630 
  2 C       -0.1880    -0.4270     0.0890 C.ar  1 <1>   0.0820 
  3 C       -1.9180    -2.0660     0.4410 C.3   1 <1>   0.1200 
  4 C        0.5720     0.6080     0.6260 C.ar  1 <1>  -0.1440 
  5 C       -0.0500    -0.7530    -1.2590 C.ar  1 <1>  -0.1500 
  6 C       -2.6990    -2.6220     1.6340 C.3   1 <1>   0.3430 
  7 C        1.4530     1.3030    -0.1870 C.ar  1 <1>  -0.1500 
  8 C        0.4470     0.9900     2.0940 C.3   1 <1>  -0.0960 
  9 C        0.8350    -0.0510    -2.0580 C.ar  1 <1>  -0.1500 
 10 N       -3.6610    -3.6720     1.1890 N.4   1 <1>  -0.9590 
 11 C        1.5910     0.9790    -1.5270 C.ar  1 <1>  -0.1430 
 12 C       -4.9090    -3.1850     0.5270 C.3   1 <1>   0.3430 
 13 C       -4.0890    -4.6580     2.2080 C.3   1 <1>   0.3430 
 14 C        2.5610     1.7530    -2.4010 C.3   1 <1>  -0.0970 
 15 C       -5.9430    -4.3050     0.7200 C.3   1 <1>   0.2000 
 16 C       -5.2480    -5.4040     1.5390 C.3   1 <1>  -0.0800 
 17 O       -7.0230    -3.8150     1.4440 O.3   1 <1>  -0.6800 
 18 C       -4.7760    -6.5990     0.6640 C.3   1 <1>  -0.0170 
 19 C       -3.4960    -6.3520    -0.1330 C.ar  1 <1>   0.1670 
 20 N       -3.5260    -5.4390    -1.0580 N.ar  1 <1>  -0.6200 
 21 C       -2.3390    -7.0780     0.1920 C.ar  1 <1>  -0.1500 
 22 C       -2.3830    -5.1880    -1.7500 C.ar  1 <1>   0.3100 
 23 C       -1.1710    -6.8220    -0.4590 C.ar  1 <1>  -0.1500 
 24 C       -1.1640    -5.8350    -1.4570 C.ar  1 <1>   0.0000 
 25 C       -2.4030    -4.2190    -2.7660 C.ar  1 <1>  -0.1500 
 26 C       -0.0060    -5.4630    -2.1670 C.ar  1 <1>  -0.1500 
 27 C       -1.2660    -3.8750    -3.4470 C.ar  1 <1>  -0.1500 
 28 C       -0.0530    -4.5000    -3.1390 C.ar  1 <1>  -0.1500 
 29 H       -2.5730    -1.6060    -0.2770 H     1 <1>   0.0800 
 30 H       -1.3290    -2.8420    -0.0150 H     1 <1>   0.0800 
 31 H       -0.6120    -1.5450    -1.7110 H     1 <1>   0.1500 
 32 H       -3.2270    -1.8220     2.1260 H     1 <1>   0.0800 
 33 H       -1.9930    -3.0500     2.3270 H     1 <1>   0.0800 
 34 H        2.0410     2.1050     0.2230 H     1 <1>   0.1500 
 35 H        1.0970     1.8100     2.3390 H     1 <1>   0.0800 
 36 H        0.7090     0.1500     2.7120 H     1 <1>   0.0800 
 37 H       -0.5650     1.2800     2.3110 H     1 <1>   0.0800 
 38 H        0.9340    -0.3090    -3.0970 H     1 <1>   0.1500 
 39 H       -3.2020    -4.2450     0.4490 H     1 <1>   0.4500 
 40 H       -5.2630    -2.2770     0.9880 H     1 <1>   0.0800 
 41 H       -4.7320    -3.0170    -0.5220 H     1 <1>   0.0800 
 42 H       -3.2860    -5.3270     2.4770 H     1 <1>   0.0800 
 43 H       -4.4410    -4.1450     3.0880 H     1 <1>   0.0800 
 44 H        2.8620     1.1640    -3.2480 H     1 <1>   0.0800 
 45 H        3.4410     2.0140    -1.8410 H     1 <1>   0.0800 
 46 H        2.0930     2.6550    -2.7530 H     1 <1>   0.0800 
 47 H       -6.3180    -4.6590    -0.2260 H     1 <1>   0.0800 
 48 H       -5.9190    -5.7970     2.2840 H     1 <1>   0.0800 
 49 H       -6.8090    -3.6130     2.3750 H     1 <1>   0.4000 
 50 H       -5.5600    -6.8780    -0.0200 H     1 <1>   0.0800 
 51 H       -4.6230    -7.4470     1.3070 H     1 <1>   0.0800 
 52 H       -2.3780    -7.8360     0.9560 H     1 <1>   0.1500 
 53 H       -0.2630    -7.3570    -0.2340 H     1 <1>   0.1500 
 54 H       -3.3420    -3.7550    -3.0030 H     1 <1>   0.1500 
 55 H        0.9240    -5.9530    -1.9350 H     1 <1>   0.1500 
 56 H       -1.2880    -3.1310    -4.2270 H     1 <1>   0.1500 
 57 H        0.8350    -4.2190    -3.6810 H     1 <1>   0.1500 
@<TRIPOS>BOND
  1   1   2  1   
  2   1   3  1   
  3   2   4  ar  
  4   2   5  ar  
  5   3   6  1   
  6   3  29  1   
  7   3  30  1   
  8   4   7  ar  
  9   4   8  1   
 10   5   9  ar  
 11   5  31  1   
 12   6  10  1   
 13   6  32  1   
 14   6  33  1   
 15   7  11  ar  
 16   7  34  1   
 17   8  35  1   
 18   8  36  1   
 19   8  37  1   
 20   9  11  ar  
 21   9  38  1   
 22  10  12  1   
 23  10  13  1   
 24  10  39  1   
 25  11  14  1   
 26  12  15  1   
 27  12  40  1   
 28  12  41  1   
 29  13  16  1   
 30  13  42  1   
 31  13  43  1   
 32  14  44  1   
 33  14  45  1   
 34  14  46  1   
 35  15  16  1   
 36  15  17  1   
 37  15  47  1   
 38  16  18  1   
 39  16  48  1   
 40  17  49  1   
 41  18  19  1   
 42  18  50  1   
 43  18  51  1   
 44  19  20  ar  
 45  19  21  ar  
 46  20  22  ar  
 47  21  23  ar  
 48  21  52  1   
 49  22  24  ar  
 50  22  25  ar  
 51  23  24  ar  
 52  23  53  1   
 53  24  26  ar  
 54  25  27  ar  
 55  25  54  1   
 56  26  28  ar  
 57  26  55  1   
 58  27  28  ar  
 59  27  56  1   
 60  28  57  1   
@<TRIPOS>SUBSTRUCTURE
  1 ****   3 GROUP 4 **** **** 0

# MOE 2024.06 (io_trps.svl 2023.06)
