@<TRIPOS>MOLECULE
NONAME
44 46 1 0 0 
SMALL
USER_CHARGES


@<TRIPOS>ATOM
  1 CL       0.2720     0.6890     1.8040 Cl    1 <1>  -0.1770 
  2 C        0.1100     2.3000     1.1530 C.ar  1 <1>   0.1770 
  3 C        0.5480     3.3780     1.8960 C.ar  1 <1>  -0.1500 
  4 C       -0.4540     2.4740    -0.0950 C.ar  1 <1>  -0.1500 
  5 C        0.4210     4.6560     1.3770 C.ar  1 <1>  -0.1500 
  6 C       -0.5790     3.7530    -0.6100 C.ar  1 <1>  -0.1500 
  7 C       -0.1420     4.8530     0.1190 C.ar  1 <1>  -0.1430 
  8 C       -0.2790     6.2540    -0.4670 C.3   1 <1>   0.0640 
  9 C        1.1170     6.8770    -0.6720 C.3   1 <1>   0.3430 
 10 C       -1.1920     7.1400     0.3990 C.3   1 <1>  -0.1600 
 11 N        1.1290     8.3590    -0.4440 N.4   1 <1>  -0.9590 
 12 C       -1.3220     8.5580    -0.1940 C.3   1 <1>  -0.1600 
 13 C       -0.0830     9.0510    -0.9570 C.3   1 <1>   0.3430 
 14 C        2.3980     9.0190    -0.8720 C.3   1 <1>   0.4860 
 15 C        2.5860    10.2970    -0.0600 C.ar  1 <1>   0.1670 
 16 N        2.2310    10.2370     1.2220 N.ar  1 <1>  -0.6200 
 17 C        3.0880    11.4300    -0.6740 C.ar  1 <1>  -0.1500 
 18 C        2.4020    11.3560     1.9150 C.ar  1 <1>   0.1600 
 19 C        3.2500    12.5850     0.0590 C.ar  1 <1>   0.0830 
 20 C        2.8960    12.5370     1.3960 C.ar  1 <1>  -0.1500 
 21 O        3.7390    13.6710    -0.5740 O.3   1 <1>  -0.3620 
 22 C        3.9630    14.8860     0.1070 C.3   1 <1>   0.0400 
 23 H        0.9800     3.2140     2.8670 H     1 <1>   0.1500 
 24 H       -0.7900     1.6170    -0.6520 H     1 <1>   0.1500 
 25 H        0.7610     5.4870     1.9700 H     1 <1>   0.1500 
 26 H       -1.0250     3.8760    -1.5830 H     1 <1>   0.1500 
 27 H       -0.7360     6.1710    -1.4380 H     1 <1>   0.0800 
 28 H        1.4480     6.6520    -1.6720 H     1 <1>   0.0800 
 29 H        1.8090     6.4140     0.0130 H     1 <1>   0.0800 
 30 H       -0.7810     7.2140     1.3920 H     1 <1>   0.0800 
 31 H       -2.1660     6.6890     0.4890 H     1 <1>   0.0800 
 32 H        1.1280     8.5400     0.5780 H     1 <1>   0.4500 
 33 H       -1.5440     9.2510     0.6000 H     1 <1>   0.0800 
 34 H       -2.1590     8.5880    -0.8700 H     1 <1>   0.0800 
 35 H       -0.1990     8.8380    -2.0070 H     1 <1>   0.0800 
 36 H        0.0110    10.1190    -0.8340 H     1 <1>   0.0800 
 37 H        2.3780     9.2390    -1.9260 H     1 <1>   0.0800 
 38 H        3.2320     8.3690    -0.6680 H     1 <1>   0.0800 
 39 H        3.3610    11.4400    -1.7140 H     1 <1>   0.1500 
 40 H        2.1320    11.3310     2.9590 H     1 <1>   0.1500 
 41 H        2.9970    13.3920     2.0360 H     1 <1>   0.1500 
 42 H        4.3610    15.5950    -0.5970 H     1 <1>   0.0800 
 43 H        4.6730    14.7200     0.8970 H     1 <1>   0.0800 
 44 H        3.0280    15.2470     0.4980 H     1 <1>   0.0800 
@<TRIPOS>BOND
  1   1   2  1   
  2   2   3  ar  
  3   2   4  ar  
  4   3   5  ar  
  5   3  23  1   
  6   4   6  ar  
  7   4  24  1   
  8   5   7  ar  
  9   5  25  1   
 10   6   7  ar  
 11   6  26  1   
 12   7   8  1   
 13   8   9  1   
 14   8  10  1   
 15   8  27  1   
 16   9  11  1   
 17   9  28  1   
 18   9  29  1   
 19  10  12  1   
 20  10  30  1   
 21  10  31  1   
 22  11  13  1   
 23  11  14  1   
 24  11  32  1   
 25  12  13  1   
 26  12  33  1   
 27  12  34  1   
 28  13  35  1   
 29  13  36  1   
 30  14  15  1   
 31  14  37  1   
 32  14  38  1   
 33  15  16  ar  
 34  15  17  ar  
 35  16  18  ar  
 36  17  19  ar  
 37  17  39  1   
 38  18  20  ar  
 39  18  40  1   
 40  19  20  ar  
 41  19  21  1   
 42  20  41  1   
 43  21  22  1   
 44  22  42  1   
 45  22  43  1   
 46  22  44  1   
@<TRIPOS>SUBSTRUCTURE
  1 ****  11 GROUP 4 **** **** 0

# MOE 2024.06 (io_trps.svl 2023.06)
