@<TRIPOS>MOLECULE
NONAME
49 52 1 0 0 
SMALL
USER_CHARGES


@<TRIPOS>ATOM
  1 O        0.1830     0.0850    -0.7640 O.2   1 <1>  -0.5700 
  2 C        1.1040    -0.7030    -0.8710 C.2   1 <1>   0.5440 
  3 N        2.3820    -0.3020    -0.5360 N.am  1 <1>  -0.6600 
  4 C        0.8220    -2.0420    -1.3440 C.ar  1 <1>   0.0860 
  5 C        3.5080    -1.2470    -0.2880 C.3   1 <1>   0.1400 
  6 C        2.6930     1.1160    -0.1970 C.3   1 <1>   0.1400 
  7 C       -0.0720    -2.8740    -0.7000 C.ar  1 <1>  -0.1500 
  8 C        1.4180    -2.5800    -2.4760 C.ar  1 <1>  -0.1500 
  9 C        3.9340    -1.1660     1.1820 C.3   1 <1>  -0.1600 
 10 C        3.1080     1.2150     1.2750 C.3   1 <1>  -0.1600 
 11 C       -0.3270    -4.1550    -1.1690 C.ar  1 <1>   0.4100 
 12 C        1.1130    -3.8670    -2.8690 C.ar  1 <1>   0.1600 
 13 C        4.2750     0.2720     1.5980 C.3   1 <1>  -0.1600 
 14 N        0.2660    -4.6630    -2.2430 N.ar  1 <1>  -0.6200 
 15 N       -1.2410    -4.9540    -0.5070 N.pl3 1 <1>  -0.8380 
 16 C       -1.1140    -6.4410    -0.6130 C.3   1 <1>   0.2090 
 17 C       -2.6550    -4.4990    -0.4860 C.3   1 <1>   0.2090 
 18 C       -1.7900    -7.1060     0.5950 C.3   1 <1>   0.1000 
 19 C       -3.3680    -5.1230     0.7190 C.3   1 <1>  -0.1600 
 20 C       -1.7030    -8.6220     0.4960 C.2   1 <1>   0.0070 
 21 C       -3.2580    -6.6570     0.7150 C.3   1 <1>  -0.1600 
 22 N       -2.0180    -9.3220    -0.5410 N.2   1 <1>  -0.3380 
 23 N       -1.2880    -9.4040     1.4940 N.pl3 1 <1>   0.0330 
 24 N       -1.8070   -10.6040    -0.2310 N.2   1 <1>  -0.3380 
 25 C       -1.3750   -10.6290     0.9800 C.2   1 <1>   0.0360 
 26 H        4.3350    -0.9790    -0.9230 H     1 <1>   0.0800 
 27 H        3.2250    -2.2590    -0.5150 H     1 <1>   0.0800 
 28 H        1.8410     1.7490    -0.3760 H     1 <1>   0.0800 
 29 H        3.4960     1.4570    -0.8270 H     1 <1>   0.0800 
 30 H       -0.5790    -2.5280     0.1790 H     1 <1>   0.1500 
 31 H        2.1140    -1.9890    -3.0410 H     1 <1>   0.1500 
 32 H        4.7890    -1.8000     1.3400 H     1 <1>   0.0800 
 33 H        3.1320    -1.5390     1.7950 H     1 <1>   0.0800 
 34 H        2.2580     0.9680     1.8870 H     1 <1>   0.0800 
 35 H        3.3880     2.2290     1.4970 H     1 <1>   0.0800 
 36 H        1.5880    -4.2670    -3.7490 H     1 <1>   0.1500 
 37 H        5.1550     0.5980     1.0690 H     1 <1>   0.0800 
 38 H        4.4880     0.3050     2.6520 H     1 <1>   0.0800 
 39 H       -0.0740    -6.7190    -0.6420 H     1 <1>   0.0800 
 40 H       -1.5750    -6.7750    -1.5270 H     1 <1>   0.0800 
 41 H       -3.1360    -4.8060    -1.4000 H     1 <1>   0.0800 
 42 H       -2.7030    -3.4250    -0.4250 H     1 <1>   0.0800 
 43 H       -1.2560    -6.7860     1.4720 H     1 <1>   0.0800 
 44 H       -4.4040    -4.8350     0.7030 H     1 <1>   0.0800 
 45 H       -2.9300    -4.7260     1.6180 H     1 <1>   0.0800 
 46 H       -3.6910    -7.0580     1.6140 H     1 <1>   0.0800 
 47 H       -3.8120    -7.0490    -0.1220 H     1 <1>   0.0800 
 48 H       -0.9780    -9.1310     2.4280 H     1 <1>   0.2700 
 49 H       -1.1120   -11.5200     1.5210 H     1 <1>   0.1500 
@<TRIPOS>BOND
  1   1   2  2   
  2   2   3  am  
  3   2   4  1   
  4   3   5  1   
  5   3   6  1   
  6   4   7  ar  
  7   4   8  ar  
  8   5   9  1   
  9   5  26  1   
 10   5  27  1   
 11   6  10  1   
 12   6  28  1   
 13   6  29  1   
 14   7  11  ar  
 15   7  30  1   
 16   8  12  ar  
 17   8  31  1   
 18   9  13  1   
 19   9  32  1   
 20   9  33  1   
 21  10  13  1   
 22  10  34  1   
 23  10  35  1   
 24  11  14  ar  
 25  11  15  1   
 26  12  14  ar  
 27  12  36  1   
 28  13  37  1   
 29  13  38  1   
 30  15  16  1   
 31  15  17  1   
 32  16  18  1   
 33  16  39  1   
 34  16  40  1   
 35  17  19  1   
 36  17  41  1   
 37  17  42  1   
 38  18  20  1   
 39  18  21  1   
 40  18  43  1   
 41  19  21  1   
 42  19  44  1   
 43  19  45  1   
 44  20  22  2   
 45  20  23  1   
 46  21  46  1   
 47  21  47  1   
 48  22  24  1   
 49  23  25  1   
 50  23  48  1   
 51  24  25  2   
 52  25  49  1   
@<TRIPOS>SUBSTRUCTURE
  1 ****  11 GROUP 4 **** **** 0

# MOE 2024.06 (io_trps.svl 2023.06)
