@<TRIPOS>MOLECULE
NONAME
43 44 1 0 0 
SMALL
USER_CHARGES


@<TRIPOS>ATOM
  1 S       -0.5230    -1.6290    -1.7810 S.3   1 <1>  -0.3320 
  2 C       -0.7840    -3.2910    -1.1360 C.ar  1 <1>   0.1020 
  3 C        0.7520    -1.7700    -3.1100 C.3   1 <1>  -0.0100 
  4 C       -1.6980    -3.4250    -0.1070 C.ar  1 <1>  -0.1500 
  5 C       -0.1090    -4.3930    -1.6360 C.ar  1 <1>  -0.1500 
  6 C       -1.9510    -4.6750     0.4380 C.ar  1 <1>  -0.1430 
  7 C       -0.3620    -5.6420    -1.0940 C.ar  1 <1>  -0.1500 
  8 C       -1.2780    -5.7800    -0.0640 C.ar  1 <1>  -0.1500 
  9 C       -2.9550    -4.8320     1.5730 C.3   1 <1>   0.2530 
 10 N       -4.0090    -5.7990     1.2180 N.3   1 <1>  -0.8100 
 11 C       -4.8880    -6.0860     2.3920 C.3   1 <1>   0.1710 
 12 C       -4.8070    -5.3230     0.0720 C.3   1 <1>   0.0300 
 13 C       -5.7480    -7.3450     2.2340 C.2   1 <1>   0.5690 
 14 O       -6.7970    -7.4320     2.8270 O.2   1 <1>  -0.5700 
 15 N       -5.2900    -8.3270     1.4240 N.am  1 <1>  -0.7300 
 16 C       -6.0230    -9.5400     1.0120 C.3   1 <1>   0.3200 
 17 C       -5.7190    -9.8660    -0.4390 C.2   1 <1>  -0.0400 
 18 O       -6.1530   -11.0120    -0.9170 O.3   1 <1>  -0.2800 
 19 C       -5.0510    -9.1860    -1.3980 C.2   1 <1>  -0.1500 
 20 C       -5.7840   -11.1240    -2.1940 C.2   1 <1>  -0.0920 
 21 C       -5.0940    -9.9990    -2.5320 C.2   1 <1>  -0.1500 
 22 C       -6.1010   -12.2830    -3.0170 C.2   1 <1>   1.0320 
 23 O       -5.7180   -12.3200    -4.2040 O.co2 1 <1>  -0.9000 
 24 O       -6.7460   -13.2550    -2.5780 O.co2 1 <1>  -0.9000 
 25 H        0.9240    -0.7830    -3.4990 H     1 <1>   0.0800 
 26 H        0.3650    -2.4200    -3.8740 H     1 <1>   0.0800 
 27 H        1.6480    -2.1680    -2.6690 H     1 <1>   0.0800 
 28 H       -2.2040    -2.5490     0.2580 H     1 <1>   0.1500 
 29 H        0.6020    -4.3000    -2.4330 H     1 <1>   0.1500 
 30 H        0.1520    -6.5080    -1.4730 H     1 <1>   0.1500 
 31 H       -1.4760    -6.7540     0.3500 H     1 <1>   0.1500 
 32 H       -3.3980    -3.8800     1.8130 H     1 <1>   0.0800 
 33 H       -2.4250    -5.1840     2.4410 H     1 <1>   0.0800 
 34 H       -5.5340    -5.2470     2.5810 H     1 <1>   0.0800 
 35 H       -4.2790    -6.2360     3.2650 H     1 <1>   0.0800 
 36 H       -4.1810    -5.2120    -0.7970 H     1 <1>   0.0800 
 37 H       -5.2630    -4.3730     0.2960 H     1 <1>   0.0800 
 38 H       -5.5820    -6.0320    -0.1670 H     1 <1>   0.0800 
 39 H       -4.4330    -8.1290     0.9010 H     1 <1>   0.3700 
 40 H       -7.0830    -9.3960     1.1370 H     1 <1>   0.0800 
 41 H       -5.7150   -10.3650     1.6300 H     1 <1>   0.0800 
 42 H       -4.5750    -8.2250    -1.3440 H     1 <1>   0.1500 
 43 H       -4.6640    -9.7860    -3.4950 H     1 <1>   0.1500 
@<TRIPOS>BOND
  1   1   2  1   
  2   1   3  1   
  3   2   4  ar  
  4   2   5  ar  
  5   3  25  1   
  6   3  26  1   
  7   3  27  1   
  8   4   6  ar  
  9   4  28  1   
 10   5   7  ar  
 11   5  29  1   
 12   6   8  ar  
 13   6   9  1   
 14   7   8  ar  
 15   7  30  1   
 16   8  31  1   
 17   9  10  1   
 18   9  32  1   
 19   9  33  1   
 20  10  11  1   
 21  10  12  1   
 22  11  13  1   
 23  11  34  1   
 24  11  35  1   
 25  12  36  1   
 26  12  37  1   
 27  12  38  1   
 28  13  14  2   
 29  13  15  am  
 30  15  16  1   
 31  15  39  1   
 32  16  17  1   
 33  16  40  1   
 34  16  41  1   
 35  17  18  1   
 36  17  19  2   
 37  18  20  1   
 38  19  21  1   
 39  19  42  1   
 40  20  21  2   
 41  20  22  1   
 42  21  43  1   
 43  22  23  ar  
 44  22  24  ar  
@<TRIPOS>SUBSTRUCTURE
  1 ****  12 GROUP 4 **** **** 0

# MOE 2024.06 (io_trps.svl 2023.06)
