@<TRIPOS>MOLECULE
NONAME
54 56 1 0 0 
SMALL
USER_CHARGES


@<TRIPOS>ATOM
  1 O        0.7230     0.0560    -0.1660 O.3   1 <1>  -0.3630 
  2 C        0.4070    -1.2160     0.1870 C.ar  1 <1>   0.0830 
  3 C        2.0550     0.5060    -0.1760 C.3   1 <1>   0.1200 
  4 C       -0.9310    -1.5640     0.1260 C.ar  1 <1>  -0.1500 
  5 C        1.3440    -2.1630     0.5960 C.ar  1 <1>  -0.1500 
  6 C        2.0310     1.9670    -0.6380 C.3   1 <1>   0.3430 
  7 C       -1.3490    -2.8390     0.4640 C.ar  1 <1>   0.0820 
  8 C        0.9310    -3.4400     0.9360 C.ar  1 <1>  -0.1500 
  9 N        3.3930     2.6060    -0.6580 N.4   1 <1>  -0.9590 
 10 O       -2.6800    -3.0910     0.3740 O.3   1 <1>  -0.3630 
 11 C       -0.4090    -3.7820     0.8720 C.ar  1 <1>  -0.1500 
 12 C        3.2550     4.0840    -0.8640 C.3   1 <1>   0.3430 
 13 C        4.2680     1.9900    -1.7100 C.3   1 <1>   0.2630 
 14 C       -3.2110    -4.3560     0.6970 C.3   1 <1>   0.0400 
 15 C        4.3110     4.8680    -0.0740 C.3   1 <1>  -0.0800 
 16 C        4.1010     6.3760    -0.2340 C.3   1 <1>   0.2090 
 17 C        5.7630     4.6410    -0.5090 C.3   1 <1>  -0.1600 
 18 N        5.4550     6.9670    -0.2600 N.pl3 1 <1>  -0.8380 
 19 C        6.4800     5.9160    -0.0950 C.3   1 <1>   0.2090 
 20 C        5.6390     8.2730     0.2180 C.ar  1 <1>   0.1000 
 21 C        6.7030     8.6320     1.0460 C.ar  1 <1>  -0.1500 
 22 C        4.7400     9.2730    -0.1450 C.ar  1 <1>  -0.1500 
 23 C        6.8500     9.9280     1.5050 C.ar  1 <1>  -0.1500 
 24 C        4.8800    10.5710     0.3120 C.ar  1 <1>  -0.1500 
 25 C        5.9360    10.9020     1.1420 C.ar  1 <1>  -0.1500 
 26 H        2.6060    -0.1140    -0.8600 H     1 <1>   0.0800 
 27 H        2.4420     0.4220     0.8240 H     1 <1>   0.0800 
 28 H       -1.6600    -0.8410    -0.1880 H     1 <1>   0.1500 
 29 H        2.3900    -1.9360     0.6590 H     1 <1>   0.1500 
 30 H        1.3920     2.5140     0.0370 H     1 <1>   0.0800 
 31 H        1.5950     2.0120    -1.6230 H     1 <1>   0.0800 
 32 H        1.6530    -4.1730     1.2520 H     1 <1>   0.1500 
 33 H        3.8260     2.4670     0.2670 H     1 <1>   0.4500 
 34 H       -0.7000    -4.7790     1.1410 H     1 <1>   0.1500 
 35 H        2.2830     4.4030    -0.5250 H     1 <1>   0.0800 
 36 H        3.3310     4.3220    -1.9130 H     1 <1>   0.0800 
 37 H        3.8320     2.1250    -2.6860 H     1 <1>   0.0800 
 38 H        4.3890     0.9340    -1.5310 H     1 <1>   0.0800 
 39 H        5.2440     2.4460    -1.7060 H     1 <1>   0.0800 
 40 H       -4.2760    -4.3180     0.5510 H     1 <1>   0.0800 
 41 H       -2.9910    -4.5750     1.7270 H     1 <1>   0.0800 
 42 H       -2.7790    -5.0930     0.0430 H     1 <1>   0.0800 
 43 H        4.2130     4.6500     0.9750 H     1 <1>   0.0800 
 44 H        3.5260     6.7830     0.5820 H     1 <1>   0.0800 
 45 H        3.6140     6.6090    -1.1660 H     1 <1>   0.0800 
 46 H        5.8350     4.5600    -1.5800 H     1 <1>   0.0800 
 47 H        6.2130     3.7790    -0.0490 H     1 <1>   0.0800 
 48 H        7.3380     6.1190    -0.7140 H     1 <1>   0.0800 
 49 H        6.7760     5.8540     0.9390 H     1 <1>   0.0800 
 50 H        7.4300     7.9030     1.3420 H     1 <1>   0.1500 
 51 H        3.9260     9.0370    -0.8020 H     1 <1>   0.1500 
 52 H        7.6760    10.1820     2.1450 H     1 <1>   0.1500 
 53 H        4.1710    11.3250     0.0190 H     1 <1>   0.1500 
 54 H        6.0490    11.9100     1.4990 H     1 <1>   0.1500 
@<TRIPOS>BOND
  1   1   2  1   
  2   1   3  1   
  3   2   4  ar  
  4   2   5  ar  
  5   3   6  1   
  6   3  26  1   
  7   3  27  1   
  8   4   7  ar  
  9   4  28  1   
 10   5   8  ar  
 11   5  29  1   
 12   6   9  1   
 13   6  30  1   
 14   6  31  1   
 15   7  10  1   
 16   7  11  ar  
 17   8  11  ar  
 18   8  32  1   
 19   9  12  1   
 20   9  13  1   
 21   9  33  1   
 22  10  14  1   
 23  11  34  1   
 24  12  15  1   
 25  12  35  1   
 26  12  36  1   
 27  13  37  1   
 28  13  38  1   
 29  13  39  1   
 30  14  40  1   
 31  14  41  1   
 32  14  42  1   
 33  15  16  1   
 34  15  17  1   
 35  15  43  1   
 36  16  18  1   
 37  16  44  1   
 38  16  45  1   
 39  17  19  1   
 40  17  46  1   
 41  17  47  1   
 42  18  19  1   
 43  18  20  1   
 44  19  48  1   
 45  19  49  1   
 46  20  21  ar  
 47  20  22  ar  
 48  21  23  ar  
 49  21  50  1   
 50  22  24  ar  
 51  22  51  1   
 52  23  25  ar  
 53  23  52  1   
 54  24  25  ar  
 55  24  53  1   
 56  25  54  1   
@<TRIPOS>SUBSTRUCTURE
  1 ****   9 GROUP 4 **** **** 0

# MOE 2024.06 (io_trps.svl 2023.06)
