@<TRIPOS>MOLECULE
NONAME
24 24 1 0 0 
SMALL
USER_CHARGES


@<TRIPOS>ATOM
  1 F        0.7120     0.0440    -0.2000 F     1 <1>  -0.3400 
  2 C        0.7720    -1.2180     0.1920 C.3   1 <1>   0.6800 
  3 F        0.9680    -1.1570     1.5040 F     1 <1>  -0.3400 
  4 C        1.9790    -1.9160    -0.4570 C.3   1 <1>  -0.0800 
  5 C       -0.5730    -1.9170    -0.0750 C.3   1 <1>  -0.0800 
  6 C        2.0170    -3.3570     0.0550 C.3   1 <1>   0.3430 
  7 C        3.3300    -1.2160    -0.1940 C.3   1 <1>  -0.2400 
  8 C       -0.4580    -3.3580     0.4260 C.3   1 <1>   0.3430 
  9 C       -1.7880    -1.2190     0.5740 C.3   1 <1>  -0.2400 
 10 N        0.7150    -4.0480    -0.1970 N.4   1 <1>  -0.9060 
 11 H        1.8220    -1.9390    -1.5210 H     1 <1>   0.0800 
 12 H       -0.7360    -1.9400    -1.1380 H     1 <1>   0.0800 
 13 H        2.2230    -3.3460     1.1140 H     1 <1>   0.0800 
 14 H        2.8180    -3.8900    -0.4350 H     1 <1>   0.0800 
 15 H        3.5450    -1.1670     0.8610 H     1 <1>   0.0800 
 16 H        3.3120    -0.2090    -0.5760 H     1 <1>   0.0800 
 17 H        4.1340    -1.7390    -0.6820 H     1 <1>   0.0800 
 18 H       -1.3660    -3.8920     0.1930 H     1 <1>   0.0800 
 19 H       -0.3440    -3.3480     1.4990 H     1 <1>   0.0800 
 20 H       -1.6840    -1.1690     1.6450 H     1 <1>   0.0800 
 21 H       -2.7000    -1.7430     0.3430 H     1 <1>   0.0800 
 22 H       -1.8830    -0.2120     0.2040 H     1 <1>   0.0800 
 23 H        0.7710    -5.0060     0.1780 H     1 <1>   0.4500 
 24 H        0.5630    -4.1520    -1.2100 H     1 <1>   0.4500 
@<TRIPOS>BOND
  1   1   2  1   
  2   2   3  1   
  3   2   4  1   
  4   2   5  1   
  5   4   6  1   
  6   4   7  1   
  7   4  11  1   
  8   5   8  1   
  9   5   9  1   
 10   5  12  1   
 11   6  10  1   
 12   6  13  1   
 13   6  14  1   
 14   7  15  1   
 15   7  16  1   
 16   7  17  1   
 17   8  10  1   
 18   8  18  1   
 19   8  19  1   
 20   9  20  1   
 21   9  21  1   
 22   9  22  1   
 23  10  23  1   
 24  10  24  1   
@<TRIPOS>SUBSTRUCTURE
  1 ****   2 GROUP 4 **** **** 0

# MOE 2024.06 (io_trps.svl 2023.06)
