@<TRIPOS>MOLECULE
NONAME
60 64 1 0 0 
SMALL
USER_CHARGES


@<TRIPOS>ATOM
  1 O       -0.2420    -1.7460     1.9580 O.2   1 <1>  -0.5700 
  2 C        0.3600    -2.2370     1.0330 C.2   1 <1>   0.5690 
  3 N        1.5540    -1.7030     0.6280 N.am  1 <1>  -0.6600 
  4 C       -0.3160    -3.4310     0.3780 C.3   1 <1>  -0.0990 
  5 C        2.2900    -2.0850    -0.6160 C.3   1 <1>   0.1400 
  6 C        2.1310    -0.5290     1.3520 C.3   1 <1>   0.2840 
  7 C        0.3960    -4.1300    -0.7790 C.3   1 <1>   0.1200 
  8 C        2.7350    -3.5740    -0.6700 C.3   1 <1>   0.2800 
  9 C        1.8560     0.7610     0.5940 C.ar  1 <1>   0.1660 
 10 O        1.6890    -4.4650    -0.3860 O.3   1 <1>  -0.5600 
 11 C        3.8010    -3.8670     0.4080 C.3   1 <1>  -0.1600 
 12 C        3.2510    -3.9110    -2.0860 C.3   1 <1>  -0.1600 
 13 N        2.8390     1.2620    -0.1440 N.ar  1 <1>  -0.6200 
 14 C        0.5990     1.3480     0.7060 C.ar  1 <1>   0.1600 
 15 C        5.2270    -3.6630    -0.1060 C.3   1 <1>   0.1400 
 16 C        4.3080    -5.0130    -2.0610 C.3   1 <1>   0.1400 
 17 C        2.4770     2.3850    -0.7440 C.ar  1 <1>   0.1600 
 18 N        0.2430     2.4700     0.1020 N.ar  1 <1>  -0.6200 
 19 N        5.4920    -4.5480    -1.2790 N.am  1 <1>  -0.6600 
 20 C        1.2210     2.9740    -0.6270 C.ar  1 <1>   0.1660 
 21 C        6.7420    -5.0750    -1.5330 C.2   1 <1>   0.5440 
 22 C        0.9020     4.2650    -1.3540 C.3   1 <1>  -0.0970 
 23 O        6.8390    -6.0230    -2.2910 O.2   1 <1>  -0.5700 
 24 C        7.9350    -4.5360    -0.9090 C.ar  1 <1>   0.0860 
 25 C        8.8070    -5.3710    -0.2040 C.ar  1 <1>  -0.1500 
 26 C        8.2460    -3.1720    -0.9890 C.ar  1 <1>  -0.1500 
 27 C        9.9240    -4.8410     0.4100 C.ar  1 <1>  -0.1430 
 28 C        9.3670    -2.6440    -0.3720 C.ar  1 <1>  -0.1500 
 29 C       10.1940    -3.5010     0.3290 C.ar  1 <1>   0.0830 
 30 C       11.0030    -5.4970     1.2180 C.3   1 <1>  -0.0170 
 31 O       11.3080    -3.1510     0.9820 O.3   1 <1>  -0.3620 
 32 C       11.9070    -4.2990     1.5680 C.3   1 <1>   0.1200 
 33 H       -1.2820    -3.1110     0.0360 H     1 <1>   0.0800 
 34 H       -0.4860    -4.1610     1.1480 H     1 <1>   0.0800 
 35 H        3.1720    -1.4750    -0.7070 H     1 <1>   0.0800 
 36 H        1.6790    -1.8460    -1.4670 H     1 <1>   0.0800 
 37 H        3.1930    -0.6610     1.4630 H     1 <1>   0.0800 
 38 H        1.7160    -0.4540     2.3420 H     1 <1>   0.0800 
 39 H        0.4110    -3.5330    -1.6730 H     1 <1>   0.0800 
 40 H       -0.1140    -5.0510    -1.0030 H     1 <1>   0.0800 
 41 H        3.7190    -4.8900     0.7330 H     1 <1>   0.0800 
 42 H        3.6430    -3.2490     1.2720 H     1 <1>   0.0800 
 43 H        3.7060    -3.0450    -2.5320 H     1 <1>   0.0800 
 44 H        2.4370    -4.2060    -2.7230 H     1 <1>   0.0800 
 45 H       -0.1420     0.8650     1.3210 H     1 <1>   0.1500 
 46 H        5.9220    -3.8890     0.6860 H     1 <1>   0.0800 
 47 H        5.3670    -2.6370    -0.3980 H     1 <1>   0.0800 
 48 H        4.6080    -5.2530    -3.0670 H     1 <1>   0.0800 
 49 H        3.9080    -5.9040    -1.6060 H     1 <1>   0.0800 
 50 H        3.2160     2.8640    -1.3610 H     1 <1>   0.1500 
 51 H        1.7440     4.6120    -1.9230 H     1 <1>   0.0800 
 52 H        0.6280     5.0200    -0.6400 H     1 <1>   0.0800 
 53 H        0.0730     4.1060    -2.0200 H     1 <1>   0.0800 
 54 H        8.5950    -6.4240    -0.1470 H     1 <1>   0.1500 
 55 H        7.5960    -2.5230    -1.5500 H     1 <1>   0.1500 
 56 H        9.6070    -1.5980    -0.4280 H     1 <1>   0.1500 
 57 H       11.5380    -6.2270     0.6370 H     1 <1>   0.0800 
 58 H       10.6060    -5.9530     2.1070 H     1 <1>   0.0800 
 59 H       12.8920    -4.4120     1.1520 H     1 <1>   0.0800 
 60 H       11.9640    -4.1420     2.6300 H     1 <1>   0.0800 
@<TRIPOS>BOND
  1   1   2  2   
  2   2   3  am  
  3   2   4  1   
  4   3   5  1   
  5   3   6  1   
  6   4   7  1   
  7   4  33  1   
  8   4  34  1   
  9   5   8  1   
 10   5  35  1   
 11   5  36  1   
 12   6   9  1   
 13   6  37  1   
 14   6  38  1   
 15   7  10  1   
 16   7  39  1   
 17   7  40  1   
 18   8  10  1   
 19   8  11  1   
 20   8  12  1   
 21   9  13  ar  
 22   9  14  ar  
 23  11  15  1   
 24  11  41  1   
 25  11  42  1   
 26  12  16  1   
 27  12  43  1   
 28  12  44  1   
 29  13  17  ar  
 30  14  18  ar  
 31  14  45  1   
 32  15  19  1   
 33  15  46  1   
 34  15  47  1   
 35  16  19  1   
 36  16  48  1   
 37  16  49  1   
 38  17  20  ar  
 39  17  50  1   
 40  18  20  ar  
 41  19  21  am  
 42  20  22  1   
 43  21  23  2   
 44  21  24  1   
 45  22  51  1   
 46  22  52  1   
 47  22  53  1   
 48  24  25  ar  
 49  24  26  ar  
 50  25  27  ar  
 51  25  54  1   
 52  26  28  ar  
 53  26  55  1   
 54  27  29  ar  
 55  27  30  1   
 56  28  29  ar  
 57  28  56  1   
 58  29  31  1   
 59  30  32  1   
 60  30  57  1   
 61  30  58  1   
 62  31  32  1   
 63  32  59  1   
 64  32  60  1   
@<TRIPOS>SUBSTRUCTURE
  1 ****  15 GROUP 4 **** **** 0

# MOE 2024.06 (io_trps.svl 2023.06)
