@<TRIPOS>MOLECULE
NONAME
19 20 1 0 0 
SMALL
USER_CHARGES


@<TRIPOS>ATOM
  1 O       -0.1380    -0.6170    -2.6450 O.co2 1 <1>  -0.9000 
  2 C        0.2100    -0.7710    -1.4630 C.2   1 <1>   0.8710 
  3 O        0.7240     0.1600    -0.8230 O.co2 1 <1>  -0.9000 
  4 C       -0.0760    -2.1150    -0.7540 C.3   1 <1>   0.1870 
  5 O        0.8910    -3.1570    -0.7670 O.3   1 <1>  -0.5380 
  6 C       -0.6080    -2.0650     0.7110 C.3   1 <1>   0.0000 
  7 C       -1.4390    -2.8140    -1.0440 C.3   1 <1>   0.0000 
  8 C        0.2880    -4.1730    -0.0480 C.3   1 <1>   0.1200 
  9 C       -1.0300    -3.4940     0.2860 C.3   1 <1>   0.0000 
 10 C       -2.0960    -4.2270     1.1040 C.3   1 <1>  -0.2400 
 11 H       -1.4140    -1.3700     0.8910 H     1 <1>   0.0000 
 12 H        0.1670    -2.0190     1.4570 H     1 <1>   0.0000 
 13 H       -1.4270    -3.4550    -1.9090 H     1 <1>   0.0000 
 14 H       -2.3090    -2.1760    -1.0000 H     1 <1>   0.0000 
 15 H        0.8810    -4.3920     0.8220 H     1 <1>   0.0800 
 16 H        0.1680    -5.0340    -0.6820 H     1 <1>   0.0800 
 17 H       -2.9550    -3.5940     1.2400 H     1 <1>   0.0800 
 18 H       -1.7030    -4.4900     2.0690 H     1 <1>   0.0800 
 19 H       -2.4020    -5.1210     0.5910 H     1 <1>   0.0800 
@<TRIPOS>BOND
  1   1   2  ar  
  2   2   3  ar  
  3   2   4  1   
  4   4   5  1   
  5   4   6  1   
  6   4   7  1   
  7   5   8  1   
  8   6   9  1   
  9   6  11  1   
 10   6  12  1   
 11   7   9  1   
 12   7  13  1   
 13   7  14  1   
 14   8   9  1   
 15   8  15  1   
 16   8  16  1   
 17   9  10  1   
 18  10  17  1   
 19  10  18  1   
 20  10  19  1   
@<TRIPOS>SUBSTRUCTURE
  1 ****   4 GROUP 4 **** **** 0

# MOE 2024.06 (io_trps.svl 2023.06)
