@<TRIPOS>MOLECULE
NONAME
51 52 1 0 0 
SMALL
USER_CHARGES


@<TRIPOS>ATOM
  1 O        3.3780    -0.0900     1.3130 O.2   1 <1>  -0.5700 
  2 C        2.7140    -0.7360     0.5220 C.2   1 <1>   0.5440 
  3 N        2.4190    -0.1170    -0.6680 N.am  1 <1>  -0.6600 
  4 C        2.4210    -2.1410     0.7540 C.ar  1 <1>   0.0860 
  5 C        3.1230    -0.5640    -1.9070 C.3   1 <1>   0.1400 
  6 C        1.8530     1.2620    -0.7070 C.3   1 <1>   0.1400 
  7 C        1.1500    -2.7190     0.5990 C.ar  1 <1>  -0.1440 
  8 C        3.4700    -2.9740     1.1480 C.ar  1 <1>  -0.1500 
  9 C        4.6240    -0.1940    -1.8580 C.3   1 <1>   0.3430 
 10 C        2.9170     2.3550    -0.5040 C.3   1 <1>  -0.1600 
 11 C        0.9780    -4.0800     0.8070 C.ar  1 <1>  -0.1500 
 12 C       -0.0880    -1.9020     0.2320 C.3   1 <1>  -0.0160 
 13 C        3.2900    -4.3280     1.3530 C.ar  1 <1>  -0.1500 
 14 N        4.8860     0.9450    -0.9180 N.4   1 <1>  -0.9590 
 15 C        4.1970     2.1970    -1.3280 C.3   1 <1>   0.3430 
 16 C        2.0390    -4.8840     1.1760 C.ar  1 <1>  -0.1500 
 17 C       -0.5720    -1.0740     1.4250 C.3   1 <1>  -0.2400 
 18 C        6.3380     1.1210    -0.6150 C.3   1 <1>   0.3430 
 19 C        6.5570     1.8580     0.7100 C.3   1 <1>   0.1200 
 20 O        7.9240     2.0380     0.8580 O.3   1 <1>  -0.5600 
 21 C        8.2970     2.6450     2.0510 C.3   1 <1>   0.1200 
 22 C        9.8150     2.7730     2.0450 C.3   1 <1>  -0.2400 
 23 H        2.6660    -0.1060    -2.7680 H     1 <1>   0.0800 
 24 H        3.0200    -1.6300    -2.0210 H     1 <1>   0.0800 
 25 H        1.1080     1.3530     0.0670 H     1 <1>   0.0800 
 26 H        1.3530     1.4090    -1.6500 H     1 <1>   0.0800 
 27 H        4.4460    -2.5500     1.3030 H     1 <1>   0.1500 
 28 H        4.9760     0.0420    -2.8490 H     1 <1>   0.0800 
 29 H        5.1670    -1.0590    -1.5170 H     1 <1>   0.0800 
 30 H        3.1710     2.4130     0.5390 H     1 <1>   0.0800 
 31 H        2.4690     3.3000    -0.7570 H     1 <1>   0.0800 
 32 H        0.0070    -4.5300     0.6900 H     1 <1>   0.1500 
 33 H       -0.8840    -2.5610    -0.0700 H     1 <1>   0.0800 
 34 H        0.1110    -1.2620    -0.6070 H     1 <1>   0.0800 
 35 H        4.1160    -4.9490     1.6550 H     1 <1>   0.1500 
 36 H        4.4060     0.6560    -0.0340 H     1 <1>   0.4500 
 37 H        4.8380     3.0450    -1.1450 H     1 <1>   0.0800 
 38 H        3.9650     2.1720    -2.3800 H     1 <1>   0.0800 
 39 H        1.8890    -5.9390     1.3340 H     1 <1>   0.1500 
 40 H       -0.8040    -1.7220     2.2520 H     1 <1>   0.0800 
 41 H       -1.4580    -0.5260     1.1600 H     1 <1>   0.0800 
 42 H        0.1830    -0.3770     1.7410 H     1 <1>   0.0800 
 43 H        6.8140     1.6710    -1.4100 H     1 <1>   0.0800 
 44 H        6.8090     0.1560    -0.5370 H     1 <1>   0.0800 
 45 H        6.1940     1.2670     1.5350 H     1 <1>   0.0800 
 46 H        6.0880     2.8260     0.7020 H     1 <1>   0.0800 
 47 H        7.9730     2.0310     2.8750 H     1 <1>   0.0800 
 48 H        7.8360     3.6180     2.1120 H     1 <1>   0.0800 
 49 H       10.2680     1.8010     1.9750 H     1 <1>   0.0800 
 50 H       10.1450     3.2400     2.9550 H     1 <1>   0.0800 
 51 H       10.1330     3.3790     1.2150 H     1 <1>   0.0800 
@<TRIPOS>BOND
  1   1   2  2   
  2   2   3  am  
  3   2   4  1   
  4   3   5  1   
  5   3   6  1   
  6   4   7  ar  
  7   4   8  ar  
  8   5   9  1   
  9   5  23  1   
 10   5  24  1   
 11   6  10  1   
 12   6  25  1   
 13   6  26  1   
 14   7  11  ar  
 15   7  12  1   
 16   8  13  ar  
 17   8  27  1   
 18   9  14  1   
 19   9  28  1   
 20   9  29  1   
 21  10  15  1   
 22  10  30  1   
 23  10  31  1   
 24  11  16  ar  
 25  11  32  1   
 26  12  17  1   
 27  12  33  1   
 28  12  34  1   
 29  13  16  ar  
 30  13  35  1   
 31  14  15  1   
 32  14  18  1   
 33  14  36  1   
 34  15  37  1   
 35  15  38  1   
 36  16  39  1   
 37  17  40  1   
 38  17  41  1   
 39  17  42  1   
 40  18  19  1   
 41  18  43  1   
 42  18  44  1   
 43  19  20  1   
 44  19  45  1   
 45  19  46  1   
 46  20  21  1   
 47  21  22  1   
 48  21  47  1   
 49  21  48  1   
 50  22  49  1   
 51  22  50  1   
 52  22  51  1   
@<TRIPOS>SUBSTRUCTURE
  1 ****   2 GROUP 4 **** **** 0

# MOE 2024.06 (io_trps.svl 2023.06)
