@<TRIPOS>MOLECULE
NONAME
53 56 1 0 0 
SMALL
USER_CHARGES


@<TRIPOS>ATOM
  1 O       -0.6970    -0.0290     0.1820 O.2   1 <1>  -0.5700 
  2 C       -1.6130     0.7160     0.4700 C.2   1 <1>   0.5440 
  3 N       -2.8440     0.1630     0.7460 N.am  1 <1>  -0.6600 
  4 C       -1.3950     2.1380     0.4900 C.ar  1 <1>   0.0860 
  5 C       -2.9800    -1.2870     1.1000 C.3   1 <1>   0.1400 
  6 C       -4.1240     0.7430     0.2270 C.3   1 <1>   0.1400 
  7 C       -2.0610     2.9900     1.3530 C.ar  1 <1>   0.1600 
  8 C       -0.4920     2.7550    -0.3560 C.ar  1 <1>   0.1600 
  9 C       -3.6350    -2.0750    -0.0480 C.3   1 <1>   0.3440 
 10 C       -4.7380    -0.1560    -0.8670 C.3   1 <1>   0.2950 
 11 N       -1.8930     4.2890     1.3590 N.ar  1 <1>  -0.6200 
 12 N       -0.2950     4.0510    -0.3780 N.ar  1 <1>  -0.6200 
 13 O       -4.8520    -1.4730    -0.4040 O.3   1 <1>  -0.5600 
 14 C       -3.8800    -3.5220     0.3690 C.ar  1 <1>  -0.1430 
 15 C       -6.1270     0.3620    -1.2830 C.3   1 <1>  -0.1950 
 16 C       -1.0130     4.7620     0.4870 C.ar  1 <1>   0.7200 
 17 C       -2.8880    -4.4690     0.1560 C.ar  1 <1>  -0.1500 
 18 C       -5.0670    -3.9150     0.9720 C.ar  1 <1>  -0.1500 
 19 C       -7.3690     0.0320    -0.5140 C.3   1 <1>  -0.2000 
 20 C       -7.1650    -0.5270    -1.8950 C.3   1 <1>  -0.2000 
 21 N       -0.8630     6.0990     0.5140 N.pl3 1 <1>  -0.8690 
 22 C       -3.0790    -5.7850     0.5390 C.ar  1 <1>  -0.1500 
 23 C       -5.2600    -5.2300     1.3560 C.ar  1 <1>  -0.1500 
 24 C        0.0830     6.9140    -0.2470 C.3   1 <1>   0.2890 
 25 C       -4.2650    -6.1670     1.1400 C.ar  1 <1>  -0.1500 
 26 C        1.0220     7.5900     0.7440 C.3   1 <1>  -0.2400 
 27 C       -0.7160     7.9380    -1.0430 C.3   1 <1>  -0.2400 
 28 H       -2.0180    -1.7160     1.3200 H     1 <1>   0.0800 
 29 H       -3.5880    -1.3840     1.9820 H     1 <1>   0.0800 
 30 H       -4.8250     0.8370     1.0380 H     1 <1>   0.0800 
 31 H       -3.9570     1.7220    -0.1850 H     1 <1>   0.0800 
 32 H       -2.7570     2.5740     2.0610 H     1 <1>   0.1500 
 33 H        0.0790     2.1460    -1.0370 H     1 <1>   0.1500 
 34 H       -2.9910    -2.0590    -0.9100 H     1 <1>   0.0800 
 35 H       -4.0980    -0.1640    -1.7330 H     1 <1>   0.0800 
 36 H       -6.0640     1.3570    -1.6900 H     1 <1>   0.1000 
 37 H       -1.9590    -4.1870    -0.3090 H     1 <1>   0.1500 
 38 H       -5.8500    -3.1950     1.1420 H     1 <1>   0.1500 
 39 H       -7.3120    -0.6500     0.3180 H     1 <1>   0.1000 
 40 H       -8.1150     0.7950    -0.3720 H     1 <1>   0.1000 
 41 H       -7.7670    -0.1460    -2.7020 H     1 <1>   0.1000 
 42 H       -6.9650    -1.5810    -1.9920 H     1 <1>   0.1000 
 43 H       -1.4160     6.5780     1.2190 H     1 <1>   0.4000 
 44 H       -2.3050    -6.5130     0.3690 H     1 <1>   0.1500 
 45 H       -6.1850    -5.5240     1.8200 H     1 <1>   0.1500 
 46 H        0.6550     6.2990    -0.9230 H     1 <1>   0.0800 
 47 H       -4.4150    -7.1900     1.4370 H     1 <1>   0.1500 
 48 H        0.4720     8.2130     1.4260 H     1 <1>   0.0800 
 49 H        1.7330     8.1990     0.2170 H     1 <1>   0.0800 
 50 H        1.5610     6.8430     1.2990 H     1 <1>   0.0800 
 51 H       -1.2920     8.5650    -0.3870 H     1 <1>   0.0800 
 52 H       -1.3770     7.4310    -1.7230 H     1 <1>   0.0800 
 53 H       -0.0500     8.5560    -1.6160 H     1 <1>   0.0800 
@<TRIPOS>BOND
  1   1   2  2   
  2   2   3  am  
  3   2   4  1   
  4   3   5  1   
  5   3   6  1   
  6   4   7  ar  
  7   4   8  ar  
  8   5   9  1   
  9   5  28  1   
 10   5  29  1   
 11   6  10  1   
 12   6  30  1   
 13   6  31  1   
 14   7  11  ar  
 15   7  32  1   
 16   8  12  ar  
 17   8  33  1   
 18   9  13  1   
 19   9  14  1   
 20   9  34  1   
 21  10  13  1   
 22  10  15  1   
 23  10  35  1   
 24  11  16  ar  
 25  12  16  ar  
 26  14  17  ar  
 27  14  18  ar  
 28  15  19  1   
 29  15  20  1   
 30  15  36  1   
 31  16  21  1   
 32  17  22  ar  
 33  17  37  1   
 34  18  23  ar  
 35  18  38  1   
 36  19  20  1   
 37  19  39  1   
 38  19  40  1   
 39  20  41  1   
 40  20  42  1   
 41  21  24  1   
 42  21  43  1   
 43  22  25  ar  
 44  22  44  1   
 45  23  25  ar  
 46  23  45  1   
 47  24  26  1   
 48  24  27  1   
 49  24  46  1   
 50  25  47  1   
 51  26  48  1   
 52  26  49  1   
 53  26  50  1   
 54  27  51  1   
 55  27  52  1   
 56  27  53  1   
@<TRIPOS>SUBSTRUCTURE
  1 ****   3 GROUP 4 **** **** 0

# MOE 2024.06 (io_trps.svl 2023.06)
