@<TRIPOS>MOLECULE
NONAME
35 36 1 0 0 
SMALL
USER_CHARGES


@<TRIPOS>ATOM
  1 O        1.3730     1.2270    -0.0920 O.2   1 <1>  -0.5700 
  2 C        0.8500     2.3100    -0.1170 C.2   1 <1>   0.5690 
  3 N        0.5990     2.9240    -1.2940 N.am  1 <1>  -0.7300 
  4 C        0.4640     2.9900     1.1830 C.3   1 <1>  -0.0990 
  5 C       -0.1170     4.2220    -1.4690 C.3   1 <1>   0.1400 
  6 C       -0.5940     4.0960     0.9900 C.3   1 <1>  -0.1600 
  7 C       -0.2170     5.0630    -0.1660 C.3   1 <1>   0.2040 
  8 C        1.1000     5.7920     0.2050 C.ar  1 <1>  -0.1440 
  9 C       -1.3240     6.1100    -0.4090 C.2   1 <1>   0.6590 
 10 C        1.0900     6.7230     1.2410 C.ar  1 <1>  -0.1500 
 11 C        2.3110     5.5560    -0.4410 C.ar  1 <1>  -0.1500 
 12 O       -1.5450     6.5580    -1.5080 O.2   1 <1>  -0.5700 
 13 O       -2.0400     6.4930     0.6480 O.3   1 <1>  -0.4300 
 14 C        2.2390     7.4000     1.6110 C.ar  1 <1>  -0.1500 
 15 C        3.4620     6.2310    -0.0720 C.ar  1 <1>  -0.1500 
 16 C       -3.0420     7.4850     0.5810 C.3   1 <1>   0.1200 
 17 C        3.4280     7.1550     0.9540 C.ar  1 <1>  -0.1500 
 18 C       -2.3860     8.8550     0.7450 C.3   1 <1>  -0.2400 
 19 H        0.8560     2.4050    -2.1370 H     1 <1>   0.3700 
 20 H        1.3570     3.4080     1.6120 H     1 <1>   0.0800 
 21 H        0.0920     2.2470     1.8640 H     1 <1>   0.0800 
 22 H       -1.1110     3.9950    -1.8170 H     1 <1>   0.0800 
 23 H        0.3640     4.8020    -2.2390 H     1 <1>   0.0800 
 24 H       -0.7060     4.6360     1.9140 H     1 <1>   0.0800 
 25 H       -1.5400     3.6340     0.7660 H     1 <1>   0.0800 
 26 H        0.1850     6.9380     1.7810 H     1 <1>   0.1500 
 27 H        2.3960     4.8430    -1.2400 H     1 <1>   0.1500 
 28 H        2.2060     8.1170     2.4130 H     1 <1>   0.1500 
 29 H        4.3870     6.0330    -0.5850 H     1 <1>   0.1500 
 30 H       -3.7370     7.3030     1.3810 H     1 <1>   0.0800 
 31 H       -3.5610     7.4070    -0.3600 H     1 <1>   0.0800 
 32 H        4.3230     7.6800     1.2390 H     1 <1>   0.1500 
 33 H       -1.8660     8.9100     1.6850 H     1 <1>   0.0800 
 34 H       -3.1390     9.6210     0.7250 H     1 <1>   0.0800 
 35 H       -1.6960     9.0380    -0.0600 H     1 <1>   0.0800 
@<TRIPOS>BOND
  1   1   2  2   
  2   2   3  am  
  3   2   4  1   
  4   3   5  1   
  5   3  19  1   
  6   4   6  1   
  7   4  20  1   
  8   4  21  1   
  9   5   7  1   
 10   5  22  1   
 11   5  23  1   
 12   6   7  1   
 13   6  24  1   
 14   6  25  1   
 15   7   8  1   
 16   7   9  1   
 17   8  10  ar  
 18   8  11  ar  
 19   9  12  2   
 20   9  13  1   
 21  10  14  ar  
 22  10  26  1   
 23  11  15  ar  
 24  11  27  1   
 25  13  16  1   
 26  14  17  ar  
 27  14  28  1   
 28  15  17  ar  
 29  15  29  1   
 30  16  18  1   
 31  16  30  1   
 32  16  31  1   
 33  17  32  1   
 34  18  33  1   
 35  18  34  1   
 36  18  35  1   
@<TRIPOS>SUBSTRUCTURE
  1 ****   7 GROUP 4 **** **** 0

# MOE 2024.06 (io_trps.svl 2023.06)
