@<TRIPOS>MOLECULE
NONAME
51 54 1 0 0 
SMALL
USER_CHARGES


@<TRIPOS>ATOM
  1 O       -0.7140     0.6230     1.6960 O.2   1 <1>  -0.5700 
  2 C       -1.7400     1.2340     1.4660 C.2   1 <1>   0.5440 
  3 N       -2.9510     0.6490     1.7740 N.am  1 <1>  -0.6600 
  4 C       -1.6520     2.5350     0.8600 C.ar  1 <1>   0.0860 
  5 C       -4.2250     0.9510     1.0610 C.3   1 <1>   0.1400 
  6 C       -3.0340    -0.5580     2.6440 C.3   1 <1>   0.1400 
  7 C       -2.3950     3.6180     1.2920 C.ar  1 <1>   0.1600 
  8 C       -0.8050     2.7910    -0.2020 C.ar  1 <1>   0.1600 
  9 C       -4.5980    -0.2460     0.1830 C.3   1 <1>  -0.1600 
 10 C       -3.3980    -1.7720     1.7880 C.3   1 <1>  -0.1600 
 11 N       -2.3470     4.7980     0.7230 N.ar  1 <1>  -0.6200 
 12 N       -0.7290     3.9570    -0.7950 N.ar  1 <1>  -0.6200 
 13 C       -4.6950    -1.5480     0.9970 C.3   1 <1>   0.4240 
 14 C       -1.5140     4.9100    -0.3020 C.ar  1 <1>   0.7200 
 15 O       -5.6980    -1.3760     1.9710 O.3   1 <1>  -0.5600 
 16 C       -4.9820    -2.7580     0.0810 C.ar  1 <1>  -0.1430 
 17 N       -1.4920     6.1300    -0.8740 N.pl3 1 <1>  -0.8690 
 18 C       -7.0180    -1.6160     1.5900 C.3   1 <1>   0.1200 
 19 C       -6.1560    -3.4930     0.2050 C.ar  1 <1>  -0.1440 
 20 C       -4.0660    -3.1320    -0.8970 C.ar  1 <1>  -0.1500 
 21 C       -0.6330     6.5950    -1.9910 C.3   1 <1>   0.1290 
 22 C       -7.1730    -3.0960     1.2560 C.3   1 <1>  -0.0170 
 23 C       -6.4030    -4.5790    -0.6200 C.ar  1 <1>  -0.1500 
 24 C       -4.3120    -4.2130    -1.7230 C.ar  1 <1>  -0.1500 
 25 C       -5.4780    -4.9460    -1.5920 C.ar  1 <1>   0.0830 
 26 O       -5.6420    -5.9920    -2.4390 O.3   1 <1>  -0.3620 
 27 C       -6.7850    -6.8150    -2.3750 C.3   1 <1>   0.0400 
 28 H       -4.1300     1.8230     0.4410 H     1 <1>   0.0800 
 29 H       -5.0020     1.1330     1.7850 H     1 <1>   0.0800 
 30 H       -3.7860    -0.4000     3.3980 H     1 <1>   0.0800 
 31 H       -2.0960    -0.7310     3.1450 H     1 <1>   0.0800 
 32 H       -3.0520     3.4920     2.1350 H     1 <1>   0.1500 
 33 H       -0.1770     1.9940    -0.5650 H     1 <1>   0.1500 
 34 H       -3.8450    -0.3520    -0.5750 H     1 <1>   0.0800 
 35 H       -5.5260    -0.0580    -0.3220 H     1 <1>   0.0800 
 36 H       -3.5120    -2.6390     2.4130 H     1 <1>   0.0800 
 37 H       -2.5800    -1.9620     1.1200 H     1 <1>   0.0800 
 38 H       -2.0910     6.8180    -0.4180 H     1 <1>   0.4000 
 39 H       -7.2610    -1.0000     0.7420 H     1 <1>   0.0800 
 40 H       -7.6530    -1.3480     2.4150 H     1 <1>   0.0800 
 41 H       -3.1490    -2.5860    -1.0270 H     1 <1>   0.1500 
 42 H       -0.0610     5.7800    -2.4010 H     1 <1>   0.0800 
 43 H        0.0470     7.3490    -1.6350 H     1 <1>   0.0800 
 44 H       -1.2470     7.0100    -2.7710 H     1 <1>   0.0800 
 45 H       -8.1700    -3.2750     0.8960 H     1 <1>   0.0800 
 46 H       -7.0230    -3.6820     2.1450 H     1 <1>   0.0800 
 47 H       -7.3150    -5.1290    -0.4960 H     1 <1>   0.1500 
 48 H       -3.5990    -4.4980    -2.4750 H     1 <1>   0.1500 
 49 H       -6.6920    -7.5750    -3.1290 H     1 <1>   0.0800 
 50 H       -7.6580    -6.2150    -2.5660 H     1 <1>   0.0800 
 51 H       -6.8340    -7.2700    -1.4020 H     1 <1>   0.0800 
@<TRIPOS>BOND
  1   1   2  2   
  2   2   3  am  
  3   2   4  1   
  4   3   5  1   
  5   3   6  1   
  6   4   7  ar  
  7   4   8  ar  
  8   5   9  1   
  9   5  28  1   
 10   5  29  1   
 11   6  10  1   
 12   6  30  1   
 13   6  31  1   
 14   7  11  ar  
 15   7  32  1   
 16   8  12  ar  
 17   8  33  1   
 18   9  13  1   
 19   9  34  1   
 20   9  35  1   
 21  10  13  1   
 22  10  36  1   
 23  10  37  1   
 24  11  14  ar  
 25  12  14  ar  
 26  13  15  1   
 27  13  16  1   
 28  14  17  1   
 29  15  18  1   
 30  16  19  ar  
 31  16  20  ar  
 32  17  21  1   
 33  17  38  1   
 34  18  22  1   
 35  18  39  1   
 36  18  40  1   
 37  19  22  1   
 38  19  23  ar  
 39  20  24  ar  
 40  20  41  1   
 41  21  42  1   
 42  21  43  1   
 43  21  44  1   
 44  22  45  1   
 45  22  46  1   
 46  23  25  ar  
 47  23  47  1   
 48  24  25  ar  
 49  24  48  1   
 50  25  26  1   
 51  26  27  1   
 52  27  49  1   
 53  27  50  1   
 54  27  51  1   
@<TRIPOS>SUBSTRUCTURE
  1 ****   9 GROUP 4 **** **** 0

# MOE 2024.06 (io_trps.svl 2023.06)
