@<TRIPOS>MOLECULE
NONAME
50 54 1 0 0 
SMALL
USER_CHARGES


@<TRIPOS>ATOM
  1 O       -3.1230     2.4660    -2.5170 O.2   1 <1>  -0.5700 
  2 C       -2.7850     1.7420    -1.6030 C.2   1 <1>   0.5440 
  3 N       -3.1940     0.4320    -1.6060 N.am  1 <1>  -0.6600 
  4 C       -1.9640     2.2480    -0.5320 C.ar  1 <1>   0.0860 
  5 C       -4.0110    -0.1770    -2.6880 C.3   1 <1>   0.1400 
  6 C       -2.9730    -0.5400    -0.5080 C.3   1 <1>   0.1400 
  7 C       -0.6120     1.9100    -0.4120 C.ar  1 <1>   0.0000 
  8 C       -2.4290     3.0650     0.4810 C.ar  1 <1>  -0.1440 
  9 C       -4.6010    -1.4370    -2.0540 C.3   1 <1>   0.2000 
 10 C       -3.5350    -1.8640    -1.0370 C.3   1 <1>  -0.0800 
 11 C        0.0970     2.3460     0.6830 C.ar  1 <1>   0.3970 
 12 C        0.3510     1.1770    -1.1290 C.2   1 <1>   0.1080 
 13 C       -1.6050     3.4550     1.5230 C.ar  1 <1>   0.1660 
 14 C       -3.8200     3.6350     0.6410 C.3   1 <1>  -0.0170 
 15 O       -5.7630    -1.0820    -1.3860 O.3   1 <1>  -0.6800 
 16 C       -4.0270    -2.8110     0.0740 C.3   1 <1>   0.0200 
 17 O        1.3220     1.8590     0.5850 O.3   1 <1>  -0.0190 
 18 N       -0.3470     3.1160     1.6800 N.ar  1 <1>  -0.5670 
 19 N        1.4720     1.1520    -0.5130 N.2   1 <1>  -0.4100 
 20 C        0.1190     0.5110    -2.4700 C.3   1 <1>  -0.0590 
 21 C       -2.3450     4.3380     2.4950 C.3   1 <1>  -0.0170 
 22 C       -3.6640     4.6670     1.7710 C.3   1 <1>  -0.1600 
 23 C       -2.9100    -3.2570     1.0040 C.2   1 <1>  -0.0400 
 24 O       -3.2270    -3.8650     2.1160 O.3   1 <1>  -0.0190 
 25 C       -1.5700    -3.1710     0.9550 C.2   1 <1>  -0.1500 
 26 N       -2.1760    -4.1820     2.8160 N.2   1 <1>  -0.4100 
 27 C       -1.1630    -3.7750     2.1410 C.2   1 <1>   0.1080 
 28 C        0.2750    -3.9340     2.5840 C.3   1 <1>  -0.0590 
 29 H       -4.7750     0.4960    -3.0410 H     1 <1>   0.0800 
 30 H       -3.3630    -0.4400    -3.5050 H     1 <1>   0.0800 
 31 H       -1.9280    -0.6240    -0.2670 H     1 <1>   0.0800 
 32 H       -3.5170    -0.2170     0.3650 H     1 <1>   0.0800 
 33 H       -4.8400    -2.2030    -2.7730 H     1 <1>   0.0800 
 34 H       -2.7510    -2.3590    -1.5820 H     1 <1>   0.0800 
 35 H       -4.1650     4.0970    -0.2690 H     1 <1>   0.0800 
 36 H       -4.5010     2.8540     0.9310 H     1 <1>   0.0800 
 37 H       -5.6270    -0.2170    -0.9510 H     1 <1>   0.4000 
 38 H       -4.4760    -3.6830    -0.3670 H     1 <1>   0.0800 
 39 H       -4.7810    -2.3220     0.6650 H     1 <1>   0.0800 
 40 H       -0.3570     1.1990    -3.1450 H     1 <1>   0.0800 
 41 H       -0.5030    -0.3560    -2.3520 H     1 <1>   0.0800 
 42 H        1.0580     0.2070    -2.8960 H     1 <1>   0.0800 
 43 H       -2.5280     3.7900     3.4020 H     1 <1>   0.0800 
 44 H       -1.7810     5.2270     2.7150 H     1 <1>   0.0800 
 45 H       -4.5030     4.6530     2.4440 H     1 <1>   0.0800 
 46 H       -3.5840     5.6480     1.3350 H     1 <1>   0.0800 
 47 H       -0.9200    -2.7520     0.2110 H     1 <1>   0.1500 
 48 H        0.7630    -2.9770     2.5960 H     1 <1>   0.0800 
 49 H        0.7940    -4.5900     1.9100 H     1 <1>   0.0800 
 50 H        0.3090    -4.3540     3.5740 H     1 <1>   0.0800 
@<TRIPOS>BOND
  1   1   2  2   
  2   2   3  am  
  3   2   4  1   
  4   3   5  1   
  5   3   6  1   
  6   4   7  ar  
  7   4   8  ar  
  8   5   9  1   
  9   5  29  1   
 10   5  30  1   
 11   6  10  1   
 12   6  31  1   
 13   6  32  1   
 14   7  11  ar  
 15   7  12  1   
 16   8  13  ar  
 17   8  14  1   
 18   9  10  1   
 19   9  15  1   
 20   9  33  1   
 21  10  16  1   
 22  10  34  1   
 23  11  17  1   
 24  11  18  ar  
 25  12  19  2   
 26  12  20  1   
 27  13  18  ar  
 28  13  21  1   
 29  14  22  1   
 30  14  35  1   
 31  14  36  1   
 32  15  37  1   
 33  16  23  1   
 34  16  38  1   
 35  16  39  1   
 36  17  19  1   
 37  20  40  1   
 38  20  41  1   
 39  20  42  1   
 40  21  22  1   
 41  21  43  1   
 42  21  44  1   
 43  22  45  1   
 44  22  46  1   
 45  23  24  1   
 46  23  25  2   
 47  24  26  1   
 48  25  27  1   
 49  25  47  1   
 50  26  27  2   
 51  27  28  1   
 52  28  48  1   
 53  28  49  1   
 54  28  50  1   
@<TRIPOS>SUBSTRUCTURE
  1 ****   6 GROUP 4 **** **** 0

# MOE 2024.06 (io_trps.svl 2023.06)
