@<TRIPOS>MOLECULE
NONAME
56 58 1 0 0 
SMALL
USER_CHARGES


@<TRIPOS>ATOM
  1 O       -0.2990     4.0200    -2.9020 O.2   1 <1>  -0.5700 
  2 C       -0.2840     4.3510    -1.7300 C.2   1 <1>   0.5440 
  3 N       -1.2610     5.2040    -1.2560 N.am  1 <1>  -0.6600 
  4 C        0.7690     3.8660    -0.8710 C.ar  1 <1>   0.0860 
  5 C       -2.3270     5.7490    -2.1370 C.3   1 <1>   0.1400 
  6 C       -1.4000     5.5480     0.1910 C.3   1 <1>   0.1400 
  7 C        0.6420     2.7000    -0.1090 C.ar  1 <1>   0.0830 
  8 C        1.9600     4.5780    -0.7600 C.ar  1 <1>  -0.1500 
  9 C       -3.6950     5.1820    -1.7300 C.3   1 <1>  -0.1600 
 10 C       -2.8740     5.7400     0.5820 C.3   1 <1>  -0.1600 
 11 O       -0.4800     1.9520    -0.1550 O.3   1 <1>  -0.3620 
 12 C        1.6480     2.2890     0.7490 C.ar  1 <1>  -0.1500 
 13 C        2.9800     4.1700     0.0770 C.ar  1 <1>   0.0830 
 14 C       -3.8100     4.8280    -0.2250 C.3   1 <1>   0.2800 
 15 C       -0.6220     1.0810    -1.2550 C.3   1 <1>   0.0400 
 16 C        2.8270     3.0170     0.8610 C.ar  1 <1>   0.0830 
 17 O        4.0890     4.9600     0.0880 O.3   1 <1>  -0.3630 
 18 O       -5.1060     5.1360     0.2140 O.3   1 <1>  -0.5600 
 19 C       -3.5020     3.3330     0.0730 C.3   1 <1>  -0.1600 
 20 O        3.8180     2.6510     1.7190 O.3   1 <1>  -0.3630 
 21 C        5.3580     4.3550    -0.0270 C.3   1 <1>   0.0400 
 22 C       -6.1830     4.4350    -0.3570 C.3   1 <1>   0.1200 
 23 C       -4.7340     2.5020     0.4350 C.3   1 <1>   0.2800 
 24 C        3.6700     1.5820     2.6290 C.3   1 <1>   0.0400 
 25 C       -5.9110     2.9230    -0.4400 C.3   1 <1>  -0.1600 
 26 O       -5.0640     2.8000     1.7310 O.3   1 <1>  -0.6800 
 27 C       -4.4600     1.0020     0.3770 C.3   1 <1>  -0.2400 
 28 H       -2.1290     5.5280    -3.1720 H     1 <1>   0.0800 
 29 H       -2.3350     6.8200    -2.0300 H     1 <1>   0.0800 
 30 H       -0.8450     6.4460     0.4010 H     1 <1>   0.0800 
 31 H       -0.9870     4.7550     0.7900 H     1 <1>   0.0800 
 32 H        2.0890     5.4720    -1.3440 H     1 <1>   0.1500 
 33 H       -3.8960     4.3150    -2.3320 H     1 <1>   0.0800 
 34 H       -4.4260     5.9270    -1.9860 H     1 <1>   0.0800 
 35 H       -3.1470     6.7650     0.4060 H     1 <1>   0.0800 
 36 H       -2.9870     5.5490     1.6340 H     1 <1>   0.0800 
 37 H        1.4790     1.3970     1.3190 H     1 <1>   0.1500 
 38 H       -1.5000     0.4810    -1.0980 H     1 <1>   0.0800 
 39 H        0.2480     0.4520    -1.3180 H     1 <1>   0.0800 
 40 H       -0.7310     1.6570    -2.1560 H     1 <1>   0.0800 
 41 H       -2.7830     3.2330     0.8660 H     1 <1>   0.0800 
 42 H       -3.0330     2.9040    -0.7920 H     1 <1>   0.0800 
 43 H        6.0420     5.0840    -0.4230 H     1 <1>   0.0800 
 44 H        5.2900     3.5120    -0.6910 H     1 <1>   0.0800 
 45 H        5.6860     4.0450     0.9490 H     1 <1>   0.0800 
 46 H       -6.3880     4.8440    -1.3320 H     1 <1>   0.0800 
 47 H       -7.0380     4.6170     0.2710 H     1 <1>   0.0800 
 48 H        4.5620     1.5290     3.2270 H     1 <1>   0.0800 
 49 H        3.5450     0.6670     2.0780 H     1 <1>   0.0800 
 50 H        2.8200     1.7750     3.2590 H     1 <1>   0.0800 
 51 H       -5.6930     2.6710    -1.4620 H     1 <1>   0.0800 
 52 H       -6.7950     2.3770    -0.1650 H     1 <1>   0.0800 
 53 H       -5.2020     3.7720     1.7610 H     1 <1>   0.4000 
 54 H       -4.2140     0.7080    -0.6260 H     1 <1>   0.0800 
 55 H       -5.3290     0.4530     0.6930 H     1 <1>   0.0800 
 56 H       -3.6330     0.7540     1.0190 H     1 <1>   0.0800 
@<TRIPOS>BOND
  1   1   2  2   
  2   2   3  am  
  3   2   4  1   
  4   3   5  1   
  5   3   6  1   
  6   4   7  ar  
  7   4   8  ar  
  8   5   9  1   
  9   5  28  1   
 10   5  29  1   
 11   6  10  1   
 12   6  30  1   
 13   6  31  1   
 14   7  11  1   
 15   7  12  ar  
 16   8  13  ar  
 17   8  32  1   
 18   9  14  1   
 19   9  33  1   
 20   9  34  1   
 21  10  14  1   
 22  10  35  1   
 23  10  36  1   
 24  11  15  1   
 25  12  16  ar  
 26  12  37  1   
 27  13  16  ar  
 28  13  17  1   
 29  14  18  1   
 30  14  19  1   
 31  15  38  1   
 32  15  39  1   
 33  15  40  1   
 34  16  20  1   
 35  17  21  1   
 36  18  22  1   
 37  19  23  1   
 38  19  41  1   
 39  19  42  1   
 40  20  24  1   
 41  21  43  1   
 42  21  44  1   
 43  21  45  1   
 44  22  25  1   
 45  22  46  1   
 46  22  47  1   
 47  23  25  1   
 48  23  26  1   
 49  23  27  1   
 50  24  48  1   
 51  24  49  1   
 52  24  50  1   
 53  25  51  1   
 54  25  52  1   
 55  26  53  1   
 56  27  54  1   
 57  27  55  1   
 58  27  56  1   
@<TRIPOS>SUBSTRUCTURE
  1 ****  11 GROUP 4 **** **** 0

# MOE 2024.06 (io_trps.svl 2023.06)
