@<TRIPOS>MOLECULE
NONAME
36 38 1 0 0 
SMALL
USER_CHARGES


@<TRIPOS>ATOM
  1 O       -0.3590     0.1610    -0.3310 O.2   1 <1>  -0.5700 
  2 C       -1.3780     0.7480    -0.0110 C.2   1 <1>   0.7160 
  3 N       -2.5280     0.0070     0.1600 N.am  1 <1>  -0.6600 
  4 C       -1.3570     2.1880     0.1600 C.2   1 <1>  -0.0860 
  5 C       -3.9020     0.5620     0.1030 C.3   1 <1>   0.1400 
  6 C       -2.5520    -1.4640    -0.0390 C.3   1 <1>   0.1400 
  7 C       -2.1190     3.0160     0.9510 C.2   1 <1>  -0.3020 
  8 C       -0.4630     3.0520    -0.5040 C.2   1 <1>  -0.1500 
  9 C       -4.7870    -0.6150    -0.3060 C.3   1 <1>   0.2000 
 10 C       -4.0210    -1.8660     0.1160 C.3   1 <1>  -0.0800 
 11 N       -1.7420     4.3050     0.7900 N.pl3 1 <1>   0.0330 
 12 C       -0.7230     4.3220    -0.1060 C.2   1 <1>  -0.3020 
 13 O       -6.0180    -0.5760     0.3300 O.3   1 <1>  -0.6800 
 14 C       -4.4250    -3.1090    -0.6940 C.3   1 <1>  -0.0170 
 15 C       -3.7000    -4.3550    -0.2120 C.ar  1 <1>   0.1670 
 16 N       -2.4830    -4.5540    -0.6910 N.ar  1 <1>  -0.6200 
 17 C       -4.3200    -5.2160     0.6910 C.ar  1 <1>   0.1600 
 18 C       -1.9320    -5.6560    -0.2110 C.ar  1 <1>   0.1600 
 19 N       -3.7720    -6.3190     1.1750 N.ar  1 <1>  -0.6200 
 20 C       -2.5560    -6.5100     0.6920 C.ar  1 <1>   0.1600 
 21 H       -4.1760     0.9220     1.0780 H     1 <1>   0.0800 
 22 H       -3.9610     1.3570    -0.6220 H     1 <1>   0.0800 
 23 H       -2.1920    -1.6920    -1.0290 H     1 <1>   0.0800 
 24 H       -1.9260    -1.9590     0.6840 H     1 <1>   0.0800 
 25 H       -2.9040     2.7360     1.6280 H     1 <1>   0.1500 
 26 H        0.2890     2.7160    -1.2000 H     1 <1>   0.1500 
 27 H       -4.9510    -0.5950    -1.3700 H     1 <1>   0.0800 
 28 H       -4.1880    -2.0510     1.1630 H     1 <1>   0.0800 
 29 H       -2.1400     5.1250     1.2630 H     1 <1>   0.2700 
 30 H       -0.2360     5.2320    -0.4090 H     1 <1>   0.1500 
 31 H       -5.9020    -0.5940     1.3000 H     1 <1>   0.4000 
 32 H       -4.2070    -2.9570    -1.7370 H     1 <1>   0.0800 
 33 H       -5.4870    -3.2580    -0.6060 H     1 <1>   0.0800 
 34 H       -5.3130    -4.9830     1.0320 H     1 <1>   0.1500 
 35 H       -0.9390    -5.8970    -0.5480 H     1 <1>   0.1500 
 36 H       -2.0260    -7.3840     1.0260 H     1 <1>   0.1500 
@<TRIPOS>BOND
  1   1   2  2   
  2   2   3  am  
  3   2   4  1   
  4   3   5  1   
  5   3   6  1   
  6   4   7  2   
  7   4   8  1   
  8   5   9  1   
  9   5  21  1   
 10   5  22  1   
 11   6  10  1   
 12   6  23  1   
 13   6  24  1   
 14   7  11  1   
 15   7  25  1   
 16   8  12  2   
 17   8  26  1   
 18   9  10  1   
 19   9  13  1   
 20   9  27  1   
 21  10  14  1   
 22  10  28  1   
 23  11  12  1   
 24  11  29  1   
 25  12  30  1   
 26  13  31  1   
 27  14  15  1   
 28  14  32  1   
 29  14  33  1   
 30  15  16  ar  
 31  15  17  ar  
 32  16  18  ar  
 33  17  19  ar  
 34  17  34  1   
 35  18  20  ar  
 36  18  35  1   
 37  19  20  ar  
 38  20  36  1   
@<TRIPOS>SUBSTRUCTURE
  1 ****   6 GROUP 4 **** **** 0

# MOE 2024.06 (io_trps.svl 2023.06)
