@<TRIPOS>MOLECULE
NONAME
54 56 1 0 0 
SMALL
USER_CHARGES


@<TRIPOS>ATOM
  1 F       -0.2770     0.9880    -0.1550 F     1 <1>  -0.1900 
  2 C       -1.5670     1.1250     0.0110 C.ar  1 <1>   0.1900 
  3 C       -2.2800     2.1890    -0.5550 C.ar  1 <1>   0.0820 
  4 C       -2.1930     0.1610     0.7790 C.ar  1 <1>  -0.1500 
  5 O       -1.7780     3.1980    -1.3230 O.3   1 <1>  -0.3630 
  6 C       -3.6450     2.2420    -0.3210 C.ar  1 <1>  -0.1500 
  7 C       -3.5560     0.2470     0.9930 C.ar  1 <1>  -0.1500 
  8 C       -0.4120     3.3060    -1.6560 C.3   1 <1>   0.0400 
  9 C       -4.3120     1.2840     0.4450 C.ar  1 <1>   0.0530 
 10 C       -5.7320     1.3900     0.6690 C.2   1 <1>   0.0870 
 11 O       -6.2450     2.5620     0.9450 O.3   1 <1>  -0.0190 
 12 C       -6.7600     0.4950     0.6700 C.2   1 <1>  -0.0860 
 13 N       -7.5340     2.5240     1.1430 N.2   1 <1>  -0.4100 
 14 C       -7.8700     1.2940     0.9860 C.2   1 <1>   0.3720 
 15 C       -6.7850    -0.9120     0.3970 C.2   1 <1>   0.7160 
 16 N       -9.1970     0.8520     1.1120 N.pl3 1 <1>  -0.8210 
 17 O       -5.8030    -1.4940    -0.0220 O.2   1 <1>  -0.5700 
 18 N       -7.9290    -1.6140     0.6140 N.am  1 <1>  -0.7300 
 19 C      -10.0600     1.3140    -0.0100 C.3   1 <1>   0.1290 
 20 C       -9.8040     1.1920     2.4300 C.3   1 <1>   0.1290 
 21 C       -8.3790    -2.9730     0.1750 C.3   1 <1>   0.3610 
 22 C       -7.5610    -4.1440     0.8170 C.2   1 <1>   0.5690 
 23 C       -9.8780    -3.0320     0.6020 C.3   1 <1>  -0.1600 
 24 C       -8.2550    -3.0610    -1.3690 C.3   1 <1>  -0.1600 
 25 O       -8.1040    -5.1690     1.1560 O.2   1 <1>  -0.5700 
 26 N       -6.2240    -4.0520     0.9760 N.am  1 <1>  -0.8000 
 27 C      -10.7720    -3.7510    -0.4180 C.3   1 <1>  -0.1600 
 28 C       -9.4090    -2.3600    -2.1000 C.3   1 <1>  -0.1600 
 29 C      -10.7590    -3.0280    -1.7770 C.3   1 <1>  -0.1600 
 30 H       -1.6180    -0.6430     1.2010 H     1 <1>   0.1500 
 31 H       -4.2040     3.0550    -0.7490 H     1 <1>   0.1500 
 32 H       -4.0430    -0.5000     1.5960 H     1 <1>   0.1500 
 33 H       -0.2840     4.1850    -2.2620 H     1 <1>   0.0800 
 34 H       -0.1170     2.4350    -2.2130 H     1 <1>   0.0800 
 35 H        0.1630     3.4010    -0.7520 H     1 <1>   0.0800 
 36 H       -8.7090    -1.0120     0.9100 H     1 <1>   0.3700 
 37 H       -9.5840     1.0990    -0.9510 H     1 <1>   0.0800 
 38 H      -10.2220     2.3770     0.0600 H     1 <1>   0.0800 
 39 H      -11.0090     0.8070     0.0210 H     1 <1>   0.0800 
 40 H       -9.1370     0.9040     3.2260 H     1 <1>   0.0800 
 41 H      -10.7360     0.6690     2.5540 H     1 <1>   0.0800 
 42 H       -9.9800     2.2530     2.4970 H     1 <1>   0.0800 
 43 H      -10.2770    -2.0390     0.7180 H     1 <1>   0.0800 
 44 H       -9.9670    -3.5170     1.5580 H     1 <1>   0.0800 
 45 H       -8.2670    -4.0990    -1.6560 H     1 <1>   0.0800 
 46 H       -7.3110    -2.6680    -1.6990 H     1 <1>   0.0800 
 47 H       -5.6880    -4.8250     1.3650 H     1 <1>   0.3700 
 48 H       -5.7100    -3.2200     0.6550 H     1 <1>   0.3700 
 49 H      -11.7820    -3.8110    -0.0490 H     1 <1>   0.0800 
 50 H      -10.4150    -4.7610    -0.5410 H     1 <1>   0.0800 
 51 H       -9.2410    -2.3840    -3.1630 H     1 <1>   0.0800 
 52 H       -9.4360    -1.3270    -1.7980 H     1 <1>   0.0800 
 53 H      -11.5280    -2.2750    -1.7920 H     1 <1>   0.0800 
 54 H      -10.9970    -3.7450    -2.5450 H     1 <1>   0.0800 
@<TRIPOS>BOND
  1   1   2  1   
  2   2   3  ar  
  3   2   4  ar  
  4   3   5  1   
  5   3   6  ar  
  6   4   7  ar  
  7   4  30  1   
  8   5   8  1   
  9   6   9  ar  
 10   6  31  1   
 11   7   9  ar  
 12   7  32  1   
 13   8  33  1   
 14   8  34  1   
 15   8  35  1   
 16   9  10  1   
 17  10  11  1   
 18  10  12  2   
 19  11  13  1   
 20  12  14  1   
 21  12  15  1   
 22  13  14  2   
 23  14  16  1   
 24  15  17  2   
 25  15  18  am  
 26  16  19  1   
 27  16  20  1   
 28  18  21  1   
 29  18  36  1   
 30  19  37  1   
 31  19  38  1   
 32  19  39  1   
 33  20  40  1   
 34  20  41  1   
 35  20  42  1   
 36  21  22  1   
 37  21  23  1   
 38  21  24  1   
 39  22  25  2   
 40  22  26  am  
 41  23  27  1   
 42  23  43  1   
 43  23  44  1   
 44  24  28  1   
 45  24  45  1   
 46  24  46  1   
 47  26  47  1   
 48  26  48  1   
 49  27  29  1   
 50  27  49  1   
 51  27  50  1   
 52  28  29  1   
 53  28  51  1   
 54  28  52  1   
 55  29  53  1   
 56  29  54  1   
@<TRIPOS>SUBSTRUCTURE
  1 ****  15 GROUP 4 **** **** 0

# MOE 2024.06 (io_trps.svl 2023.06)
