@<TRIPOS>MOLECULE
NONAME
53 55 1 0 0 
SMALL
USER_CHARGES


@<TRIPOS>ATOM
  1 O        1.0320    -0.2750     1.2670 O.2   1 <1>  -0.5700 
  2 C        1.9780    -0.9390     0.8730 C.2   1 <1>   0.5440 
  3 N        3.1710    -0.2690     0.6370 N.am  1 <1>  -0.6600 
  4 C        1.7750    -2.3720     0.6520 C.ar  1 <1>   0.3960 
  5 C        4.2690    -0.8020    -0.2320 C.3   1 <1>   0.1400 
  6 C        3.4210     1.0720     1.2380 C.3   1 <1>   0.1400 
  7 N        2.7440    -3.2680     0.9120 N.ar  1 <1>  -0.6200 
  8 C        0.5270    -2.7880     0.1720 C.ar  1 <1>   0.1600 
  9 C        4.5860     0.1230    -1.4170 C.3   1 <1>   0.1400 
 10 C        3.1950     2.1680     0.1910 C.3   1 <1>  -0.1600 
 11 C        2.3850    -4.5140     0.6670 C.ar  1 <1>   0.1600 
 12 N        0.1720    -4.0370    -0.0850 N.ar  1 <1>  -0.6200 
 13 N        5.2980     1.3630    -0.9790 N.am  1 <1>  -0.6600 
 14 C        4.4520     2.5350    -0.6090 C.3   1 <1>   0.1400 
 15 C        1.1380    -4.8950     0.1800 C.ar  1 <1>   0.1670 
 16 C        6.6860     1.3920    -0.9410 C.2   1 <1>   0.5440 
 17 C        0.8160    -6.3540    -0.0750 C.3   1 <1>  -0.0960 
 18 O        7.2680     0.3180    -0.9720 O.2   1 <1>  -0.5700 
 19 C        7.4830     2.6200    -0.8420 C.ar  1 <1>   0.3960 
 20 N        7.1020     3.7470    -1.4400 N.ar  1 <1>  -0.6200 
 21 C        8.6640     2.5990    -0.1200 C.ar  1 <1>  -0.1500 
 22 C        7.8920     4.7820    -1.2720 C.ar  1 <1>   0.7200 
 23 C        9.4150     3.7460    -0.0270 C.ar  1 <1>   0.1670 
 24 N        9.0270     4.8540    -0.6070 N.ar  1 <1>  -0.6200 
 25 N        7.5060     5.9080    -1.8710 N.pl3 1 <1>  -0.9000 
 26 C       10.7300     3.7770     0.7540 C.3   1 <1>   0.0630 
 27 C       11.7570     2.8030     0.1590 C.3   1 <1>  -0.2400 
 28 C       10.5050     3.4810     2.2420 C.3   1 <1>  -0.2400 
 29 H        3.9860    -1.7530    -0.6410 H     1 <1>   0.0800 
 30 H        5.1570    -0.9530     0.3560 H     1 <1>   0.0800 
 31 H        4.4220     1.1180     1.6300 H     1 <1>   0.0800 
 32 H        2.7440     1.2250     2.0610 H     1 <1>   0.0800 
 33 H       -0.2150    -2.0290    -0.0060 H     1 <1>   0.1500 
 34 H        3.6800     0.3770    -1.9390 H     1 <1>   0.0800 
 35 H        5.2130    -0.4120    -2.1080 H     1 <1>   0.0800 
 36 H        2.8670     3.0570     0.6990 H     1 <1>   0.0800 
 37 H        2.3970     1.8810    -0.4710 H     1 <1>   0.0800 
 38 H        3.1180    -5.2770     0.8600 H     1 <1>   0.1500 
 39 H        5.0330     3.2090    -0.0040 H     1 <1>   0.0800 
 40 H        4.1700     3.0630    -1.5040 H     1 <1>   0.0800 
 41 H        1.6520    -6.9860     0.1630 H     1 <1>   0.0800 
 42 H        0.5590    -6.4890    -1.1100 H     1 <1>   0.0800 
 43 H       -0.0240    -6.6460     0.5280 H     1 <1>   0.0800 
 44 H        8.9810     1.6900     0.3540 H     1 <1>   0.1500 
 45 H        8.2370     6.6070    -1.9750 H     1 <1>   0.4000 
 46 H        6.8740     5.7940    -2.6580 H     1 <1>   0.4000 
 47 H       11.1390     4.7710     0.6750 H     1 <1>   0.0800 
 48 H       11.4210     1.7850     0.2480 H     1 <1>   0.0800 
 49 H       12.6990     2.9000     0.6690 H     1 <1>   0.0800 
 50 H       11.9090     3.0250    -0.8820 H     1 <1>   0.0800 
 51 H       10.1380     2.4810     2.3870 H     1 <1>   0.0800 
 52 H        9.7870     4.1740     2.6460 H     1 <1>   0.0800 
 53 H       11.4260     3.5920     2.7860 H     1 <1>   0.0800 
@<TRIPOS>BOND
  1   1   2  2   
  2   2   3  am  
  3   2   4  1   
  4   3   5  1   
  5   3   6  1   
  6   4   7  ar  
  7   4   8  ar  
  8   5   9  1   
  9   5  29  1   
 10   5  30  1   
 11   6  10  1   
 12   6  31  1   
 13   6  32  1   
 14   7  11  ar  
 15   8  12  ar  
 16   8  33  1   
 17   9  13  1   
 18   9  34  1   
 19   9  35  1   
 20  10  14  1   
 21  10  36  1   
 22  10  37  1   
 23  11  15  ar  
 24  11  38  1   
 25  12  15  ar  
 26  13  14  1   
 27  13  16  am  
 28  14  39  1   
 29  14  40  1   
 30  15  17  1   
 31  16  18  2   
 32  16  19  1   
 33  17  41  1   
 34  17  42  1   
 35  17  43  1   
 36  19  20  ar  
 37  19  21  ar  
 38  20  22  ar  
 39  21  23  ar  
 40  21  44  1   
 41  22  24  ar  
 42  22  25  1   
 43  23  24  ar  
 44  23  26  1   
 45  25  45  1   
 46  25  46  1   
 47  26  27  1   
 48  26  28  1   
 49  26  47  1   
 50  27  48  1   
 51  27  49  1   
 52  27  50  1   
 53  28  51  1   
 54  28  52  1   
 55  28  53  1   
@<TRIPOS>SUBSTRUCTURE
  1 ****  13 GROUP 4 **** **** 0

# MOE 2024.06 (io_trps.svl 2023.06)
