@<TRIPOS>MOLECULE
NONAME
40 42 1 0 0 
SMALL
USER_CHARGES


@<TRIPOS>ATOM
  1 CL      -0.6070     2.9390     0.8450 Cl    1 <1>  -0.1770 
  2 C        0.9590     2.4660     0.2260 C.ar  1 <1>   0.1770 
  3 C        2.0990     3.1780     0.5610 C.ar  1 <1>   0.1900 
  4 C        1.0430     1.3670    -0.6070 C.ar  1 <1>  -0.1500 
  5 F        1.9720     4.1990     1.3680 F     1 <1>  -0.1900 
  6 C        3.3610     2.8340     0.0740 C.ar  1 <1>   0.0860 
  7 C        2.2830     0.9890    -1.0960 C.ar  1 <1>  -0.1500 
  8 C        4.5690     3.5720     0.3970 C.2   1 <1>   0.5440 
  9 C        3.4170     1.7100    -0.7570 C.ar  1 <1>  -0.1500 
 10 O        5.6450     3.0090     0.4600 O.2   1 <1>  -0.5700 
 11 N        4.5940     4.9340     0.5530 N.am  1 <1>  -0.6600 
 12 C        5.4600     5.5300     1.6380 C.3   1 <1>   0.2200 
 13 C        4.1090     5.8050    -0.5520 C.3   1 <1>   0.1400 
 14 C        4.9550     6.9000     2.1210 C.3   1 <1>   0.1200 
 15 C        6.9390     5.6300     1.1900 C.3   1 <1>   0.3430 
 16 C        5.0440     6.9890    -0.8630 C.3   1 <1>  -0.0800 
 17 O        5.4830     7.9230     1.3290 O.3   1 <1>  -0.5600 
 18 N        7.0830     5.4900    -0.2980 N.4   1 <1>  -0.9590 
 19 C        4.8370     8.1520     0.1220 C.3   1 <1>   0.1200 
 20 C        6.5400     6.6510    -1.0800 C.3   1 <1>   0.3430 
 21 C        8.4860     5.1610    -0.6750 C.3   1 <1>   0.2630 
 22 H        0.1540     0.8160    -0.8630 H     1 <1>   0.1500 
 23 H        2.3630     0.1280    -1.7410 H     1 <1>   0.1500 
 24 H        4.3720     1.3920    -1.1430 H     1 <1>   0.1500 
 25 H        5.4160     4.8690     2.4860 H     1 <1>   0.0800 
 26 H        4.0000     5.2080    -1.4430 H     1 <1>   0.0800 
 27 H        3.1290     6.1740    -0.2970 H     1 <1>   0.0800 
 28 H        5.3130     7.0740     3.1210 H     1 <1>   0.0800 
 29 H        3.8790     6.9510     2.1350 H     1 <1>   0.0800 
 30 H        7.4760     4.8290     1.6700 H     1 <1>   0.0800 
 31 H        7.3660     6.5600     1.5260 H     1 <1>   0.0800 
 32 H        4.6990     7.3830    -1.8030 H     1 <1>   0.0800 
 33 H        6.4850     4.6610    -0.4910 H     1 <1>   0.4500 
 34 H        3.7920     8.3320     0.3140 H     1 <1>   0.0800 
 35 H        5.2580     9.0560    -0.2870 H     1 <1>   0.0800 
 36 H        7.1230     7.5300    -0.8580 H     1 <1>   0.0800 
 37 H        6.6760     6.4360    -2.1270 H     1 <1>   0.0800 
 38 H        9.1420     5.9790    -0.4260 H     1 <1>   0.0800 
 39 H        8.5530     4.9690    -1.7330 H     1 <1>   0.0800 
 40 H        8.8140     4.2790    -0.1470 H     1 <1>   0.0800 
@<TRIPOS>BOND
  1   1   2  1   
  2   2   3  ar  
  3   2   4  ar  
  4   3   5  1   
  5   3   6  ar  
  6   4   7  ar  
  7   4  22  1   
  8   6   8  1   
  9   6   9  ar  
 10   7   9  ar  
 11   7  23  1   
 12   8  10  2   
 13   8  11  am  
 14   9  24  1   
 15  11  12  1   
 16  11  13  1   
 17  12  14  1   
 18  12  15  1   
 19  12  25  1   
 20  13  16  1   
 21  13  26  1   
 22  13  27  1   
 23  14  17  1   
 24  14  28  1   
 25  14  29  1   
 26  15  18  1   
 27  15  30  1   
 28  15  31  1   
 29  16  19  1   
 30  16  20  1   
 31  16  32  1   
 32  17  19  1   
 33  18  20  1   
 34  18  21  1   
 35  18  33  1   
 36  19  34  1   
 37  19  35  1   
 38  20  36  1   
 39  20  37  1   
 40  21  38  1   
 41  21  39  1   
 42  21  40  1   
@<TRIPOS>SUBSTRUCTURE
  1 ****  11 GROUP 4 **** **** 0

# MOE 2024.06 (io_trps.svl 2023.06)
