@<TRIPOS>MOLECULE
NONAME
37 38 1 0 0 
SMALL
USER_CHARGES


@<TRIPOS>ATOM
  1 O        1.6700    -0.3500     1.9070 O.3   1 <1>  -0.6800 
  2 C        1.1200    -0.5040     0.6270 C.3   1 <1>   0.1200 
  3 C        2.2330    -0.5390    -0.4440 C.3   1 <1>   0.3430 
  4 N        3.5160    -1.0050     0.1800 N.4   1 <1>  -0.9590 
  5 C        4.6790    -0.1160    -0.0780 C.3   1 <1>   0.4860 
  6 C        3.8300    -2.4390    -0.1110 C.3   1 <1>   0.5240 
  7 C        4.3330     1.3390     0.1750 C.ar  1 <1>  -0.1430 
  8 C        2.6650    -3.3690     0.2070 C.2   1 <1>   0.0460 
  9 C        4.0310     1.7880     1.4530 C.ar  1 <1>   0.1600 
 10 C        4.3150     2.2450    -0.8700 C.ar  1 <1>  -0.1500 
 11 N        1.6350    -3.5080    -0.6530 N.2   1 <1>  -0.5650 
 12 C        2.4870    -4.1510     1.2950 C.2   1 <1>  -0.3020 
 13 N        3.7140     3.0330     1.7590 N.ar  1 <1>  -0.6200 
 14 C        3.9890     3.5490    -0.5620 C.ar  1 <1>  -0.1500 
 15 C        0.8610    -4.3710    -0.0810 C.2   1 <1>   0.0060 
 16 N        1.3230    -4.8010     1.1130 N.pl3 1 <1>   0.0330 
 17 C        3.7010     3.8860     0.7490 C.ar  1 <1>   0.1600 
 18 C       -0.4390    -4.8680    -0.6790 C.3   1 <1>  -0.0600 
 19 H        0.9620    -0.1810     2.5680 H     1 <1>   0.4000 
 20 H        0.4480     0.3160     0.4350 H     1 <1>   0.0800 
 21 H        0.5560    -1.4210     0.6120 H     1 <1>   0.0800 
 22 H        2.3470     0.4570    -0.8380 H     1 <1>   0.0800 
 23 H        1.9400    -1.1790    -1.2610 H     1 <1>   0.0800 
 24 H        3.2690    -0.9440     1.1850 H     1 <1>   0.4500 
 25 H        4.9970    -0.2260    -1.1020 H     1 <1>   0.0800 
 26 H        5.5020    -0.3970     0.5600 H     1 <1>   0.0800 
 27 H        4.6790    -2.7470     0.4760 H     1 <1>   0.0800 
 28 H        4.0790    -2.5570    -1.1520 H     1 <1>   0.0800 
 29 H        4.0430     1.0920     2.2750 H     1 <1>   0.1500 
 30 H        4.5460     1.9670    -1.8850 H     1 <1>   0.1500 
 31 H        3.1020    -4.2910     2.1680 H     1 <1>   0.1500 
 32 H        3.9590     4.3040    -1.3280 H     1 <1>   0.1500 
 33 H        0.8790    -5.4870     1.7340 H     1 <1>   0.2700 
 34 H        3.4490     4.9080     0.9780 H     1 <1>   0.1500 
 35 H       -0.6080    -4.3970    -1.6320 H     1 <1>   0.0800 
 36 H       -1.2620    -4.6350    -0.0290 H     1 <1>   0.0800 
 37 H       -0.3940    -5.9310    -0.8280 H     1 <1>   0.0800 
@<TRIPOS>BOND
  1   1   2  1   
  2   1  19  1   
  3   2   3  1   
  4   2  20  1   
  5   2  21  1   
  6   3   4  1   
  7   3  22  1   
  8   3  23  1   
  9   4   5  1   
 10   4   6  1   
 11   4  24  1   
 12   5   7  1   
 13   5  25  1   
 14   5  26  1   
 15   6   8  1   
 16   6  27  1   
 17   6  28  1   
 18   7   9  ar  
 19   7  10  ar  
 20   8  11  1   
 21   8  12  2   
 22   9  13  ar  
 23   9  29  1   
 24  10  14  ar  
 25  10  30  1   
 26  11  15  2   
 27  12  16  1   
 28  12  31  1   
 29  13  17  ar  
 30  14  17  ar  
 31  14  32  1   
 32  15  16  1   
 33  15  18  1   
 34  16  33  1   
 35  17  34  1   
 36  18  35  1   
 37  18  36  1   
 38  18  37  1   
@<TRIPOS>SUBSTRUCTURE
  1 ****   4 GROUP 4 **** **** 0

# MOE 2024.06 (io_trps.svl 2023.06)
