@<TRIPOS>MOLECULE
NONAME
51 53 1 0 0 
SMALL
USER_CHARGES


@<TRIPOS>ATOM
  1 O       -1.1660     0.7690     2.6230 O.2   1 <1>  -0.5700 
  2 C       -1.2830     1.4580     1.6350 C.2   1 <1>   0.5690 
  3 N       -2.0430     1.0390     0.5660 N.am  1 <1>  -0.6600 
  4 C       -0.5570     2.7910     1.6420 C.3   1 <1>   0.0440 
  5 C       -2.6250    -0.3370     0.5750 C.3   1 <1>   0.1400 
  6 C       -2.2990     1.8650    -0.6530 C.3   1 <1>   0.1400 
  7 C        0.5400     2.8270     0.5950 C.ar  1 <1>   0.1660 
  8 C       -4.0250    -0.3340     1.2050 C.3   1 <1>   0.1400 
  9 C       -3.7420     1.7710    -1.1730 C.3   1 <1>  -0.1600 
 10 N        0.4470     3.7680    -0.3340 N.ar  1 <1>  -0.6200 
 11 C        1.5690     1.8970     0.6560 C.ar  1 <1>  -0.1500 
 12 N       -5.0510     0.2600     0.2880 N.am  1 <1>  -0.6600 
 13 C       -4.8100     1.6880    -0.0760 C.3   1 <1>   0.1400 
 14 C        1.4180     3.7840    -1.2330 C.ar  1 <1>   0.1600 
 15 C        2.5700     1.9230    -0.2900 C.ar  1 <1>  -0.1500 
 16 C       -6.1610    -0.3990    -0.1880 C.2   1 <1>   0.5690 
 17 C        2.4830     2.9000    -1.2580 C.ar  1 <1>  -0.1500 
 18 O       -6.9780     0.1630    -0.8790 O.2   1 <1>  -0.5700 
 19 C       -6.3930    -1.8640     0.1490 C.3   1 <1>  -0.0990 
 20 C       -7.5460    -2.5210    -0.6310 C.3   1 <1>   0.1760 
 21 N       -7.8690    -3.8310    -0.0020 N.pl3 1 <1>   0.3140 
 22 C       -7.2310    -2.7050    -2.1290 C.3   1 <1>  -0.2400 
 23 N       -8.9310    -3.9790     0.8150 N.2   1 <1>  -0.7070 
 24 C       -7.1780    -4.9880    -0.1060 C.2   1 <1>  -0.3020 
 25 C       -8.8940    -5.2190     1.1960 C.2   1 <1>   0.1390 
 26 C       -7.8160    -5.9040     0.6520 C.2   1 <1>  -0.1500 
 27 H       -0.1130     2.9440     2.6070 H     1 <1>   0.0800 
 28 H       -1.2610     3.5860     1.4850 H     1 <1>   0.0800 
 29 H       -1.9890    -0.9850     1.1540 H     1 <1>   0.0800 
 30 H       -2.6650    -0.7360    -0.4230 H     1 <1>   0.0800 
 31 H       -1.6150     1.5670    -1.4300 H     1 <1>   0.0800 
 32 H       -2.1020     2.8990    -0.4380 H     1 <1>   0.0800 
 33 H       -3.9960     0.2280     2.1230 H     1 <1>   0.0800 
 34 H       -4.2820    -1.3430     1.4630 H     1 <1>   0.0800 
 35 H       -3.8440     0.9360    -1.8430 H     1 <1>   0.0800 
 36 H       -3.9280     2.6540    -1.7570 H     1 <1>   0.0800 
 37 H        1.5850     1.1570     1.4380 H     1 <1>   0.1500 
 38 H       -5.7220     2.1290    -0.4410 H     1 <1>   0.0800 
 39 H       -4.5100     2.2460     0.7940 H     1 <1>   0.0800 
 40 H        1.3640     4.5440    -1.9940 H     1 <1>   0.1500 
 41 H        3.3810     1.2150    -0.2720 H     1 <1>   0.1500 
 42 H        3.2320     2.9780    -2.0250 H     1 <1>   0.1500 
 43 H       -6.6190    -1.9150     1.1990 H     1 <1>   0.0800 
 44 H       -5.4920    -2.4140    -0.0430 H     1 <1>   0.0800 
 45 H       -8.4250    -1.9060    -0.5370 H     1 <1>   0.0800 
 46 H       -6.3270    -3.2680    -2.2700 H     1 <1>   0.0800 
 47 H       -7.1100    -1.7480    -2.6040 H     1 <1>   0.0800 
 48 H       -8.0460    -3.2120    -2.6130 H     1 <1>   0.0800 
 49 H       -6.2910    -5.0950    -0.7010 H     1 <1>   0.1500 
 50 H       -9.6220    -5.6560     1.8590 H     1 <1>   0.1500 
 51 H       -7.5710    -6.9380     0.8190 H     1 <1>   0.1500 
@<TRIPOS>BOND
  1   1   2  2   
  2   2   3  am  
  3   2   4  1   
  4   3   5  1   
  5   3   6  1   
  6   4   7  1   
  7   4  27  1   
  8   4  28  1   
  9   5   8  1   
 10   5  29  1   
 11   5  30  1   
 12   6   9  1   
 13   6  31  1   
 14   6  32  1   
 15   7  10  ar  
 16   7  11  ar  
 17   8  12  1   
 18   8  33  1   
 19   8  34  1   
 20   9  13  1   
 21   9  35  1   
 22   9  36  1   
 23  10  14  ar  
 24  11  15  ar  
 25  11  37  1   
 26  12  13  1   
 27  12  16  am  
 28  13  38  1   
 29  13  39  1   
 30  14  17  ar  
 31  14  40  1   
 32  15  17  ar  
 33  15  41  1   
 34  16  18  2   
 35  16  19  1   
 36  17  42  1   
 37  19  20  1   
 38  19  43  1   
 39  19  44  1   
 40  20  21  1   
 41  20  22  1   
 42  20  45  1   
 43  21  23  1   
 44  21  24  1   
 45  22  46  1   
 46  22  47  1   
 47  22  48  1   
 48  23  25  2   
 49  24  26  2   
 50  24  49  1   
 51  25  26  1   
 52  25  50  1   
 53  26  51  1   
@<TRIPOS>SUBSTRUCTURE
  1 ****   5 GROUP 4 **** **** 0

# MOE 2024.06 (io_trps.svl 2023.06)
