@<TRIPOS>MOLECULE
NONAME
49 51 1 0 0 
SMALL
USER_CHARGES


@<TRIPOS>ATOM
  1 O        2.0230     0.7230    -1.3880 O.2   1 <1>  -0.5700 
  2 C        2.0820     0.0380    -0.3720 C.2   1 <1>   0.6160 
  3 N        1.5750    -1.2580    -0.4090 N.am  1 <1>  -0.4690 
  4 C        2.6720     0.5120     0.8440 C.2   1 <1>   0.0290 
  5 C        1.6270    -2.0660     0.7020 C.2   1 <1>  -0.0410 
  6 C        0.9490    -1.7610    -1.6610 C.3   1 <1>   0.0600 
  7 C        3.1910     1.8490     0.8970 C.2   1 <1>   0.6160 
  8 C        2.7000    -0.3160     1.9390 C.2   1 <1>  -0.1500 
  9 C        2.1750    -1.6200     1.8640 C.2   1 <1>  -0.1500 
 10 O        2.7280     2.6160     1.7240 O.2   1 <1>  -0.5700 
 11 N        4.2460     2.2890     0.1210 N.am  1 <1>  -0.6600 
 12 C        5.0820     1.4190    -0.7680 C.3   1 <1>   0.1400 
 13 C        4.6030     3.7310     0.0590 C.3   1 <1>   0.1400 
 14 C        6.4930     1.1850    -0.2030 C.3   1 <1>   0.1400 
 15 C        5.6010     4.1080     1.1610 C.3   1 <1>  -0.1600 
 16 N        7.1960     2.4600     0.1490 N.am  1 <1>  -0.6600 
 17 C        6.7170     3.0850     1.4150 C.3   1 <1>   0.1400 
 18 C        8.1720     2.9750    -0.6650 C.2   1 <1>   0.5690 
 19 O        8.4640     2.4420    -1.7110 O.2   1 <1>  -0.5700 
 20 C        8.9080     4.2450    -0.2640 C.3   1 <1>  -0.0990 
 21 C        9.9600     4.6990    -1.2850 C.3   1 <1>   0.0210 
 22 C       10.6410     5.9680    -0.8090 C.2   1 <1>  -0.1810 
 23 C       10.1030     7.2520    -0.8080 C.2   1 <1>   0.1390 
 24 C       11.8810     6.1170    -0.2970 C.2   1 <1>  -0.3020 
 25 N       10.9300     8.1320    -0.3310 N.2   1 <1>  -0.7070 
 26 N       12.0330     7.4270    -0.0180 N.pl3 1 <1>   0.3000 
 27 H        1.2180    -3.0600     0.6250 H     1 <1>   0.1500 
 28 H        0.1200    -1.1280    -1.9250 H     1 <1>   0.0800 
 29 H        0.5970    -2.7680    -1.5340 H     1 <1>   0.0800 
 30 H        1.6720    -1.7370    -2.4580 H     1 <1>   0.0800 
 31 H        3.1160     0.0250     2.8720 H     1 <1>   0.1500 
 32 H        2.2150    -2.2460     2.7400 H     1 <1>   0.1500 
 33 H        5.1650     1.8770    -1.7380 H     1 <1>   0.0800 
 34 H        4.6150     0.4630    -0.9130 H     1 <1>   0.0800 
 35 H        3.7130     4.3300     0.1570 H     1 <1>   0.0800 
 36 H        5.0340     3.9490    -0.9040 H     1 <1>   0.0800 
 37 H        7.0670     0.6390    -0.9310 H     1 <1>   0.0800 
 38 H        6.4240     0.5630     0.6720 H     1 <1>   0.0800 
 39 H        5.0570     4.2470     2.0780 H     1 <1>   0.0800 
 40 H        6.0360     5.0590     0.9150 H     1 <1>   0.0800 
 41 H        6.3320     2.3120     2.0600 H     1 <1>   0.0800 
 42 H        7.5320     3.5530     1.9380 H     1 <1>   0.0800 
 43 H        9.3970     4.0740     0.6760 H     1 <1>   0.0800 
 44 H        8.1900     5.0310    -0.1370 H     1 <1>   0.0800 
 45 H        9.4950     4.8780    -2.2400 H     1 <1>   0.0800 
 46 H       10.6960     3.9250    -1.4150 H     1 <1>   0.0800 
 47 H        9.1160     7.5000    -1.1600 H     1 <1>   0.1500 
 48 H       12.6460     5.3830    -0.1190 H     1 <1>   0.1500 
 49 H       12.8690     7.8690     0.3830 H     1 <1>   0.2700 
@<TRIPOS>BOND
  1   1   2  2   
  2   2   3  am  
  3   2   4  1   
  4   3   5  1   
  5   3   6  1   
  6   4   7  1   
  7   4   8  2   
  8   5   9  2   
  9   5  27  1   
 10   6  28  1   
 11   6  29  1   
 12   6  30  1   
 13   7  10  2   
 14   7  11  am  
 15   8   9  1   
 16   8  31  1   
 17   9  32  1   
 18  11  12  1   
 19  11  13  1   
 20  12  14  1   
 21  12  33  1   
 22  12  34  1   
 23  13  15  1   
 24  13  35  1   
 25  13  36  1   
 26  14  16  1   
 27  14  37  1   
 28  14  38  1   
 29  15  17  1   
 30  15  39  1   
 31  15  40  1   
 32  16  17  1   
 33  16  18  am  
 34  17  41  1   
 35  17  42  1   
 36  18  19  2   
 37  18  20  1   
 38  20  21  1   
 39  20  43  1   
 40  20  44  1   
 41  21  22  1   
 42  21  45  1   
 43  21  46  1   
 44  22  23  1   
 45  22  24  2   
 46  23  25  2   
 47  23  47  1   
 48  24  26  1   
 49  24  48  1   
 50  25  26  1   
 51  26  49  1   
@<TRIPOS>SUBSTRUCTURE
  1 ****  16 GROUP 4 **** **** 0

# MOE 2024.06 (io_trps.svl 2023.06)
