@<TRIPOS>MOLECULE
NONAME
60 63 1 0 0 
SMALL
USER_CHARGES


@<TRIPOS>ATOM
  1 O        1.3760     3.1380     2.7250 O.2   1 <1>  -0.5700 
  2 C        1.6090     2.8800     1.5720 C.2   1 <1>   0.5690 
  3 N        1.0640     3.6110     0.5520 N.am  1 <1>  -0.6600 
  4 C        2.5720     1.7540     1.2790 C.3   1 <1>  -0.1790 
  5 C        1.6730     3.8040    -0.7860 C.3   1 <1>   0.1400 
  6 C       -0.1660     4.4210     0.7530 C.3   1 <1>   0.1400 
  7 C        2.1440     5.2630    -0.8830 C.3   1 <1>  -0.0800 
  8 C        0.1910     5.9060     0.6490 C.3   1 <1>  -0.1600 
  9 C        0.9760     6.2390    -0.6380 C.3   1 <1>   0.2800 
 10 C        3.2570     5.5120     0.1390 C.3   1 <1>   0.3430 
 11 O        0.1160     6.1070    -1.7020 O.3   1 <1>  -0.6800 
 12 C        1.4740     7.6880    -0.6480 C.3   1 <1>  -0.1600 
 13 N        3.7140     6.9330     0.0920 N.4   1 <1>  -0.9590 
 14 C        2.6060     7.9000     0.3550 C.3   1 <1>   0.3430 
 15 C        4.8550     7.1550     1.0240 C.3   1 <1>   0.4860 
 16 C        5.4080     8.5470     0.7860 C.ar  1 <1>  -0.1440 
 17 C        6.1270     8.8260    -0.3670 C.ar  1 <1>  -0.1500 
 18 C        5.1890     9.5550     1.7150 C.ar  1 <1>  -0.1500 
 19 C        6.6060    10.1040    -0.5930 C.ar  1 <1>  -0.1500 
 20 C        5.6690    10.8330     1.4880 C.ar  1 <1>  -0.1500 
 21 C        6.3800    11.1150     0.3260 C.ar  1 <1>   0.0820 
 22 O        6.8840    12.3340     0.0170 O.3   1 <1>  -0.3630 
 23 C        6.7910    13.4480     0.8840 C.3   1 <1>   0.2000 
 24 C        5.4250    14.1110     0.7150 C.3   1 <1>  -0.1600 
 25 C        7.7640    14.5080     0.3810 C.3   1 <1>  -0.1600 
 26 C        5.5410    14.9800    -0.5420 C.3   1 <1>  -0.1600 
 27 C        7.0400    15.2180    -0.7670 C.3   1 <1>  -0.1600 
 28 H        2.2100     1.1650     0.4570 H     1 <1>   0.0800 
 29 H        2.6510     1.1190     2.1430 H     1 <1>   0.0800 
 30 H        3.5430     2.1470     1.0490 H     1 <1>   0.0800 
 31 H        2.4980     3.1310    -0.9400 H     1 <1>   0.0800 
 32 H        0.9340     3.6000    -1.5450 H     1 <1>   0.0800 
 33 H       -0.8880     4.1580    -0.0030 H     1 <1>   0.0800 
 34 H       -0.6040     4.2110     1.7160 H     1 <1>   0.0800 
 35 H        2.5440     5.4240    -1.8680 H     1 <1>   0.0800 
 36 H        0.7710     6.1500     1.5190 H     1 <1>   0.0800 
 37 H       -0.7090     6.4930     0.7000 H     1 <1>   0.0800 
 38 H        4.0830     4.8520    -0.0700 H     1 <1>   0.0800 
 39 H        2.8850     5.2820     1.1250 H     1 <1>   0.0800 
 40 H       -0.6890     6.6460    -1.5740 H     1 <1>   0.4000 
 41 H        1.8310     7.9480    -1.6290 H     1 <1>   0.0800 
 42 H        0.6670     8.3550    -0.4020 H     1 <1>   0.0800 
 43 H        4.0680     7.1400    -0.8500 H     1 <1>   0.4500 
 44 H        2.2320     7.7620     1.3570 H     1 <1>   0.0800 
 45 H        2.9700     8.9120     0.2700 H     1 <1>   0.0800 
 46 H        4.5290     7.0570     2.0470 H     1 <1>   0.0800 
 47 H        5.6320     6.4300     0.8420 H     1 <1>   0.0800 
 48 H        6.3310     8.0650    -1.1000 H     1 <1>   0.1500 
 49 H        4.6460     9.3620     2.6250 H     1 <1>   0.1500 
 50 H        7.1640    10.3330    -1.4840 H     1 <1>   0.1500 
 51 H        5.4840    11.5950     2.2220 H     1 <1>   0.1500 
 52 H        7.0170    13.1410     1.8900 H     1 <1>   0.0800 
 53 H        4.6240    13.3980     0.6440 H     1 <1>   0.0800 
 54 H        5.2480    14.7490     1.5630 H     1 <1>   0.0800 
 55 H        7.9420    15.2150     1.1730 H     1 <1>   0.0800 
 56 H        8.7030    14.0810     0.0770 H     1 <1>   0.0800 
 57 H        5.1340    14.4510    -1.3870 H     1 <1>   0.0800 
 58 H        5.0070    15.9070    -0.4220 H     1 <1>   0.0800 
 59 H        7.2770    16.2680    -0.7850 H     1 <1>   0.0800 
 60 H        7.3340    14.7770    -1.7040 H     1 <1>   0.0800 
@<TRIPOS>BOND
  1   1   2  2   
  2   2   3  am  
  3   2   4  1   
  4   3   5  1   
  5   3   6  1   
  6   4  28  1   
  7   4  29  1   
  8   4  30  1   
  9   5   7  1   
 10   5  31  1   
 11   5  32  1   
 12   6   8  1   
 13   6  33  1   
 14   6  34  1   
 15   7   9  1   
 16   7  10  1   
 17   7  35  1   
 18   8   9  1   
 19   8  36  1   
 20   8  37  1   
 21   9  11  1   
 22   9  12  1   
 23  10  13  1   
 24  10  38  1   
 25  10  39  1   
 26  11  40  1   
 27  12  14  1   
 28  12  41  1   
 29  12  42  1   
 30  13  14  1   
 31  13  15  1   
 32  13  43  1   
 33  14  44  1   
 34  14  45  1   
 35  15  16  1   
 36  15  46  1   
 37  15  47  1   
 38  16  17  ar  
 39  16  18  ar  
 40  17  19  ar  
 41  17  48  1   
 42  18  20  ar  
 43  18  49  1   
 44  19  21  ar  
 45  19  50  1   
 46  20  21  ar  
 47  20  51  1   
 48  21  22  1   
 49  22  23  1   
 50  23  24  1   
 51  23  25  1   
 52  23  52  1   
 53  24  26  1   
 54  24  53  1   
 55  24  54  1   
 56  25  27  1   
 57  25  55  1   
 58  25  56  1   
 59  26  27  1   
 60  26  57  1   
 61  26  58  1   
 62  27  59  1   
 63  27  60  1   
@<TRIPOS>SUBSTRUCTURE
  1 ****  14 GROUP 4 **** **** 0

# MOE 2024.06 (io_trps.svl 2023.06)
