@<TRIPOS>MOLECULE
NONAME
50 52 1 0 0 
SMALL
USER_CHARGES


@<TRIPOS>ATOM
  1 S        1.1790    -0.2170     1.3650 S.3   1 <1>  -0.0800 
  2 C        0.1390     1.0820     0.8180 C.2   1 <1>  -0.0450 
  3 C       -0.1490    -1.3380     1.2430 C.2   1 <1>   0.1980 
  4 C       -1.0890     0.5440     0.6170 C.2   1 <1>   0.0460 
  5 C        0.7170     2.3910     0.6640 C.2   1 <1>   0.7150 
  6 N       -1.2330    -0.8060     0.8450 N.2   1 <1>  -0.5650 
  7 C        0.1390    -2.7840     1.6180 C.3   1 <1>   0.0200 
  8 C       -2.3560     1.2510     0.1760 C.3   1 <1>  -0.0590 
  9 O        1.7670     2.7030     1.1980 O.2   1 <1>  -0.5700 
 10 N        0.1930     3.3040    -0.2160 N.am  1 <1>  -0.6600 
 11 C       -1.0810    -3.7010     1.4560 C.3   1 <1>  -0.2400 
 12 C        0.4130     3.0890    -1.6780 C.3   1 <1>   0.1400 
 13 C       -0.0770     4.7100     0.2020 C.3   1 <1>   0.1400 
 14 C        1.9100     3.2200    -2.0510 C.3   1 <1>   0.3430 
 15 C        1.1820     5.5960     0.2010 C.3   1 <1>  -0.1600 
 16 N        2.6410     4.1350    -1.1190 N.4   1 <1>  -0.9590 
 17 C        2.0600     5.5010    -1.0490 C.3   1 <1>   0.3430 
 18 C        4.1200     4.1160    -1.2950 C.3   1 <1>   0.5230 
 19 C        4.7840     4.7660    -0.0960 C.2   1 <1>  -0.0400 
 20 O        4.8870     6.0810    -0.0550 O.3   1 <1>  -0.2800 
 21 C        5.3210     4.2160     1.0140 C.2   1 <1>  -0.1500 
 22 C        5.4880     6.4010     1.0710 C.2   1 <1>  -0.0400 
 23 C        5.7840     5.2920     1.7810 C.2   1 <1>  -0.1500 
 24 C        5.7430     7.8610     1.3760 C.3   1 <1>  -0.0600 
 25 H        0.4690    -2.8120     2.6410 H     1 <1>   0.0800 
 26 H        0.9390    -3.1470     0.9990 H     1 <1>   0.0800 
 27 H       -2.2210     2.3130     0.1150 H     1 <1>   0.0800 
 28 H       -3.1390     1.0490     0.8850 H     1 <1>   0.0800 
 29 H       -2.6620     0.8770    -0.7830 H     1 <1>   0.0800 
 30 H       -1.8850    -3.3600     2.0830 H     1 <1>   0.0800 
 31 H       -0.8280    -4.7090     1.7300 H     1 <1>   0.0800 
 32 H       -1.4170    -3.6920     0.4340 H     1 <1>   0.0800 
 33 H       -0.1610     3.8060    -2.2390 H     1 <1>   0.0800 
 34 H        0.0610     2.1100    -1.9590 H     1 <1>   0.0800 
 35 H       -0.4960     4.7030     1.1960 H     1 <1>   0.0800 
 36 H       -0.8190     5.1330    -0.4530 H     1 <1>   0.0800 
 37 H        2.0000     3.5660    -3.0680 H     1 <1>   0.0800 
 38 H        2.3530     2.2390    -1.9980 H     1 <1>   0.0800 
 39 H        1.7790     5.3770     1.0690 H     1 <1>   0.0800 
 40 H        0.8630     6.6180     0.3080 H     1 <1>   0.0800 
 41 H        2.4820     3.7440    -0.1650 H     1 <1>   0.4500 
 42 H        2.8420     6.2390    -0.9800 H     1 <1>   0.0800 
 43 H        1.4800     5.7130    -1.9330 H     1 <1>   0.0800 
 44 H        4.4050     4.6360    -2.1950 H     1 <1>   0.0800 
 45 H        4.4610     3.0970    -1.3610 H     1 <1>   0.0800 
 46 H        5.3990     3.1810     1.3010 H     1 <1>   0.1500 
 47 H        6.2720     5.2130     2.7370 H     1 <1>   0.1500 
 48 H        6.3620     8.2910     0.6100 H     1 <1>   0.0800 
 49 H        6.2420     7.9610     2.3230 H     1 <1>   0.0800 
 50 H        4.8120     8.3960     1.4160 H     1 <1>   0.0800 
@<TRIPOS>BOND
  1   1   2  1   
  2   1   3  1   
  3   2   4  2   
  4   2   5  1   
  5   3   6  2   
  6   3   7  1   
  7   4   6  1   
  8   4   8  1   
  9   5   9  2   
 10   5  10  am  
 11   7  11  1   
 12   7  25  1   
 13   7  26  1   
 14   8  27  1   
 15   8  28  1   
 16   8  29  1   
 17  10  12  1   
 18  10  13  1   
 19  11  30  1   
 20  11  31  1   
 21  11  32  1   
 22  12  14  1   
 23  12  33  1   
 24  12  34  1   
 25  13  15  1   
 26  13  35  1   
 27  13  36  1   
 28  14  16  1   
 29  14  37  1   
 30  14  38  1   
 31  15  17  1   
 32  15  39  1   
 33  15  40  1   
 34  16  17  1   
 35  16  18  1   
 36  16  41  1   
 37  17  42  1   
 38  17  43  1   
 39  18  19  1   
 40  18  44  1   
 41  18  45  1   
 42  19  20  1   
 43  19  21  2   
 44  20  22  1   
 45  21  23  1   
 46  21  46  1   
 47  22  23  2   
 48  22  24  1   
 49  23  47  1   
 50  24  48  1   
 51  24  49  1   
 52  24  50  1   
@<TRIPOS>SUBSTRUCTURE
  1 ****   9 GROUP 4 **** **** 0

# MOE 2024.06 (io_trps.svl 2023.06)
