@<TRIPOS>MOLECULE
NONAME
53 57 1 0 0 
SMALL
USER_CHARGES


@<TRIPOS>ATOM
  1 O       -0.5320    -0.1890    -0.5700 O.2   1 <1>  -0.5700 
  2 C       -0.7400     0.0030     0.6160 C.2   1 <1>   0.5440 
  3 N       -1.3900    -0.9800     1.3070 N.am  1 <1>  -0.7300 
  4 C       -0.3500     1.2410     1.2730 C.ar  1 <1>   0.0860 
  5 C       -1.8240    -2.2840     0.7540 C.3   1 <1>   0.2200 
  6 C       -0.0050     2.3860     0.5280 C.ar  1 <1>  -0.1520 
  7 C       -0.3010     1.3790     2.6560 C.ar  1 <1>  -0.1500 
  8 C       -3.3170    -2.2870     0.4510 C.3   1 <1>  -0.0800 
  9 C       -1.7650    -3.3260     1.8620 C.3   1 <1>   0.1200 
 10 N        0.0600     2.5490    -0.8320 N.pl3 1 <1>   0.0330 
 11 C        0.3420     3.5940     1.1290 C.ar  1 <1>   0.0000 
 12 C        0.0480     2.5840     3.2730 C.ar  1 <1>  -0.1500 
 13 C       -3.9440    -2.6180     1.8110 C.3   1 <1>   0.1200 
 14 C       -3.8740    -1.0130    -0.2120 C.3   1 <1>  -0.0160 
 15 O       -2.9160    -3.1100     2.6220 O.3   1 <1>  -0.5600 
 16 C        0.4280     3.8390    -1.0890 C.2   1 <1>  -0.3320 
 17 C        0.6110     4.4950     0.0760 C.2   1 <1>  -0.1810 
 18 C        0.3650     3.6900     2.5200 C.ar  1 <1>  -0.1500 
 19 C       -5.3530    -1.1690    -0.5300 C.ar  1 <1>  -0.1440 
 20 C        0.6150     4.4390    -2.4690 C.3   1 <1>   0.0200 
 21 C        1.0320     5.9480     0.1730 C.3   1 <1>   0.0210 
 22 C       -5.7870    -1.8630    -1.6420 C.ar  1 <1>  -0.1500 
 23 C       -6.3370    -0.6290     0.2730 C.ar  1 <1>  -0.1500 
 24 C        0.6930     5.9740    -2.3620 C.3   1 <1>  -0.1600 
 25 C        1.5780     6.4330    -1.1840 C.3   1 <1>  -0.1600 
 26 C       -7.1450    -1.9840    -1.8860 C.ar  1 <1>   0.1600 
 27 C       -7.6690    -0.8080    -0.0610 C.ar  1 <1>   0.1600 
 28 N       -8.0960    -1.4750    -1.1210 N.ar  1 <1>  -0.6200 
 29 H       -1.6920    -0.8230     2.2700 H     1 <1>   0.3700 
 30 H       -1.2240    -2.5570    -0.0980 H     1 <1>   0.0800 
 31 H       -0.5310     0.5430     3.2900 H     1 <1>   0.1500 
 32 H       -3.5160    -3.1180    -0.2030 H     1 <1>   0.0800 
 33 H       -0.8920    -3.2270     2.4830 H     1 <1>   0.0800 
 34 H       -1.8180    -4.3210     1.4560 H     1 <1>   0.0800 
 35 H       -0.1200     1.7900    -1.5020 H     1 <1>   0.2700 
 36 H        0.0680     2.6410     4.3470 H     1 <1>   0.1500 
 37 H       -4.7120    -3.3670     1.7240 H     1 <1>   0.0800 
 38 H       -4.3440    -1.7410     2.2890 H     1 <1>   0.0800 
 39 H       -3.3320    -0.8190    -1.1220 H     1 <1>   0.0800 
 40 H       -3.7370    -0.1620     0.4310 H     1 <1>   0.0800 
 41 H        0.6340     4.6240     2.9780 H     1 <1>   0.1500 
 42 H        1.5270     4.0570    -2.8930 H     1 <1>   0.0800 
 43 H       -0.2030     4.1630    -3.1100 H     1 <1>   0.0800 
 44 H        0.1760     6.5340     0.4540 H     1 <1>   0.0800 
 45 H        1.7870     6.0600     0.9300 H     1 <1>   0.0800 
 46 H       -5.0820    -2.3090    -2.3200 H     1 <1>   0.1500 
 47 H       -6.0820    -0.0700     1.1550 H     1 <1>   0.1500 
 48 H        1.0710     6.3770    -3.2850 H     1 <1>   0.0800 
 49 H       -0.3020     6.3600    -2.2160 H     1 <1>   0.0800 
 50 H        1.6520     7.5060    -1.1760 H     1 <1>   0.0800 
 51 H        2.5680     6.0330    -1.3210 H     1 <1>   0.0800 
 52 H       -7.4650    -2.5280    -2.7580 H     1 <1>   0.1500 
 53 H       -8.4230    -0.3800     0.5770 H     1 <1>   0.1500 
@<TRIPOS>BOND
  1   1   2  2   
  2   2   3  am  
  3   2   4  1   
  4   3   5  1   
  5   3  29  1   
  6   4   6  ar  
  7   4   7  ar  
  8   5   8  1   
  9   5   9  1   
 10   5  30  1   
 11   6  10  1   
 12   6  11  ar  
 13   7  12  ar  
 14   7  31  1   
 15   8  13  1   
 16   8  14  1   
 17   8  32  1   
 18   9  15  1   
 19   9  33  1   
 20   9  34  1   
 21  10  16  1   
 22  10  35  1   
 23  11  17  1   
 24  11  18  ar  
 25  12  18  ar  
 26  12  36  1   
 27  13  15  1   
 28  13  37  1   
 29  13  38  1   
 30  14  19  1   
 31  14  39  1   
 32  14  40  1   
 33  16  17  2   
 34  16  20  1   
 35  17  21  1   
 36  18  41  1   
 37  19  22  ar  
 38  19  23  ar  
 39  20  24  1   
 40  20  42  1   
 41  20  43  1   
 42  21  25  1   
 43  21  44  1   
 44  21  45  1   
 45  22  26  ar  
 46  22  46  1   
 47  23  27  ar  
 48  23  47  1   
 49  24  25  1   
 50  24  48  1   
 51  24  49  1   
 52  25  50  1   
 53  25  51  1   
 54  26  28  ar  
 55  26  52  1   
 56  27  28  ar  
 57  27  53  1   
@<TRIPOS>SUBSTRUCTURE
  1 ****   2 GROUP 4 **** **** 0

# MOE 2024.06 (io_trps.svl 2023.06)
