@<TRIPOS>MOLECULE
NONAME
51 53 1 0 0 
SMALL
USER_CHARGES


@<TRIPOS>ATOM
  1 S       -1.0020     0.2910    -1.7830 S.3   1 <1>  -0.0800 
  2 C       -1.7460     0.5080    -0.2220 C.2   1 <1>  -0.1400 
  3 C        0.4430     1.0600    -1.1720 C.2   1 <1>   0.2280 
  4 C       -0.8650     1.1210     0.5880 C.2   1 <1>   0.0460 
  5 C       -3.1700     0.0070    -0.0550 C.3   1 <1>   0.0200 
  6 N        0.3700     1.4290     0.0440 N.2   1 <1>  -0.5650 
  7 C       -1.0620     1.5170     2.0360 C.3   1 <1>  -0.0590 
  8 C       -3.2070    -1.5260    -0.0250 C.3   1 <1>  -0.1600 
  9 C       -4.6260    -2.0410     0.2080 C.3   1 <1>   0.1400 
 10 N       -4.6100    -3.5180     0.1950 N.am  1 <1>  -0.7300 
 11 C       -5.5960    -4.3090    -0.3280 C.2   1 <1>   0.5440 
 12 O       -6.5860    -3.7730    -0.7880 O.2   1 <1>  -0.5700 
 13 C       -5.4650    -5.7540    -0.3150 C.ar  1 <1>   0.0860 
 14 C       -6.5810    -6.5770    -0.1830 C.ar  1 <1>  -0.1500 
 15 C       -4.2240    -6.3800    -0.4340 C.ar  1 <1>  -0.1500 
 16 C       -6.4960    -7.9580    -0.1510 C.ar  1 <1>   0.1000 
 17 C       -4.1050    -7.7580    -0.4080 C.ar  1 <1>  -0.1500 
 18 N       -7.6990    -8.6630    -0.0080 N.pl3 1 <1>  -0.8380 
 19 C       -5.2310    -8.5630    -0.2660 C.ar  1 <1>   0.0830 
 20 C       -8.1220    -9.4660    -1.1910 C.3   1 <1>   0.2090 
 21 C       -7.8560    -9.4510     1.2480 C.3   1 <1>   0.2090 
 22 O       -5.1500    -9.9250    -0.2390 O.3   1 <1>  -0.3620 
 23 C       -9.5360   -10.0380    -0.9790 C.3   1 <1>   0.1200 
 24 C       -9.2820   -10.0220     1.3530 C.3   1 <1>   0.1200 
 25 C       -3.9260   -10.6070    -0.3930 C.3   1 <1>   0.0400 
 26 O       -9.6140   -10.7720     0.2150 O.3   1 <1>  -0.5600 
 27 H        1.2690     1.1640    -1.8520 H     1 <1>   0.1500 
 28 H       -3.7710     0.3750    -0.8680 H     1 <1>   0.0800 
 29 H       -3.5810     0.3940     0.8600 H     1 <1>   0.0800 
 30 H       -2.0350     1.2320     2.3890 H     1 <1>   0.0800 
 31 H       -0.9540     2.5820     2.1350 H     1 <1>   0.0800 
 32 H       -0.3170     1.0370     2.6430 H     1 <1>   0.0800 
 33 H       -2.5630    -1.8760     0.7620 H     1 <1>   0.0800 
 34 H       -2.8450    -1.9070    -0.9640 H     1 <1>   0.0800 
 35 H       -5.2830    -1.6780    -0.5660 H     1 <1>   0.0800 
 36 H       -5.0000    -1.7010     1.1590 H     1 <1>   0.0800 
 37 H       -3.8500    -3.9580     0.7140 H     1 <1>   0.3700 
 38 H       -7.5530    -6.1250    -0.1010 H     1 <1>   0.1500 
 39 H       -3.3390    -5.7820    -0.5580 H     1 <1>   0.1500 
 40 H       -3.1250    -8.1850    -0.5030 H     1 <1>   0.1500 
 41 H       -7.4330   -10.2770    -1.3490 H     1 <1>   0.0800 
 42 H       -8.1130    -8.8410    -2.0660 H     1 <1>   0.0800 
 43 H       -7.6580    -8.8160     2.0930 H     1 <1>   0.0800 
 44 H       -7.1500   -10.2630     1.2640 H     1 <1>   0.0800 
 45 H       -9.7940   -10.6980    -1.7870 H     1 <1>   0.0800 
 46 H      -10.2560    -9.2400    -0.9380 H     1 <1>   0.0800 
 47 H       -9.9940    -9.2220     1.4570 H     1 <1>   0.0800 
 48 H       -9.3590   -10.6700     2.2070 H     1 <1>   0.0800 
 49 H       -4.1270   -11.6630    -0.3530 H     1 <1>   0.0800 
 50 H       -3.2670   -10.3310     0.4100 H     1 <1>   0.0800 
 51 H       -3.5020   -10.3530    -1.3490 H     1 <1>   0.0800 
@<TRIPOS>BOND
  1   1   2  1   
  2   1   3  1   
  3   2   4  2   
  4   2   5  1   
  5   3   6  2   
  6   3  27  1   
  7   4   6  1   
  8   4   7  1   
  9   5   8  1   
 10   5  28  1   
 11   5  29  1   
 12   7  30  1   
 13   7  31  1   
 14   7  32  1   
 15   8   9  1   
 16   8  33  1   
 17   8  34  1   
 18   9  10  1   
 19   9  35  1   
 20   9  36  1   
 21  10  11  am  
 22  10  37  1   
 23  11  12  2   
 24  11  13  1   
 25  13  14  ar  
 26  13  15  ar  
 27  14  16  ar  
 28  14  38  1   
 29  15  17  ar  
 30  15  39  1   
 31  16  18  1   
 32  16  19  ar  
 33  17  19  ar  
 34  17  40  1   
 35  18  20  1   
 36  18  21  1   
 37  19  22  1   
 38  20  23  1   
 39  20  41  1   
 40  20  42  1   
 41  21  24  1   
 42  21  43  1   
 43  21  44  1   
 44  22  25  1   
 45  23  26  1   
 46  23  45  1   
 47  23  46  1   
 48  24  26  1   
 49  24  47  1   
 50  24  48  1   
 51  25  49  1   
 52  25  50  1   
 53  25  51  1   
@<TRIPOS>SUBSTRUCTURE
  1 ****  13 GROUP 4 **** **** 0

# MOE 2024.06 (io_trps.svl 2023.06)
