@<TRIPOS>MOLECULE
NONAME
47 48 1 0 0 
SMALL
USER_CHARGES


@<TRIPOS>ATOM
  1 F        0.0580     0.8380     0.4900 F     1 <1>  -0.1900 
  2 C       -1.2350     1.0400     0.4520 C.ar  1 <1>   0.1900 
  3 C       -1.8050     2.0570    -0.3220 C.ar  1 <1>   0.0830 
  4 C       -2.0110     0.1950     1.2210 C.ar  1 <1>  -0.1500 
  5 O       -1.1490     2.9510    -1.1170 O.3   1 <1>  -0.3630 
  6 C       -3.1840     2.1900    -0.2920 C.ar  1 <1>  -0.1500 
  7 C       -3.3840     0.3560     1.2280 C.ar  1 <1>  -0.1500 
  8 C        0.2490     2.9350    -1.3010 C.3   1 <1>   0.0400 
  9 C       -4.0010     1.3520     0.4690 C.ar  1 <1>   0.0530 
 10 C       -5.4310     1.5370     0.4740 C.2   1 <1>   0.0870 
 11 O       -5.9150     2.7530     0.5100 O.3   1 <1>  -0.0190 
 12 C       -6.4960     0.6860     0.4570 C.2   1 <1>  -0.0860 
 13 N       -7.2200     2.7850     0.5290 N.2   1 <1>  -0.4100 
 14 C       -7.5960     1.5560     0.4990 C.2   1 <1>   0.3720 
 15 C       -6.5560    -0.7440     0.3920 C.2   1 <1>   0.7160 
 16 N       -8.9490     1.1780     0.4870 N.pl3 1 <1>  -0.8210 
 17 O       -5.5710    -1.4150     0.1550 O.2   1 <1>  -0.5700 
 18 N       -7.7400    -1.3810     0.5960 N.am  1 <1>  -0.7300 
 19 C       -9.5520     1.2930    -0.8690 C.3   1 <1>   0.1290 
 20 C       -9.7740     1.8920     1.5040 C.3   1 <1>   0.1290 
 21 C       -8.0090    -2.8290     0.5050 C.3   1 <1>   0.2200 
 22 C       -8.5500    -3.3060     1.8670 C.3   1 <1>   0.1200 
 23 C       -8.9780    -3.0260    -0.6770 C.3   1 <1>  -0.1600 
 24 O       -8.5560    -4.6930     1.9530 O.3   1 <1>  -0.6800 
 25 C       -9.2820    -4.4900    -1.0320 C.3   1 <1>  -0.2400 
 26 H       -1.5460    -0.5800     1.8040 H     1 <1>   0.1500 
 27 H       -3.6340     2.9690    -0.8810 H     1 <1>   0.1500 
 28 H       -3.9870    -0.3010     1.8290 H     1 <1>   0.1500 
 29 H        0.5050     3.7210    -1.9880 H     1 <1>   0.0800 
 30 H        0.5370     1.9840    -1.7130 H     1 <1>   0.0800 
 31 H        0.7300     3.1080    -0.3550 H     1 <1>   0.0800 
 32 H       -8.5500    -0.7530     0.6990 H     1 <1>   0.3700 
 33 H      -10.5490     0.8900    -0.8670 H     1 <1>   0.0800 
 34 H       -8.9580     0.7450    -1.5810 H     1 <1>   0.0800 
 35 H       -9.5870     2.3270    -1.1720 H     1 <1>   0.0800 
 36 H      -10.7340     1.4160     1.6000 H     1 <1>   0.0800 
 37 H       -9.9150     2.9200     1.2150 H     1 <1>   0.0800 
 38 H       -9.2780     1.8680     2.4590 H     1 <1>   0.0800 
 39 H       -7.0830    -3.3430     0.3060 H     1 <1>   0.0800 
 40 H       -9.5540    -2.9540     2.0240 H     1 <1>   0.0800 
 41 H       -7.9160    -2.9450     2.6590 H     1 <1>   0.0800 
 42 H       -9.9030    -2.5150    -0.4750 H     1 <1>   0.0800 
 43 H       -8.5310    -2.5710    -1.5440 H     1 <1>   0.0800 
 44 H       -9.0240    -5.0790     1.1880 H     1 <1>   0.4000 
 45 H       -9.9270    -4.9420    -0.3000 H     1 <1>   0.0800 
 46 H       -8.3710    -5.0580    -1.1090 H     1 <1>   0.0800 
 47 H       -9.7860    -4.5320    -1.9810 H     1 <1>   0.0800 
@<TRIPOS>BOND
  1   1   2  1   
  2   2   3  ar  
  3   2   4  ar  
  4   3   5  1   
  5   3   6  ar  
  6   4   7  ar  
  7   4  26  1   
  8   5   8  1   
  9   6   9  ar  
 10   6  27  1   
 11   7   9  ar  
 12   7  28  1   
 13   8  29  1   
 14   8  30  1   
 15   8  31  1   
 16   9  10  1   
 17  10  11  1   
 18  10  12  2   
 19  11  13  1   
 20  12  14  1   
 21  12  15  1   
 22  13  14  2   
 23  14  16  1   
 24  15  17  2   
 25  15  18  am  
 26  16  19  1   
 27  16  20  1   
 28  18  21  1   
 29  18  32  1   
 30  19  33  1   
 31  19  34  1   
 32  19  35  1   
 33  20  36  1   
 34  20  37  1   
 35  20  38  1   
 36  21  22  1   
 37  21  23  1   
 38  21  39  1   
 39  22  24  1   
 40  22  40  1   
 41  22  41  1   
 42  23  25  1   
 43  23  42  1   
 44  23  43  1   
 45  24  44  1   
 46  25  45  1   
 47  25  46  1   
 48  25  47  1   
@<TRIPOS>SUBSTRUCTURE
  1 ****  12 GROUP 4 **** **** 0

# MOE 2024.06 (io_trps.svl 2023.06)
