@<TRIPOS>MOLECULE
NONAME
45 47 1 0 0 
SMALL
USER_CHARGES


@<TRIPOS>ATOM
  1 F        2.6390    -2.2790     2.8060 F     1 <1>  -0.3400 
  2 C        2.3910    -2.0980     1.5120 C.3   1 <1>   1.1640 
  3 F        3.5840    -2.0840     0.9200 F     1 <1>  -0.3400 
  4 F        1.9190    -0.8610     1.3910 F     1 <1>  -0.3400 
  5 C        1.4290    -3.1760     0.9260 C.ar  1 <1>   0.1660 
  6 N        0.1900    -3.2760     1.4260 N.ar  1 <1>  -0.6200 
  7 C        1.8700    -4.0090    -0.1010 C.ar  1 <1>  -0.1500 
  8 C       -0.5960    -4.2010     0.8990 C.ar  1 <1>   0.1600 
  9 C        1.0350    -4.9700    -0.6290 C.ar  1 <1>  -0.1500 
 10 C       -0.2470    -5.0880    -0.1150 C.ar  1 <1>   0.0860 
 11 C       -1.1910    -6.0700    -0.6040 C.2   1 <1>   0.5440 
 12 O       -1.1700    -6.3930    -1.7770 O.2   1 <1>  -0.5700 
 13 N       -2.1120    -6.6570     0.2380 N.am  1 <1>  -0.6600 
 14 C       -3.4060    -7.1700    -0.3080 C.3   1 <1>   0.2200 
 15 C       -1.6580    -7.2070     1.5510 C.3   1 <1>   0.0600 
 16 C       -4.4320    -7.5170     0.7730 C.3   1 <1>  -0.1600 
 17 C       -4.1310    -6.1070    -1.1330 C.3   1 <1>  -0.1600 
 18 C       -5.7920    -7.4720     0.0670 C.3   1 <1>  -0.0800 
 19 C       -5.6050    -6.5280    -1.1390 C.3   1 <1>  -0.0800 
 20 C       -6.9450    -7.0980     1.0180 C.3   1 <1>   0.1400 
 21 C       -6.5730    -5.3310    -1.1480 C.3   1 <1>  -0.0990 
 22 N       -8.1280    -6.6490     0.2420 N.am  1 <1>  -0.6600 
 23 C       -7.9780    -5.7820    -0.8050 C.2   1 <1>   0.5690 
 24 C       -9.4570    -7.1390     0.6950 C.3   1 <1>   0.0600 
 25 O       -8.9040    -5.3600    -1.4560 O.2   1 <1>  -0.5700 
 26 H        2.8650    -3.9190    -0.5000 H     1 <1>   0.1500 
 27 H       -1.5950    -4.2650     1.2970 H     1 <1>   0.1500 
 28 H        1.3580    -5.6200    -1.4260 H     1 <1>   0.1500 
 29 H       -3.2200    -8.0360    -0.9230 H     1 <1>   0.0800 
 30 H       -2.1940    -6.7340     2.3550 H     1 <1>   0.0800 
 31 H       -0.6040    -7.0380     1.6930 H     1 <1>   0.0800 
 32 H       -1.8320    -8.2690     1.5830 H     1 <1>   0.0800 
 33 H       -4.2490    -8.4850     1.2030 H     1 <1>   0.0800 
 34 H       -4.4060    -6.7620     1.5400 H     1 <1>   0.0800 
 35 H       -4.0200    -5.1510    -0.6520 H     1 <1>   0.0800 
 36 H       -3.7430    -6.0500    -2.1350 H     1 <1>   0.0800 
 37 H       -5.9970    -8.4560    -0.3220 H     1 <1>   0.0800 
 38 H       -5.7900    -7.1060    -2.0300 H     1 <1>   0.0800 
 39 H       -6.6460    -6.2920     1.6670 H     1 <1>   0.0800 
 40 H       -7.2010    -7.9470     1.6300 H     1 <1>   0.0800 
 41 H       -6.5700    -4.8620    -2.1150 H     1 <1>   0.0800 
 42 H       -6.2790    -4.6000    -0.4180 H     1 <1>   0.0800 
 43 H       -9.6280    -6.8390     1.7140 H     1 <1>   0.0800 
 44 H       -9.4910    -8.2120     0.6270 H     1 <1>   0.0800 
 45 H      -10.2400    -6.7310     0.0800 H     1 <1>   0.0800 
@<TRIPOS>BOND
  1   1   2  1   
  2   2   3  1   
  3   2   4  1   
  4   2   5  1   
  5   5   6  ar  
  6   5   7  ar  
  7   6   8  ar  
  8   7   9  ar  
  9   7  26  1   
 10   8  10  ar  
 11   8  27  1   
 12   9  10  ar  
 13   9  28  1   
 14  10  11  1   
 15  11  12  2   
 16  11  13  am  
 17  13  14  1   
 18  13  15  1   
 19  14  16  1   
 20  14  17  1   
 21  14  29  1   
 22  15  30  1   
 23  15  31  1   
 24  15  32  1   
 25  16  18  1   
 26  16  33  1   
 27  16  34  1   
 28  17  19  1   
 29  17  35  1   
 30  17  36  1   
 31  18  19  1   
 32  18  20  1   
 33  18  37  1   
 34  19  21  1   
 35  19  38  1   
 36  20  22  1   
 37  20  39  1   
 38  20  40  1   
 39  21  23  1   
 40  21  41  1   
 41  21  42  1   
 42  22  23  am  
 43  22  24  1   
 44  23  25  2   
 45  24  43  1   
 46  24  44  1   
 47  24  45  1   
@<TRIPOS>SUBSTRUCTURE
  1 ****  13 GROUP 4 **** **** 0

# MOE 2024.06 (io_trps.svl 2023.06)
