@<TRIPOS>MOLECULE
NONAME
45 47 1 0 0 
SMALL
USER_CHARGES


@<TRIPOS>ATOM
  1 F       -3.9730     1.9370     3.7170 F     1 <1>  -0.1900 
  2 C       -3.7310     1.4870     2.5160 C.ar  1 <1>   0.1900 
  3 C       -4.7490     0.8560     1.8280 C.ar  1 <1>  -0.1500 
  4 C       -2.4710     1.6590     1.9780 C.ar  1 <1>  -0.1500 
  5 C       -4.5010     0.3810     0.5470 C.ar  1 <1>  -0.1440 
  6 C       -2.2260     1.1790     0.7030 C.ar  1 <1>  -0.1500 
  7 C       -3.2350     0.5440    -0.0070 C.ar  1 <1>  -0.1500 
  8 C       -5.6070    -0.3000    -0.2350 C.3   1 <1>   0.4870 
  9 N       -6.6080     0.7240    -0.6090 N.4   1 <1>  -0.9590 
 10 C       -7.9010     0.1540    -1.0630 C.3   1 <1>   0.3430 
 11 C       -6.0740     1.7890    -1.5120 C.3   1 <1>   0.3430 
 12 C       -8.9940     1.2430    -0.9370 C.3   1 <1>   0.0000 
 13 C       -7.2020     2.5060    -2.2720 C.3   1 <1>  -0.1600 
 14 C       -9.4940     1.3250     0.5170 C.3   1 <1>   0.2000 
 15 C       -8.4900     2.6250    -1.4400 C.3   1 <1>  -0.1600 
 16 C      -10.2500     0.7610    -1.6750 C.3   1 <1>  -0.1600 
 17 O       -8.4190     1.2490     1.4150 O.3   1 <1>  -0.5600 
 18 C      -10.4580     0.1470     0.6900 C.3   1 <1>  -0.1600 
 19 C      -10.9170    -0.2390    -0.7240 C.3   1 <1>  -0.1600 
 20 C       -8.7350     1.6370     2.7200 C.3   1 <1>   0.0400 
 21 H       -5.7100     0.7460     2.3010 H     1 <1>   0.1500 
 22 H       -1.7040     2.1550     2.5470 H     1 <1>   0.1500 
 23 H       -1.2480     1.2990     0.2660 H     1 <1>   0.1500 
 24 H       -3.0160     0.1760    -0.9960 H     1 <1>   0.1500 
 25 H       -6.0650    -1.0540     0.3850 H     1 <1>   0.0800 
 26 H       -5.2070    -0.7730    -1.1170 H     1 <1>   0.0800 
 27 H       -6.8810     1.1900     0.2800 H     1 <1>   0.4500 
 28 H       -7.8170    -0.1680    -2.0880 H     1 <1>   0.0800 
 29 H       -8.1730    -0.6930    -0.4550 H     1 <1>   0.0800 
 30 H       -5.5290     2.5060    -0.9180 H     1 <1>   0.0800 
 31 H       -5.3880     1.3610    -2.2250 H     1 <1>   0.0800 
 32 H       -6.8610     3.4850    -2.5610 H     1 <1>   0.0800 
 33 H       -7.4110     1.9670    -3.1810 H     1 <1>   0.0800 
 34 H      -10.0200     2.2550     0.6650 H     1 <1>   0.0800 
 35 H       -9.2490     3.1250    -2.0180 H     1 <1>   0.0800 
 36 H       -8.2750     3.2580    -0.5950 H     1 <1>   0.0800 
 37 H      -10.9280     1.5860    -1.8230 H     1 <1>   0.0800 
 38 H      -10.0340     0.3250    -2.6360 H     1 <1>   0.0800 
 39 H       -9.9660    -0.6890     1.1570 H     1 <1>   0.0800 
 40 H      -11.3010     0.4440     1.2900 H     1 <1>   0.0800 
 41 H      -10.5950    -1.2420    -0.9510 H     1 <1>   0.0800 
 42 H      -11.9900    -0.1980    -0.8140 H     1 <1>   0.0800 
 43 H       -7.8470     1.5600     3.3230 H     1 <1>   0.0800 
 44 H       -9.4950     0.9870     3.1170 H     1 <1>   0.0800 
 45 H       -9.0780     2.6580     2.7170 H     1 <1>   0.0800 
@<TRIPOS>BOND
  1   1   2  1   
  2   2   3  ar  
  3   2   4  ar  
  4   3   5  ar  
  5   3  21  1   
  6   4   6  ar  
  7   4  22  1   
  8   5   7  ar  
  9   5   8  1   
 10   6   7  ar  
 11   6  23  1   
 12   7  24  1   
 13   8   9  1   
 14   8  25  1   
 15   8  26  1   
 16   9  10  1   
 17   9  11  1   
 18   9  27  1   
 19  10  12  1   
 20  10  28  1   
 21  10  29  1   
 22  11  13  1   
 23  11  30  1   
 24  11  31  1   
 25  12  14  1   
 26  12  15  1   
 27  12  16  1   
 28  13  15  1   
 29  13  32  1   
 30  13  33  1   
 31  14  17  1   
 32  14  18  1   
 33  14  34  1   
 34  15  35  1   
 35  15  36  1   
 36  16  19  1   
 37  16  37  1   
 38  16  38  1   
 39  17  20  1   
 40  18  19  1   
 41  18  39  1   
 42  18  40  1   
 43  19  41  1   
 44  19  42  1   
 45  20  43  1   
 46  20  44  1   
 47  20  45  1   
@<TRIPOS>SUBSTRUCTURE
  1 ****   9 GROUP 4 **** **** 0

# MOE 2024.06 (io_trps.svl 2023.06)
