@<TRIPOS>MOLECULE
NONAME
56 59 1 0 0 
SMALL
USER_CHARGES


@<TRIPOS>ATOM
  1 O       -1.7680     0.3900     1.0960 O.3   1 <1>  -0.5600 
  2 C       -2.2290     1.5250     0.4340 C.3   1 <1>   0.1200 
  3 C       -1.4580    -0.7220     0.3220 C.3   1 <1>   0.1200 
  4 C       -3.6130     1.3290    -0.2220 C.3   1 <1>   0.4230 
  5 C       -2.7370    -1.4590    -0.1050 C.3   1 <1>  -0.0800 
  6 N       -3.4960     0.5550    -1.5250 N.4   1 <1>  -0.9590 
  7 C       -4.6790     0.8110     0.7960 C.3   1 <1>   0.2090 
  8 C       -3.7850    -1.5530     1.0200 C.3   1 <1>   0.2090 
  9 C       -3.3520    -0.9400    -1.4110 C.3   1 <1>   0.3430 
 10 C       -4.6560     0.8500    -2.4180 C.3   1 <1>   0.2630 
 11 N       -4.9680    -0.6680     0.7620 N.pl3 1 <1>  -0.8380 
 12 C       -6.2160    -1.1960     0.6610 C.ar  1 <1>   0.4100 
 13 N       -6.3490    -2.2990    -0.0500 N.ar  1 <1>  -0.6200 
 14 C       -7.3140    -0.5960     1.3040 C.ar  1 <1>  -0.1500 
 15 C       -7.5500    -2.8640    -0.1200 C.ar  1 <1>   0.7710 
 16 C       -8.5360    -1.1730     1.2050 C.ar  1 <1>   0.2180 
 17 N       -8.6200    -2.3130     0.4810 N.ar  1 <1>  -0.1790 
 18 N       -7.7040    -4.0220    -0.8190 N.pl3 1 <1>  -0.8380 
 19 C       -9.7920    -0.6170     1.8650 C.3   1 <1>  -0.0170 
 20 C       -6.5430    -4.7220    -1.4840 C.3   1 <1>   0.2090 
 21 C       -8.9800    -4.7970    -1.0470 C.3   1 <1>   0.2090 
 22 C      -10.8470    -0.1930     0.8350 C.3   1 <1>  -0.2400 
 23 C       -6.4990    -6.2150    -1.1120 C.3   1 <1>   0.1200 
 24 C       -8.8030    -6.2850    -0.6900 C.3   1 <1>   0.1200 
 25 O       -7.7250    -6.8270    -1.3880 O.3   1 <1>  -0.5600 
 26 H       -2.3020     2.2980     1.1790 H     1 <1>   0.0800 
 27 H       -1.4910     1.8330    -0.2860 H     1 <1>   0.0800 
 28 H       -0.8510    -0.4240    -0.5170 H     1 <1>   0.0800 
 29 H       -0.8670    -1.3700     0.9480 H     1 <1>   0.0800 
 30 H       -3.9230     2.3270    -0.4820 H     1 <1>   0.0800 
 31 H       -2.4330    -2.4700    -0.3090 H     1 <1>   0.0800 
 32 H       -2.6440     0.8980    -1.9880 H     1 <1>   0.4500 
 33 H       -5.5880     1.3480     0.5980 H     1 <1>   0.0800 
 34 H       -4.3720     1.0800     1.7940 H     1 <1>   0.0800 
 35 H       -3.3480    -1.3000     1.9720 H     1 <1>   0.0800 
 36 H       -4.1140    -2.5750     1.1010 H     1 <1>   0.0800 
 37 H       -4.3250    -1.3950    -1.5060 H     1 <1>   0.0800 
 38 H       -2.7560    -1.2930    -2.2360 H     1 <1>   0.0800 
 39 H       -5.5670     0.4830    -1.9720 H     1 <1>   0.0800 
 40 H       -4.5250     0.3690    -3.3740 H     1 <1>   0.0800 
 41 H       -4.7500     1.9120    -2.5790 H     1 <1>   0.0800 
 42 H       -7.1590     0.2980     1.8780 H     1 <1>   0.1500 
 43 H       -9.4980    -2.8010     0.3680 H     1 <1>   0.4570 
 44 H      -10.2100    -1.3540     2.5300 H     1 <1>   0.0800 
 45 H       -9.5330     0.2400     2.4650 H     1 <1>   0.0800 
 46 H       -6.6430    -4.6380    -2.5530 H     1 <1>   0.0800 
 47 H       -5.6000    -4.2830    -1.2120 H     1 <1>   0.0800 
 48 H       -9.7970    -4.4050    -0.4730 H     1 <1>   0.0800 
 49 H       -9.2510    -4.7310    -2.0890 H     1 <1>   0.0800 
 50 H      -11.1980    -1.0300     0.2580 H     1 <1>   0.0800 
 51 H      -10.4460     0.5490     0.1650 H     1 <1>   0.0800 
 52 H      -11.6940     0.2400     1.3400 H     1 <1>   0.0800 
 53 H       -6.2740    -6.3440    -0.0670 H     1 <1>   0.0800 
 54 H       -5.7450    -6.7210    -1.6900 H     1 <1>   0.0800 
 55 H       -9.6810    -6.8420    -0.9670 H     1 <1>   0.0800 
 56 H       -8.6310    -6.4140     0.3650 H     1 <1>   0.0800 
@<TRIPOS>BOND
  1   1   2  1   
  2   1   3  1   
  3   2   4  1   
  4   2  26  1   
  5   2  27  1   
  6   3   5  1   
  7   3  28  1   
  8   3  29  1   
  9   4   6  1   
 10   4   7  1   
 11   4  30  1   
 12   5   8  1   
 13   5   9  1   
 14   5  31  1   
 15   6   9  1   
 16   6  10  1   
 17   6  32  1   
 18   7  11  1   
 19   7  33  1   
 20   7  34  1   
 21   8  11  1   
 22   8  35  1   
 23   8  36  1   
 24   9  37  1   
 25   9  38  1   
 26  10  39  1   
 27  10  40  1   
 28  10  41  1   
 29  11  12  1   
 30  12  13  ar  
 31  12  14  ar  
 32  13  15  ar  
 33  14  16  ar  
 34  14  42  1   
 35  15  17  ar  
 36  15  18  1   
 37  16  17  ar  
 38  16  19  1   
 39  17  43  1   
 40  18  20  1   
 41  18  21  1   
 42  19  22  1   
 43  19  44  1   
 44  19  45  1   
 45  20  23  1   
 46  20  46  1   
 47  20  47  1   
 48  21  24  1   
 49  21  48  1   
 50  21  49  1   
 51  22  50  1   
 52  22  51  1   
 53  22  52  1   
 54  23  25  1   
 55  23  53  1   
 56  23  54  1   
 57  24  25  1   
 58  24  55  1   
 59  24  56  1   
@<TRIPOS>SUBSTRUCTURE
  1 ****  13 GROUP 4 **** **** 0

# MOE 2024.06 (io_trps.svl 2023.06)
