@<TRIPOS>MOLECULE
NONAME
43 45 1 0 0 
SMALL
USER_CHARGES


@<TRIPOS>ATOM
  1 F       -0.9600    -0.2230     0.7130 F     1 <1>  -0.1900 
  2 C       -1.7250    -0.9500    -0.0760 C.ar  1 <1>   0.1900 
  3 C       -2.3850    -0.3340    -1.1600 C.ar  1 <1>  -0.1710 
  4 C       -1.8460    -2.2860     0.2000 C.ar  1 <1>  -0.1500 
  5 O       -2.3140     0.8890    -1.4310 O.3   1 <1>  -0.8290 
  6 C       -3.1630    -1.1670    -1.9710 C.ar  1 <1>  -0.1500 
  7 C       -2.6540    -3.1120    -0.5960 C.ar  1 <1>   0.0860 
  8 C       -3.2870    -2.5100    -1.6980 C.ar  1 <1>  -0.1500 
  9 C       -2.8200    -4.5050    -0.2810 C.2   1 <1>   0.5440 
 10 O       -1.8640    -5.1680     0.1020 O.2   1 <1>  -0.5700 
 11 N       -4.0450    -5.1440    -0.3740 N.am  1 <1>  -0.6600 
 12 C       -5.3470    -4.4420    -0.3180 C.3   1 <1>   0.1400 
 13 C       -4.2150    -6.5800    -0.0510 C.3   1 <1>   0.1400 
 14 C       -6.2490    -5.3480     0.5260 C.3   1 <1>  -0.0800 
 15 C       -5.6860    -6.7690     0.3360 C.3   1 <1>  -0.0800 
 16 C       -7.7810    -5.2020     0.2770 C.3   1 <1>   0.2800 
 17 C       -6.4820    -7.5630    -0.7110 C.3   1 <1>  -0.1600 
 18 O       -8.0150    -4.9270    -1.0570 O.3   1 <1>  -0.6800 
 19 C       -8.4820    -6.5430     0.5650 C.3   1 <1>  -0.1600 
 20 C       -8.4050    -4.0170     1.0460 C.3   1 <1>  -0.1600 
 21 C       -7.9640    -7.7070    -0.3100 C.3   1 <1>  -0.1600 
 22 C       -8.4840    -4.1660     2.5770 C.3   1 <1>  -0.2400 
 23 H       -1.3210    -2.7090     1.0350 H     1 <1>   0.1500 
 24 H       -3.6530    -0.7070    -2.8090 H     1 <1>   0.1500 
 25 H       -3.8830    -3.1220    -2.3470 H     1 <1>   0.1500 
 26 H       -5.2540    -3.4660     0.1270 H     1 <1>   0.0800 
 27 H       -5.7140    -4.3420    -1.3240 H     1 <1>   0.0800 
 28 H       -3.9450    -7.1790    -0.9040 H     1 <1>   0.0800 
 29 H       -3.5770    -6.8410     0.7770 H     1 <1>   0.0800 
 30 H       -6.0490    -5.0950     1.5490 H     1 <1>   0.0800 
 31 H       -5.7320    -7.3090     1.2670 H     1 <1>   0.0800 
 32 H       -6.4210    -7.0430    -1.6530 H     1 <1>   0.0800 
 33 H       -6.0490    -8.5380    -0.8520 H     1 <1>   0.0800 
 34 H       -8.9670    -5.0170    -1.2410 H     1 <1>   0.4000 
 35 H       -8.2970    -6.8010     1.5930 H     1 <1>   0.0800 
 36 H       -9.5470    -6.4440     0.4550 H     1 <1>   0.0800 
 37 H       -7.8380    -3.1300     0.8210 H     1 <1>   0.0800 
 38 H       -9.4070    -3.8590     0.6870 H     1 <1>   0.0800 
 39 H       -8.1020    -8.6290     0.2280 H     1 <1>   0.0800 
 40 H       -8.5520    -7.7690    -1.2100 H     1 <1>   0.0800 
 41 H       -7.5100    -4.2970     3.0110 H     1 <1>   0.0800 
 42 H       -9.1050    -5.0000     2.8530 H     1 <1>   0.0800 
 43 H       -8.9170    -3.2770     3.0000 H     1 <1>   0.0800 
@<TRIPOS>BOND
  1   1   2  1   
  2   2   3  ar  
  3   2   4  ar  
  4   3   5  1   
  5   3   6  ar  
  6   4   7  ar  
  7   4  23  1   
  8   6   8  ar  
  9   6  24  1   
 10   7   8  ar  
 11   7   9  1   
 12   8  25  1   
 13   9  10  2   
 14   9  11  am  
 15  11  12  1   
 16  11  13  1   
 17  12  14  1   
 18  12  26  1   
 19  12  27  1   
 20  13  15  1   
 21  13  28  1   
 22  13  29  1   
 23  14  15  1   
 24  14  16  1   
 25  14  30  1   
 26  15  17  1   
 27  15  31  1   
 28  16  18  1   
 29  16  19  1   
 30  16  20  1   
 31  17  21  1   
 32  17  32  1   
 33  17  33  1   
 34  18  34  1   
 35  19  21  1   
 36  19  35  1   
 37  19  36  1   
 38  20  22  1   
 39  20  37  1   
 40  20  38  1   
 41  21  39  1   
 42  21  40  1   
 43  22  41  1   
 44  22  42  1   
 45  22  43  1   
@<TRIPOS>SUBSTRUCTURE
  1 ****  12 GROUP 4 **** **** 0

# MOE 2024.06 (io_trps.svl 2023.06)
