@<TRIPOS>MOLECULE
NONAME
51 54 1 0 0 
SMALL
USER_CHARGES


@<TRIPOS>ATOM
  1 O        0.9750    -0.0110     2.2820 O.3   1 <1>  -0.6800 
  2 C        1.1600    -0.2480     0.9250 C.3   1 <1>   0.2000 
  3 C        2.0250    -1.4960     0.7810 C.3   1 <1>  -0.0800 
  4 C        2.0560     0.8610     0.3620 C.3   1 <1>   0.3430 
  5 C        3.4330    -0.9760     1.0960 C.3   1 <1>   0.3430 
  6 C        1.9320    -2.1070    -0.6330 C.3   1 <1>  -0.0160 
  7 N        3.4620     0.4630     0.6950 N.4   1 <1>  -0.9590 
  8 C        3.0300    -3.1340    -0.8560 C.ar  1 <1>  -0.1430 
  9 C        3.9830     1.3220     1.7770 C.3   1 <1>   0.5230 
 10 C        3.0890    -4.3090    -0.1330 C.ar  1 <1>  -0.1500 
 11 C        4.0310    -2.9410    -1.7890 C.ar  1 <1>  -0.1500 
 12 C        4.3290     2.6300     1.1130 C.2   1 <1>  -0.3320 
 13 C        4.1290    -5.1970    -0.3520 C.ar  1 <1>   0.1600 
 14 C        5.0250    -3.8940    -1.9330 C.ar  1 <1>   0.1600 
 15 N        5.4840     2.8470     0.4000 N.pl3 1 <1>   0.0480 
 16 C        3.5790     3.7600     1.1120 C.2   1 <1>  -0.1500 
 17 N        5.1030    -5.0080    -1.2260 N.ar  1 <1>  -0.6200 
 18 C        5.4390     4.1340    -0.0790 C.ar  1 <1>  -0.1520 
 19 C        6.6590     1.9640     0.2410 C.3   1 <1>   0.0160 
 20 C        4.2600     4.7300     0.3520 C.ar  1 <1>   0.0000 
 21 C        6.3430     4.8520    -0.8680 C.ar  1 <1>  -0.1500 
 22 C        3.9730     6.0510    -0.0020 C.ar  1 <1>  -0.1500 
 23 C        6.0480     6.1510    -1.2110 C.ar  1 <1>  -0.1500 
 24 C        4.8610     6.7580    -0.7800 C.ar  1 <1>  -0.1430 
 25 C        4.5810     8.1940    -1.1840 C.3   1 <1>  -0.0970 
 26 H        0.2480    -0.5620     2.6450 H     1 <1>   0.4000 
 27 H        0.1990    -0.3030     0.4410 H     1 <1>   0.0800 
 28 H        1.7430    -2.2510     1.4950 H     1 <1>   0.0800 
 29 H        1.7910     1.8190     0.7780 H     1 <1>   0.0800 
 30 H        1.9400     0.9020    -0.7080 H     1 <1>   0.0800 
 31 H        4.1940    -1.5460     0.5870 H     1 <1>   0.0800 
 32 H        3.5940    -1.0570     2.1590 H     1 <1>   0.0800 
 33 H        2.0090    -1.3420    -1.3860 H     1 <1>   0.0800 
 34 H        0.9750    -2.5850    -0.7590 H     1 <1>   0.0800 
 35 H        4.0570     0.6310    -0.1230 H     1 <1>   0.4500 
 36 H        3.2300     1.4640     2.5370 H     1 <1>   0.0800 
 37 H        4.8620     0.8910     2.2290 H     1 <1>   0.0800 
 38 H        2.3400    -4.5530     0.5990 H     1 <1>   0.1500 
 39 H        4.0520    -2.0680    -2.4150 H     1 <1>   0.1500 
 40 H        4.1630    -6.1100     0.2190 H     1 <1>   0.1500 
 41 H        5.7970    -3.7350    -2.6670 H     1 <1>   0.1500 
 42 H        2.6290     3.9490     1.5810 H     1 <1>   0.1500 
 43 H        6.5000     1.0250     0.7360 H     1 <1>   0.0800 
 44 H        7.5190     2.4480     0.6690 H     1 <1>   0.0800 
 45 H        6.8360     1.7960    -0.8060 H     1 <1>   0.0800 
 46 H        7.2580     4.3960    -1.2010 H     1 <1>   0.1500 
 47 H        3.0570     6.4940     0.3450 H     1 <1>   0.1500 
 48 H        6.7340     6.7150    -1.8170 H     1 <1>   0.1500 
 49 H        5.3600     8.8360    -0.8140 H     1 <1>   0.0800 
 50 H        3.6410     8.5290    -0.7830 H     1 <1>   0.0800 
 51 H        4.5440     8.2720    -2.2550 H     1 <1>   0.0800 
@<TRIPOS>BOND
  1   1   2  1   
  2   1  26  1   
  3   2   3  1   
  4   2   4  1   
  5   2  27  1   
  6   3   5  1   
  7   3   6  1   
  8   3  28  1   
  9   4   7  1   
 10   4  29  1   
 11   4  30  1   
 12   5   7  1   
 13   5  31  1   
 14   5  32  1   
 15   6   8  1   
 16   6  33  1   
 17   6  34  1   
 18   7   9  1   
 19   7  35  1   
 20   8  10  ar  
 21   8  11  ar  
 22   9  12  1   
 23   9  36  1   
 24   9  37  1   
 25  10  13  ar  
 26  10  38  1   
 27  11  14  ar  
 28  11  39  1   
 29  12  15  1   
 30  12  16  2   
 31  13  17  ar  
 32  13  40  1   
 33  14  17  ar  
 34  14  41  1   
 35  15  18  1   
 36  15  19  1   
 37  16  20  1   
 38  16  42  1   
 39  18  20  ar  
 40  18  21  ar  
 41  19  43  1   
 42  19  44  1   
 43  19  45  1   
 44  20  22  ar  
 45  21  23  ar  
 46  21  46  1   
 47  22  24  ar  
 48  22  47  1   
 49  23  24  ar  
 50  23  48  1   
 51  24  25  1   
 52  25  49  1   
 53  25  50  1   
 54  25  51  1   
@<TRIPOS>SUBSTRUCTURE
  1 ****   7 GROUP 4 **** **** 0

# MOE 2024.06 (io_trps.svl 2023.06)
