@<TRIPOS>MOLECULE
NONAME
43 45 1 0 0 
SMALL
USER_CHARGES


@<TRIPOS>ATOM
  1 O       -1.1930     0.2060     2.1010 O.2   1 <1>  -0.5700 
  2 C       -1.7220     0.5060     1.0630 C.2   1 <1>   0.4230 
  3 C       -2.9460    -0.0980     0.6180 C.ar  1 <1>   0.0860 
  4 C       -0.9920     1.5160     0.1980 C.3   1 <1>  -0.1790 
  5 C       -4.0280     0.5560     0.0340 C.ar  1 <1>   0.1660 
  6 C       -3.1100    -1.4650     0.7640 C.ar  1 <1>   0.1600 
  7 N       -5.0820    -0.0850    -0.4010 N.ar  1 <1>  -0.6200 
  8 C       -4.0890     2.0660    -0.1240 C.3   1 <1>  -0.0960 
  9 N       -4.1590    -2.1230     0.3450 N.ar  1 <1>  -0.6200 
 10 C       -5.1170    -1.4080    -0.2420 C.ar  1 <1>   0.7200 
 11 N       -6.2200    -2.0800    -0.7080 N.pl3 1 <1>  -0.8380 
 12 C       -6.3110    -3.5750    -0.7480 C.3   1 <1>   0.2090 
 13 C       -7.4780    -1.3970    -1.1240 C.3   1 <1>   0.2090 
 14 C       -7.4460    -4.0590     0.1670 C.3   1 <1>   0.0630 
 15 C       -8.6240    -1.8460    -0.2090 C.3   1 <1>  -0.1600 
 16 C       -7.5780    -5.5810     0.1220 C.ar  1 <1>  -0.1430 
 17 C       -8.7800    -3.3760    -0.1900 C.3   1 <1>  -0.1600 
 18 C       -7.3770    -6.3240     1.2760 C.ar  1 <1>  -0.1500 
 19 C       -7.8910    -6.2440    -1.0570 C.ar  1 <1>  -0.1500 
 20 C       -7.4890    -7.7040     1.2540 C.ar  1 <1>  -0.1500 
 21 C       -8.0040    -7.6240    -1.0810 C.ar  1 <1>  -0.1500 
 22 C       -7.8030    -8.3550     0.0750 C.ar  1 <1>  -0.1500 
 23 H       -1.3120     1.4480    -0.8250 H     1 <1>   0.0800 
 24 H        0.0640     1.3170     0.2370 H     1 <1>   0.0800 
 25 H       -1.1650     2.5080     0.5700 H     1 <1>   0.0800 
 26 H       -2.3270    -2.0280     1.2450 H     1 <1>   0.1500 
 27 H       -3.6120     2.5600     0.7020 H     1 <1>   0.0800 
 28 H       -5.1150     2.3900    -0.1500 H     1 <1>   0.0800 
 29 H       -3.6210     2.3600    -1.0450 H     1 <1>   0.0800 
 30 H       -5.3910    -4.0400    -0.4430 H     1 <1>   0.0800 
 31 H       -6.5040    -3.8790    -1.7610 H     1 <1>   0.0800 
 32 H       -7.6980    -1.6600    -2.1440 H     1 <1>   0.0800 
 33 H       -7.3860    -0.3260    -1.0730 H     1 <1>   0.0800 
 34 H       -7.1800    -3.7680     1.1680 H     1 <1>   0.0800 
 35 H       -9.5400    -1.3940    -0.5420 H     1 <1>   0.0800 
 36 H       -8.4240    -1.4890     0.7860 H     1 <1>   0.0800 
 37 H       -9.5290    -3.6570     0.5290 H     1 <1>   0.0800 
 38 H       -9.1090    -3.7050    -1.1590 H     1 <1>   0.0800 
 39 H       -7.1310    -5.8330     2.2010 H     1 <1>   0.1500 
 40 H       -8.0520    -5.6930    -1.9670 H     1 <1>   0.1500 
 41 H       -7.3320    -8.2700     2.1560 H     1 <1>   0.1500 
 42 H       -8.2470    -8.1270    -2.0000 H     1 <1>   0.1500 
 43 H       -7.8900    -9.4280     0.0580 H     1 <1>   0.1500 
@<TRIPOS>BOND
  1   1   2  2   
  2   2   3  1   
  3   2   4  1   
  4   3   5  ar  
  5   3   6  ar  
  6   4  23  1   
  7   4  24  1   
  8   4  25  1   
  9   5   7  ar  
 10   5   8  1   
 11   6   9  ar  
 12   6  26  1   
 13   7  10  ar  
 14   8  27  1   
 15   8  28  1   
 16   8  29  1   
 17   9  10  ar  
 18  10  11  1   
 19  11  12  1   
 20  11  13  1   
 21  12  14  1   
 22  12  30  1   
 23  12  31  1   
 24  13  15  1   
 25  13  32  1   
 26  13  33  1   
 27  14  16  1   
 28  14  17  1   
 29  14  34  1   
 30  15  17  1   
 31  15  35  1   
 32  15  36  1   
 33  16  18  ar  
 34  16  19  ar  
 35  17  37  1   
 36  17  38  1   
 37  18  20  ar  
 38  18  39  1   
 39  19  21  ar  
 40  19  40  1   
 41  20  22  ar  
 42  20  41  1   
 43  21  22  ar  
 44  21  42  1   
 45  22  43  1   
@<TRIPOS>SUBSTRUCTURE
  1 ****  11 GROUP 4 **** **** 0

# MOE 2024.06 (io_trps.svl 2023.06)
