@<TRIPOS>MOLECULE
NONAME
48 50 1 0 0 
SMALL
USER_CHARGES


@<TRIPOS>ATOM
  1 N        0.0450     0.2800    -1.9690 N.ar  1 <1>  -0.6200 
  2 C       -0.0110     1.3720    -1.2140 C.ar  1 <1>   0.3830 
  3 C       -1.0430    -0.4600    -2.0200 C.ar  1 <1>   0.1600 
  4 C        1.1550     2.1990    -1.1410 C.1   1 <1>  -0.0730 
  5 C       -1.1480     1.7320    -0.5020 C.ar  1 <1>  -0.1500 
  6 C       -2.2160    -0.1910    -1.3320 C.ar  1 <1>  -0.1440 
  7 C        2.1180     2.8980    -1.0670 C.1   1 <1>  -0.2000 
  8 C       -2.2800     0.9470    -0.5510 C.ar  1 <1>  -0.1500 
  9 C       -3.3910    -1.1390    -1.4410 C.3   1 <1>   0.4870 
 10 C        3.3230     3.7730    -0.9750 C.3   1 <1>   0.0400 
 11 N       -3.5270    -1.8950    -0.1650 N.4   1 <1>  -0.9590 
 12 C        3.0470     5.0250    -0.1260 C.3   1 <1>  -0.0800 
 13 C       -2.3280    -2.7450     0.1160 C.3   1 <1>   0.3430 
 14 C       -4.7910    -2.6850    -0.1330 C.3   1 <1>   0.3430 
 15 C        4.2530     5.9560    -0.0250 C.3   1 <1>  -0.1600 
 16 C        2.7060     4.7280     1.3350 C.3   1 <1>  -0.1600 
 17 C       -2.4620    -3.3810     1.5010 C.3   1 <1>  -0.1600 
 18 C       -4.9690    -3.3180     1.2480 C.3   1 <1>  -0.1600 
 19 C        3.9690     6.8290     1.1970 C.3   1 <1>  -0.1600 
 20 C        3.0270     6.0170     2.0950 C.3   1 <1>  -0.1600 
 21 C       -3.7630    -4.1820     1.6380 C.3   1 <1>  -0.1600 
 22 H       -0.9830    -1.3350    -2.6480 H     1 <1>   0.1500 
 23 H       -1.1310     2.6330     0.0850 H     1 <1>   0.1500 
 24 H       -3.1620     1.2300    -0.0010 H     1 <1>   0.1500 
 25 H       -3.2420    -1.8210    -2.2630 H     1 <1>   0.0800 
 26 H       -4.2870    -0.5700    -1.6310 H     1 <1>   0.0800 
 27 H        3.6100     4.0700    -1.9680 H     1 <1>   0.0800 
 28 H        4.1330     3.2090    -0.5480 H     1 <1>   0.0800 
 29 H       -3.5710    -1.2020     0.5920 H     1 <1>   0.4500 
 30 H        2.2300     5.5750    -0.5630 H     1 <1>   0.0800 
 31 H       -1.4300    -2.1480     0.0870 H     1 <1>   0.0800 
 32 H       -2.2450    -3.5200    -0.6290 H     1 <1>   0.0800 
 33 H       -4.7570    -3.4620    -0.8800 H     1 <1>   0.0800 
 34 H       -5.6350    -2.0470    -0.3440 H     1 <1>   0.0800 
 35 H        4.3850     6.5440    -0.9170 H     1 <1>   0.0800 
 36 H        5.1450     5.3800     0.1540 H     1 <1>   0.0800 
 37 H        3.3370     3.9360     1.7020 H     1 <1>   0.0800 
 38 H        1.6760     4.4370     1.4550 H     1 <1>   0.0800 
 39 H       -2.4220    -2.6120     2.2520 H     1 <1>   0.0800 
 40 H       -1.6230    -4.0350     1.6690 H     1 <1>   0.0800 
 41 H       -5.8560    -3.9290     1.2440 H     1 <1>   0.0800 
 42 H       -5.1180    -2.5440     1.9810 H     1 <1>   0.0800 
 43 H        3.4740     7.7340     0.8870 H     1 <1>   0.0800 
 44 H        4.8790     7.0880     1.7100 H     1 <1>   0.0800 
 45 H        3.4870     5.7940     3.0420 H     1 <1>   0.0800 
 46 H        2.1240     6.5760     2.2700 H     1 <1>   0.0800 
 47 H       -3.8740    -4.5290     2.6520 H     1 <1>   0.0800 
 48 H       -3.7200    -5.0490     1.0000 H     1 <1>   0.0800 
@<TRIPOS>BOND
  1   1   2  ar  
  2   1   3  ar  
  3   2   4  1   
  4   2   5  ar  
  5   3   6  ar  
  6   3  22  1   
  7   4   7  3   
  8   5   8  ar  
  9   5  23  1   
 10   6   8  ar  
 11   6   9  1   
 12   7  10  1   
 13   8  24  1   
 14   9  11  1   
 15   9  25  1   
 16   9  26  1   
 17  10  12  1   
 18  10  27  1   
 19  10  28  1   
 20  11  13  1   
 21  11  14  1   
 22  11  29  1   
 23  12  15  1   
 24  12  16  1   
 25  12  30  1   
 26  13  17  1   
 27  13  31  1   
 28  13  32  1   
 29  14  18  1   
 30  14  33  1   
 31  14  34  1   
 32  15  19  1   
 33  15  35  1   
 34  15  36  1   
 35  16  20  1   
 36  16  37  1   
 37  16  38  1   
 38  17  21  1   
 39  17  39  1   
 40  17  40  1   
 41  18  21  1   
 42  18  41  1   
 43  18  42  1   
 44  19  20  1   
 45  19  43  1   
 46  19  44  1   
 47  20  45  1   
 48  20  46  1   
 49  21  47  1   
 50  21  48  1   
@<TRIPOS>SUBSTRUCTURE
  1 ****   5 GROUP 4 **** **** 0

# MOE 2024.06 (io_trps.svl 2023.06)
