@<TRIPOS>MOLECULE
NONAME
29 28 1 0 0 
SMALL
USER_CHARGES


@<TRIPOS>ATOM
  1 P       -0.3060     0.2440     0.6770 P.3   1 <1>   1.2420 
  2 O       -0.5400     0.8890     1.9690 O.2   1 <1>  -0.7000 
  3 O       -1.4450     0.6150    -0.3970 O.3   1 <1>  -0.5510 
  4 O       -0.3590    -1.3640     0.7340 O.3   1 <1>  -0.5510 
  5 C        1.2250     0.7060    -0.1560 C.3   1 <1>   0.1200 
  6 C       -2.7840     0.6800    -0.0360 C.3   1 <1>   0.1200 
  7 C       -0.0920    -2.1430    -0.3750 C.3   1 <1>   0.1200 
  8 O        2.4000     0.0920     0.3240 O.3   1 <1>  -0.5600 
  9 C       -3.3990    -0.7180    -0.0470 C.3   1 <1>  -0.2400 
 10 C       -0.3740    -3.5920     0.0020 C.3   1 <1>  -0.2400 
 11 C        3.5710     0.5440    -0.2680 C.3   1 <1>   0.1200 
 12 C        4.7220    -0.2490     0.3360 C.3   1 <1>  -0.2400 
 13 H        1.3690     1.7680    -0.0830 H     1 <1>   0.0800 
 14 H        1.1620     0.4580    -1.1980 H     1 <1>   0.0800 
 15 H       -3.2800     1.3000    -0.7620 H     1 <1>   0.0800 
 16 H       -2.8700     1.1440     0.9330 H     1 <1>   0.0800 
 17 H        0.9430    -2.0180    -0.6460 H     1 <1>   0.0800 
 18 H       -0.7300    -1.8300    -1.1850 H     1 <1>   0.0800 
 19 H       -3.2430    -1.1890    -1.0000 H     1 <1>   0.0800 
 20 H       -4.4570    -0.6430     0.1270 H     1 <1>   0.0800 
 21 H       -2.9790    -1.3250     0.7350 H     1 <1>   0.0800 
 22 H        0.2580    -3.8890     0.8200 H     1 <1>   0.0800 
 23 H       -0.1740    -4.2340    -0.8370 H     1 <1>   0.0800 
 24 H       -1.4050    -3.7070     0.2860 H     1 <1>   0.0800 
 25 H        3.6840     1.5950    -0.0590 H     1 <1>   0.0800 
 26 H        3.5140     0.3810    -1.3310 H     1 <1>   0.0800 
 27 H        4.7600    -0.0900     1.3990 H     1 <1>   0.0800 
 28 H        5.6530     0.0720    -0.0940 H     1 <1>   0.0800 
 29 H        4.5930    -1.2970     0.1360 H     1 <1>   0.0800 
@<TRIPOS>BOND
  1   1   2  2   
  2   1   3  1   
  3   1   4  1   
  4   1   5  1   
  5   3   6  1   
  6   4   7  1   
  7   5   8  1   
  8   5  13  1   
  9   5  14  1   
 10   6   9  1   
 11   6  15  1   
 12   6  16  1   
 13   7  10  1   
 14   7  17  1   
 15   7  18  1   
 16   8  11  1   
 17   9  19  1   
 18   9  20  1   
 19   9  21  1   
 20  10  22  1   
 21  10  23  1   
 22  10  24  1   
 23  11  12  1   
 24  11  25  1   
 25  11  26  1   
 26  12  27  1   
 27  12  28  1   
 28  12  29  1   
@<TRIPOS>SUBSTRUCTURE
  1 ****   1 GROUP 4 **** **** 0

# MOE 2024.06 (io_trps.svl 2023.06)
