@<TRIPOS>MOLECULE
NONAME
51 55 1 0 0 
SMALL
USER_CHARGES


@<TRIPOS>ATOM
  1 S        0.1880    -0.7400     2.3590 S.3   1 <1>  -0.0800 
  2 C       -0.7280    -0.9930     0.9170 C.2   1 <1>   0.1980 
  3 C        0.5300     0.8450     1.7560 C.2   1 <1>   0.1980 
  4 N       -0.7270     0.0150     0.1400 N.2   1 <1>  -0.3380 
  5 C       -1.4240    -2.3300     0.7110 C.3   1 <1>   0.5230 
  6 N       -0.0080     1.0690     0.6240 N.2   1 <1>  -0.3380 
  7 C        1.3910     1.7620     2.5960 C.3   1 <1>  -0.0600 
  8 N       -2.3730    -2.2410    -0.4470 N.4   1 <1>  -0.9590 
  9 C       -3.5750    -1.4070    -0.0950 C.3   1 <1>   0.3430 
 10 C       -2.7650    -3.5690    -0.9960 C.3   1 <1>   0.3430 
 11 C       -4.4630    -1.1440    -1.3210 C.3   1 <1>   0.1430 
 12 C       -3.6080    -3.3670    -2.2590 C.3   1 <1>  -0.1600 
 13 C       -5.7060    -0.4220    -0.8600 C.ar  1 <1>   0.1670 
 14 C       -4.8390    -2.4760    -2.0050 C.3   1 <1>  -0.1600 
 15 C       -3.8300    -0.1290    -2.3130 C.3   1 <1>  -0.1600 
 16 N       -6.4410    -0.7910     0.1580 N.ar  1 <1>  -0.6200 
 17 C       -5.9690     0.6750    -1.6190 C.ar  1 <1>  -0.1430 
 18 C       -4.9460     0.8570    -2.7130 C.3   1 <1>  -0.0170 
 19 C       -7.5020    -0.0100     0.4150 C.ar  1 <1>   0.6200 
 20 C       -7.0700     1.4220    -1.2910 C.ar  1 <1>   0.1600 
 21 N       -7.8370     1.0880    -0.2780 N.ar  1 <1>  -0.6200 
 22 C       -8.3500    -0.3810     1.5380 C.ar  1 <1>   0.0000 
 23 C       -8.9730     0.5850     2.3320 C.ar  1 <1>  -0.1500 
 24 C       -8.5780    -1.7190     1.8720 C.ar  1 <1>  -0.1500 
 25 C       -9.7750     0.2380     3.4040 C.ar  1 <1>  -0.1500 
 26 C       -9.3790    -2.0730     2.9430 C.ar  1 <1>  -0.1500 
 27 C       -9.9800    -1.0940     3.7130 C.ar  1 <1>  -0.1500 
 28 H       -1.9550    -2.6040     1.6070 H     1 <1>   0.0800 
 29 H       -0.6720    -3.0770     0.5150 H     1 <1>   0.0800 
 30 H        2.3590     1.3200     2.7460 H     1 <1>   0.0800 
 31 H        0.9260     1.9310     3.5490 H     1 <1>   0.0800 
 32 H        1.5130     2.7060     2.0950 H     1 <1>   0.0800 
 33 H       -1.8630    -1.7170    -1.1760 H     1 <1>   0.4500 
 34 H       -3.2680    -0.4590     0.3170 H     1 <1>   0.0800 
 35 H       -4.1650    -1.9150     0.6510 H     1 <1>   0.0800 
 36 H       -3.3410    -4.1120    -0.2630 H     1 <1>   0.0800 
 37 H       -1.8870    -4.1470    -1.2390 H     1 <1>   0.0800 
 38 H       -3.9390    -4.3290    -2.6120 H     1 <1>   0.0800 
 39 H       -2.9930    -2.9440    -3.0340 H     1 <1>   0.0800 
 40 H       -5.3550    -2.2840    -2.9310 H     1 <1>   0.0800 
 41 H       -5.5240    -3.0110    -1.3680 H     1 <1>   0.0800 
 42 H       -3.4030    -0.5980    -3.1820 H     1 <1>   0.0800 
 43 H       -3.0570     0.4330    -1.8160 H     1 <1>   0.0800 
 44 H       -5.3780     0.5840    -3.6600 H     1 <1>   0.0800 
 45 H       -4.5840     1.8700    -2.7560 H     1 <1>   0.0800 
 46 H       -7.3260     2.3010    -1.8590 H     1 <1>   0.1500 
 47 H       -8.8260     1.6270     2.1040 H     1 <1>   0.1500 
 48 H       -8.1230    -2.4930     1.2810 H     1 <1>   0.1500 
 49 H      -10.2420     1.0050     3.9980 H     1 <1>   0.1500 
 50 H       -9.5380    -3.1120     3.1770 H     1 <1>   0.1500 
 51 H      -10.6040    -1.3670     4.5460 H     1 <1>   0.1500 
@<TRIPOS>BOND
  1   1   2  1   
  2   1   3  1   
  3   2   4  2   
  4   2   5  1   
  5   3   6  2   
  6   3   7  1   
  7   4   6  1   
  8   5   8  1   
  9   5  28  1   
 10   5  29  1   
 11   7  30  1   
 12   7  31  1   
 13   7  32  1   
 14   8   9  1   
 15   8  10  1   
 16   8  33  1   
 17   9  11  1   
 18   9  34  1   
 19   9  35  1   
 20  10  12  1   
 21  10  36  1   
 22  10  37  1   
 23  11  13  1   
 24  11  14  1   
 25  11  15  1   
 26  12  14  1   
 27  12  38  1   
 28  12  39  1   
 29  13  16  ar  
 30  13  17  ar  
 31  14  40  1   
 32  14  41  1   
 33  15  18  1   
 34  15  42  1   
 35  15  43  1   
 36  16  19  ar  
 37  17  18  1   
 38  17  20  ar  
 39  18  44  1   
 40  18  45  1   
 41  19  21  ar  
 42  19  22  1   
 43  20  21  ar  
 44  20  46  1   
 45  22  23  ar  
 46  22  24  ar  
 47  23  25  ar  
 48  23  47  1   
 49  24  26  ar  
 50  24  48  1   
 51  25  27  ar  
 52  25  49  1   
 53  26  27  ar  
 54  26  50  1   
 55  27  51  1   
@<TRIPOS>SUBSTRUCTURE
  1 ****   9 GROUP 4 **** **** 0

# MOE 2024.06 (io_trps.svl 2023.06)
