@<TRIPOS>MOLECULE
NONAME
42 43 1 0 0 
SMALL
USER_CHARGES


@<TRIPOS>ATOM
  1 S       -0.3950    -0.1340     0.5200 S.3   1 <1>  -0.0800 
  2 C       -2.1000     0.2220     0.2870 C.2   1 <1>  -0.1400 
  3 C        0.0420     0.8200    -0.8860 C.2   1 <1>  -0.1100 
  4 C       -2.2730     1.0130    -0.7880 C.2   1 <1>  -0.1500 
  5 C       -3.0860    -0.3720     1.2750 C.3   1 <1>   0.0200 
  6 C       -1.0530     1.3520    -1.4580 C.2   1 <1>  -0.1500 
  7 C       -3.1660    -1.8950     1.1190 C.3   1 <1>  -0.1600 
  8 C       -4.2400    -2.5080     2.0330 C.3   1 <1>  -0.0990 
  9 C       -4.3110    -4.0210     1.8940 C.2   1 <1>   0.5690 
 10 O       -3.5650    -4.6640     2.5930 O.2   1 <1>  -0.5700 
 11 N       -5.1680    -4.6220     1.0090 N.am  1 <1>  -0.6600 
 12 C       -5.2440    -6.1210     0.9830 C.3   1 <1>   0.3210 
 13 C       -5.9490    -3.8950    -0.0410 C.3   1 <1>   0.1400 
 14 C       -6.6470    -6.6560     0.6960 C.2   1 <1>   0.0460 
 15 C       -7.3530    -3.5210     0.4520 C.3   1 <1>   0.1200 
 16 N       -7.5900    -6.6730     1.6620 N.2   1 <1>  -0.5650 
 17 C       -7.1400    -7.1580    -0.4630 C.2   1 <1>  -0.3320 
 18 O       -7.8780    -2.5290    -0.3680 O.3   1 <1>  -0.6800 
 19 C       -8.6260    -7.1790     1.0800 C.2   1 <1>   0.0360 
 20 N       -8.4190    -7.4950    -0.2140 N.pl3 1 <1>   0.0330 
 21 C       -6.4970    -7.3530    -1.8260 C.3   1 <1>  -0.0600 
 22 H        1.0860     0.8800    -1.1370 H     1 <1>   0.1500 
 23 H       -3.2160     1.3810    -1.1510 H     1 <1>   0.1500 
 24 H       -4.0550     0.0610     1.0990 H     1 <1>   0.0800 
 25 H       -2.7820    -0.1170     2.2760 H     1 <1>   0.0800 
 26 H       -1.0600     1.9770    -2.3330 H     1 <1>   0.1500 
 27 H       -2.2110    -2.3290     1.3640 H     1 <1>   0.0800 
 28 H       -3.3760    -2.1340     0.0920 H     1 <1>   0.0800 
 29 H       -5.2000    -2.0730     1.8340 H     1 <1>   0.0800 
 30 H       -3.9970    -2.2860     3.0570 H     1 <1>   0.0800 
 31 H       -4.9300    -6.5240     1.9300 H     1 <1>   0.0800 
 32 H       -4.5640    -6.4840     0.2360 H     1 <1>   0.0800 
 33 H       -6.0350    -4.5110    -0.9180 H     1 <1>   0.0800 
 34 H       -5.4220    -3.0030    -0.3220 H     1 <1>   0.0800 
 35 H       -7.3300    -3.1510     1.4620 H     1 <1>   0.0800 
 36 H       -8.0120    -4.3690     0.3990 H     1 <1>   0.0800 
 37 H       -7.4650    -1.6650    -0.1790 H     1 <1>   0.4000 
 38 H       -9.5740    -7.3400     1.5640 H     1 <1>   0.1500 
 39 H       -9.0980    -7.9030    -0.8620 H     1 <1>   0.2700 
 40 H       -5.4800    -7.0040    -1.8220 H     1 <1>   0.0800 
 41 H       -7.0410    -6.8020    -2.5730 H     1 <1>   0.0800 
 42 H       -6.4980    -8.3950    -2.0900 H     1 <1>   0.0800 
@<TRIPOS>BOND
  1   1   2  1   
  2   1   3  1   
  3   2   4  2   
  4   2   5  1   
  5   3   6  2   
  6   3  22  1   
  7   4   6  1   
  8   4  23  1   
  9   5   7  1   
 10   5  24  1   
 11   5  25  1   
 12   6  26  1   
 13   7   8  1   
 14   7  27  1   
 15   7  28  1   
 16   8   9  1   
 17   8  29  1   
 18   8  30  1   
 19   9  10  2   
 20   9  11  am  
 21  11  12  1   
 22  11  13  1   
 23  12  14  1   
 24  12  31  1   
 25  12  32  1   
 26  13  15  1   
 27  13  33  1   
 28  13  34  1   
 29  14  16  1   
 30  14  17  2   
 31  15  18  1   
 32  15  35  1   
 33  15  36  1   
 34  16  19  2   
 35  17  20  1   
 36  17  21  1   
 37  18  37  1   
 38  19  20  1   
 39  19  38  1   
 40  20  39  1   
 41  21  40  1   
 42  21  41  1   
 43  21  42  1   
@<TRIPOS>SUBSTRUCTURE
  1 ****  11 GROUP 4 **** **** 0

# MOE 2024.06 (io_trps.svl 2023.06)
