@<TRIPOS>MOLECULE
NONAME
53 56 1 0 0 
SMALL
USER_CHARGES


@<TRIPOS>ATOM
  1 S        1.0990    -1.0010     3.0830 S.3   1 <1>  -0.0800 
  2 C        1.3240    -0.2860     1.5100 C.2   1 <1>   0.1980 
  3 C        0.4750    -2.4270     2.3140 C.2   1 <1>  -0.1100 
  4 N        0.9750    -1.0340     0.5420 N.2   1 <1>  -0.5650 
  5 C        1.9060     1.1210     1.4310 C.3   1 <1>   0.5230 
  6 C        0.4750    -2.2780     0.9680 C.2   1 <1>   0.1410 
  7 N        1.8660     1.6030     0.0080 N.4   1 <1>  -0.9590 
  8 C        0.0170    -3.2680    -0.0040 C.2   1 <1>   0.7160 
  9 C        2.8730     2.6660    -0.2780 C.3   1 <1>   0.2630 
 10 C        0.4840     2.0090    -0.3970 C.3   1 <1>   0.2630 
 11 O       -0.2330    -2.9620    -1.1550 O.2   1 <1>  -0.5700 
 12 N       -0.1420    -4.5740     0.3640 N.am  1 <1>  -0.7300 
 13 C       -0.5040    -5.6890    -0.5410 C.3   1 <1>   0.2200 
 14 C       -1.8150    -6.3010    -0.0730 C.3   1 <1>  -0.0800 
 15 C        0.4660    -6.8400    -0.3150 C.3   1 <1>   0.1200 
 16 C       -1.3580    -7.3050     0.9960 C.3   1 <1>   0.1200 
 17 C       -2.5650    -6.9840    -1.2350 C.3   1 <1>  -0.0170 
 18 O        0.0260    -7.4580     0.8530 O.3   1 <1>  -0.5600 
 19 C       -3.8930    -7.5810    -0.7780 C.ar  1 <1>  -0.1440 
 20 C       -5.0350    -6.7850    -0.5180 C.ar  1 <1>   0.0000 
 21 C       -4.0140    -8.9290    -0.6040 C.ar  1 <1>  -0.1500 
 22 C       -6.2060    -7.4420    -0.0690 C.ar  1 <1>   0.3100 
 23 C       -5.0860    -5.3800    -0.6810 C.ar  1 <1>  -0.1500 
 24 C       -5.2240    -9.4800    -0.1650 C.ar  1 <1>   0.1600 
 25 N       -6.2840    -8.7860     0.1020 N.ar  1 <1>  -0.6200 
 26 C       -7.3500    -6.6770     0.2130 C.ar  1 <1>  -0.1500 
 27 C       -6.2180    -4.6650    -0.4000 C.ar  1 <1>  -0.1500 
 28 C       -7.3650    -5.3180     0.0550 C.ar  1 <1>  -0.1500 
 29 H        0.1630    -3.2380     2.9460 H     1 <1>   0.1500 
 30 H        2.9240     1.0850     1.7800 H     1 <1>   0.0800 
 31 H        1.3460     1.7850     2.0680 H     1 <1>   0.0800 
 32 H        2.0830     0.7520    -0.5460 H     1 <1>   0.4500 
 33 H        2.6620     3.5500     0.3020 H     1 <1>   0.0800 
 34 H        2.8500     2.9280    -1.3240 H     1 <1>   0.0800 
 35 H        3.8650     2.3200    -0.0360 H     1 <1>   0.0800 
 36 H        0.1520     2.8550     0.1820 H     1 <1>   0.0800 
 37 H       -0.2040     1.1910    -0.2440 H     1 <1>   0.0800 
 38 H        0.4640     2.2730    -1.4420 H     1 <1>   0.0800 
 39 H        0.1450    -4.8870     1.2920 H     1 <1>   0.3700 
 40 H       -0.5230    -5.3650    -1.5690 H     1 <1>   0.0800 
 41 H       -2.4540    -5.5540     0.3640 H     1 <1>   0.0800 
 42 H        1.4840    -6.5130    -0.1940 H     1 <1>   0.0800 
 43 H        0.4060    -7.5590    -1.1140 H     1 <1>   0.0800 
 44 H       -1.8210    -8.2700     0.8900 H     1 <1>   0.0800 
 45 H       -1.5460    -6.9290     1.9860 H     1 <1>   0.0800 
 46 H       -1.9500    -7.7620    -1.6540 H     1 <1>   0.0800 
 47 H       -2.7480    -6.2750    -2.0240 H     1 <1>   0.0800 
 48 H       -3.1950    -9.6000    -0.7920 H     1 <1>   0.1500 
 49 H       -4.2190    -4.8560    -1.0360 H     1 <1>   0.1500 
 50 H       -5.2740   -10.5480    -0.0400 H     1 <1>   0.1500 
 51 H       -8.2210    -7.2020     0.5580 H     1 <1>   0.1500 
 52 H       -6.2420    -3.5960    -0.5270 H     1 <1>   0.1500 
 53 H       -8.2500    -4.7450     0.2740 H     1 <1>   0.1500 
@<TRIPOS>BOND
  1   1   2  1   
  2   1   3  1   
  3   2   4  2   
  4   2   5  1   
  5   3   6  2   
  6   3  29  1   
  7   4   6  1   
  8   5   7  1   
  9   5  30  1   
 10   5  31  1   
 11   6   8  1   
 12   7   9  1   
 13   7  10  1   
 14   7  32  1   
 15   8  11  2   
 16   8  12  am  
 17   9  33  1   
 18   9  34  1   
 19   9  35  1   
 20  10  36  1   
 21  10  37  1   
 22  10  38  1   
 23  12  13  1   
 24  12  39  1   
 25  13  14  1   
 26  13  15  1   
 27  13  40  1   
 28  14  16  1   
 29  14  17  1   
 30  14  41  1   
 31  15  18  1   
 32  15  42  1   
 33  15  43  1   
 34  16  18  1   
 35  16  44  1   
 36  16  45  1   
 37  17  19  1   
 38  17  46  1   
 39  17  47  1   
 40  19  20  ar  
 41  19  21  ar  
 42  20  22  ar  
 43  20  23  ar  
 44  21  24  ar  
 45  21  48  1   
 46  22  25  ar  
 47  22  26  ar  
 48  23  27  ar  
 49  23  49  1   
 50  24  25  ar  
 51  24  50  1   
 52  26  28  ar  
 53  26  51  1   
 54  27  28  ar  
 55  27  52  1   
 56  28  53  1   
@<TRIPOS>SUBSTRUCTURE
  1 ****  12 GROUP 4 **** **** 0

# MOE 2024.06 (io_trps.svl 2023.06)
