@<TRIPOS>MOLECULE
NONAME
42 43 1 0 0 
SMALL
USER_CHARGES


@<TRIPOS>ATOM
  1 S       -0.5550     0.6870     1.6490 S.o2  1 <1>   1.4470 
  2 O        0.1950     0.0480     2.7110 O.2   1 <1>  -0.6500 
  3 O       -1.2620     1.9090     1.9680 O.2   1 <1>  -0.6500 
  4 N       -1.6990    -0.4530     1.1270 N.am  1 <1>  -0.8490 
  5 C        0.5750     0.9430     0.2520 C.ar  1 <1>  -0.0090 
  6 C       -1.0690    -1.7630     0.8240 C.3   1 <1>   0.1960 
  7 C       -2.5570     0.0530     0.0470 C.3   1 <1>   0.1960 
  8 C        0.2730     1.7930    -0.8060 C.ar  1 <1>   0.1900 
  9 C        1.7920     0.2680     0.1820 C.ar  1 <1>  -0.1500 
 10 C       -1.8580    -2.6630    -0.1580 C.3   1 <1>  -0.1060 
 11 C       -3.7080    -0.9150    -0.2630 C.3   1 <1>  -0.1600 
 12 F       -0.8390     2.4770    -0.7940 F     1 <1>  -0.1900 
 13 C        1.1020     1.9770    -1.9030 C.ar  1 <1>  -0.1500 
 14 C        2.6240     0.4540    -0.9080 C.ar  1 <1>   0.1900 
 15 C       -1.4860    -2.3160    -1.6060 C.2   1 <1>   0.9060 
 16 C       -3.3650    -2.3830     0.0240 C.3   1 <1>   0.2000 
 17 C       -1.5510    -4.1640     0.1160 C.3   1 <1>  -0.1600 
 18 C        2.3030     1.2930    -1.9580 C.ar  1 <1>  -0.1500 
 19 F        3.7640    -0.1830    -0.9400 F     1 <1>  -0.1900 
 20 O       -0.5030    -1.5960    -1.8390 O.co2 1 <1>  -0.9000 
 21 O       -2.2000    -2.7350    -2.5240 O.co2 1 <1>  -0.9000 
 22 O       -3.7150    -2.6110     1.3470 O.3   1 <1>  -0.6800 
 23 C       -0.0700    -4.5470    -0.0590 C.3   1 <1>  -0.1600 
 24 C        0.1430    -6.0400     0.2030 C.3   1 <1>  -0.2400 
 25 H       -0.0680    -1.6330     0.4540 H     1 <1>   0.0800 
 26 H       -0.9710    -2.2840     1.7620 H     1 <1>   0.0800 
 27 H       -2.9700     1.0100     0.3190 H     1 <1>   0.0800 
 28 H       -1.9690     0.1900    -0.8450 H     1 <1>   0.0800 
 29 H        2.0910    -0.4060     0.9650 H     1 <1>   0.1500 
 30 H       -3.9330    -0.8200    -1.3110 H     1 <1>   0.0800 
 31 H       -4.5950    -0.6270     0.2730 H     1 <1>   0.0800 
 32 H        0.8030     2.6370    -2.6970 H     1 <1>   0.1500 
 33 H       -3.9570    -3.0380    -0.5940 H     1 <1>   0.0800 
 34 H       -1.8630    -4.4220     1.1130 H     1 <1>   0.0800 
 35 H       -2.1400    -4.7540    -0.5670 H     1 <1>   0.0800 
 36 H        2.9730     1.3980    -2.7920 H     1 <1>   0.1500 
 37 H       -3.2260    -1.9430     1.8740 H     1 <1>   0.4000 
 38 H        0.2470    -4.3190    -1.0640 H     1 <1>   0.0800 
 39 H        0.5450    -3.9820     0.6180 H     1 <1>   0.0800 
 40 H       -0.4410    -6.6250    -0.4860 H     1 <1>   0.0800 
 41 H       -0.1490    -6.2900     1.2080 H     1 <1>   0.0800 
 42 H        1.1810    -6.2900     0.0720 H     1 <1>   0.0800 
@<TRIPOS>BOND
  1   1   2  2   
  2   1   3  2   
  3   1   4  am  
  4   1   5  1   
  5   4   6  1   
  6   4   7  1   
  7   5   8  ar  
  8   5   9  ar  
  9   6  10  1   
 10   6  25  1   
 11   6  26  1   
 12   7  11  1   
 13   7  27  1   
 14   7  28  1   
 15   8  12  1   
 16   8  13  ar  
 17   9  14  ar  
 18   9  29  1   
 19  10  15  1   
 20  10  16  1   
 21  10  17  1   
 22  11  16  1   
 23  11  30  1   
 24  11  31  1   
 25  13  18  ar  
 26  13  32  1   
 27  14  18  ar  
 28  14  19  1   
 29  15  20  ar  
 30  15  21  ar  
 31  16  22  1   
 32  16  33  1   
 33  17  23  1   
 34  17  34  1   
 35  17  35  1   
 36  18  36  1   
 37  22  37  1   
 38  23  24  1   
 39  23  38  1   
 40  23  39  1   
 41  24  40  1   
 42  24  41  1   
 43  24  42  1   
@<TRIPOS>SUBSTRUCTURE
  1 ****   6 GROUP 4 **** **** 0

# MOE 2024.06 (io_trps.svl 2023.06)
