@<TRIPOS>MOLECULE
NONAME
51 54 1 0 0 
SMALL
USER_CHARGES


@<TRIPOS>ATOM
  1 O       -1.2240     0.3640    -2.6860 O.2   1 <1>  -0.5700 
  2 C       -1.9440     1.0250    -1.9610 C.2   1 <1>   0.5440 
  3 N       -3.2120     0.5530    -1.6880 N.am  1 <1>  -0.6600 
  4 C       -1.4470     2.2550    -1.4000 C.ar  1 <1>   0.0860 
  5 C       -3.4400    -0.9160    -1.6560 C.3   1 <1>   0.1400 
  6 C       -4.2710     1.3750    -1.0270 C.3   1 <1>   0.1400 
  7 C       -1.0000     2.2800    -0.0540 C.ar  1 <1>   0.3100 
  8 C       -1.4020     3.4020    -2.1660 C.ar  1 <1>  -0.1500 
  9 C       -3.5070    -1.3260    -0.1700 C.3   1 <1>   0.4230 
 10 C       -4.4990     0.8930     0.4180 C.3   1 <1>  -0.1600 
 11 N       -1.0360     1.1420     0.7070 N.ar  1 <1>  -0.6200 
 12 C       -0.5230     3.5060     0.4700 C.ar  1 <1>   0.0000 
 13 C       -0.9350     4.6050    -1.6390 C.ar  1 <1>  -0.1500 
 14 N       -3.3110    -2.8040     0.1580 N.4   1 <1>  -0.9590 
 15 C       -4.7170    -0.6410     0.5310 C.3   1 <1>   0.0000 
 16 C       -0.5960     1.2160     1.9280 C.ar  1 <1>   0.1600 
 17 C       -0.0710     3.5360     1.8000 C.ar  1 <1>  -0.1500 
 18 C       -0.5050     4.6540    -0.3420 C.ar  1 <1>  -0.1500 
 19 C       -4.3800    -3.4290     0.9900 C.3   1 <1>   0.3430 
 20 C       -2.9800    -3.6780    -1.0130 C.3   1 <1>   0.2630 
 21 C       -4.6690    -1.0530     2.0190 C.3   1 <1>  -0.1600 
 22 C       -6.0830    -1.0040    -0.1260 C.3   1 <1>   0.1200 
 23 C       -0.1080     2.3850     2.5230 C.ar  1 <1>  -0.1500 
 24 C       -4.7110    -2.5810     2.2270 C.3   1 <1>  -0.1600 
 25 O       -7.1320    -0.3740     0.5220 O.3   1 <1>  -0.6800 
 26 H       -4.3410    -1.1560    -2.1890 H     1 <1>   0.0800 
 27 H       -2.6210    -1.4110    -2.1430 H     1 <1>   0.0800 
 28 H       -3.9960     2.4160    -1.0220 H     1 <1>   0.0800 
 29 H       -5.1830     1.2910    -1.5930 H     1 <1>   0.0800 
 30 H       -1.7280     3.3720    -3.1920 H     1 <1>   0.1500 
 31 H       -2.6420    -0.8410     0.2540 H     1 <1>   0.0800 
 32 H       -3.6480     1.1880     1.0040 H     1 <1>   0.0800 
 33 H       -5.3400     1.4250     0.8270 H     1 <1>   0.0800 
 34 H       -0.9150     5.4830    -2.2620 H     1 <1>   0.1500 
 35 H       -2.4730    -2.8030     0.7570 H     1 <1>   0.4500 
 36 H       -0.6040     0.3230     2.5300 H     1 <1>   0.1500 
 37 H        0.2960     4.4560     2.2200 H     1 <1>   0.1500 
 38 H       -0.1410     5.5780     0.0730 H     1 <1>   0.1500 
 39 H       -5.2670    -3.5520     0.3930 H     1 <1>   0.0800 
 40 H       -4.0720    -4.4120     1.3090 H     1 <1>   0.0800 
 41 H       -3.8000    -3.6940    -1.7130 H     1 <1>   0.0800 
 42 H       -2.7860    -4.6870    -0.6860 H     1 <1>   0.0800 
 43 H       -2.1000    -3.3120    -1.5170 H     1 <1>   0.0800 
 44 H       -3.7480    -0.6870     2.4430 H     1 <1>   0.0800 
 45 H       -5.4640    -0.5840     2.5750 H     1 <1>   0.0800 
 46 H       -6.2910    -2.0550    -0.1120 H     1 <1>   0.0800 
 47 H       -6.1260    -0.6780    -1.1500 H     1 <1>   0.0800 
 48 H        0.2330     2.3520     3.5420 H     1 <1>   0.1500 
 49 H       -5.6950    -2.8640     2.5590 H     1 <1>   0.0800 
 50 H       -4.0360    -2.8450     3.0230 H     1 <1>   0.0800 
 51 H       -7.2020    -0.6460     1.4580 H     1 <1>   0.4000 
@<TRIPOS>BOND
  1   1   2  2   
  2   2   3  am  
  3   2   4  1   
  4   3   5  1   
  5   3   6  1   
  6   4   7  ar  
  7   4   8  ar  
  8   5   9  1   
  9   5  26  1   
 10   5  27  1   
 11   6  10  1   
 12   6  28  1   
 13   6  29  1   
 14   7  11  ar  
 15   7  12  ar  
 16   8  13  ar  
 17   8  30  1   
 18   9  14  1   
 19   9  15  1   
 20   9  31  1   
 21  10  15  1   
 22  10  32  1   
 23  10  33  1   
 24  11  16  ar  
 25  12  17  ar  
 26  12  18  ar  
 27  13  18  ar  
 28  13  34  1   
 29  14  19  1   
 30  14  20  1   
 31  14  35  1   
 32  15  21  1   
 33  15  22  1   
 34  16  23  ar  
 35  16  36  1   
 36  17  23  ar  
 37  17  37  1   
 38  18  38  1   
 39  19  24  1   
 40  19  39  1   
 41  19  40  1   
 42  20  41  1   
 43  20  42  1   
 44  20  43  1   
 45  21  24  1   
 46  21  44  1   
 47  21  45  1   
 48  22  25  1   
 49  22  46  1   
 50  22  47  1   
 51  23  48  1   
 52  24  49  1   
 53  24  50  1   
 54  25  51  1   
@<TRIPOS>SUBSTRUCTURE
  1 ****   3 GROUP 4 **** **** 0

# MOE 2024.06 (io_trps.svl 2023.06)
