@<TRIPOS>MOLECULE
NONAME
52 54 1 0 0 
SMALL
USER_CHARGES


@<TRIPOS>ATOM
  1 O       -0.5570    -0.9960    -0.1640 O.2   1 <1>  -0.5700 
  2 C       -0.6770    -2.1960    -0.3220 C.2   1 <1>   0.5440 
  3 N        0.4420    -2.9290    -0.6140 N.am  1 <1>  -0.7300 
  4 C       -1.9750    -2.8250    -0.2200 C.ar  1 <1>   0.0860 
  5 C        1.8100    -2.3860    -0.7160 C.3   1 <1>   0.1400 
  6 C       -3.1400    -2.0740    -0.3680 C.ar  1 <1>   0.1600 
  7 C       -2.1430    -4.1860     0.0260 C.ar  1 <1>  -0.1500 
  8 C        2.7860    -3.4200    -0.1690 C.3   1 <1>  -0.2400 
  9 N       -4.3790    -2.5320    -0.3120 N.ar  1 <1>  -0.6200 
 10 C       -3.4230    -4.6800     0.0900 C.ar  1 <1>  -0.1500 
 11 C       -4.5160    -3.8330    -0.0810 C.ar  1 <1>   0.4100 
 12 N       -5.7950    -4.3350    -0.0060 N.pl3 1 <1>  -0.8380 
 13 C       -6.8670    -3.7080    -0.8220 C.3   1 <1>   0.2090 
 14 C       -6.2620    -4.8910     1.2880 C.3   1 <1>   0.2090 
 15 C       -7.9540    -4.7450    -1.1120 C.3   1 <1>  -0.1600 
 16 C       -7.3350    -5.9500     1.0240 C.3   1 <1>  -0.1600 
 17 C       -8.4940    -5.3740     0.1870 C.3   1 <1>  -0.0190 
 18 C       -9.5710    -6.4180    -0.0920 C.2   1 <1>   0.5690 
 19 O      -10.6910    -6.2280     0.3150 O.2   1 <1>  -0.5700 
 20 N       -9.2490    -7.5350    -0.7860 N.am  1 <1>  -0.7300 
 21 C      -10.1680    -8.6600    -1.0670 C.3   1 <1>   0.2840 
 22 C       -9.5090    -9.9770    -0.6730 C.ar  1 <1>   0.1670 
 23 N       -8.4610   -10.3620    -1.3930 N.ar  1 <1>  -0.6200 
 24 C      -10.0190   -10.6990     0.3970 C.ar  1 <1>  -0.1500 
 25 C       -7.9110   -11.5110    -1.0350 C.ar  1 <1>   0.1600 
 26 C       -9.4330   -11.8930     0.7580 C.ar  1 <1>  -0.1500 
 27 C       -8.3490   -12.3020     0.0130 C.ar  1 <1>  -0.1500 
 28 H        0.3420    -3.9060    -0.8860 H     1 <1>   0.3700 
 29 H        1.8870    -1.4710    -0.1490 H     1 <1>   0.0800 
 30 H        2.0320    -2.1680    -1.7470 H     1 <1>   0.0800 
 31 H       -3.0290    -1.0170    -0.5490 H     1 <1>   0.1500 
 32 H       -1.2980    -4.8350     0.1680 H     1 <1>   0.1500 
 33 H        2.5620    -3.6330     0.8610 H     1 <1>   0.0800 
 34 H        3.7880    -3.0330    -0.2250 H     1 <1>   0.0800 
 35 H        2.7390    -4.3270    -0.7460 H     1 <1>   0.0800 
 36 H       -3.6070    -5.7220     0.2670 H     1 <1>   0.1500 
 37 H       -6.4540    -3.3450    -1.7490 H     1 <1>   0.0800 
 38 H       -7.2790    -2.8700    -0.2850 H     1 <1>   0.0800 
 39 H       -6.6690    -4.0930     1.8860 H     1 <1>   0.0800 
 40 H       -5.4380    -5.3280     1.8250 H     1 <1>   0.0800 
 41 H       -7.5370    -5.5040    -1.7490 H     1 <1>   0.0800 
 42 H       -8.7600    -4.2720    -1.6460 H     1 <1>   0.0800 
 43 H       -7.7150    -6.3110     1.9640 H     1 <1>   0.0800 
 44 H       -6.8790    -6.7780     0.5120 H     1 <1>   0.0800 
 45 H       -8.9570    -4.5900     0.7620 H     1 <1>   0.0800 
 46 H       -8.2840    -7.7210    -1.0690 H     1 <1>   0.3700 
 47 H      -10.3890    -8.6790    -2.1190 H     1 <1>   0.0800 
 48 H      -11.0910    -8.5270    -0.5300 H     1 <1>   0.0800 
 49 H      -10.8660   -10.3300     0.9470 H     1 <1>   0.1500 
 50 H       -7.0620   -11.8430    -1.6100 H     1 <1>   0.1500 
 51 H       -9.8040   -12.4770     1.5830 H     1 <1>   0.1500 
 52 H       -7.8460   -13.2250     0.2390 H     1 <1>   0.1500 
@<TRIPOS>BOND
  1   1   2  2   
  2   2   3  am  
  3   2   4  1   
  4   3   5  1   
  5   3  28  1   
  6   4   6  ar  
  7   4   7  ar  
  8   5   8  1   
  9   5  29  1   
 10   5  30  1   
 11   6   9  ar  
 12   6  31  1   
 13   7  10  ar  
 14   7  32  1   
 15   8  33  1   
 16   8  34  1   
 17   8  35  1   
 18   9  11  ar  
 19  10  11  ar  
 20  10  36  1   
 21  11  12  1   
 22  12  13  1   
 23  12  14  1   
 24  13  15  1   
 25  13  37  1   
 26  13  38  1   
 27  14  16  1   
 28  14  39  1   
 29  14  40  1   
 30  15  17  1   
 31  15  41  1   
 32  15  42  1   
 33  16  17  1   
 34  16  43  1   
 35  16  44  1   
 36  17  18  1   
 37  17  45  1   
 38  18  19  2   
 39  18  20  am  
 40  20  21  1   
 41  20  46  1   
 42  21  22  1   
 43  21  47  1   
 44  21  48  1   
 45  22  23  ar  
 46  22  24  ar  
 47  23  25  ar  
 48  24  26  ar  
 49  24  49  1   
 50  25  27  ar  
 51  25  50  1   
 52  26  27  ar  
 53  26  51  1   
 54  27  52  1   
@<TRIPOS>SUBSTRUCTURE
  1 ****  12 GROUP 4 **** **** 0

# MOE 2024.06 (io_trps.svl 2023.06)
