@<TRIPOS>MOLECULE
NONAME
49 51 1 0 0 
SMALL
USER_CHARGES


@<TRIPOS>ATOM
  1 O       -1.9110    -0.9490     0.3630 O.2   1 <1>  -0.5700 
  2 C       -2.3660     0.1180    -0.0320 C.2   1 <1>   0.6160 
  3 N       -1.8120     1.3240     0.3580 N.am  1 <1>  -0.4770 
  4 C       -3.5220     0.1240    -0.8740 C.2   1 <1>  -0.1240 
  5 C       -2.4220     2.5470     0.0060 C.ar  1 <1>   0.1170 
  6 C       -0.5410     1.3270     1.1470 C.3   1 <1>   0.0600 
  7 C       -4.1050     1.2870    -1.2470 C.2   1 <1>  -0.1780 
  8 C       -4.0390    -1.2280    -1.3230 C.3   1 <1>   0.4810 
  9 C       -3.5750     2.5370    -0.8050 C.ar  1 <1>   0.0280 
 10 C       -1.9300     3.7850     0.4360 C.ar  1 <1>  -0.1500 
 11 N       -4.3890    -2.0620    -0.1380 N.4   1 <1>  -0.9590 
 12 C       -4.1800     3.7440    -1.1600 C.ar  1 <1>  -0.1500 
 13 C       -2.5420     4.9660     0.0770 C.ar  1 <1>  -0.1500 
 14 C       -4.5660    -3.4940    -0.5250 C.3   1 <1>   0.3430 
 15 C       -5.5390    -1.4980     0.6360 C.3   1 <1>   0.2630 
 16 C       -3.6720     4.9470    -0.7260 C.ar  1 <1>  -0.1500 
 17 C       -4.5350    -4.4280     0.6850 C.3   1 <1>   0.0210 
 18 C       -4.5250    -5.8500     0.1700 C.2   1 <1>  -0.1810 
 19 C       -3.4000    -6.5870    -0.1960 C.2   1 <1>   0.1080 
 20 C       -5.5700    -6.6780    -0.0540 C.2   1 <1>  -0.3320 
 21 N       -3.7090    -7.7670    -0.6220 N.2   1 <1>  -0.7070 
 22 C       -1.9580    -6.1310    -0.1220 C.3   1 <1>  -0.0590 
 23 N       -5.0480    -7.8300    -0.5270 N.pl3 1 <1>   0.3000 
 24 C       -7.0650    -6.4840     0.1460 C.3   1 <1>  -0.0600 
 25 H       -0.1320     0.3370     1.2450 H     1 <1>   0.0800 
 26 H       -0.7290     1.7180     2.1320 H     1 <1>   0.0800 
 27 H        0.1910     1.9410     0.6520 H     1 <1>   0.0800 
 28 H       -4.9730     1.3250    -1.8840 H     1 <1>   0.1500 
 29 H       -3.2650    -1.7160    -1.8930 H     1 <1>   0.0800 
 30 H       -4.9010    -1.1030    -1.9580 H     1 <1>   0.0800 
 31 H       -1.0590     3.8420     1.0610 H     1 <1>   0.1500 
 32 H       -3.5300    -2.0000     0.4510 H     1 <1>   0.4500 
 33 H       -5.0570     3.7380    -1.7830 H     1 <1>   0.1500 
 34 H       -2.1470     5.9090     0.4170 H     1 <1>   0.1500 
 35 H       -3.7680    -3.7870    -1.1880 H     1 <1>   0.0800 
 36 H       -5.4970    -3.6270    -1.0520 H     1 <1>   0.0800 
 37 H       -6.4410    -1.5270     0.0460 H     1 <1>   0.0800 
 38 H       -5.3400    -0.4740     0.9110 H     1 <1>   0.0800 
 39 H       -5.6980    -2.0640     1.5390 H     1 <1>   0.0800 
 40 H       -4.1450     5.8740    -1.0050 H     1 <1>   0.1500 
 41 H       -5.3980    -4.2790     1.3050 H     1 <1>   0.0800 
 42 H       -3.6500    -4.2580     1.2720 H     1 <1>   0.0800 
 43 H       -1.8500    -5.1430    -0.5240 H     1 <1>   0.0800 
 44 H       -1.3370    -6.8030    -0.6870 H     1 <1>   0.0800 
 45 H       -1.6290    -6.1420     0.9010 H     1 <1>   0.0800 
 46 H       -5.5710    -8.6740    -0.7910 H     1 <1>   0.2700 
 47 H       -7.2820    -5.4980     0.5090 H     1 <1>   0.0800 
 48 H       -7.4340    -7.1980     0.8620 H     1 <1>   0.0800 
 49 H       -7.5860    -6.6290    -0.7850 H     1 <1>   0.0800 
@<TRIPOS>BOND
  1   1   2  2   
  2   2   3  am  
  3   2   4  1   
  4   3   5  1   
  5   3   6  1   
  6   4   7  2   
  7   4   8  1   
  8   5   9  ar  
  9   5  10  ar  
 10   6  25  1   
 11   6  26  1   
 12   6  27  1   
 13   7   9  1   
 14   7  28  1   
 15   8  11  1   
 16   8  29  1   
 17   8  30  1   
 18   9  12  ar  
 19  10  13  ar  
 20  10  31  1   
 21  11  14  1   
 22  11  15  1   
 23  11  32  1   
 24  12  16  ar  
 25  12  33  1   
 26  13  16  ar  
 27  13  34  1   
 28  14  17  1   
 29  14  35  1   
 30  14  36  1   
 31  15  37  1   
 32  15  38  1   
 33  15  39  1   
 34  16  40  1   
 35  17  18  1   
 36  17  41  1   
 37  17  42  1   
 38  18  19  1   
 39  18  20  2   
 40  19  21  2   
 41  19  22  1   
 42  20  23  1   
 43  20  24  1   
 44  21  23  1   
 45  22  43  1   
 46  22  44  1   
 47  22  45  1   
 48  23  46  1   
 49  24  47  1   
 50  24  48  1   
 51  24  49  1   
@<TRIPOS>SUBSTRUCTURE
  1 ****  11 GROUP 4 **** **** 0

# MOE 2024.06 (io_trps.svl 2023.06)
