@<TRIPOS>MOLECULE
NONAME
50 53 1 0 0 
SMALL
USER_CHARGES


@<TRIPOS>ATOM
  1 O       -0.1960     1.3430     2.0520 O.2   1 <1>  -0.5700 
  2 C       -0.0050     2.3870     1.4570 C.2   1 <1>   0.5440 
  3 N       -1.0830     3.0760     0.9390 N.am  1 <1>  -0.6600 
  4 C        1.3540     2.8660     1.3060 C.ar  1 <1>   0.0860 
  5 C       -2.4910     2.6460     1.2040 C.3   1 <1>   0.1400 
  6 C       -0.9740     4.1850    -0.0490 C.3   1 <1>   0.1400 
  7 C        2.3110     2.1230     0.6490 C.ar  1 <1>  -0.1500 
  8 C        1.7420     4.1120     1.8360 C.ar  1 <1>  -0.1500 
  9 C       -3.1920     2.1850    -0.0990 C.3   1 <1>   0.0000 
 10 C       -1.6500     3.7800    -1.3630 C.3   1 <1>  -0.1600 
 11 C        3.6260     2.5720     0.4790 C.ar  1 <1>   0.3100 
 12 C        3.0220     4.5770     1.6910 C.ar  1 <1>  -0.1500 
 13 C       -4.6540     1.7580     0.1450 C.3   1 <1>   0.2000 
 14 C       -3.1010     3.3140    -1.1480 C.3   1 <1>  -0.1600 
 15 C       -2.5710     0.8710    -0.6080 C.3   1 <1>  -0.1600 
 16 N        4.5100     1.7950    -0.1960 N.ar  1 <1>  -0.6200 
 17 C        3.9950     3.8300     1.0110 C.ar  1 <1>   0.3100 
 18 O       -5.2960     2.5310     1.0980 O.3   1 <1>  -0.6800 
 19 C       -4.6230     0.2930     0.5890 C.3   1 <1>  -0.1600 
 20 C       -3.2320    -0.2350     0.2160 C.3   1 <1>  -0.1600 
 21 C        5.7000     2.2970    -0.3020 C.ar  1 <1>   0.1670 
 22 N        5.2470     4.3300     0.8810 N.ar  1 <1>  -0.6200 
 23 C        6.0680     3.5620     0.2350 C.ar  1 <1>   0.1670 
 24 C        6.7160     1.4500    -1.0490 C.3   1 <1>  -0.0970 
 25 C        7.4850     4.0880     0.0710 C.3   1 <1>  -0.0970 
 26 H       -2.5140     1.8580     1.9360 H     1 <1>   0.0800 
 27 H       -3.0180     3.4870     1.6190 H     1 <1>   0.0800 
 28 H       -1.4580     5.0580     0.3550 H     1 <1>   0.0800 
 29 H        0.0540     4.4320    -0.2440 H     1 <1>   0.0800 
 30 H        2.0560     1.1590     0.2470 H     1 <1>   0.1500 
 31 H        1.0040     4.6910     2.3650 H     1 <1>   0.1500 
 32 H       -1.6410     4.6190    -2.0370 H     1 <1>   0.0800 
 33 H       -1.0770     2.9930    -1.8210 H     1 <1>   0.0800 
 34 H        3.3200     5.5280     2.0960 H     1 <1>   0.1500 
 35 H       -5.2120     1.8400    -0.7730 H     1 <1>   0.0800 
 36 H       -3.5160     2.9870    -2.0850 H     1 <1>   0.0800 
 37 H       -3.6890     4.1500    -0.8070 H     1 <1>   0.0800 
 38 H       -2.8220     0.7280    -1.6440 H     1 <1>   0.0800 
 39 H       -1.4990     0.8460    -0.5110 H     1 <1>   0.0800 
 40 H       -4.9730     2.2940     1.9880 H     1 <1>   0.4000 
 41 H       -4.7780     0.1910     1.6490 H     1 <1>   0.0800 
 42 H       -5.3840    -0.2570     0.0640 H     1 <1>   0.0800 
 43 H       -2.6560    -0.4040     1.1110 H     1 <1>   0.0800 
 44 H       -3.2870    -1.1570    -0.3370 H     1 <1>   0.0800 
 45 H        7.0760     1.9780    -1.9120 H     1 <1>   0.0800 
 46 H        6.2660     0.5310    -1.3800 H     1 <1>   0.0800 
 47 H        7.5410     1.2080    -0.4050 H     1 <1>   0.0800 
 48 H        8.1840     3.4190     0.5380 H     1 <1>   0.0800 
 49 H        7.5810     5.0530     0.5360 H     1 <1>   0.0800 
 50 H        7.7240     4.1900    -0.9710 H     1 <1>   0.0800 
@<TRIPOS>BOND
  1   1   2  2   
  2   2   3  am  
  3   2   4  1   
  4   3   5  1   
  5   3   6  1   
  6   4   7  ar  
  7   4   8  ar  
  8   5   9  1   
  9   5  26  1   
 10   5  27  1   
 11   6  10  1   
 12   6  28  1   
 13   6  29  1   
 14   7  11  ar  
 15   7  30  1   
 16   8  12  ar  
 17   8  31  1   
 18   9  13  1   
 19   9  14  1   
 20   9  15  1   
 21  10  14  1   
 22  10  32  1   
 23  10  33  1   
 24  11  16  ar  
 25  11  17  ar  
 26  12  17  ar  
 27  12  34  1   
 28  13  18  1   
 29  13  19  1   
 30  13  35  1   
 31  14  36  1   
 32  14  37  1   
 33  15  20  1   
 34  15  38  1   
 35  15  39  1   
 36  16  21  ar  
 37  17  22  ar  
 38  18  40  1   
 39  19  20  1   
 40  19  41  1   
 41  19  42  1   
 42  20  43  1   
 43  20  44  1   
 44  21  23  ar  
 45  21  24  1   
 46  22  23  ar  
 47  23  25  1   
 48  24  45  1   
 49  24  46  1   
 50  24  47  1   
 51  25  48  1   
 52  25  49  1   
 53  25  50  1   
@<TRIPOS>SUBSTRUCTURE
  1 ****   4 GROUP 4 **** **** 0

# MOE 2024.06 (io_trps.svl 2023.06)
