@<TRIPOS>MOLECULE
NONAME
50 52 1 0 0 
SMALL
USER_CHARGES


@<TRIPOS>ATOM
  1 S        0.5680     0.4730    -0.7360 S.o2  1 <1>   1.3330 
  2 O        0.7880    -0.7410    -1.4890 O.2   1 <1>  -0.6500 
  3 O       -0.0390     0.3970     0.5740 O.2   1 <1>  -0.6500 
  4 N       -0.3760     1.5200    -1.6810 N.am  1 <1>  -0.8490 
  5 C        2.1340     1.3300    -0.6110 C.3   1 <1>  -0.0550 
  6 C       -0.9370     2.6430    -0.9230 C.3   1 <1>   0.1160 
  7 C       -1.4450     0.8110    -2.3900 C.3   1 <1>   0.1160 
  8 C        3.2180     0.5100     0.1180 C.3   1 <1>  -0.0800 
  9 C        4.5910     1.1630     0.1690 C.3   1 <1>   0.2200 
 10 C        2.9160     0.2310     1.5960 C.3   1 <1>   0.1200 
 11 N        4.4710     2.6120     0.4530 N.am  1 <1>  -0.7300 
 12 C        5.1900     0.4670     1.3820 C.3   1 <1>   0.1200 
 13 O        4.1320     0.3170     2.2810 O.3   1 <1>  -0.5600 
 14 C        4.5990     3.6360    -0.4450 C.2   1 <1>   0.5440 
 15 O        4.8570     3.3440    -1.6000 O.2   1 <1>  -0.5700 
 16 C        4.4040     5.0250    -0.0230 C.ar  1 <1>   0.3960 
 17 N        3.9430     5.2740     1.1880 N.ar  1 <1>  -0.6200 
 18 C        4.7080     6.0660    -0.9190 C.ar  1 <1>  -0.1500 
 19 C        3.7640     6.5610     1.5620 C.ar  1 <1>   0.3100 
 20 C        4.5370     7.3760    -0.5680 C.ar  1 <1>   0.0820 
 21 C        4.0440     7.6590     0.7210 C.ar  1 <1>   0.0000 
 22 C        3.2730     6.8140     2.8540 C.ar  1 <1>  -0.1500 
 23 O        4.8130     8.4170    -1.3840 O.3   1 <1>  -0.3620 
 24 C        3.8200     8.9620     1.2110 C.ar  1 <1>  -0.1500 
 25 C        3.0620     8.0880     3.3080 C.ar  1 <1>  -0.1500 
 26 C        5.3200     8.2430    -2.6890 C.3   1 <1>   0.0400 
 27 C        3.3390     9.1760     2.4750 C.ar  1 <1>  -0.1500 
 28 H        2.4860     1.5540    -1.6000 H     1 <1>   0.0800 
 29 H        1.9820     2.2600    -0.1010 H     1 <1>   0.0800 
 30 H       -1.4550     3.3150    -1.5860 H     1 <1>   0.0800 
 31 H       -0.1510     3.1920    -0.4330 H     1 <1>   0.0800 
 32 H       -1.6280     2.2870    -0.1750 H     1 <1>   0.0800 
 33 H       -2.0120     1.4980    -2.9940 H     1 <1>   0.0800 
 34 H       -2.1030     0.3280    -1.6870 H     1 <1>   0.0800 
 35 H       -1.0220     0.0630    -3.0390 H     1 <1>   0.0800 
 36 H        3.3190    -0.4400    -0.3790 H     1 <1>   0.0800 
 37 H        5.1680     0.9960    -0.7250 H     1 <1>   0.0800 
 38 H        2.4990    -0.7520     1.7430 H     1 <1>   0.0800 
 39 H        2.2550     0.9690     2.0170 H     1 <1>   0.0800 
 40 H        4.2320     2.8490     1.4230 H     1 <1>   0.3700 
 41 H        5.9800     1.0340     1.8410 H     1 <1>   0.0800 
 42 H        5.5430    -0.5160     1.1230 H     1 <1>   0.0800 
 43 H        5.0790     5.7900    -1.8870 H     1 <1>   0.1500 
 44 H        3.0650     5.9670     3.4820 H     1 <1>   0.1500 
 45 H        4.0350     9.7980     0.5680 H     1 <1>   0.1500 
 46 H        2.6850     8.2680     4.3010 H     1 <1>   0.1500 
 47 H        5.4640     9.2160    -3.1240 H     1 <1>   0.0800 
 48 H        4.6070     7.6850    -3.2710 H     1 <1>   0.0800 
 49 H        6.2610     7.7250    -2.6340 H     1 <1>   0.0800 
 50 H        3.1710    10.1740     2.8400 H     1 <1>   0.1500 
@<TRIPOS>BOND
  1   1   2  2   
  2   1   3  2   
  3   1   4  am  
  4   1   5  1   
  5   4   6  1   
  6   4   7  1   
  7   5   8  1   
  8   5  28  1   
  9   5  29  1   
 10   6  30  1   
 11   6  31  1   
 12   6  32  1   
 13   7  33  1   
 14   7  34  1   
 15   7  35  1   
 16   8   9  1   
 17   8  10  1   
 18   8  36  1   
 19   9  11  1   
 20   9  12  1   
 21   9  37  1   
 22  10  13  1   
 23  10  38  1   
 24  10  39  1   
 25  11  14  am  
 26  11  40  1   
 27  12  13  1   
 28  12  41  1   
 29  12  42  1   
 30  14  15  2   
 31  14  16  1   
 32  16  17  ar  
 33  16  18  ar  
 34  17  19  ar  
 35  18  20  ar  
 36  18  43  1   
 37  19  21  ar  
 38  19  22  ar  
 39  20  21  ar  
 40  20  23  1   
 41  21  24  ar  
 42  22  25  ar  
 43  22  44  1   
 44  23  26  1   
 45  24  27  ar  
 46  24  45  1   
 47  25  27  ar  
 48  25  46  1   
 49  26  47  1   
 50  26  48  1   
 51  26  49  1   
 52  27  50  1   
@<TRIPOS>SUBSTRUCTURE
  1 ****  14 GROUP 4 **** **** 0

# MOE 2024.06 (io_trps.svl 2023.06)
