@<TRIPOS>MOLECULE
NONAME
51 54 1 0 0 
SMALL
USER_CHARGES


@<TRIPOS>ATOM
  1 S        1.3800    -1.0680    -0.2000 S.o2  1 <1>   1.5760 
  2 O        1.7010    -1.5590    -1.5200 O.2   1 <1>  -0.6500 
  3 O        2.3820    -1.0000     0.8330 O.2   1 <1>  -0.6500 
  4 N        0.5250     0.3810    -0.3400 N.am  1 <1>  -0.8490 
  5 N        0.1510    -2.0260     0.3930 N.am  1 <1>  -0.9140 
  6 C        1.0850     1.3200    -1.3150 C.3   1 <1>   0.1960 
  7 C        0.1530     1.0210     0.9290 C.3   1 <1>   0.1960 
  8 C       -0.8230    -2.4160    -0.6130 C.3   1 <1>   0.2760 
  9 C        2.2900     2.0780    -0.7460 C.3   1 <1>  -0.1600 
 10 C        1.2890     1.8560     1.5440 C.3   1 <1>  -0.1600 
 11 C       -2.1020    -2.8240     0.1040 C.3   1 <1>  -0.0800 
 12 C       -0.4190    -3.7320    -1.2790 C.3   1 <1>   0.1200 
 13 C        1.9090     2.8270     0.5340 C.3   1 <1>  -0.1600 
 14 C       -1.8440    -4.3030     0.4290 C.3   1 <1>   0.1200 
 15 C       -3.3390    -2.6390    -0.8010 C.3   1 <1>  -0.0170 
 16 O       -0.7880    -4.7310    -0.3800 O.3   1 <1>  -0.5600 
 17 C       -4.6970    -2.9800    -0.1750 C.ar  1 <1>  -0.1430 
 18 C       -5.8570    -3.0210    -0.9890 C.ar  1 <1>   0.0000 
 19 C       -4.8680    -3.2470     1.1560 C.ar  1 <1>  -0.1500 
 20 C       -7.0890    -3.3580    -0.3780 C.ar  1 <1>   0.3100 
 21 C       -5.8670    -2.7410    -2.3770 C.ar  1 <1>  -0.1500 
 22 C       -6.1340    -3.5630     1.6610 C.ar  1 <1>   0.1600 
 23 N       -7.2100    -3.6260     0.9460 N.ar  1 <1>  -0.6200 
 24 C       -8.2500    -3.4170    -1.1660 C.ar  1 <1>  -0.1500 
 25 C       -7.0170    -2.8050    -3.1170 C.ar  1 <1>  -0.1500 
 26 C       -8.2250    -3.1490    -2.5070 C.ar  1 <1>  -0.1500 
 27 H        0.6220    -2.8820     0.6760 H     1 <1>   0.4200 
 28 H        1.3680     0.7990    -2.2150 H     1 <1>   0.0800 
 29 H        0.3220     2.0310    -1.5830 H     1 <1>   0.0800 
 30 H       -0.6840     1.6710     0.7420 H     1 <1>   0.0800 
 31 H       -0.1720     0.2740     1.6360 H     1 <1>   0.0800 
 32 H       -0.9840    -1.6200    -1.3220 H     1 <1>   0.0800 
 33 H        3.0910     1.3870    -0.5460 H     1 <1>   0.0800 
 34 H        2.6440     2.7790    -1.4810 H     1 <1>   0.0800 
 35 H        0.9010     2.4100     2.3800 H     1 <1>   0.0800 
 36 H        2.0510     1.2040     1.9300 H     1 <1>   0.0800 
 37 H       -2.2310    -2.2380     0.9960 H     1 <1>   0.0800 
 38 H        0.6330    -3.8060    -1.4870 H     1 <1>   0.0800 
 39 H       -0.9740    -3.8860    -2.1870 H     1 <1>   0.0800 
 40 H        1.1970     3.6000     0.2970 H     1 <1>   0.0800 
 41 H        2.7800     3.2930     0.9610 H     1 <1>   0.0800 
 42 H       -2.7000    -4.9270     0.2350 H     1 <1>   0.0800 
 43 H       -1.5350    -4.4230     1.4540 H     1 <1>   0.0800 
 44 H       -3.2090    -3.2510    -1.6760 H     1 <1>   0.0800 
 45 H       -3.3770    -1.6120    -1.1210 H     1 <1>   0.0800 
 46 H       -4.0600    -3.2280     1.8610 H     1 <1>   0.1500 
 47 H       -4.9550    -2.4680    -2.8720 H     1 <1>   0.1500 
 48 H       -6.2190    -3.7680     2.7150 H     1 <1>   0.1500 
 49 H       -9.1680    -3.6820    -0.6740 H     1 <1>   0.1500 
 50 H       -7.0070    -2.5900    -4.1720 H     1 <1>   0.1500 
 51 H       -9.1230    -3.1980    -3.0990 H     1 <1>   0.1500 
@<TRIPOS>BOND
  1   1   2  2   
  2   1   3  2   
  3   1   4  am  
  4   1   5  am  
  5   4   6  1   
  6   4   7  1   
  7   5   8  1   
  8   5  27  1   
  9   6   9  1   
 10   6  28  1   
 11   6  29  1   
 12   7  10  1   
 13   7  30  1   
 14   7  31  1   
 15   8  11  1   
 16   8  12  1   
 17   8  32  1   
 18   9  13  1   
 19   9  33  1   
 20   9  34  1   
 21  10  13  1   
 22  10  35  1   
 23  10  36  1   
 24  11  14  1   
 25  11  15  1   
 26  11  37  1   
 27  12  16  1   
 28  12  38  1   
 29  12  39  1   
 30  13  40  1   
 31  13  41  1   
 32  14  16  1   
 33  14  42  1   
 34  14  43  1   
 35  15  17  1   
 36  15  44  1   
 37  15  45  1   
 38  17  18  ar  
 39  17  19  ar  
 40  18  20  ar  
 41  18  21  ar  
 42  19  22  ar  
 43  19  46  1   
 44  20  23  ar  
 45  20  24  ar  
 46  21  25  ar  
 47  21  47  1   
 48  22  23  ar  
 49  22  48  1   
 50  24  26  ar  
 51  24  49  1   
 52  25  26  ar  
 53  25  50  1   
 54  26  51  1   
@<TRIPOS>SUBSTRUCTURE
  1 ****  11 GROUP 4 **** **** 0

# MOE 2024.06 (io_trps.svl 2023.06)
