@<TRIPOS>MOLECULE
NONAME
52 55 1 0 0 
SMALL
USER_CHARGES


@<TRIPOS>ATOM
  1 O       -1.9430     0.3630    -2.0500 O.2   1 <1>  -0.5700 
  2 C       -1.9580     0.6150    -0.8610 C.2   1 <1>   0.5440 
  3 N       -1.9170    -0.4300     0.0150 N.am  1 <1>  -0.7300 
  4 C       -2.0280     1.9890    -0.3880 C.ar  1 <1>   0.0860 
  5 C       -1.8390    -1.8650    -0.3540 C.3   1 <1>   0.2200 
  6 C       -1.6060     3.0420    -1.1970 C.ar  1 <1>  -0.1500 
  7 C       -2.5170     2.3110     0.8800 C.ar  1 <1>  -0.1500 
  8 C       -3.1940    -2.5490    -0.2160 C.3   1 <1>  -0.0800 
  9 C       -1.0490    -2.5990     0.7190 C.3   1 <1>   0.1200 
 10 C       -1.6580     4.3630    -0.7660 C.ar  1 <1>   0.0820 
 11 C       -2.5710     3.6210     1.3200 C.ar  1 <1>  -0.1500 
 12 C       -3.2560    -2.8630     1.2850 C.3   1 <1>   0.1200 
 13 C       -4.3940    -1.7420    -0.7530 C.3   1 <1>  -0.0160 
 14 O       -1.9470    -2.7760     1.7720 O.3   1 <1>  -0.5600 
 15 O       -1.2510     5.4060    -1.5380 O.3   1 <1>  -0.3630 
 16 C       -2.1430     4.6540     0.5040 C.ar  1 <1>  -0.1440 
 17 C       -5.7610    -2.4370    -0.7280 C.ar  1 <1>  -0.1440 
 18 C       -0.7670     5.2160    -2.8500 C.3   1 <1>   0.0400 
 19 C       -2.2070     6.0910     1.0010 C.3   1 <1>  -0.0970 
 20 C       -6.9290    -1.6900    -1.0190 C.ar  1 <1>   0.0000 
 21 C       -5.9300    -3.7640    -0.4430 C.ar  1 <1>  -0.1500 
 22 C       -8.1780    -2.3560    -0.9580 C.ar  1 <1>   0.3100 
 23 C       -6.9320    -0.3200    -1.3740 C.ar  1 <1>  -0.1500 
 24 C       -7.2120    -4.3270    -0.4200 C.ar  1 <1>   0.1600 
 25 N       -8.3020    -3.6720    -0.6570 N.ar  1 <1>  -0.6200 
 26 C       -9.3520    -1.6330    -1.2250 C.ar  1 <1>  -0.1500 
 27 C       -8.0940     0.3560    -1.6320 C.ar  1 <1>  -0.1500 
 28 C       -9.3210    -0.3050    -1.5550 C.ar  1 <1>  -0.1500 
 29 H       -1.8970    -0.2650     1.0230 H     1 <1>   0.3700 
 30 H       -1.4080    -1.9840    -1.3350 H     1 <1>   0.0800 
 31 H       -1.2360     2.7970    -2.1740 H     1 <1>   0.1500 
 32 H       -2.8670     1.5340     1.5340 H     1 <1>   0.1500 
 33 H       -3.1340    -3.4780    -0.7550 H     1 <1>   0.0800 
 34 H       -0.1900    -2.0460     1.0590 H     1 <1>   0.0800 
 35 H       -0.7470    -3.5720     0.3730 H     1 <1>   0.0800 
 36 H       -2.9520     3.8340     2.3040 H     1 <1>   0.1500 
 37 H       -3.6310    -3.8530     1.4790 H     1 <1>   0.0800 
 38 H       -3.8500    -2.1390     1.8160 H     1 <1>   0.0800 
 39 H       -4.1820    -1.4540    -1.7690 H     1 <1>   0.0800 
 40 H       -4.4760    -0.8400    -0.1730 H     1 <1>   0.0800 
 41 H       -0.5210     6.1790    -3.2580 H     1 <1>   0.0800 
 42 H       -1.5370     4.7540    -3.4430 H     1 <1>   0.0800 
 43 H        0.1130     4.5990    -2.8120 H     1 <1>   0.0800 
 44 H       -2.6010     6.1430     2.0000 H     1 <1>   0.0800 
 45 H       -2.8380     6.6720     0.3520 H     1 <1>   0.0800 
 46 H       -1.2220     6.5220     0.9970 H     1 <1>   0.0800 
 47 H       -5.1120    -4.4230    -0.2310 H     1 <1>   0.1500 
 48 H       -6.0020     0.2120    -1.4510 H     1 <1>   0.1500 
 49 H       -7.2950    -5.3760    -0.1870 H     1 <1>   0.1500 
 50 H      -10.2830    -2.1640    -1.1630 H     1 <1>   0.1500 
 51 H       -8.0780     1.3990    -1.8990 H     1 <1>   0.1500 
 52 H      -10.2290     0.2370    -1.7580 H     1 <1>   0.1500 
@<TRIPOS>BOND
  1   1   2  2   
  2   2   3  am  
  3   2   4  1   
  4   3   5  1   
  5   3  29  1   
  6   4   6  ar  
  7   4   7  ar  
  8   5   8  1   
  9   5   9  1   
 10   5  30  1   
 11   6  10  ar  
 12   6  31  1   
 13   7  11  ar  
 14   7  32  1   
 15   8  12  1   
 16   8  13  1   
 17   8  33  1   
 18   9  14  1   
 19   9  34  1   
 20   9  35  1   
 21  10  15  1   
 22  10  16  ar  
 23  11  16  ar  
 24  11  36  1   
 25  12  14  1   
 26  12  37  1   
 27  12  38  1   
 28  13  17  1   
 29  13  39  1   
 30  13  40  1   
 31  15  18  1   
 32  16  19  1   
 33  17  20  ar  
 34  17  21  ar  
 35  18  41  1   
 36  18  42  1   
 37  18  43  1   
 38  19  44  1   
 39  19  45  1   
 40  19  46  1   
 41  20  22  ar  
 42  20  23  ar  
 43  21  24  ar  
 44  21  47  1   
 45  22  25  ar  
 46  22  26  ar  
 47  23  27  ar  
 48  23  48  1   
 49  24  25  ar  
 50  24  49  1   
 51  26  28  ar  
 52  26  50  1   
 53  27  28  ar  
 54  27  51  1   
 55  28  52  1   
@<TRIPOS>SUBSTRUCTURE
  1 ****  13 GROUP 4 **** **** 0

# MOE 2024.06 (io_trps.svl 2023.06)
