@<TRIPOS>MOLECULE
NONAME
58 61 1 0 0 
SMALL
USER_CHARGES


@<TRIPOS>ATOM
  1 O        0.1790     0.9740    -1.9090 O.3   1 <1>  -0.3630 
  2 C        1.3290     1.2150    -1.2270 C.ar  1 <1>   0.0830 
  3 C       -0.5270     2.0220    -2.5450 C.3   1 <1>   0.0400 
  4 C        2.1500     0.1500    -0.9450 C.ar  1 <1>  -0.1440 
  5 C        1.6810     2.5040    -0.7920 C.ar  1 <1>  -0.1500 
  6 C        3.3650     0.3220    -0.2380 C.ar  1 <1>   0.0000 
  7 C        1.7180    -1.2300    -1.3910 C.3   1 <1>   0.4870 
  8 C        2.8320     2.6920    -0.0840 C.ar  1 <1>  -0.1500 
  9 C        3.6930     1.6190     0.2180 C.ar  1 <1>   0.0000 
 10 C        4.2800    -0.7240     0.0430 C.ar  1 <1>  -0.1500 
 11 N        1.1290    -1.9430    -0.2120 N.4   1 <1>  -0.9590 
 12 C        4.8740     1.8130     0.9600 C.ar  1 <1>  -0.1500 
 13 C        5.4220    -0.5050     0.7610 C.ar  1 <1>  -0.1500 
 14 C        0.9140    -3.4080    -0.4820 C.3   1 <1>   0.3430 
 15 C       -0.1150    -1.2310     0.2430 C.3   1 <1>   0.3430 
 16 C        5.7210     0.7760     1.2320 C.ar  1 <1>  -0.1500 
 17 C        0.0070    -4.0150     0.6220 C.3   1 <1>   0.4230 
 18 C       -0.9620    -2.0930     1.2040 C.3   1 <1>  -0.1600 
 19 N        0.1520    -5.4890     0.9570 N.4   1 <1>  -0.9590 
 20 C       -1.4790    -3.4370     0.4650 C.3   1 <1>   0.0000 
 21 C       -0.0810    -6.4050    -0.1750 C.3   1 <1>   0.3430 
 22 C        1.4110    -5.8410     1.6900 C.3   1 <1>   0.2630 
 23 C       -2.0170    -4.7300    -0.3430 C.3   1 <1>  -0.1600 
 24 C       -2.9640    -2.8290     0.4070 C.3   1 <1>   0.1200 
 25 C       -1.1140    -5.7590    -1.0700 C.3   1 <1>  -0.1600 
 26 O       -3.5180    -3.0010     1.6710 O.3   1 <1>  -0.6800 
 27 H       -1.3040     1.5900    -3.1500 H     1 <1>   0.0800 
 28 H        0.1520     2.5770    -3.1690 H     1 <1>   0.0800 
 29 H       -0.9640     2.6600    -1.7960 H     1 <1>   0.0800 
 30 H        1.0510     3.3490    -1.0010 H     1 <1>   0.1500 
 31 H        2.5720    -1.7640    -1.7750 H     1 <1>   0.0800 
 32 H        0.9890    -1.1500    -2.1820 H     1 <1>   0.0800 
 33 H        3.1050     3.6760     0.2560 H     1 <1>   0.1500 
 34 H        4.1000    -1.7150    -0.3210 H     1 <1>   0.1500 
 35 H        1.8250    -1.8050     0.5390 H     1 <1>   0.4500 
 36 H        5.1050     2.8030     1.3130 H     1 <1>   0.1500 
 37 H        6.1160    -1.3020     0.9710 H     1 <1>   0.1500 
 38 H        0.4330    -3.5290    -1.4380 H     1 <1>   0.0800 
 39 H        1.8630    -3.9160    -0.4990 H     1 <1>   0.0800 
 40 H        0.1550    -0.3050     0.7290 H     1 <1>   0.0800 
 41 H       -0.7180    -0.9760    -0.6160 H     1 <1>   0.0800 
 42 H        6.6230     0.9330     1.7990 H     1 <1>   0.1500 
 43 H        0.4500    -3.6040     1.5060 H     1 <1>   0.0800 
 44 H       -0.4430    -2.2530     2.1350 H     1 <1>   0.0800 
 45 H       -1.6990    -1.3950     1.5700 H     1 <1>   0.0800 
 46 H       -0.6310    -5.6740     1.6090 H     1 <1>   0.4500 
 47 H        0.8280    -6.5820    -0.7290 H     1 <1>   0.0800 
 48 H       -0.4490    -7.3510     0.1920 H     1 <1>   0.0800 
 49 H        2.2740    -5.6910     1.0620 H     1 <1>   0.0800 
 50 H        1.3880    -6.8770     1.9940 H     1 <1>   0.0800 
 51 H        1.5140    -5.2350     2.5760 H     1 <1>   0.0800 
 52 H       -2.6710    -5.2920     0.3090 H     1 <1>   0.0800 
 53 H       -2.6010    -4.4370    -1.2030 H     1 <1>   0.0800 
 54 H       -3.7050    -3.2470    -0.2540 H     1 <1>   0.0800 
 55 H       -3.0030    -1.7820     0.1460 H     1 <1>   0.0800 
 56 H       -0.6210    -5.2970    -1.9070 H     1 <1>   0.0800 
 57 H       -1.7280    -6.5400    -1.4880 H     1 <1>   0.0800 
 58 H       -4.4490    -2.6910     1.7030 H     1 <1>   0.4000 
@<TRIPOS>BOND
  1   1   2  1   
  2   1   3  1   
  3   2   4  ar  
  4   2   5  ar  
  5   3  27  1   
  6   3  28  1   
  7   3  29  1   
  8   4   6  ar  
  9   4   7  1   
 10   5   8  ar  
 11   5  30  1   
 12   6   9  ar  
 13   6  10  ar  
 14   7  11  1   
 15   7  31  1   
 16   7  32  1   
 17   8   9  ar  
 18   8  33  1   
 19   9  12  ar  
 20  10  13  ar  
 21  10  34  1   
 22  11  14  1   
 23  11  15  1   
 24  11  35  1   
 25  12  16  ar  
 26  12  36  1   
 27  13  16  ar  
 28  13  37  1   
 29  14  17  1   
 30  14  38  1   
 31  14  39  1   
 32  15  18  1   
 33  15  40  1   
 34  15  41  1   
 35  16  42  1   
 36  17  19  1   
 37  17  20  1   
 38  17  43  1   
 39  18  20  1   
 40  18  44  1   
 41  18  45  1   
 42  19  21  1   
 43  19  22  1   
 44  19  46  1   
 45  20  23  1   
 46  20  24  1   
 47  21  25  1   
 48  21  47  1   
 49  21  48  1   
 50  22  49  1   
 51  22  50  1   
 52  22  51  1   
 53  23  25  1   
 54  23  52  1   
 55  23  53  1   
 56  24  26  1   
 57  24  54  1   
 58  24  55  1   
 59  25  56  1   
 60  25  57  1   
 61  26  58  1   
@<TRIPOS>SUBSTRUCTURE
  1 ****  11 GROUP 4 **** **** 0

# MOE 2024.06 (io_trps.svl 2023.06)
