@<TRIPOS>MOLECULE
NONAME
32 33 1 0 0 
SMALL
USER_CHARGES


@<TRIPOS>ATOM
  1 F       -0.4720    -0.2250     0.3030 F     1 <1>  -0.1900 
  2 C       -1.5750    -0.9260     0.1520 C.ar  1 <1>   0.1900 
  3 C       -2.8280    -0.3530    -0.0480 C.ar  1 <1>   0.3920 
  4 C       -1.4830    -2.2920     0.1980 C.ar  1 <1>   0.1600 
  5 O       -3.0910     0.9730    -0.1150 O.3   1 <1>  -0.3630 
  6 N       -3.8930    -1.1120    -0.1910 N.ar  1 <1>  -0.6200 
  7 N       -2.5420    -3.0610     0.0580 N.ar  1 <1>  -0.6200 
  8 C       -2.1160     1.9900    -0.0460 C.3   1 <1>   0.0400 
  9 C       -3.6900    -2.4170    -0.1380 C.ar  1 <1>   0.7200 
 10 N       -4.8130    -3.1530    -0.2960 N.pl3 1 <1>  -0.8690 
 11 C       -4.9500    -4.5390     0.1790 C.3   1 <1>   0.2090 
 12 C       -6.3320    -5.0580    -0.2070 C.3   1 <1>  -0.1600 
 13 C       -6.4980    -6.5230     0.2120 C.3   1 <1>   0.0960 
 14 N       -7.8460    -7.0100    -0.1350 N.pl3 1 <1>   0.0480 
 15 C       -8.2420    -7.6170    -1.2770 C.2   1 <1>   0.0360 
 16 C       -8.9560    -6.9540     0.6230 C.2   1 <1>  -0.3020 
 17 N       -9.4940    -7.9420    -1.2940 N.2   1 <1>  -0.5650 
 18 C       -9.9470    -7.5250    -0.0970 C.2   1 <1>   0.0770 
 19 H       -0.5260    -2.7590     0.3530 H     1 <1>   0.1500 
 20 H       -2.6150     2.9360    -0.1560 H     1 <1>   0.0800 
 21 H       -1.4100     1.8560    -0.8470 H     1 <1>   0.0800 
 22 H       -1.6290     1.9460     0.9120 H     1 <1>   0.0800 
 23 H       -5.6490    -2.5710    -0.2710 H     1 <1>   0.4000 
 24 H       -4.8200    -4.5630     1.2480 H     1 <1>   0.0800 
 25 H       -4.1830    -5.1450    -0.2760 H     1 <1>   0.0800 
 26 H       -6.4500    -4.9790    -1.2740 H     1 <1>   0.0800 
 27 H       -7.0830    -4.4600     0.2790 H     1 <1>   0.0800 
 28 H       -6.3620    -6.6240     1.2750 H     1 <1>   0.0800 
 29 H       -5.7700    -7.1380    -0.2870 H     1 <1>   0.0800 
 30 H       -7.5620    -7.8040    -2.0880 H     1 <1>   0.1500 
 31 H       -8.9860    -6.5240     1.6070 H     1 <1>   0.1500 
 32 H      -10.9780    -7.6600     0.1860 H     1 <1>   0.1500 
@<TRIPOS>BOND
  1   1   2  1   
  2   2   3  ar  
  3   2   4  ar  
  4   3   5  1   
  5   3   6  ar  
  6   4   7  ar  
  7   4  19  1   
  8   5   8  1   
  9   6   9  ar  
 10   7   9  ar  
 11   8  20  1   
 12   8  21  1   
 13   8  22  1   
 14   9  10  1   
 15  10  11  1   
 16  10  23  1   
 17  11  12  1   
 18  11  24  1   
 19  11  25  1   
 20  12  13  1   
 21  12  26  1   
 22  12  27  1   
 23  13  14  1   
 24  13  28  1   
 25  13  29  1   
 26  14  15  1   
 27  14  16  1   
 28  15  17  2   
 29  15  30  1   
 30  16  18  2   
 31  16  31  1   
 32  17  18  1   
 33  18  32  1   
@<TRIPOS>SUBSTRUCTURE
  1 ****  10 GROUP 4 **** **** 0

# MOE 2024.06 (io_trps.svl 2023.06)
