@<TRIPOS>MOLECULE
NONAME
45 47 1 0 0 
SMALL
USER_CHARGES


@<TRIPOS>ATOM
  1 O        2.0390     0.8000     2.6010 O.co2 1 <1>  -0.9000 
  2 C        1.8060     0.2030     1.5440 C.2   1 <1>   0.9060 
  3 O        1.2880    -0.9240     1.5340 O.co2 1 <1>  -0.9000 
  4 C        2.2600     0.7900     0.2060 C.3   1 <1>  -0.1060 
  5 C        3.4290    -0.1430    -0.1980 C.3   1 <1>   0.2000 
  6 C        2.7750     2.2580     0.3280 C.3   1 <1>  -0.1600 
  7 C        1.0890     0.7620    -0.8230 C.3   1 <1>  -0.0160 
  8 O        2.9410    -1.3010    -0.7820 O.3   1 <1>  -0.6800 
  9 C        4.4620     0.5400    -1.1030 C.3   1 <1>   0.1400 
 10 C        4.2570     2.3310     0.6970 C.3   1 <1>   0.1400 
 11 C        0.0290     1.8420    -0.6090 C.ar  1 <1>  -0.1440 
 12 N        5.0770     1.7230    -0.4030 N.am  1 <1>  -0.6600 
 13 C       -0.0920     2.8960    -1.5020 C.ar  1 <1>  -0.1500 
 14 C       -0.8270     1.7770     0.4790 C.ar  1 <1>  -0.1500 
 15 C        6.3110     2.1790    -0.7920 C.2   1 <1>   0.5690 
 16 C       -1.0530     3.8750    -1.3080 C.ar  1 <1>  -0.1500 
 17 C       -1.7870     2.7540     0.6770 C.ar  1 <1>  -0.1500 
 18 O        6.8560     1.7440    -1.7810 O.2   1 <1>  -0.5700 
 19 C        7.0150     3.2710     0.0140 C.3   1 <1>  -0.0040 
 20 C       -1.9010     3.8050    -0.2170 C.ar  1 <1>  -0.1500 
 21 C        8.5400     3.3360    -0.1860 C.3   1 <1>  -0.1950 
 22 C        9.4550     2.4760     0.6250 C.3   1 <1>  -0.2000 
 23 C        9.4260     3.9630     0.8440 C.3   1 <1>  -0.2000 
 24 H        3.9550    -0.4580     0.6890 H     1 <1>   0.0800 
 25 H        2.1930     2.7860     1.0640 H     1 <1>   0.0800 
 26 H        2.6510     2.7800    -0.6030 H     1 <1>   0.0800 
 27 H        1.4960     0.8670    -1.8120 H     1 <1>   0.0800 
 28 H        0.5960    -0.1950    -0.7960 H     1 <1>   0.0800 
 29 H        2.2620    -1.6490    -0.1480 H     1 <1>   0.4000 
 30 H        3.9860     0.8760    -2.0070 H     1 <1>   0.0800 
 31 H        5.2330    -0.1670    -1.3560 H     1 <1>   0.0800 
 32 H        4.4260     1.7980     1.6190 H     1 <1>   0.0800 
 33 H        4.5230     3.3620     0.8440 H     1 <1>   0.0800 
 34 H        0.5630     2.9590    -2.3520 H     1 <1>   0.1500 
 35 H       -0.7450     0.9620     1.1810 H     1 <1>   0.1500 
 36 H       -1.1380     4.6890    -2.0050 H     1 <1>   0.1500 
 37 H       -2.4390     2.6920     1.5300 H     1 <1>   0.1500 
 38 H        6.5900     4.2150    -0.2700 H     1 <1>   0.0800 
 39 H        6.8170     3.1140     1.0570 H     1 <1>   0.0800 
 40 H       -2.6460     4.5640    -0.0610 H     1 <1>   0.1500 
 41 H        8.8070     3.4850    -1.2200 H     1 <1>   0.1000 
 42 H        9.0320     1.8280     1.3730 H     1 <1>   0.1000 
 43 H       10.3040     2.0340     0.1320 H     1 <1>   0.1000 
 44 H       10.2660     4.5490     0.5140 H     1 <1>   0.1000 
 45 H        8.9950     4.3370     1.7570 H     1 <1>   0.1000 
@<TRIPOS>BOND
  1   1   2  ar  
  2   2   3  ar  
  3   2   4  1   
  4   4   5  1   
  5   4   6  1   
  6   4   7  1   
  7   5   8  1   
  8   5   9  1   
  9   5  24  1   
 10   6  10  1   
 11   6  25  1   
 12   6  26  1   
 13   7  11  1   
 14   7  27  1   
 15   7  28  1   
 16   8  29  1   
 17   9  12  1   
 18   9  30  1   
 19   9  31  1   
 20  10  12  1   
 21  10  32  1   
 22  10  33  1   
 23  11  13  ar  
 24  11  14  ar  
 25  12  15  am  
 26  13  16  ar  
 27  13  34  1   
 28  14  17  ar  
 29  14  35  1   
 30  15  18  2   
 31  15  19  1   
 32  16  20  ar  
 33  16  36  1   
 34  17  20  ar  
 35  17  37  1   
 36  19  21  1   
 37  19  38  1   
 38  19  39  1   
 39  20  40  1   
 40  21  22  1   
 41  21  23  1   
 42  21  41  1   
 43  22  23  1   
 44  22  42  1   
 45  22  43  1   
 46  23  44  1   
 47  23  45  1   
@<TRIPOS>SUBSTRUCTURE
  1 ****   6 GROUP 4 **** **** 0

# MOE 2024.06 (io_trps.svl 2023.06)
