@<TRIPOS>MOLECULE
NONAME
29 31 1 0 0 
SMALL
USER_CHARGES


@<TRIPOS>ATOM
  1 CL      -0.3690     1.1100     1.9900 Cl    1 <1>  -0.1770 
  2 C       -1.8370     1.6190     1.2090 C.ar  1 <1>   0.7970 
  3 N       -1.7730     2.8180     0.6390 N.ar  1 <1>  -0.6200 
  4 N       -2.8350     0.7600     1.2750 N.ar  1 <1>  -0.5660 
  5 C       -2.8790     3.2200     0.0440 C.ar  1 <1>   0.4100 
  6 C       -3.9400     1.1720     0.6670 C.ar  1 <1>   0.2560 
  7 N       -2.8720     4.4670    -0.5490 N.pl3 1 <1>  -0.8380 
  8 C       -3.9930     2.3920     0.0450 C.ar  1 <1>   0.0400 
  9 C       -5.1660     0.4350     0.5780 C.2   1 <1>  -0.1500 
 10 C       -1.6060     5.0470    -1.0980 C.3   1 <1>   0.2090 
 11 C       -3.8140     5.5180    -0.0600 C.3   1 <1>   0.2090 
 12 S       -5.5960     2.6310    -0.6790 S.3   1 <1>  -0.0800 
 13 C       -6.1470     1.0590    -0.1000 C.2   1 <1>  -0.1400 
 14 C       -1.0060     6.0770    -0.1250 C.3   1 <1>   0.1200 
 15 C       -3.0880     6.5300     0.8470 C.3   1 <1>   0.1200 
 16 C       -7.5690     0.6630    -0.4350 C.3   1 <1>  -0.0600 
 17 O       -1.9520     7.0540     0.2160 O.3   1 <1>  -0.5600 
 18 H       -5.2320    -0.5340     1.0360 H     1 <1>   0.1500 
 19 H       -1.8180     5.5300    -2.0360 H     1 <1>   0.0800 
 20 H       -0.8890     4.2670    -1.2870 H     1 <1>   0.0800 
 21 H       -4.6200     5.0700     0.4920 H     1 <1>   0.0800 
 22 H       -4.2360     6.0350    -0.9040 H     1 <1>   0.0800 
 23 H       -0.1680     6.5740    -0.5800 H     1 <1>   0.0800 
 24 H       -0.6730     5.5880     0.7750 H     1 <1>   0.0800 
 25 H       -2.7830     6.0570     1.7640 H     1 <1>   0.0800 
 26 H       -3.7410     7.3520     1.0820 H     1 <1>   0.0800 
 27 H       -7.7890    -0.3100    -0.0330 H     1 <1>   0.0800 
 28 H       -7.7010     0.6360    -1.5020 H     1 <1>   0.0800 
 29 H       -8.2570     1.3750    -0.0170 H     1 <1>   0.0800 
@<TRIPOS>BOND
  1   1   2  1   
  2   2   3  ar  
  3   2   4  ar  
  4   3   5  ar  
  5   4   6  ar  
  6   5   7  1   
  7   5   8  ar  
  8   6   8  ar  
  9   6   9  1   
 10   7  10  1   
 11   7  11  1   
 12   8  12  1   
 13   9  13  2   
 14   9  18  1   
 15  10  14  1   
 16  10  19  1   
 17  10  20  1   
 18  11  15  1   
 19  11  21  1   
 20  11  22  1   
 21  12  13  1   
 22  13  16  1   
 23  14  17  1   
 24  14  23  1   
 25  14  24  1   
 26  15  17  1   
 27  15  25  1   
 28  15  26  1   
 29  16  27  1   
 30  16  28  1   
 31  16  29  1   
@<TRIPOS>SUBSTRUCTURE
  1 ****   5 GROUP 4 **** **** 0

# MOE 2024.06 (io_trps.svl 2023.06)
