@<TRIPOS>MOLECULE
NONAME
52 53 1 0 0 
SMALL
USER_CHARGES


@<TRIPOS>ATOM
  1 O       -1.4200    -0.4740     1.5760 O.2   1 <1>  -0.5700 
  2 C       -2.0800     0.3440     0.9780 C.2   1 <1>   0.5690 
  3 N       -3.3880     0.1110     0.7120 N.am  1 <1>  -0.7300 
  4 C       -1.4260     1.6350     0.4880 C.3   1 <1>  -0.0190 
  5 C       -4.2060    -0.9410     1.3490 C.3   1 <1>   0.2840 
  6 C       -2.1470     2.8900     1.0220 C.3   1 <1>  -0.1600 
  7 C       -1.3040     1.6670    -1.0550 C.3   1 <1>  -0.1600 
  8 C       -4.7440    -1.9220     0.3120 C.ar  1 <1>  -0.1440 
  9 C       -1.4070     4.1930     0.6510 C.3   1 <1>   0.2000 
 10 C       -1.1680     3.0880    -1.6380 C.3   1 <1>  -0.1600 
 11 C       -3.9340    -2.7030    -0.5170 C.ar  1 <1>  -0.1430 
 12 C       -6.1240    -2.0450     0.2170 C.ar  1 <1>  -0.1500 
 13 O       -2.3750     5.1920     0.4500 O.3   1 <1>  -0.5600 
 14 C       -0.5430     4.0560    -0.6300 C.3   1 <1>   0.2000 
 15 C       -4.5260    -3.5850    -1.4120 C.ar  1 <1>  -0.1500 
 16 C       -2.4090    -2.6480    -0.5210 C.3   1 <1>   0.4860 
 17 C       -6.7010    -2.9260    -0.6780 C.ar  1 <1>  -0.1500 
 18 C       -2.8080     5.8370     1.6070 C.3   1 <1>   0.0400 
 19 O       -0.4280     5.2890    -1.2370 O.3   1 <1>  -0.6800 
 20 C       -5.9000    -3.6990    -1.4930 C.ar  1 <1>  -0.1500 
 21 N       -1.8130    -3.1260     0.7620 N.4   1 <1>  -0.9590 
 22 C       -0.3470    -3.3540     0.6170 C.3   1 <1>   0.2630 
 23 C       -2.5040    -4.3210     1.3380 C.3   1 <1>   0.2630 
 24 H       -3.9210     0.7910     0.1620 H     1 <1>   0.3700 
 25 H       -0.4290     1.6490     0.8950 H     1 <1>   0.0800 
 26 H       -3.6320    -1.4710     2.0880 H     1 <1>   0.0800 
 27 H       -5.0220    -0.4660     1.8680 H     1 <1>   0.0800 
 28 H       -2.2310     2.8280     2.0920 H     1 <1>   0.0800 
 29 H       -3.1400     2.9210     0.6060 H     1 <1>   0.0800 
 30 H       -0.4420     1.0870    -1.3380 H     1 <1>   0.0800 
 31 H       -2.1630     1.2050    -1.5120 H     1 <1>   0.0800 
 32 H       -0.7550     4.4940     1.4540 H     1 <1>   0.0800 
 33 H       -2.1460     3.4570    -1.8980 H     1 <1>   0.0800 
 34 H       -0.5710     3.0580    -2.5330 H     1 <1>   0.0800 
 35 H       -6.7740    -1.4550     0.8420 H     1 <1>   0.1500 
 36 H        0.4490     3.7200    -0.3790 H     1 <1>   0.0800 
 37 H       -3.9260    -4.1970    -2.0650 H     1 <1>   0.1500 
 38 H       -2.0920    -1.6370    -0.7130 H     1 <1>   0.0800 
 39 H       -2.0490    -3.2610    -1.3290 H     1 <1>   0.0800 
 40 H       -7.7730    -3.0090    -0.7400 H     1 <1>   0.1500 
 41 H       -3.5490     6.5660     1.3270 H     1 <1>   0.0800 
 42 H       -1.9730     6.3340     2.0710 H     1 <1>   0.0800 
 43 H       -3.2450     5.1200     2.2800 H     1 <1>   0.0800 
 44 H       -1.2590     5.7730    -1.0270 H     1 <1>   0.4000 
 45 H       -6.3500    -4.3840    -2.1920 H     1 <1>   0.1500 
 46 H       -1.9050    -2.3140     1.4070 H     1 <1>   0.4500 
 47 H       -0.1560    -4.1480    -0.0860 H     1 <1>   0.0800 
 48 H        0.0820    -3.6220     1.5690 H     1 <1>   0.0800 
 49 H        0.1360    -2.4540     0.2710 H     1 <1>   0.0800 
 50 H       -2.4350    -5.1560     0.6610 H     1 <1>   0.0800 
 51 H       -3.5470    -4.1060     1.5100 H     1 <1>   0.0800 
 52 H       -2.0530    -4.5970     2.2780 H     1 <1>   0.0800 
@<TRIPOS>BOND
  1   1   2  2   
  2   2   3  am  
  3   2   4  1   
  4   3   5  1   
  5   3  24  1   
  6   4   6  1   
  7   4   7  1   
  8   4  25  1   
  9   5   8  1   
 10   5  26  1   
 11   5  27  1   
 12   6   9  1   
 13   6  28  1   
 14   6  29  1   
 15   7  10  1   
 16   7  30  1   
 17   7  31  1   
 18   8  11  ar  
 19   8  12  ar  
 20   9  13  1   
 21   9  14  1   
 22   9  32  1   
 23  10  14  1   
 24  10  33  1   
 25  10  34  1   
 26  11  15  ar  
 27  11  16  1   
 28  12  17  ar  
 29  12  35  1   
 30  13  18  1   
 31  14  19  1   
 32  14  36  1   
 33  15  20  ar  
 34  15  37  1   
 35  16  21  1   
 36  16  38  1   
 37  16  39  1   
 38  17  20  ar  
 39  17  40  1   
 40  18  41  1   
 41  18  42  1   
 42  18  43  1   
 43  19  44  1   
 44  20  45  1   
 45  21  22  1   
 46  21  23  1   
 47  21  46  1   
 48  22  47  1   
 49  22  48  1   
 50  22  49  1   
 51  23  50  1   
 52  23  51  1   
 53  23  52  1   
@<TRIPOS>SUBSTRUCTURE
  1 ****   3 GROUP 4 **** **** 0

# MOE 2024.06 (io_trps.svl 2023.06)
