@<TRIPOS>MOLECULE
NONAME
50 52 1 0 0 
SMALL
USER_CHARGES


@<TRIPOS>ATOM
  1 O       -1.3090     3.8300     2.9740 O.2   1 <1>  -0.5700 
  2 C       -1.0330     4.5800     2.0730 C.2   1 <1>   0.5690 
  3 N       -1.9840     5.3420     1.4910 N.am  1 <1>  -0.7300 
  4 C        0.4020     4.6560     1.5500 C.3   1 <1>   0.1810 
  5 C       -1.7280     6.2650     0.3580 C.3   1 <1>   0.3640 
  6 O        0.6580     5.8440     0.8330 O.3   1 <1>  -0.5600 
  7 C       -2.7530     5.9760    -0.7370 C.ar  1 <1>  -0.1440 
  8 C       -0.2800     6.1350    -0.1950 C.3   1 <1>   0.2610 
  9 C       -3.0500     4.6740    -1.1240 C.ar  1 <1>  -0.1500 
 10 C       -3.4000     7.0280    -1.3710 C.ar  1 <1>  -0.1500 
 11 C        0.1720     7.3950    -0.9430 C.2   1 <1>   0.5690 
 12 C       -3.9770     4.4310    -2.1230 C.ar  1 <1>  -0.1500 
 13 C       -4.3260     6.7850    -2.3710 C.ar  1 <1>  -0.1500 
 14 O       -0.5500     8.3620    -1.0280 O.2   1 <1>  -0.5700 
 15 N        1.4260     7.4140    -1.4640 N.am  1 <1>  -0.7300 
 16 C       -4.6160     5.4860    -2.7470 C.ar  1 <1>  -0.1500 
 17 C        2.0890     8.5990    -2.0190 C.3   1 <1>   0.3200 
 18 C        3.3990     8.7770    -1.2820 C.2   1 <1>  -0.3320 
 19 N        3.5370     9.0040     0.0450 N.pl3 1 <1>   0.0480 
 20 C        4.6480     8.7510    -1.7980 C.2   1 <1>   0.0770 
 21 C        4.8730     9.0940     0.2330 C.2   1 <1>   0.0360 
 22 C        2.5110     9.0940     1.1130 C.3   1 <1>   0.0960 
 23 N        5.5730     8.9490    -0.8440 N.2   1 <1>  -0.5650 
 24 C        1.6940    10.3980     1.0460 C.3   1 <1>  -0.0800 
 25 C        2.5760    11.6430     1.2180 C.3   1 <1>  -0.2400 
 26 C        0.6050    10.3830     2.1260 C.3   1 <1>  -0.2400 
 27 H       -2.9480     5.2630     1.8170 H     1 <1>   0.3700 
 28 H        0.5930     3.8190     0.9030 H     1 <1>   0.0800 
 29 H        1.0850     4.6180     2.3790 H     1 <1>   0.0800 
 30 H       -1.8740     7.2680     0.7230 H     1 <1>   0.0800 
 31 H       -0.2510     5.3180    -0.8920 H     1 <1>   0.0800 
 32 H       -2.5670     3.8380    -0.6490 H     1 <1>   0.1500 
 33 H       -3.1840     8.0470    -1.0960 H     1 <1>   0.1500 
 34 H       -4.2030     3.4190    -2.4140 H     1 <1>   0.1500 
 35 H       -4.8200     7.6090    -2.8560 H     1 <1>   0.1500 
 36 H        2.0730     6.6560    -1.2340 H     1 <1>   0.3700 
 37 H       -5.3360     5.2980    -3.5240 H     1 <1>   0.1500 
 38 H        2.2740     8.4430    -3.0680 H     1 <1>   0.0800 
 39 H        1.4710     9.4740    -1.9120 H     1 <1>   0.0800 
 40 H        4.9390     8.5980    -2.8240 H     1 <1>   0.1500 
 41 H        5.2980     9.2710     1.2050 H     1 <1>   0.1500 
 42 H        1.8570     8.2470     1.0320 H     1 <1>   0.0800 
 43 H        3.0050     9.0310     2.0660 H     1 <1>   0.0800 
 44 H        1.2000    10.4510     0.0910 H     1 <1>   0.0800 
 45 H        3.0980    11.6150     2.1590 H     1 <1>   0.0800 
 46 H        1.9740    12.5340     1.1870 H     1 <1>   0.0800 
 47 H        3.3010    11.7070     0.4250 H     1 <1>   0.0800 
 48 H        1.0390    10.3330     3.1090 H     1 <1>   0.0800 
 49 H       -0.0430     9.5350     1.9890 H     1 <1>   0.0800 
 50 H        0.0040    11.2740     2.0610 H     1 <1>   0.0800 
@<TRIPOS>BOND
  1   1   2  2   
  2   2   3  am  
  3   2   4  1   
  4   3   5  1   
  5   3  27  1   
  6   4   6  1   
  7   4  28  1   
  8   4  29  1   
  9   5   7  1   
 10   5   8  1   
 11   5  30  1   
 12   6   8  1   
 13   7   9  ar  
 14   7  10  ar  
 15   8  11  1   
 16   8  31  1   
 17   9  12  ar  
 18   9  32  1   
 19  10  13  ar  
 20  10  33  1   
 21  11  14  2   
 22  11  15  am  
 23  12  16  ar  
 24  12  34  1   
 25  13  16  ar  
 26  13  35  1   
 27  15  17  1   
 28  15  36  1   
 29  16  37  1   
 30  17  18  1   
 31  17  38  1   
 32  17  39  1   
 33  18  19  1   
 34  18  20  2   
 35  19  21  1   
 36  19  22  1   
 37  20  23  1   
 38  20  40  1   
 39  21  23  2   
 40  21  41  1   
 41  22  24  1   
 42  22  42  1   
 43  22  43  1   
 44  24  25  1   
 45  24  26  1   
 46  24  44  1   
 47  25  45  1   
 48  25  46  1   
 49  25  47  1   
 50  26  48  1   
 51  26  49  1   
 52  26  50  1   
@<TRIPOS>SUBSTRUCTURE
  1 ****  11 GROUP 4 **** **** 0

# MOE 2024.06 (io_trps.svl 2023.06)
