@<TRIPOS>MOLECULE
NONAME
47 50 1 0 0 
SMALL
USER_CHARGES


@<TRIPOS>ATOM
  1 O       -0.3350     0.2070     0.3730 O.2   1 <1>  -0.5700 
  2 C       -1.3840     0.8230     0.4110 C.2   1 <1>   0.7150 
  3 N       -2.5610     0.1140     0.3790 N.am  1 <1>  -0.6600 
  4 C       -1.3850     2.2660     0.4670 C.2   1 <1>  -0.2370 
  5 C       -3.8720     0.6760    -0.0310 C.3   1 <1>   0.1400 
  6 C       -2.5920    -1.3690     0.3360 C.3   1 <1>   0.1400 
  7 N       -0.4740     3.0580    -0.2040 N.pl3 1 <1>   0.0480 
  8 C       -2.2220     3.0940     1.1590 C.2   1 <1>  -0.1500 
  9 C       -4.6420    -0.5130    -0.6030 C.3   1 <1>   0.2000 
 10 C       -4.0570    -1.7370     0.0960 C.3   1 <1>  -0.0800 
 11 C       -0.7560     4.3770     0.0640 C.ar  1 <1>  -0.1520 
 12 C        0.6310     2.5800    -1.0620 C.3   1 <1>   0.0160 
 13 C       -1.8520     4.4250     0.9160 C.ar  1 <1>   0.0000 
 14 O       -6.0000    -0.4160    -0.3480 O.3   1 <1>  -0.6800 
 15 C       -4.2420    -3.0380    -0.6990 C.3   1 <1>   0.0210 
 16 C       -0.1440     5.5620    -0.3630 C.ar  1 <1>  -0.1500 
 17 C       -2.3510     5.6590     1.3490 C.ar  1 <1>  -0.1500 
 18 C       -3.5330    -4.1970    -0.0250 C.2   1 <1>   0.1080 
 19 C       -0.6420     6.7700     0.0670 C.ar  1 <1>  -0.1500 
 20 C       -1.7480     6.8190     0.9250 C.ar  1 <1>  -0.1500 
 21 N       -3.7710    -4.5510     1.2000 N.2   1 <1>  -0.7070 
 22 C       -2.5580    -4.9880    -0.6210 C.2   1 <1>  -0.1500 
 23 N       -2.9450    -5.5920     1.4190 N.pl3 1 <1>   0.3000 
 24 C       -2.1990    -5.8750     0.3310 C.2   1 <1>  -0.3320 
 25 C       -1.1730    -6.9910     0.2670 C.3   1 <1>  -0.0600 
 26 H       -4.3730     1.0700     0.8350 H     1 <1>   0.0800 
 27 H       -3.7450     1.4460    -0.7730 H     1 <1>   0.0800 
 28 H       -1.9700    -1.7110    -0.4740 H     1 <1>   0.0800 
 29 H       -2.2300    -1.7860     1.2600 H     1 <1>   0.0800 
 30 H       -3.0350     2.8120     1.8040 H     1 <1>   0.1500 
 31 H       -4.4970    -0.5590    -1.6690 H     1 <1>   0.0800 
 32 H       -4.5120    -1.8510     1.0650 H     1 <1>   0.0800 
 33 H        0.2700     1.8020    -1.7090 H     1 <1>   0.0800 
 34 H        1.4130     2.1880    -0.4380 H     1 <1>   0.0800 
 35 H        1.0130     3.3860    -1.6590 H     1 <1>   0.0800 
 36 H       -6.1720    -0.5240     0.6080 H     1 <1>   0.4000 
 37 H       -3.8590    -2.9200    -1.6970 H     1 <1>   0.0800 
 38 H       -5.2900    -3.2700    -0.7680 H     1 <1>   0.0800 
 39 H        0.7070     5.5270    -1.0190 H     1 <1>   0.1500 
 40 H       -3.1990     5.6780     2.0090 H     1 <1>   0.1500 
 41 H       -0.1860     7.6910    -0.2500 H     1 <1>   0.1500 
 42 H       -2.1190     7.7760     1.2480 H     1 <1>   0.1500 
 43 H       -2.1870    -4.8930    -1.6260 H     1 <1>   0.1500 
 44 H       -2.9150    -6.0850     2.3190 H     1 <1>   0.2700 
 45 H       -0.7120    -7.0150    -0.7050 H     1 <1>   0.0800 
 46 H       -1.6450    -7.9410     0.4450 H     1 <1>   0.0800 
 47 H       -0.4060    -6.8350     1.0050 H     1 <1>   0.0800 
@<TRIPOS>BOND
  1   1   2  2   
  2   2   3  am  
  3   2   4  1   
  4   3   5  1   
  5   3   6  1   
  6   4   7  1   
  7   4   8  2   
  8   5   9  1   
  9   5  26  1   
 10   5  27  1   
 11   6  10  1   
 12   6  28  1   
 13   6  29  1   
 14   7  11  1   
 15   7  12  1   
 16   8  13  1   
 17   8  30  1   
 18   9  10  1   
 19   9  14  1   
 20   9  31  1   
 21  10  15  1   
 22  10  32  1   
 23  11  13  ar  
 24  11  16  ar  
 25  12  33  1   
 26  12  34  1   
 27  12  35  1   
 28  13  17  ar  
 29  14  36  1   
 30  15  18  1   
 31  15  37  1   
 32  15  38  1   
 33  16  19  ar  
 34  16  39  1   
 35  17  20  ar  
 36  17  40  1   
 37  18  21  2   
 38  18  22  1   
 39  19  20  ar  
 40  19  41  1   
 41  20  42  1   
 42  21  23  1   
 43  22  24  2   
 44  22  43  1   
 45  23  24  1   
 46  23  44  1   
 47  24  25  1   
 48  25  45  1   
 49  25  46  1   
 50  25  47  1   
@<TRIPOS>SUBSTRUCTURE
  1 ****   3 GROUP 4 **** **** 0

# MOE 2024.06 (io_trps.svl 2023.06)
