@<TRIPOS>MOLECULE
NONAME
41 43 1 0 0 
SMALL
USER_CHARGES


@<TRIPOS>ATOM
  1 O       -0.5550     0.2560     0.2530 O.2   1 <1>  -0.5700 
  2 C       -1.5520     0.9480     0.3190 C.2   1 <1>   0.7150 
  3 N       -2.7870     0.3530     0.3990 N.am  1 <1>  -0.6600 
  4 C       -1.4410     2.3800     0.3010 C.2   1 <1>  -0.2370 
  5 C       -3.9320     0.8120    -0.4340 C.3   1 <1>   0.1400 
  6 C       -2.9590    -1.0870     0.7140 C.3   1 <1>   0.1400 
  7 N       -2.3040     3.2000     0.9720 N.pl3 1 <1>   0.0330 
  8 C       -0.5140     3.1800    -0.3140 C.2   1 <1>  -0.1500 
  9 C       -4.8740    -0.3920    -0.5630 C.3   1 <1>   0.2000 
 10 C       -3.9640    -1.5980    -0.3180 C.3   1 <1>  -0.0800 
 11 C       -1.9290     4.4820     0.7630 C.2   1 <1>  -0.3020 
 12 C       -0.8180     4.5170    -0.0340 C.2   1 <1>   0.0190 
 13 O       -5.8340    -0.3360     0.4540 O.3   1 <1>  -0.5600 
 14 C       -4.6970    -2.8790     0.1180 C.3   1 <1>   0.0200 
 15 C       -0.0860     5.6590    -0.5030 C.1   1 <1>   0.5380 
 16 C       -7.0050     0.3450     0.1280 C.3   1 <1>   0.0400 
 17 C       -3.7840    -4.0920     0.1890 C.2   1 <1>  -0.0400 
 18 N        0.4910     6.5690    -0.8800 N.1   1 <1>  -0.5570 
 19 O       -4.2680    -5.2160     0.6470 O.3   1 <1>  -0.0190 
 20 C       -2.4980    -4.3050    -0.1360 C.2   1 <1>  -0.1500 
 21 N       -3.3770    -6.1660     0.6500 N.2   1 <1>  -0.4100 
 22 C       -2.3000    -5.6450     0.1830 C.2   1 <1>   0.1080 
 23 C       -0.9980    -6.3940     0.0080 C.3   1 <1>  -0.0590 
 24 H       -4.4320     1.6490     0.0190 H     1 <1>   0.0800 
 25 H       -3.5660     1.0930    -1.4060 H     1 <1>   0.0800 
 26 H       -2.0280    -1.6250     0.6640 H     1 <1>   0.0800 
 27 H       -3.3650    -1.1760     1.7070 H     1 <1>   0.0800 
 28 H       -3.0860     2.8680     1.5500 H     1 <1>   0.2700 
 29 H        0.3170     2.8450    -0.9130 H     1 <1>   0.1500 
 30 H       -5.3650    -0.4430    -1.5200 H     1 <1>   0.0800 
 31 H       -3.4300    -1.7960    -1.2300 H     1 <1>   0.0800 
 32 H       -2.4560     5.3180     1.1890 H     1 <1>   0.1500 
 33 H       -5.4880    -3.0920    -0.5790 H     1 <1>   0.0800 
 34 H       -5.1470    -2.7320     1.0850 H     1 <1>   0.0800 
 35 H       -7.6440     0.3420     0.9930 H     1 <1>   0.0800 
 36 H       -7.4960    -0.1620    -0.6840 H     1 <1>   0.0800 
 37 H       -6.7710     1.3590    -0.1440 H     1 <1>   0.0800 
 38 H       -1.7610    -3.6400    -0.5470 H     1 <1>   0.1500 
 39 H       -0.2260    -5.9190     0.5850 H     1 <1>   0.0800 
 40 H       -0.7170    -6.3980    -1.0280 H     1 <1>   0.0800 
 41 H       -1.1110    -7.4090     0.3440 H     1 <1>   0.0800 
@<TRIPOS>BOND
  1   1   2  2   
  2   2   3  am  
  3   2   4  1   
  4   3   5  1   
  5   3   6  1   
  6   4   7  1   
  7   4   8  2   
  8   5   9  1   
  9   5  24  1   
 10   5  25  1   
 11   6  10  1   
 12   6  26  1   
 13   6  27  1   
 14   7  11  1   
 15   7  28  1   
 16   8  12  1   
 17   8  29  1   
 18   9  10  1   
 19   9  13  1   
 20   9  30  1   
 21  10  14  1   
 22  10  31  1   
 23  11  12  2   
 24  11  32  1   
 25  12  15  1   
 26  13  16  1   
 27  14  17  1   
 28  14  33  1   
 29  14  34  1   
 30  15  18  3   
 31  16  35  1   
 32  16  36  1   
 33  16  37  1   
 34  17  19  1   
 35  17  20  2   
 36  19  21  1   
 37  20  22  1   
 38  20  38  1   
 39  21  22  2   
 40  22  23  1   
 41  23  39  1   
 42  23  40  1   
 43  23  41  1   
@<TRIPOS>SUBSTRUCTURE
  1 ****   3 GROUP 4 **** **** 0

# MOE 2024.06 (io_trps.svl 2023.06)
