@<TRIPOS>MOLECULE
NONAME
54 56 1 0 0 
SMALL
USER_CHARGES


@<TRIPOS>ATOM
  1 S        0.2510     0.8050    -1.4430 S.o2  1 <1>   1.4470 
  2 O       -0.5790     0.1520    -2.4340 O.2   1 <1>  -0.6500 
  3 O        0.9680     2.0080    -1.8090 O.2   1 <1>  -0.6500 
  4 N       -0.7190     1.1830    -0.1000 N.am  1 <1>  -0.8490 
  5 C        1.4340    -0.3910    -0.7630 C.ar  1 <1>  -0.0090 
  6 C       -1.6470     0.1070     0.3210 C.3   1 <1>   0.1960 
  7 C       -1.3270     2.5090    -0.1380 C.3   1 <1>   0.1960 
  8 C        2.0950    -0.1440     0.4340 C.ar  1 <1>  -0.1500 
  9 C        1.7180    -1.5800    -1.4240 C.ar  1 <1>  -0.1500 
 10 C       -3.1630     0.4020     0.1090 C.3   1 <1>   0.0000 
 11 C       -2.5100     2.5640    -1.1170 C.3   1 <1>  -0.1600 
 12 C        3.0040    -1.0450     0.9670 C.ar  1 <1>  -0.1430 
 13 C        2.6230    -2.4920    -0.9100 C.ar  1 <1>  -0.1500 
 14 C       -3.8680     1.0550     1.3220 C.3   1 <1>   0.2000 
 15 C       -3.3480     1.2710    -1.1590 C.3   1 <1>  -0.1600 
 16 C       -3.9520    -0.9090    -0.0520 C.3   1 <1>  -0.1600 
 17 C        3.2740    -2.2300     0.2920 C.ar  1 <1>   0.0830 
 18 C        3.6990    -0.7280     2.2830 C.3   1 <1>  -0.0970 
 19 O       -3.4080     0.4730     2.5080 O.3   1 <1>  -0.5600 
 20 C       -5.3510     0.6960     1.1650 C.3   1 <1>  -0.1600 
 21 C       -5.4010    -0.5950     0.3370 C.3   1 <1>  -0.1600 
 22 O        4.1730    -3.0840     0.8470 O.3   1 <1>  -0.3630 
 23 C       -3.5200     1.2730     3.6420 C.3   1 <1>   0.0400 
 24 C        4.5340    -4.2950     0.2250 C.3   1 <1>   0.1200 
 25 C        5.5660    -4.9890     1.1090 C.3   1 <1>  -0.2400 
 26 H       -1.4060    -0.7900    -0.2230 H     1 <1>   0.0800 
 27 H       -1.4530    -0.1190     1.3540 H     1 <1>   0.0800 
 28 H       -1.6700     2.7470     0.8530 H     1 <1>   0.0800 
 29 H       -0.5940     3.2540    -0.4010 H     1 <1>   0.0800 
 30 H        1.8850     0.7760     0.9530 H     1 <1>   0.1500 
 31 H        1.2220    -1.7940    -2.3560 H     1 <1>   0.1500 
 32 H       -3.1370     3.3920    -0.8380 H     1 <1>   0.0800 
 33 H       -2.1380     2.7720    -2.1060 H     1 <1>   0.0800 
 34 H        2.8060    -3.3950    -1.4590 H     1 <1>   0.1500 
 35 H       -3.7100     2.1180     1.3630 H     1 <1>   0.0800 
 36 H       -3.0300     0.6960    -2.0110 H     1 <1>   0.0800 
 37 H       -4.3820     1.5170    -1.3250 H     1 <1>   0.0800 
 38 H       -3.8800    -1.3180    -1.0450 H     1 <1>   0.0800 
 39 H       -3.5700    -1.6370     0.6440 H     1 <1>   0.0800 
 40 H        3.3760     0.2180     2.6780 H     1 <1>   0.0800 
 41 H        4.7630    -0.6940     2.1330 H     1 <1>   0.0800 
 42 H        3.4780    -1.4950     3.0040 H     1 <1>   0.0800 
 43 H       -5.8410     0.5770     2.1140 H     1 <1>   0.0800 
 44 H       -5.8460     1.4810     0.6210 H     1 <1>   0.0800 
 45 H       -5.8190    -1.4050     0.9100 H     1 <1>   0.0800 
 46 H       -6.0000    -0.4440    -0.5440 H     1 <1>   0.0800 
 47 H       -3.1710     0.7050     4.4860 H     1 <1>   0.0800 
 48 H       -4.5490     1.5470     3.7900 H     1 <1>   0.0800 
 49 H       -2.9070     2.1490     3.5180 H     1 <1>   0.0800 
 50 H        3.6510    -4.9020     0.1230 H     1 <1>   0.0800 
 51 H        4.9500    -4.0710    -0.7420 H     1 <1>   0.0800 
 52 H        5.1460    -5.1930     2.0770 H     1 <1>   0.0800 
 53 H        6.4370    -4.3680     1.2180 H     1 <1>   0.0800 
 54 H        5.8630    -5.9200     0.6600 H     1 <1>   0.0800 
@<TRIPOS>BOND
  1   1   2  2   
  2   1   3  2   
  3   1   4  am  
  4   1   5  1   
  5   4   6  1   
  6   4   7  1   
  7   5   8  ar  
  8   5   9  ar  
  9   6  10  1   
 10   6  26  1   
 11   6  27  1   
 12   7  11  1   
 13   7  28  1   
 14   7  29  1   
 15   8  12  ar  
 16   8  30  1   
 17   9  13  ar  
 18   9  31  1   
 19  10  14  1   
 20  10  15  1   
 21  10  16  1   
 22  11  15  1   
 23  11  32  1   
 24  11  33  1   
 25  12  17  ar  
 26  12  18  1   
 27  13  17  ar  
 28  13  34  1   
 29  14  19  1   
 30  14  20  1   
 31  14  35  1   
 32  15  36  1   
 33  15  37  1   
 34  16  21  1   
 35  16  38  1   
 36  16  39  1   
 37  17  22  1   
 38  18  40  1   
 39  18  41  1   
 40  18  42  1   
 41  19  23  1   
 42  20  21  1   
 43  20  43  1   
 44  20  44  1   
 45  21  45  1   
 46  21  46  1   
 47  22  24  1   
 48  23  47  1   
 49  23  48  1   
 50  23  49  1   
 51  24  25  1   
 52  24  50  1   
 53  24  51  1   
 54  25  52  1   
 55  25  53  1   
 56  25  54  1   
@<TRIPOS>SUBSTRUCTURE
  1 ****   6 GROUP 4 **** **** 0

# MOE 2024.06 (io_trps.svl 2023.06)
