@<TRIPOS>MOLECULE
NONAME
56 58 1 0 0 
SMALL
USER_CHARGES


@<TRIPOS>ATOM
  1 CL      -0.1360     0.2780    -0.9330 Cl    1 <1>  -0.1770 
  2 C       -1.7870     0.6310    -0.4970 C.ar  1 <1>   0.1770 
  3 C       -2.0650     1.1560     0.7500 C.ar  1 <1>  -0.1500 
  4 C       -2.7990     0.3830    -1.4040 C.ar  1 <1>  -0.1500 
  5 C       -3.3770     1.4340     1.0900 C.ar  1 <1>  -0.1500 
  6 C       -4.1080     0.6670    -1.0540 C.ar  1 <1>  -0.1500 
  7 C       -4.4280     1.1930     0.2000 C.ar  1 <1>   0.0530 
  8 C       -5.7850     1.5000     0.5760 C.2   1 <1>   0.0870 
  9 O       -6.0250     2.5890     1.2650 O.3   1 <1>  -0.0190 
 10 C       -6.9850     0.8850     0.3800 C.2   1 <1>  -0.0860 
 11 N       -7.2910     2.7570     1.5350 N.2   1 <1>  -0.4100 
 12 C       -7.8850     1.7560     1.0060 C.2   1 <1>   0.3720 
 13 C       -7.3210    -0.3590    -0.2440 C.2   1 <1>   0.7160 
 14 N       -9.2620     1.6200     1.1020 N.pl3 1 <1>  -0.8520 
 15 O       -6.4740    -1.1650    -0.5770 O.2   1 <1>  -0.5700 
 16 N       -8.6210    -0.7120    -0.4390 N.am  1 <1>  -0.7300 
 17 C      -10.0100     2.2040    -0.0470 C.3   1 <1>   0.2090 
 18 C       -9.1360    -1.8570    -1.2340 C.3   1 <1>   0.1400 
 19 C      -11.4390     1.6480    -0.1340 C.3   1 <1>   0.1200 
 20 C      -10.0300    -2.8060    -0.3990 C.3   1 <1>   0.4230 
 21 O      -11.4390     0.2510    -0.2780 O.3   1 <1>  -0.5600 
 22 N       -9.2740    -3.7110     0.5460 N.4   1 <1>  -0.9590 
 23 C      -10.8660    -3.6780    -1.3490 C.3   1 <1>  -0.1600 
 24 C      -12.7300    -0.2720    -0.3590 C.3   1 <1>   0.0400 
 25 C      -10.1930    -4.5680     1.3470 C.3   1 <1>   0.3430 
 26 C       -8.3560    -2.9780     1.4720 C.3   1 <1>   0.2630 
 27 C      -11.8080    -4.6250    -0.5970 C.3   1 <1>  -0.1600 
 28 C      -11.0220    -5.4570     0.4210 C.3   1 <1>  -0.1600 
 29 H       -1.2620     1.3440     1.4400 H     1 <1>   0.1500 
 30 H       -2.5620    -0.0260    -2.3700 H     1 <1>   0.1500 
 31 H       -3.5940     1.8450     2.0610 H     1 <1>   0.1500 
 32 H       -4.8910     0.4770    -1.7650 H     1 <1>   0.1500 
 33 H       -9.5510     2.1230     1.9500 H     1 <1>   0.4000 
 34 H       -9.3360    -0.0520    -0.0750 H     1 <1>   0.3700 
 35 H       -9.4950     2.0000    -0.9710 H     1 <1>   0.0800 
 36 H      -10.0540     3.2740     0.0720 H     1 <1>   0.0800 
 37 H       -8.3240    -2.4080    -1.6760 H     1 <1>   0.0800 
 38 H       -9.7230    -1.4450    -2.0360 H     1 <1>   0.0800 
 39 H      -11.9390     2.0780    -0.9860 H     1 <1>   0.0800 
 40 H      -11.9830     1.9050     0.7590 H     1 <1>   0.0800 
 41 H      -10.7080    -2.1920     0.1720 H     1 <1>   0.0800 
 42 H       -8.6970    -4.3310    -0.0360 H     1 <1>   0.4500 
 43 H      -10.2110    -4.2490    -1.9850 H     1 <1>   0.0800 
 44 H      -11.4560    -3.0430    -1.9870 H     1 <1>   0.0800 
 45 H      -12.6660    -1.3380    -0.4700 H     1 <1>   0.0800 
 46 H      -13.2330     0.1480    -1.2140 H     1 <1>   0.0800 
 47 H      -13.2680    -0.0360     0.5440 H     1 <1>   0.0800 
 48 H      -10.8500    -3.9460     1.9330 H     1 <1>   0.0800 
 49 H       -9.6240    -5.1890     2.0210 H     1 <1>   0.0800 
 50 H       -8.8810    -2.1750     1.9640 H     1 <1>   0.0800 
 51 H       -7.5280    -2.5640     0.9230 H     1 <1>   0.0800 
 52 H       -7.9600    -3.6460     2.2180 H     1 <1>   0.0800 
 53 H      -12.3080    -5.2780    -1.2950 H     1 <1>   0.0800 
 54 H      -12.5650    -4.0520    -0.0860 H     1 <1>   0.0800 
 55 H      -11.7090    -6.0370     1.0130 H     1 <1>   0.0800 
 56 H      -10.3740    -6.1490    -0.0880 H     1 <1>   0.0800 
@<TRIPOS>BOND
  1   1   2  1   
  2   2   3  ar  
  3   2   4  ar  
  4   3   5  ar  
  5   3  29  1   
  6   4   6  ar  
  7   4  30  1   
  8   5   7  ar  
  9   5  31  1   
 10   6   7  ar  
 11   6  32  1   
 12   7   8  1   
 13   8   9  1   
 14   8  10  2   
 15   9  11  1   
 16  10  12  1   
 17  10  13  1   
 18  11  12  2   
 19  12  14  1   
 20  13  15  2   
 21  13  16  am  
 22  14  17  1   
 23  14  33  1   
 24  16  18  1   
 25  16  34  1   
 26  17  19  1   
 27  17  35  1   
 28  17  36  1   
 29  18  20  1   
 30  18  37  1   
 31  18  38  1   
 32  19  21  1   
 33  19  39  1   
 34  19  40  1   
 35  20  22  1   
 36  20  23  1   
 37  20  41  1   
 38  21  24  1   
 39  22  25  1   
 40  22  26  1   
 41  22  42  1   
 42  23  27  1   
 43  23  43  1   
 44  23  44  1   
 45  24  45  1   
 46  24  46  1   
 47  24  47  1   
 48  25  28  1   
 49  25  48  1   
 50  25  49  1   
 51  26  50  1   
 52  26  51  1   
 53  26  52  1   
 54  27  28  1   
 55  27  53  1   
 56  27  54  1   
 57  28  55  1   
 58  28  56  1   
@<TRIPOS>SUBSTRUCTURE
  1 ****  13 GROUP 4 **** **** 0

# MOE 2024.06 (io_trps.svl 2023.06)
