@<TRIPOS>MOLECULE
NONAME
62 64 1 0 0 
SMALL
USER_CHARGES


@<TRIPOS>ATOM
  1 O       -0.2220     0.3980    -2.3020 O.2   1 <1>  -0.5700 
  2 C       -1.0480     1.2300    -1.9870 C.2   1 <1>   0.5690 
  3 N       -2.1410     0.8380    -1.2450 N.am  1 <1>  -0.6600 
  4 C       -0.8010     2.7080    -2.4340 C.3   1 <1>   0.3410 
  5 C       -3.3030     1.6500    -0.7930 C.3   1 <1>   0.1400 
  6 C       -2.1680    -0.4830    -0.5640 C.3   1 <1>   0.1400 
  7 O       -0.9670     3.6470    -1.3730 O.3   1 <1>  -0.3630 
  8 C       -1.8250     3.1170    -3.5050 C.3   1 <1>  -0.2400 
  9 C        0.6030     2.9600    -3.0230 C.3   1 <1>  -0.2400 
 10 C       -3.7120     1.0330     0.5430 C.3   1 <1>   0.2000 
 11 C       -3.3800    -0.4510     0.3720 C.3   1 <1>  -0.0800 
 12 C       -0.5820     3.4900    -0.0730 C.ar  1 <1>   0.0830 
 13 O       -2.9370     1.5890     1.5510 O.3   1 <1>  -0.6800 
 14 C       -3.1710    -1.2380     1.6780 C.3   1 <1>   0.0210 
 15 C       -1.1570     4.3350     0.8790 C.ar  1 <1>  -0.1430 
 16 C        0.3300     2.5170     0.3350 C.ar  1 <1>  -0.1500 
 17 C       -2.8780    -2.6970     1.3910 C.2   1 <1>   0.1080 
 18 C       -0.8200     4.1650     2.2150 C.ar  1 <1>  -0.1500 
 19 C       -2.1500     5.4400     0.4930 C.3   1 <1>   0.0630 
 20 C        0.6450     2.3500     1.6700 C.ar  1 <1>  -0.1430 
 21 N       -3.7460    -3.5000     0.8570 N.2   1 <1>  -0.7070 
 22 C       -1.6670    -3.3300     1.6500 C.2   1 <1>  -0.1500 
 23 C        0.0660     3.1810     2.6100 C.ar  1 <1>  -0.1500 
 24 C       -1.5600     6.8220     0.7910 C.3   1 <1>  -0.2400 
 25 C       -3.4940     5.2610     1.2110 C.3   1 <1>  -0.2400 
 26 C        1.6220     1.2700     2.0970 C.3   1 <1>  -0.0970 
 27 N       -3.1050    -4.6800     0.7640 N.pl3 1 <1>   0.3000 
 28 C       -1.8430    -4.6030     1.2360 C.2   1 <1>  -0.3320 
 29 C       -0.8700    -5.7660     1.2630 C.3   1 <1>  -0.0600 
 30 H       -3.0830     2.6950    -0.6900 H     1 <1>   0.0800 
 31 H       -4.1030     1.5260    -1.5020 H     1 <1>   0.0800 
 32 H       -2.2520    -1.2810    -1.2830 H     1 <1>   0.0800 
 33 H       -1.2560    -0.6070    -0.0060 H     1 <1>   0.0800 
 34 H       -1.7380     2.4660    -4.3570 H     1 <1>   0.0800 
 35 H       -1.6510     4.1280    -3.8270 H     1 <1>   0.0800 
 36 H       -2.8260     3.0400    -3.1260 H     1 <1>   0.0800 
 37 H        0.7460     2.3520    -3.8990 H     1 <1>   0.0800 
 38 H        1.3720     2.7020    -2.3200 H     1 <1>   0.0800 
 39 H        0.7170     3.9920    -3.3000 H     1 <1>   0.0800 
 40 H       -4.7480     1.2030     0.7840 H     1 <1>   0.0800 
 41 H       -4.1980    -0.9070    -0.1600 H     1 <1>   0.0800 
 42 H       -2.0290     1.7690     1.2180 H     1 <1>   0.4000 
 43 H       -4.0590    -1.1760     2.2800 H     1 <1>   0.0800 
 44 H       -2.3570    -0.8200     2.2430 H     1 <1>   0.0800 
 45 H        0.8110     1.8720    -0.3720 H     1 <1>   0.1500 
 46 H       -1.2500     4.8020     2.9660 H     1 <1>   0.1500 
 47 H       -2.3520     5.4050    -0.5630 H     1 <1>   0.0800 
 48 H       -0.7950    -2.8770     2.0870 H     1 <1>   0.1500 
 49 H        0.3020     3.0680     3.6540 H     1 <1>   0.1500 
 50 H       -1.3880     6.9470     1.8450 H     1 <1>   0.0800 
 51 H       -2.2290     7.5940     0.4570 H     1 <1>   0.0800 
 52 H       -0.6230     6.9330     0.2760 H     1 <1>   0.0800 
 53 H       -3.3850     5.3850     2.2730 H     1 <1>   0.0800 
 54 H       -3.8820     4.2760     1.0230 H     1 <1>   0.0800 
 55 H       -4.2040     5.9840     0.8540 H     1 <1>   0.0800 
 56 H        1.3830     0.9150     3.0830 H     1 <1>   0.0800 
 57 H        2.6220     1.6660     2.1020 H     1 <1>   0.0800 
 58 H        1.5820     0.4370     1.4180 H     1 <1>   0.0800 
 59 H       -3.5560    -5.5170     0.3740 H     1 <1>   0.2700 
 60 H        0.0690    -5.4540     1.6860 H     1 <1>   0.0800 
 61 H       -0.6920    -6.1260     0.2650 H     1 <1>   0.0800 
 62 H       -1.2640    -6.5680     1.8610 H     1 <1>   0.0800 
@<TRIPOS>BOND
  1   1   2  2   
  2   2   3  am  
  3   2   4  1   
  4   3   5  1   
  5   3   6  1   
  6   4   7  1   
  7   4   8  1   
  8   4   9  1   
  9   5  10  1   
 10   5  30  1   
 11   5  31  1   
 12   6  11  1   
 13   6  32  1   
 14   6  33  1   
 15   7  12  1   
 16   8  34  1   
 17   8  35  1   
 18   8  36  1   
 19   9  37  1   
 20   9  38  1   
 21   9  39  1   
 22  10  11  1   
 23  10  13  1   
 24  10  40  1   
 25  11  14  1   
 26  11  41  1   
 27  12  15  ar  
 28  12  16  ar  
 29  13  42  1   
 30  14  17  1   
 31  14  43  1   
 32  14  44  1   
 33  15  18  ar  
 34  15  19  1   
 35  16  20  ar  
 36  16  45  1   
 37  17  21  2   
 38  17  22  1   
 39  18  23  ar  
 40  18  46  1   
 41  19  24  1   
 42  19  25  1   
 43  19  47  1   
 44  20  23  ar  
 45  20  26  1   
 46  21  27  1   
 47  22  28  2   
 48  22  48  1   
 49  23  49  1   
 50  24  50  1   
 51  24  51  1   
 52  24  52  1   
 53  25  53  1   
 54  25  54  1   
 55  25  55  1   
 56  26  56  1   
 57  26  57  1   
 58  26  58  1   
 59  27  28  1   
 60  27  59  1   
 61  28  29  1   
 62  29  60  1   
 63  29  61  1   
 64  29  62  1   
@<TRIPOS>SUBSTRUCTURE
  1 ****   3 GROUP 4 **** **** 0

# MOE 2024.06 (io_trps.svl 2023.06)
