@<TRIPOS>MOLECULE
NONAME
60 64 1 0 0 
SMALL
USER_CHARGES


@<TRIPOS>ATOM
  1 O       -0.1250    -0.2060     0.6760 O.2   1 <1>  -0.5700 
  2 C       -0.5380     0.8310     0.2130 C.2   1 <1>   0.5690 
  3 N       -1.8230     1.2600     0.4330 N.am  1 <1>  -0.6600 
  4 C        0.4410     1.6370    -0.6100 C.3   1 <1>  -0.0990 
  5 C       -2.4130     2.5470    -0.0790 C.3   1 <1>   0.1400 
  6 C       -2.7780     0.3330     1.1150 C.3   1 <1>   0.1400 
  7 C        1.1620     2.6390     0.2950 C.3   1 <1>   0.0960 
  8 C       -3.1900     3.3350     1.0060 C.3   1 <1>   0.1440 
  9 C       -4.1090     1.0060     1.4770 C.3   1 <1>  -0.1600 
 10 N        1.4930     3.8610    -0.4570 N.pl3 1 <1>   0.3140 
 11 C       -4.2050     4.2140     0.2890 C.ar  1 <1>   0.1660 
 12 C       -3.8640     2.4080     2.0480 C.3   1 <1>  -0.1600 
 13 C       -2.2940     4.3900     1.7060 C.3   1 <1>  -0.1600 
 14 N        0.5710     4.8270    -0.6270 N.2   1 <1>  -0.7070 
 15 C        2.6520     4.1690    -1.0810 C.2   1 <1>  -0.3320 
 16 N       -5.3180     3.7960    -0.2670 N.ar  1 <1>  -0.6200 
 17 C       -3.8190     5.5180     0.2720 C.ar  1 <1>  -0.1440 
 18 C       -2.4980     5.7230     0.9660 C.3   1 <1>  -0.0170 
 19 C        1.1610     5.7260    -1.3480 C.2   1 <1>   0.1080 
 20 C        2.4670     5.3720    -1.6640 C.2   1 <1>  -0.1500 
 21 C        3.8950     3.2970    -1.1000 C.3   1 <1>  -0.0600 
 22 C       -6.0720     4.7370    -0.8510 C.ar  1 <1>   0.6200 
 23 C       -4.6420     6.4210    -0.3490 C.ar  1 <1>   0.1600 
 24 C        0.4750     7.0000    -1.7800 C.3   1 <1>  -0.0590 
 25 N       -5.7680     6.0420    -0.9100 N.ar  1 <1>  -0.6200 
 26 C       -7.3210     4.3070    -1.4680 C.ar  1 <1>   0.0000 
 27 C       -8.4110     5.1730    -1.5970 C.ar  1 <1>  -0.1500 
 28 C       -7.4890     3.0090    -1.9610 C.ar  1 <1>  -0.1500 
 29 C       -9.5980     4.7690    -2.1810 C.ar  1 <1>  -0.1500 
 30 C       -8.6730     2.5980    -2.5460 C.ar  1 <1>  -0.1500 
 31 C       -9.7320     3.4790    -2.6580 C.ar  1 <1>  -0.1500 
 32 H       -0.0740     2.1270    -1.4150 H     1 <1>   0.0800 
 33 H        1.1610     0.9700    -1.0470 H     1 <1>   0.0800 
 34 H       -3.0930     2.2930    -0.8750 H     1 <1>   0.0800 
 35 H       -1.6640     3.1910    -0.5000 H     1 <1>   0.0800 
 36 H       -2.3130    -0.0270     2.0180 H     1 <1>   0.0800 
 37 H       -2.9600    -0.5170     0.4800 H     1 <1>   0.0800 
 38 H        2.0570     2.2060     0.7000 H     1 <1>   0.0800 
 39 H        0.5290     2.9240     1.1130 H     1 <1>   0.0800 
 40 H       -4.6260     0.4000     2.1990 H     1 <1>   0.0800 
 41 H       -4.7340     1.0700     0.6020 H     1 <1>   0.0800 
 42 H       -4.7920     2.8400     2.3810 H     1 <1>   0.0800 
 43 H       -3.2250     2.3020     2.9070 H     1 <1>   0.0800 
 44 H       -1.2590     4.1030     1.7240 H     1 <1>   0.0800 
 45 H       -2.6230     4.5280     2.7210 H     1 <1>   0.0800 
 46 H       -1.7260     5.8770     0.2340 H     1 <1>   0.0800 
 47 H       -2.5260     6.5550     1.6480 H     1 <1>   0.0800 
 48 H        3.1570     5.9510    -2.2510 H     1 <1>   0.1500 
 49 H        3.6730     2.3400    -1.5370 H     1 <1>   0.0800 
 50 H        4.2640     3.1510    -0.1000 H     1 <1>   0.0800 
 51 H        4.6680     3.7670    -1.6820 H     1 <1>   0.0800 
 52 H       -4.3750     7.4630    -0.3880 H     1 <1>   0.1500 
 53 H       -0.4440     6.7600    -2.2820 H     1 <1>   0.0800 
 54 H        1.1050     7.5570    -2.4480 H     1 <1>   0.0800 
 55 H        0.2580     7.6000    -0.9170 H     1 <1>   0.0800 
 56 H       -8.3270     6.1810    -1.2320 H     1 <1>   0.1500 
 57 H       -6.6760     2.3080    -1.8840 H     1 <1>   0.1500 
 58 H      -10.4180     5.4610    -2.2650 H     1 <1>   0.1500 
 59 H       -8.7700     1.5920    -2.9150 H     1 <1>   0.1500 
 60 H      -10.6540     3.1620    -3.1130 H     1 <1>   0.1500 
@<TRIPOS>BOND
  1   1   2  2   
  2   2   3  am  
  3   2   4  1   
  4   3   5  1   
  5   3   6  1   
  6   4   7  1   
  7   4  32  1   
  8   4  33  1   
  9   5   8  1   
 10   5  34  1   
 11   5  35  1   
 12   6   9  1   
 13   6  36  1   
 14   6  37  1   
 15   7  10  1   
 16   7  38  1   
 17   7  39  1   
 18   8  11  1   
 19   8  12  1   
 20   8  13  1   
 21   9  12  1   
 22   9  40  1   
 23   9  41  1   
 24  10  14  1   
 25  10  15  1   
 26  11  16  ar  
 27  11  17  ar  
 28  12  42  1   
 29  12  43  1   
 30  13  18  1   
 31  13  44  1   
 32  13  45  1   
 33  14  19  2   
 34  15  20  2   
 35  15  21  1   
 36  16  22  ar  
 37  17  18  1   
 38  17  23  ar  
 39  18  46  1   
 40  18  47  1   
 41  19  20  1   
 42  19  24  1   
 43  20  48  1   
 44  21  49  1   
 45  21  50  1   
 46  21  51  1   
 47  22  25  ar  
 48  22  26  1   
 49  23  25  ar  
 50  23  52  1   
 51  24  53  1   
 52  24  54  1   
 53  24  55  1   
 54  26  27  ar  
 55  26  28  ar  
 56  27  29  ar  
 57  27  56  1   
 58  28  30  ar  
 59  28  57  1   
 60  29  31  ar  
 61  29  58  1   
 62  30  31  ar  
 63  30  59  1   
 64  31  60  1   
@<TRIPOS>SUBSTRUCTURE
  1 ****   5 GROUP 4 **** **** 0

# MOE 2024.06 (io_trps.svl 2023.06)
