@<TRIPOS>MOLECULE
NONAME
46 49 1 0 0 
SMALL
USER_CHARGES


@<TRIPOS>ATOM
  1 S        1.6590    -1.9110     2.2440 S.3   1 <1>  -0.0800 
  2 C        1.6480    -1.7510     0.4820 C.2   1 <1>  -0.0450 
  3 C        2.0430    -0.2230     2.4720 C.2   1 <1>  -0.1100 
  4 C        1.9300    -0.4570     0.1620 C.2   1 <1>  -0.1810 
  5 C        1.3770    -2.9310    -0.3050 C.2   1 <1>   0.7150 
  6 C        2.1440     0.4030     1.2870 C.2   1 <1>  -0.1810 
  7 C        2.0590     0.0680    -1.2650 C.3   1 <1>   0.0210 
  8 O        1.3680    -2.9040    -1.5220 O.2   1 <1>  -0.5700 
  9 N        1.1000    -4.1160     0.3070 N.am  1 <1>  -0.7300 
 10 C        2.4350     1.8870     1.1250 C.3   1 <1>   0.0210 
 11 C        2.0370     1.6010    -1.3430 C.3   1 <1>  -0.1600 
 12 C        0.7870    -5.3970    -0.3680 C.3   1 <1>   0.2200 
 13 C        2.9540     2.2170    -0.2790 C.3   1 <1>  -0.1600 
 14 C       -0.7030    -5.7040    -0.3020 C.3   1 <1>  -0.0800 
 15 C        1.3450    -6.5420     0.4660 C.3   1 <1>   0.1200 
 16 C       -0.8590    -6.3560     1.0760 C.3   1 <1>   0.1200 
 17 C       -1.6500    -4.5160    -0.5510 C.3   1 <1>  -0.0170 
 18 O        0.4220    -6.7300     1.4960 O.3   1 <1>  -0.5600 
 19 C       -3.1020    -4.9650    -0.5290 C.ar  1 <1>  -0.1430 
 20 C       -3.6920    -5.5710    -1.6190 C.ar  1 <1>  -0.1500 
 21 C       -3.9050    -4.7930     0.5810 C.ar  1 <1>  -0.1500 
 22 C       -5.0170    -5.9700    -1.5480 C.ar  1 <1>   0.1600 
 23 C       -5.2190    -5.2280     0.5490 C.ar  1 <1>   0.1600 
 24 N       -5.7940    -5.8150    -0.4890 N.ar  1 <1>  -0.6200 
 25 H        2.1460     0.1310     3.4820 H     1 <1>   0.1500 
 26 H        2.9910    -0.2880    -1.6660 H     1 <1>   0.0800 
 27 H        1.2670    -0.3280    -1.8760 H     1 <1>   0.0800 
 28 H        1.0860    -4.1530     1.3280 H     1 <1>   0.3700 
 29 H        1.5210     2.4290     1.2950 H     1 <1>   0.0800 
 30 H        3.1500     2.2030     1.8640 H     1 <1>   0.0800 
 31 H        2.3520     1.9110    -2.3240 H     1 <1>   0.0800 
 32 H        1.0290     1.9480    -1.1920 H     1 <1>   0.0800 
 33 H        1.1700    -5.4020    -1.3750 H     1 <1>   0.0800 
 34 H        2.9940     3.2850    -0.4040 H     1 <1>   0.0800 
 35 H        3.9510     1.8280    -0.3920 H     1 <1>   0.0800 
 36 H       -0.9130    -6.4600    -1.0380 H     1 <1>   0.0800 
 37 H        2.3140    -6.3250     0.8800 H     1 <1>   0.0800 
 38 H        1.3860    -7.4490    -0.1100 H     1 <1>   0.0800 
 39 H       -1.4850    -7.2310     1.0360 H     1 <1>   0.0800 
 40 H       -1.2470    -5.6630     1.8020 H     1 <1>   0.0800 
 41 H       -1.4270    -4.0760    -1.5080 H     1 <1>   0.0800 
 42 H       -1.5040    -3.7540     0.1940 H     1 <1>   0.0800 
 43 H       -3.1350    -5.7360    -2.5230 H     1 <1>   0.1500 
 44 H       -3.5230    -4.3240     1.4690 H     1 <1>   0.1500 
 45 H       -5.4600    -6.4410    -2.4080 H     1 <1>   0.1500 
 46 H       -5.8310    -5.0850     1.4230 H     1 <1>   0.1500 
@<TRIPOS>BOND
  1   1   2  1   
  2   1   3  1   
  3   2   4  2   
  4   2   5  1   
  5   3   6  2   
  6   3  25  1   
  7   4   6  1   
  8   4   7  1   
  9   5   8  2   
 10   5   9  am  
 11   6  10  1   
 12   7  11  1   
 13   7  26  1   
 14   7  27  1   
 15   9  12  1   
 16   9  28  1   
 17  10  13  1   
 18  10  29  1   
 19  10  30  1   
 20  11  13  1   
 21  11  31  1   
 22  11  32  1   
 23  12  14  1   
 24  12  15  1   
 25  12  33  1   
 26  13  34  1   
 27  13  35  1   
 28  14  16  1   
 29  14  17  1   
 30  14  36  1   
 31  15  18  1   
 32  15  37  1   
 33  15  38  1   
 34  16  18  1   
 35  16  39  1   
 36  16  40  1   
 37  17  19  1   
 38  17  41  1   
 39  17  42  1   
 40  19  20  ar  
 41  19  21  ar  
 42  20  22  ar  
 43  20  43  1   
 44  21  23  ar  
 45  21  44  1   
 46  22  24  ar  
 47  22  45  1   
 48  23  24  ar  
 49  23  46  1   
@<TRIPOS>SUBSTRUCTURE
  1 ****   9 GROUP 4 **** **** 0

# MOE 2024.06 (io_trps.svl 2023.06)
