@<TRIPOS>MOLECULE
NONAME
50 53 1 0 0 
SMALL
USER_CHARGES


@<TRIPOS>ATOM
  1 O        1.5370    -0.7560     1.5320 O.2   1 <1>  -0.5700 
  2 C        2.3080    -0.9490     0.6140 C.2   1 <1>   0.5690 
  3 N        2.8270     0.1120    -0.0980 N.am  1 <1>  -0.6600 
  4 C        2.7160    -2.4090     0.2810 C.3   1 <1>   0.2610 
  5 C        3.6330    -0.0460    -1.3470 C.3   1 <1>   0.1400 
  6 C        2.5020     1.5140     0.2930 C.3   1 <1>   0.1400 
  7 O        2.1220    -2.8510    -0.9100 O.3   1 <1>  -0.5600 
  8 C        2.2770    -3.4670     1.2960 C.3   1 <1>  -0.1600 
  9 C        5.1410    -0.0220    -1.0500 C.3   1 <1>   0.1100 
 10 C        3.6610     2.4980     0.0810 C.3   1 <1>  -0.1600 
 11 C        0.8530    -3.3520    -0.6390 C.3   1 <1>   0.1200 
 12 C        0.9190    -3.9200     0.7760 C.3   1 <1>  -0.1600 
 13 N        5.6660     1.3230    -0.7400 N.3   1 <1>  -0.8100 
 14 C        5.0400     1.9420     0.4450 C.3   1 <1>   0.1100 
 15 C        7.1470     1.2960    -0.6250 C.3   1 <1>   0.2900 
 16 C        7.8430     2.6630    -0.6420 C.2   1 <1>   0.2980 
 17 O        9.0830     2.7080    -0.2480 O.3   1 <1>  -0.2800 
 18 N        7.3600     3.7890    -1.0050 N.2   1 <1>  -0.3380 
 19 C        9.3380     3.9880    -0.3960 C.2   1 <1>   0.4250 
 20 N        8.3310     4.6570    -0.8430 N.2   1 <1>  -0.3380 
 21 C       10.6480     4.5100    -0.0620 C.ar  1 <1>   0.0530 
 22 C       11.6650     3.6870     0.4290 C.ar  1 <1>  -0.1500 
 23 C       10.9470     5.8650    -0.2200 C.ar  1 <1>  -0.1500 
 24 C       12.9140     4.1900     0.7470 C.ar  1 <1>  -0.1500 
 25 C       12.1940     6.3740     0.0960 C.ar  1 <1>  -0.1500 
 26 C       13.1810     5.5370     0.5810 C.ar  1 <1>  -0.1500 
 27 H        3.7810    -2.4470     0.1540 H     1 <1>   0.0800 
 28 H        3.3870    -0.9760    -1.8250 H     1 <1>   0.0800 
 29 H        3.3900     0.7350    -2.0460 H     1 <1>   0.0800 
 30 H        1.6430     1.8430    -0.2670 H     1 <1>   0.0800 
 31 H        2.2350     1.5330     1.3360 H     1 <1>   0.0800 
 32 H        2.9730    -4.2870     1.2670 H     1 <1>   0.0800 
 33 H        2.2320    -3.0850     2.3010 H     1 <1>   0.0800 
 34 H        5.6420    -0.3840    -1.9310 H     1 <1>   0.0800 
 35 H        5.3580    -0.7000    -0.2440 H     1 <1>   0.0800 
 36 H        3.6700     2.8540    -0.9340 H     1 <1>   0.0800 
 37 H        3.4670     3.3530     0.7020 H     1 <1>   0.0800 
 38 H        0.1510    -2.5370    -0.6970 H     1 <1>   0.0800 
 39 H        0.6110    -4.1020    -1.3730 H     1 <1>   0.0800 
 40 H        0.1210    -3.5080     1.3690 H     1 <1>   0.0800 
 41 H        0.8370    -4.9920     0.7690 H     1 <1>   0.0800 
 42 H        4.9720     1.2370     1.2570 H     1 <1>   0.0800 
 43 H        5.6400     2.7710     0.7770 H     1 <1>   0.0800 
 44 H        7.4180     0.7880     0.2840 H     1 <1>   0.0800 
 45 H        7.5510     0.7330    -1.4470 H     1 <1>   0.0800 
 46 H       11.4800     2.6360     0.5660 H     1 <1>   0.1500 
 47 H       10.1900     6.5310    -0.5960 H     1 <1>   0.1500 
 48 H       13.6800     3.5340     1.1230 H     1 <1>   0.1500 
 49 H       12.3960     7.4230    -0.0360 H     1 <1>   0.1500 
 50 H       14.1520     5.9310     0.8270 H     1 <1>   0.1500 
@<TRIPOS>BOND
  1   1   2  2   
  2   2   3  am  
  3   2   4  1   
  4   3   5  1   
  5   3   6  1   
  6   4   7  1   
  7   4   8  1   
  8   4  27  1   
  9   5   9  1   
 10   5  28  1   
 11   5  29  1   
 12   6  10  1   
 13   6  30  1   
 14   6  31  1   
 15   7  11  1   
 16   8  12  1   
 17   8  32  1   
 18   8  33  1   
 19   9  13  1   
 20   9  34  1   
 21   9  35  1   
 22  10  14  1   
 23  10  36  1   
 24  10  37  1   
 25  11  12  1   
 26  11  38  1   
 27  11  39  1   
 28  12  40  1   
 29  12  41  1   
 30  13  14  1   
 31  13  15  1   
 32  14  42  1   
 33  14  43  1   
 34  15  16  1   
 35  15  44  1   
 36  15  45  1   
 37  16  17  1   
 38  16  18  2   
 39  17  19  1   
 40  18  20  1   
 41  19  20  2   
 42  19  21  1   
 43  21  22  ar  
 44  21  23  ar  
 45  22  24  ar  
 46  22  46  1   
 47  23  25  ar  
 48  23  47  1   
 49  24  26  ar  
 50  24  48  1   
 51  25  26  ar  
 52  25  49  1   
 53  26  50  1   
@<TRIPOS>SUBSTRUCTURE
  1 ****  13 GROUP 4 **** **** 0

# MOE 2024.06 (io_trps.svl 2023.06)
