@<TRIPOS>MOLECULE
NONAME
48 52 1 0 0 
SMALL
USER_CHARGES


@<TRIPOS>ATOM
  1 O        0.0150     1.0960     0.1980 O.2   1 <1>  -0.5700 
  2 C       -0.7650     1.9660     0.5100 C.2   1 <1>   0.6300 
  3 N       -2.0660     1.9510     0.0780 N.am  1 <1>  -0.6600 
  4 C       -0.2670     3.0840     1.4240 C.3   1 <1>  -0.1000 
  5 C       -3.0900     2.9860     0.4250 C.3   1 <1>   0.1400 
  6 C       -2.5590     0.7900    -0.7230 C.3   1 <1>   0.1400 
  7 C        0.1440     4.4180     0.8680 C.3   1 <1>  -0.2000 
  8 C        1.1760     3.5040     1.4470 C.3   1 <1>  -0.2000 
  9 C       -3.8020     3.5340    -0.8340 C.3   1 <1>   0.1440 
 10 C       -3.9780     1.0140    -1.2700 C.3   1 <1>  -0.1600 
 11 C       -5.0510     4.2550    -0.3570 C.ar  1 <1>   0.1670 
 12 C       -4.1130     2.4210    -1.8710 C.3   1 <1>  -0.1600 
 13 C       -2.9960     4.6900    -1.4820 C.3   1 <1>  -0.1600 
 14 N       -6.1530     3.6770     0.0550 N.ar  1 <1>  -0.6200 
 15 C       -4.8920     5.6070    -0.3820 C.ar  1 <1>  -0.1440 
 16 C       -3.5240     6.0020    -0.8770 C.3   1 <1>  -0.0170 
 17 C       -7.1390     4.4980     0.4390 C.ar  1 <1>   0.6200 
 18 C       -5.9450     6.3810     0.0310 C.ar  1 <1>   0.1600 
 19 N       -7.0680     5.8380     0.4400 N.ar  1 <1>  -0.6200 
 20 C       -8.3830     3.8880     0.8920 C.ar  1 <1>   0.0000 
 21 C       -9.6080     4.5540     0.7870 C.ar  1 <1>  -0.1500 
 22 C       -8.4110     2.6070     1.4540 C.ar  1 <1>  -0.1500 
 23 C      -10.7910     3.9780     1.2140 C.ar  1 <1>  -0.1500 
 24 C       -9.5900     2.0240     1.8830 C.ar  1 <1>  -0.1500 
 25 C      -10.7840     2.7100     1.7650 C.ar  1 <1>  -0.1500 
 26 H       -0.7630     3.0560     2.3770 H     1 <1>   0.1000 
 27 H       -2.6580     3.8000     0.9760 H     1 <1>   0.0800 
 28 H       -3.8220     2.5230     1.0660 H     1 <1>   0.0800 
 29 H       -2.5390    -0.0970    -0.1110 H     1 <1>   0.0800 
 30 H       -1.8820     0.6360    -1.5470 H     1 <1>   0.0800 
 31 H       -0.1170     5.3110     1.4090 H     1 <1>   0.1000 
 32 H        0.1600     4.5670    -0.1980 H     1 <1>   0.1000 
 33 H        1.8620     3.0010     0.7860 H     1 <1>   0.1000 
 34 H        1.6240     3.7490     2.3940 H     1 <1>   0.1000 
 35 H       -4.6970     0.8820    -0.4810 H     1 <1>   0.0800 
 36 H       -4.1870     0.2740    -2.0220 H     1 <1>   0.0800 
 37 H       -3.4220     2.4840    -2.6930 H     1 <1>   0.0800 
 38 H       -5.1030     2.5540    -2.2720 H     1 <1>   0.0800 
 39 H       -3.1980     4.7200    -2.5390 H     1 <1>   0.0800 
 40 H       -1.9360     4.5740    -1.3470 H     1 <1>   0.0800 
 41 H       -3.5740     6.7860    -1.6130 H     1 <1>   0.0800 
 42 H       -2.9120     6.3130    -0.0480 H     1 <1>   0.0800 
 43 H       -5.8670     7.4550     0.0270 H     1 <1>   0.1500 
 44 H       -9.6340     5.5410     0.3600 H     1 <1>   0.1500 
 45 H       -7.4920     2.0570     1.5550 H     1 <1>   0.1500 
 46 H      -11.7170     4.5180     1.1190 H     1 <1>   0.1500 
 47 H       -9.5780     1.0370     2.3100 H     1 <1>   0.1500 
 48 H      -11.7030     2.2590     2.0980 H     1 <1>   0.1500 
@<TRIPOS>BOND
  1   1   2  2   
  2   2   3  am  
  3   2   4  1   
  4   3   5  1   
  5   3   6  1   
  6   4   7  1   
  7   4   8  1   
  8   4  26  1   
  9   5   9  1   
 10   5  27  1   
 11   5  28  1   
 12   6  10  1   
 13   6  29  1   
 14   6  30  1   
 15   7   8  1   
 16   7  31  1   
 17   7  32  1   
 18   8  33  1   
 19   8  34  1   
 20   9  11  1   
 21   9  12  1   
 22   9  13  1   
 23  10  12  1   
 24  10  35  1   
 25  10  36  1   
 26  11  14  ar  
 27  11  15  ar  
 28  12  37  1   
 29  12  38  1   
 30  13  16  1   
 31  13  39  1   
 32  13  40  1   
 33  14  17  ar  
 34  15  16  1   
 35  15  18  ar  
 36  16  41  1   
 37  16  42  1   
 38  17  19  ar  
 39  17  20  1   
 40  18  19  ar  
 41  18  43  1   
 42  20  21  ar  
 43  20  22  ar  
 44  21  23  ar  
 45  21  44  1   
 46  22  24  ar  
 47  22  45  1   
 48  23  25  ar  
 49  23  46  1   
 50  24  25  ar  
 51  24  47  1   
 52  25  48  1   
@<TRIPOS>SUBSTRUCTURE
  1 ****  11 GROUP 4 **** **** 0

# MOE 2024.06 (io_trps.svl 2023.06)
