@<TRIPOS>MOLECULE
NONAME
50 52 1 0 0 
SMALL
USER_CHARGES


@<TRIPOS>ATOM
  1 O       -4.6770     4.3350    -0.3020 O.2   1 <1>  -0.5700 
  2 C       -3.8560     3.4720    -0.4900 C.2   1 <1>   0.5690 
  3 N       -3.5020     2.5270     0.4040 N.am  1 <1>  -0.6600 
  4 C       -3.1310     3.2950    -1.7940 C.3   1 <1>  -0.0990 
  5 C       -2.5670     1.5390    -0.1670 C.3   1 <1>   0.1400 
  6 C       -4.0870     2.3490     1.7740 C.3   1 <1>   0.2010 
  7 C       -2.1520     2.1370    -1.5230 C.3   1 <1>   0.0640 
  8 C       -4.6840     0.9530     1.9890 C.2   1 <1>   0.5690 
  9 C       -0.7030     2.6220    -1.4910 C.ar  1 <1>  -0.1440 
 10 O       -4.1120     0.2160     2.7630 O.2   1 <1>  -0.5700 
 11 N       -5.7900     0.5230     1.2930 N.am  1 <1>  -0.6600 
 12 C       -0.2860     3.5740    -0.5700 C.ar  1 <1>  -0.1500 
 13 C        0.2190     2.1080    -2.3920 C.ar  1 <1>  -0.1500 
 14 C       -6.0530    -0.9320     1.1540 C.3   1 <1>   0.3200 
 15 C       -6.6370     1.4110     0.4280 C.3   1 <1>   0.1400 
 16 C        1.0290     4.0040    -0.5500 C.ar  1 <1>  -0.1500 
 17 C        1.5350     2.5380    -2.3730 C.ar  1 <1>  -0.1500 
 18 C       -4.9880    -1.5160     0.2500 C.2   1 <1>  -0.3320 
 19 C       -8.0680     1.5280     0.9710 C.3   1 <1>   0.1200 
 20 C        1.9410     3.4860    -1.4510 C.ar  1 <1>  -0.1500 
 21 N       -3.7400    -1.7670     0.6860 N.pl3 1 <1>   0.0330 
 22 C       -5.0100    -1.8660    -1.0540 C.2   1 <1>   0.0770 
 23 O       -8.0290     1.7720     2.3350 O.3   1 <1>  -0.6800 
 24 C       -3.0750    -2.2420    -0.3880 C.2   1 <1>   0.0060 
 25 N       -3.8040    -2.3150    -1.4520 N.2   1 <1>  -0.5650 
 26 C       -1.6150    -2.6360    -0.3350 C.3   1 <1>  -0.0600 
 27 H       -2.6270     4.2030    -2.0710 H     1 <1>   0.0800 
 28 H       -3.8390     3.0280    -2.5550 H     1 <1>   0.0800 
 29 H       -3.0810     0.6080    -0.3230 H     1 <1>   0.0800 
 30 H       -1.7210     1.3880     0.4820 H     1 <1>   0.0800 
 31 H       -4.8460     3.0900     1.9480 H     1 <1>   0.0800 
 32 H       -3.3100     2.5040     2.5010 H     1 <1>   0.0800 
 33 H       -2.2600     1.3830    -2.2820 H     1 <1>   0.0800 
 34 H       -0.9830     3.9880     0.1380 H     1 <1>   0.1500 
 35 H       -0.0790     1.3700    -3.1160 H     1 <1>   0.1500 
 36 H       -7.0260    -1.0990     0.7290 H     1 <1>   0.0800 
 37 H       -6.0210    -1.4060     2.1210 H     1 <1>   0.0800 
 38 H       -6.6580     1.0230    -0.5750 H     1 <1>   0.0800 
 39 H       -6.2300     2.4030     0.3730 H     1 <1>   0.0800 
 40 H        1.3410     4.7420     0.1680 H     1 <1>   0.1500 
 41 H        2.2430     2.1340    -3.0760 H     1 <1>   0.1500 
 42 H       -8.6140     0.6150     0.8090 H     1 <1>   0.0800 
 43 H       -8.5950     2.3390     0.4970 H     1 <1>   0.0800 
 44 H        2.9640     3.8210    -1.4370 H     1 <1>   0.1500 
 45 H       -3.3820    -1.5730     1.6310 H     1 <1>   0.2700 
 46 H       -5.8360    -1.8130    -1.7430 H     1 <1>   0.1500 
 47 H       -7.3430     1.2000     2.7390 H     1 <1>   0.4000 
 48 H       -1.4730    -3.4230     0.3830 H     1 <1>   0.0800 
 49 H       -1.0130    -1.7890    -0.0610 H     1 <1>   0.0800 
 50 H       -1.2990    -2.9890    -1.3000 H     1 <1>   0.0800 
@<TRIPOS>BOND
  1   1   2  2   
  2   2   3  am  
  3   2   4  1   
  4   3   5  1   
  5   3   6  1   
  6   4   7  1   
  7   4  27  1   
  8   4  28  1   
  9   5   7  1   
 10   5  29  1   
 11   5  30  1   
 12   6   8  1   
 13   6  31  1   
 14   6  32  1   
 15   7   9  1   
 16   7  33  1   
 17   8  10  2   
 18   8  11  am  
 19   9  12  ar  
 20   9  13  ar  
 21  11  14  1   
 22  11  15  1   
 23  12  16  ar  
 24  12  34  1   
 25  13  17  ar  
 26  13  35  1   
 27  14  18  1   
 28  14  36  1   
 29  14  37  1   
 30  15  19  1   
 31  15  38  1   
 32  15  39  1   
 33  16  20  ar  
 34  16  40  1   
 35  17  20  ar  
 36  17  41  1   
 37  18  21  1   
 38  18  22  2   
 39  19  23  1   
 40  19  42  1   
 41  19  43  1   
 42  20  44  1   
 43  21  24  1   
 44  21  45  1   
 45  22  25  1   
 46  22  46  1   
 47  23  47  1   
 48  24  25  2   
 49  24  26  1   
 50  26  48  1   
 51  26  49  1   
 52  26  50  1   
@<TRIPOS>SUBSTRUCTURE
  1 ****   5 GROUP 4 **** **** 0

# MOE 2024.06 (io_trps.svl 2023.06)
