@<TRIPOS>MOLECULE
NONAME
44 47 1 0 0 
SMALL
USER_CHARGES


@<TRIPOS>ATOM
  1 S        0.5810    -1.5120     2.7070 S.3   1 <1>  -0.0800 
  2 C        0.1610    -1.7050     1.0070 C.2   1 <1>   0.3250 
  3 C       -1.0900    -1.3680     3.1180 C.2   1 <1>  -0.1100 
  4 N       -1.1210    -1.6550     0.8310 N.2   1 <1>  -0.5650 
  5 C        1.2390    -1.8820     0.0390 C.ar  1 <1>   0.6730 
  6 C       -1.8540    -1.4590     2.0090 C.2   1 <1>   0.1410 
  7 N        0.9150    -1.9190    -1.2630 N.ar  1 <1>  -0.6200 
  8 N        2.4960    -1.9960     0.4990 N.ar  1 <1>  -0.6200 
  9 C       -3.3160    -1.3950     2.0260 C.2   1 <1>   0.7160 
 10 C        1.8890    -2.0800    -2.1250 C.ar  1 <1>   0.1600 
 11 C        3.4510    -2.1550    -0.3850 C.ar  1 <1>   0.1600 
 12 O       -3.8970    -1.7420     3.0420 O.2   1 <1>  -0.5700 
 13 N       -4.0870    -0.9570     0.9630 N.am  1 <1>  -0.6600 
 14 C        3.1960    -2.2050    -1.7310 C.ar  1 <1>  -0.1500 
 15 C       -5.5120    -1.3690     0.8080 C.3   1 <1>   0.1400 
 16 C       -3.5880    -0.1320    -0.1690 C.3   1 <1>   0.1400 
 17 C       -5.6990    -2.2090    -0.4820 C.3   1 <1>   0.0000 
 18 C       -3.7220    -0.9240    -1.4740 C.3   1 <1>  -0.1600 
 19 C       -7.1660    -2.6390    -0.6890 C.3   1 <1>   0.2000 
 20 C       -5.1650    -1.4130    -1.6940 C.3   1 <1>  -0.1600 
 21 C       -4.9980    -3.5730    -0.3390 C.3   1 <1>  -0.1600 
 22 O       -8.0780    -1.6730    -0.2980 O.3   1 <1>  -0.6800 
 23 C       -7.3740    -3.9180     0.1260 C.3   1 <1>  -0.1600 
 24 C       -5.9720    -4.4500     0.4510 C.3   1 <1>  -0.1600 
 25 H       -1.3570    -1.2340     4.1500 H     1 <1>   0.1500 
 26 H        1.6360    -2.1130    -3.1720 H     1 <1>   0.1500 
 27 H        4.4630    -2.2480    -0.0250 H     1 <1>   0.1500 
 28 H        3.9860    -2.3370    -2.4460 H     1 <1>   0.1500 
 29 H       -5.8400    -1.9310     1.6650 H     1 <1>   0.0800 
 30 H       -6.1110    -0.4770     0.7530 H     1 <1>   0.0800 
 31 H       -4.1840     0.7620    -0.2320 H     1 <1>   0.0800 
 32 H       -2.5690     0.1710    -0.0160 H     1 <1>   0.0800 
 33 H       -3.4230    -0.3000    -2.2970 H     1 <1>   0.0800 
 34 H       -3.0450    -1.7610    -1.4420 H     1 <1>   0.0800 
 35 H       -7.3380    -2.8490    -1.7320 H     1 <1>   0.0800 
 36 H       -5.2070    -2.0160    -2.5850 H     1 <1>   0.0800 
 37 H       -5.8010    -0.5580    -1.8520 H     1 <1>   0.0800 
 38 H       -4.8540    -4.0090    -1.3120 H     1 <1>   0.0800 
 39 H       -4.0390    -3.5080     0.1450 H     1 <1>   0.0800 
 40 H       -8.0950    -1.6070     0.6750 H     1 <1>   0.4000 
 41 H       -7.9130    -3.7300     1.0380 H     1 <1>   0.0800 
 42 H       -7.9170    -4.6360    -0.4640 H     1 <1>   0.0800 
 43 H       -5.7790    -4.3390     1.5050 H     1 <1>   0.0800 
 44 H       -5.8660    -5.4880     0.1880 H     1 <1>   0.0800 
@<TRIPOS>BOND
  1   1   2  1   
  2   1   3  1   
  3   2   4  2   
  4   2   5  1   
  5   3   6  2   
  6   3  25  1   
  7   4   6  1   
  8   5   7  ar  
  9   5   8  ar  
 10   6   9  1   
 11   7  10  ar  
 12   8  11  ar  
 13   9  12  2   
 14   9  13  am  
 15  10  14  ar  
 16  10  26  1   
 17  11  14  ar  
 18  11  27  1   
 19  13  15  1   
 20  13  16  1   
 21  14  28  1   
 22  15  17  1   
 23  15  29  1   
 24  15  30  1   
 25  16  18  1   
 26  16  31  1   
 27  16  32  1   
 28  17  19  1   
 29  17  20  1   
 30  17  21  1   
 31  18  20  1   
 32  18  33  1   
 33  18  34  1   
 34  19  22  1   
 35  19  23  1   
 36  19  35  1   
 37  20  36  1   
 38  20  37  1   
 39  21  24  1   
 40  21  38  1   
 41  21  39  1   
 42  22  40  1   
 43  23  24  1   
 44  23  41  1   
 45  23  42  1   
 46  24  43  1   
 47  24  44  1   
@<TRIPOS>SUBSTRUCTURE
  1 ****   4 GROUP 4 **** **** 0

# MOE 2024.06 (io_trps.svl 2023.06)
