@<TRIPOS>MOLECULE
NONAME
24 25 1 0 0 
SMALL
USER_CHARGES


@<TRIPOS>ATOM
  1 O        0.4020     0.2430     0.1350 O.2   1 <1>  -0.5700 
  2 C        1.4570     0.8430     0.0820 C.2   1 <1>   0.8410 
  3 N        2.6460     0.1760     0.1090 N.2   1 <1>  -0.6610 
  4 N        1.4320     2.1990    -0.0030 N.am  1 <1>  -0.5390 
  5 C        3.7280     0.8690     0.0490 C.2   1 <1>   0.3750 
  6 C        2.5620     2.9560    -0.0780 C.2   1 <1>  -0.0290 
  7 C        3.7530     2.2960    -0.0470 C.2   1 <1>  -0.1240 
  8 C        5.0230     0.0690     0.1090 C.3   1 <1>  -0.0990 
  9 C        2.3390     4.4550    -0.2000 C.3   1 <1>  -0.1020 
 10 C        5.0860     3.0450    -0.1320 C.3   1 <1>  -0.0220 
 11 C        6.2610     0.8400    -0.3590 C.3   1 <1>  -0.1600 
 12 C        6.2930     2.2130     0.3090 C.3   1 <1>  -0.1600 
 13 H        0.4920     2.5900    -0.0150 H     1 <1>   0.3700 
 14 H        4.9150    -0.8210    -0.4870 H     1 <1>   0.0800 
 15 H        5.1650    -0.2420     1.1280 H     1 <1>   0.0800 
 16 H        1.6600     4.6570    -1.0090 H     1 <1>   0.0800 
 17 H        3.2500     4.9870    -0.3960 H     1 <1>   0.0800 
 18 H        1.9120     4.8340     0.7110 H     1 <1>   0.0800 
 19 H        5.0500     3.9300     0.4780 H     1 <1>   0.0800 
 20 H        5.2320     3.3530    -1.1530 H     1 <1>   0.0800 
 21 H        6.2340     0.9560    -1.4290 H     1 <1>   0.0800 
 22 H        7.1480     0.2850    -0.1060 H     1 <1>   0.0800 
 23 H        6.2790     2.0950     1.3800 H     1 <1>   0.0800 
 24 H        7.2000     2.7280     0.0440 H     1 <1>   0.0800 
@<TRIPOS>BOND
  1   1   2  2   
  2   2   3  1   
  3   2   4  am  
  4   3   5  2   
  5   4   6  1   
  6   4  13  1   
  7   5   7  1   
  8   5   8  1   
  9   6   7  2   
 10   6   9  1   
 11   7  10  1   
 12   8  11  1   
 13   8  14  1   
 14   8  15  1   
 15   9  16  1   
 16   9  17  1   
 17   9  18  1   
 18  10  12  1   
 19  10  19  1   
 20  10  20  1   
 21  11  12  1   
 22  11  21  1   
 23  11  22  1   
 24  12  23  1   
 25  12  24  1   
@<TRIPOS>SUBSTRUCTURE
  1 ****   7 GROUP 4 **** **** 0

# MOE 2024.06 (io_trps.svl 2023.06)
