@<TRIPOS>MOLECULE
NONAME
49 51 1 0 0 
SMALL
USER_CHARGES


@<TRIPOS>ATOM
  1 CL      -1.4010     1.4770    -2.1930 Cl    1 <1>  -0.1770 
  2 C       -0.7370     2.2080    -0.7500 C.ar  1 <1>   0.1770 
  3 C       -1.5480     2.4480     0.3510 C.ar  1 <1>  -0.1440 
  4 C        0.6100     2.5340    -0.7510 C.ar  1 <1>  -0.1500 
  5 C       -0.9420     3.0330     1.4540 C.ar  1 <1>   0.1900 
  6 C       -3.0300     2.0700     0.3380 C.3   1 <1>   0.0450 
  7 C        1.1830     3.1160     0.3690 C.ar  1 <1>  -0.1500 
  8 F       -1.6520     3.2910     2.5200 F     1 <1>  -0.1900 
  9 C        0.4000     3.3690     1.4830 C.ar  1 <1>  -0.1500 
 10 C       -3.2290     0.5590     0.3800 C.2   1 <1>   0.5690 
 11 O       -2.5870    -0.0870     1.1750 O.2   1 <1>  -0.5700 
 12 N       -4.1230    -0.0730    -0.4480 N.am  1 <1>  -0.6600 
 13 C       -4.0380    -1.5460    -0.6300 C.3   1 <1>   0.1400 
 14 C       -5.4010     0.5220    -0.9250 C.3   1 <1>   0.1400 
 15 C       -5.1690    -2.2180     0.1760 C.3   1 <1>   0.4230 
 16 C       -6.5490    -0.1290    -0.1400 C.3   1 <1>  -0.1600 
 17 N       -5.0710    -3.7370     0.2300 N.4   1 <1>  -0.9590 
 18 C       -6.5750    -1.6840    -0.2370 C.3   1 <1>   0.0000 
 19 C       -6.3450    -4.4190     0.6300 C.3   1 <1>   0.3430 
 20 C       -4.4990    -4.3920    -0.9920 C.3   1 <1>   0.2630 
 21 C       -7.6420    -2.2290     0.7580 C.3   1 <1>  -0.1600 
 22 C       -6.9120    -2.1260    -1.6910 C.3   1 <1>   0.1200 
 23 C       -7.2050    -3.5060     1.5020 C.3   1 <1>  -0.1600 
 24 O       -8.0540    -1.5020    -2.1640 O.3   1 <1>  -0.6800 
 25 H        1.2040     2.3300    -1.6240 H     1 <1>   0.1500 
 26 H       -3.4660     2.4780    -0.5530 H     1 <1>   0.0800 
 27 H       -3.5450     2.4990     1.1760 H     1 <1>   0.0800 
 28 H        2.2300     3.3690     0.3740 H     1 <1>   0.1500 
 29 H        0.8210     3.8190     2.3650 H     1 <1>   0.1500 
 30 H       -4.1120    -1.7650    -1.6790 H     1 <1>   0.0800 
 31 H       -3.0840    -1.9020    -0.2810 H     1 <1>   0.0800 
 32 H       -5.4220     1.5840    -0.7620 H     1 <1>   0.0800 
 33 H       -5.5130     0.3470    -1.9830 H     1 <1>   0.0800 
 34 H       -5.0250    -1.8740     1.1870 H     1 <1>   0.0800 
 35 H       -6.4390     0.1690     0.8890 H     1 <1>   0.0800 
 36 H       -7.4800     0.2890    -0.4800 H     1 <1>   0.0800 
 37 H       -4.4030    -3.9140     0.9970 H     1 <1>   0.4500 
 38 H       -6.9100    -4.6800    -0.2500 H     1 <1>   0.0800 
 39 H       -6.1210    -5.3300     1.1630 H     1 <1>   0.0800 
 40 H       -5.1260    -4.2080    -1.8490 H     1 <1>   0.0800 
 41 H       -4.4270    -5.4580    -0.8440 H     1 <1>   0.0800 
 42 H       -3.5110    -4.0140    -1.1970 H     1 <1>   0.0800 
 43 H       -7.8770    -1.4890     1.5050 H     1 <1>   0.0800 
 44 H       -8.5640    -2.4270     0.2390 H     1 <1>   0.0800 
 45 H       -7.0760    -3.1870    -1.7540 H     1 <1>   0.0800 
 46 H       -6.1240    -1.8650    -2.3730 H     1 <1>   0.0800 
 47 H       -8.0820    -4.0440     1.8220 H     1 <1>   0.0800 
 48 H       -6.6550    -3.2480     2.3910 H     1 <1>   0.0800 
 49 H       -8.8520    -1.7520    -1.6570 H     1 <1>   0.4000 
@<TRIPOS>BOND
  1   1   2  1   
  2   2   3  ar  
  3   2   4  ar  
  4   3   5  ar  
  5   3   6  1   
  6   4   7  ar  
  7   4  25  1   
  8   5   8  1   
  9   5   9  ar  
 10   6  10  1   
 11   6  26  1   
 12   6  27  1   
 13   7   9  ar  
 14   7  28  1   
 15   9  29  1   
 16  10  11  2   
 17  10  12  am  
 18  12  13  1   
 19  12  14  1   
 20  13  15  1   
 21  13  30  1   
 22  13  31  1   
 23  14  16  1   
 24  14  32  1   
 25  14  33  1   
 26  15  17  1   
 27  15  18  1   
 28  15  34  1   
 29  16  18  1   
 30  16  35  1   
 31  16  36  1   
 32  17  19  1   
 33  17  20  1   
 34  17  37  1   
 35  18  21  1   
 36  18  22  1   
 37  19  23  1   
 38  19  38  1   
 39  19  39  1   
 40  20  40  1   
 41  20  41  1   
 42  20  42  1   
 43  21  23  1   
 44  21  43  1   
 45  21  44  1   
 46  22  24  1   
 47  22  45  1   
 48  22  46  1   
 49  23  47  1   
 50  23  48  1   
 51  24  49  1   
@<TRIPOS>SUBSTRUCTURE
  1 ****  12 GROUP 4 **** **** 0

# MOE 2024.06 (io_trps.svl 2023.06)
