@<TRIPOS>MOLECULE
NONAME
46 47 1 0 0 
SMALL
USER_CHARGES


@<TRIPOS>ATOM
  1 S        0.3960     0.1490    -0.4850 S.o2  1 <1>   1.3330 
  2 O        1.8210     0.2290    -0.7190 O.2   1 <1>  -0.6500 
  3 O       -0.4980    -0.0080    -1.6110 O.2   1 <1>  -0.6500 
  4 N        0.1180    -1.1280     0.5970 N.am  1 <1>  -0.8490 
  5 C       -0.1390     1.5890     0.4350 C.3   1 <1>  -0.0550 
  6 C        1.1750    -1.2810     1.6020 C.3   1 <1>   0.1160 
  7 C       -0.1000    -2.4020    -0.0960 C.3   1 <1>   0.1160 
  8 C       -0.0610     2.8910    -0.3870 C.3   1 <1>  -0.0800 
  9 C       -0.6560     4.1160     0.3060 C.3   1 <1>   0.2000 
 10 C        1.3730     3.3150    -0.7560 C.3   1 <1>   0.1100 
 11 O       -0.2750     4.1130     1.6360 O.3   1 <1>  -0.6800 
 12 C        0.0920     5.2560    -0.3710 C.3   1 <1>   0.1100 
 13 N        1.4710     4.7550    -0.4680 N.3   1 <1>  -0.8100 
 14 C        2.2870     5.4910    -1.4620 C.3   1 <1>   0.2900 
 15 C        2.3720     6.9860    -1.1730 C.2   1 <1>   0.2980 
 16 O        2.9780     7.4220    -0.1160 O.3   1 <1>  -0.2800 
 17 N        1.8890     7.9360    -1.8810 N.2   1 <1>  -0.3380 
 18 C        2.8460     8.7060    -0.1910 C.2   1 <1>   0.2980 
 19 N        2.1980     9.0630    -1.2370 N.2   1 <1>  -0.3380 
 20 C        3.4390     9.5840     0.9110 C.3   1 <1>   0.1000 
 21 C        2.9590    11.0410     0.8200 C.3   1 <1>  -0.2400 
 22 C        4.9730     9.5370     0.8740 C.3   1 <1>  -0.2400 
 23 H       -1.1550     1.4420     0.7450 H     1 <1>   0.0800 
 24 H        0.4590     1.6890     1.3190 H     1 <1>   0.0800 
 25 H        0.9040    -2.0480     2.3080 H     1 <1>   0.0800 
 26 H        1.3120    -0.3590     2.1410 H     1 <1>   0.0800 
 27 H        2.1070    -1.5500     1.1320 H     1 <1>   0.0800 
 28 H       -0.2920    -3.1860     0.6160 H     1 <1>   0.0800 
 29 H        0.7640    -2.6600    -0.6850 H     1 <1>   0.0800 
 30 H       -0.9540    -2.3250    -0.7480 H     1 <1>   0.0800 
 31 H       -0.6020     2.7440    -1.3060 H     1 <1>   0.0800 
 32 H       -1.7280     4.1870     0.2410 H     1 <1>   0.0800 
 33 H        1.5580     3.1060    -1.7970 H     1 <1>   0.0800 
 34 H        2.1040     2.7920    -0.1630 H     1 <1>   0.0800 
 35 H        0.6810     4.3430     1.6440 H     1 <1>   0.4000 
 36 H        0.0360     6.1690     0.1990 H     1 <1>   0.0800 
 37 H       -0.3160     5.4230    -1.3540 H     1 <1>   0.0800 
 38 H        3.2850     5.0900    -1.4650 H     1 <1>   0.0800 
 39 H        1.8690     5.3570    -2.4450 H     1 <1>   0.0800 
 40 H        3.1080     9.1820     1.8530 H     1 <1>   0.0800 
 41 H        3.2760    11.4830    -0.1090 H     1 <1>   0.0800 
 42 H        3.3560    11.6210     1.6340 H     1 <1>   0.0800 
 43 H        1.8850    11.0780     0.8650 H     1 <1>   0.0800 
 44 H        5.3340     9.9170    -0.0650 H     1 <1>   0.0800 
 45 H        5.3140     8.5230     0.9870 H     1 <1>   0.0800 
 46 H        5.3870    10.1280     1.6710 H     1 <1>   0.0800 
@<TRIPOS>BOND
  1   1   2  2   
  2   1   3  2   
  3   1   4  am  
  4   1   5  1   
  5   4   6  1   
  6   4   7  1   
  7   5   8  1   
  8   5  23  1   
  9   5  24  1   
 10   6  25  1   
 11   6  26  1   
 12   6  27  1   
 13   7  28  1   
 14   7  29  1   
 15   7  30  1   
 16   8   9  1   
 17   8  10  1   
 18   8  31  1   
 19   9  11  1   
 20   9  12  1   
 21   9  32  1   
 22  10  13  1   
 23  10  33  1   
 24  10  34  1   
 25  11  35  1   
 26  12  13  1   
 27  12  36  1   
 28  12  37  1   
 29  13  14  1   
 30  14  15  1   
 31  14  38  1   
 32  14  39  1   
 33  15  16  1   
 34  15  17  2   
 35  16  18  1   
 36  17  19  1   
 37  18  19  2   
 38  18  20  1   
 39  20  21  1   
 40  20  22  1   
 41  20  40  1   
 42  21  41  1   
 43  21  42  1   
 44  21  43  1   
 45  22  44  1   
 46  22  45  1   
 47  22  46  1   
@<TRIPOS>SUBSTRUCTURE
  1 ****  13 GROUP 4 **** **** 0

# MOE 2024.06 (io_trps.svl 2023.06)
