@<TRIPOS>MOLECULE
NONAME
43 45 1 0 0 
SMALL
USER_CHARGES


@<TRIPOS>ATOM
  1 S       -0.5390     0.5300    -0.9740 S.o2  1 <1>   1.4150 
  2 O       -1.7830    -0.0670    -1.4180 O.2   1 <1>  -0.6500 
  3 O        0.2990     1.2060    -1.9380 O.2   1 <1>  -0.6500 
  4 N       -0.9380     1.6530     0.2350 N.am  1 <1>  -0.8490 
  5 C        0.4720    -0.6870    -0.0950 C.3   1 <1>  -0.0770 
  6 C       -1.7860     1.1040     1.3120 C.3   1 <1>   0.1960 
  7 C       -1.3890     2.9440    -0.3010 C.3   1 <1>   0.1960 
  8 C        0.7160    -2.0800    -0.6000 C.3   1 <1>  -0.2000 
  9 C       -0.0860    -1.8680     0.6500 C.3   1 <1>  -0.2000 
 10 C       -2.9680     2.0090     1.6800 C.3   1 <1>  -0.1600 
 11 C       -2.8570     2.8570    -0.7220 C.3   1 <1>  -0.1600 
 12 C       -3.7850     2.4530     0.4480 C.3   1 <1>   0.2800 
 13 O       -4.4160     3.6480     0.8550 O.3   1 <1>  -0.5600 
 14 C       -4.8460     1.3720     0.0610 C.3   1 <1>   0.2000 
 15 C       -5.7860     3.8440     0.6100 C.3   1 <1>   0.1200 
 16 O       -4.3000     0.1280    -0.2930 O.3   1 <1>  -0.6800 
 17 C       -5.8930     1.8780    -0.9760 C.3   1 <1>   0.2800 
 18 C       -6.1470     3.3840    -0.8050 C.3   1 <1>  -0.1600 
 19 O       -7.0760     1.2300    -0.6860 O.3   1 <1>  -0.6800 
 20 C       -5.6100     1.5430    -2.4480 C.3   1 <1>  -0.2400 
 21 H        1.3270    -0.2220     0.3580 H     1 <1>   0.1000 
 22 H       -2.1700     0.1380     1.0350 H     1 <1>   0.0800 
 23 H       -1.1740     0.9570     2.1860 H     1 <1>   0.0800 
 24 H       -1.2760     3.7030     0.4560 H     1 <1>   0.0800 
 25 H       -0.7790     3.2410    -1.1380 H     1 <1>   0.0800 
 26 H        0.2030    -2.4020    -1.4910 H     1 <1>   0.1000 
 27 H        1.7090    -2.4880    -0.5250 H     1 <1>   0.1000 
 28 H        0.3490    -2.1360     1.5980 H     1 <1>   0.1000 
 29 H       -1.1430    -2.0700     0.6060 H     1 <1>   0.1000 
 30 H       -2.5800     2.8730     2.1900 H     1 <1>   0.0800 
 31 H       -3.6030     1.4900     2.3750 H     1 <1>   0.0800 
 32 H       -2.9250     2.1530    -1.5250 H     1 <1>   0.0800 
 33 H       -3.1560     3.8090    -1.1200 H     1 <1>   0.0800 
 34 H       -5.3910     1.1770     0.9680 H     1 <1>   0.0800 
 35 H       -6.3480     3.2970     1.3470 H     1 <1>   0.0800 
 36 H       -5.9900     4.8940     0.7300 H     1 <1>   0.0800 
 37 H       -3.5220     0.2160    -0.9000 H     1 <1>   0.4000 
 38 H       -5.5470     3.9480    -1.4960 H     1 <1>   0.0800 
 39 H       -7.1770     3.6140    -1.0180 H     1 <1>   0.0800 
 40 H       -6.9060     0.2670    -0.7220 H     1 <1>   0.4000 
 41 H       -4.7300     2.0480    -2.7970 H     1 <1>   0.0800 
 42 H       -6.4340     1.8620    -3.0610 H     1 <1>   0.0800 
 43 H       -5.4670     0.4860    -2.5840 H     1 <1>   0.0800 
@<TRIPOS>BOND
  1   1   2  2   
  2   1   3  2   
  3   1   4  am  
  4   1   5  1   
  5   4   6  1   
  6   4   7  1   
  7   5   8  1   
  8   5   9  1   
  9   5  21  1   
 10   6  10  1   
 11   6  22  1   
 12   6  23  1   
 13   7  11  1   
 14   7  24  1   
 15   7  25  1   
 16   8   9  1   
 17   8  26  1   
 18   8  27  1   
 19   9  28  1   
 20   9  29  1   
 21  10  12  1   
 22  10  30  1   
 23  10  31  1   
 24  11  12  1   
 25  11  32  1   
 26  11  33  1   
 27  12  13  1   
 28  12  14  1   
 29  13  15  1   
 30  14  16  1   
 31  14  17  1   
 32  14  34  1   
 33  15  18  1   
 34  15  35  1   
 35  15  36  1   
 36  16  37  1   
 37  17  18  1   
 38  17  19  1   
 39  17  20  1   
 40  18  38  1   
 41  18  39  1   
 42  19  40  1   
 43  20  41  1   
 44  20  42  1   
 45  20  43  1   
@<TRIPOS>SUBSTRUCTURE
  1 ****  12 GROUP 4 **** **** 0

# MOE 2024.06 (io_trps.svl 2023.06)
