@<TRIPOS>MOLECULE
NONAME
54 57 1 0 0 
SMALL
USER_CHARGES


@<TRIPOS>ATOM
  1 CL      -1.0200     0.1550     0.7650 Cl    1 <1>  -0.1770 
  2 C       -2.0320    -1.1640     0.2380 C.ar  1 <1>   0.1770 
  3 C       -3.4020    -0.9930     0.2090 C.ar  1 <1>  -0.1500 
  4 C       -1.4450    -2.3560    -0.1390 C.ar  1 <1>  -0.1500 
  5 C       -4.2380    -2.0290    -0.2070 C.ar  1 <1>   0.0530 
  6 C       -2.2560    -3.3960    -0.5560 C.ar  1 <1>  -0.1500 
  7 C       -5.6750    -1.8630    -0.2410 C.2   1 <1>   0.0870 
  8 C       -3.6300    -3.2290    -0.5870 C.ar  1 <1>  -0.1500 
  9 O       -6.4600    -2.8690    -0.6080 O.3   1 <1>  -0.2800 
 10 C       -6.4610    -0.7930     0.0510 C.2   1 <1>  -0.1500 
 11 C       -7.7150    -2.4790    -0.5600 C.2   1 <1>  -0.0400 
 12 C       -7.7840    -1.1900    -0.1560 C.2   1 <1>  -0.1500 
 13 C       -8.7800    -3.4900    -0.9470 C.3   1 <1>   0.5230 
 14 N      -10.1080    -3.0830    -0.4170 N.4   1 <1>  -0.9590 
 15 C      -10.1750    -3.1150     1.0730 C.3   1 <1>   0.3430 
 16 C      -11.2520    -3.7910    -1.0370 C.3   1 <1>   0.3430 
 17 C      -11.5790    -2.7360     1.5680 C.3   1 <1>  -0.1600 
 18 C      -12.5470    -3.0350    -0.7170 C.3   1 <1>  -0.1600 
 19 C      -12.4490    -2.0740     0.4880 C.3   1 <1>   0.2800 
 20 O      -11.7370    -0.9340     0.0520 O.3   1 <1>  -0.5600 
 21 C      -13.8330    -1.7020     1.0610 C.3   1 <1>  -0.1600 
 22 C      -12.4000     0.3060    -0.0530 C.3   1 <1>   0.1200 
 23 C      -14.6800    -0.8320     0.1160 C.3   1 <1>   0.2800 
 24 C      -13.7780     0.1370    -0.7070 C.3   1 <1>   0.2000 
 25 O      -15.3120    -1.6800    -0.7690 O.3   1 <1>  -0.6800 
 26 C      -15.8070    -0.1580     0.9110 C.3   1 <1>  -0.2400 
 27 O      -14.3580     1.3900    -0.8990 O.3   1 <1>  -0.6800 
 28 H       -3.8100    -0.0480     0.5130 H     1 <1>   0.1500 
 29 H       -0.3750    -2.4630    -0.1070 H     1 <1>   0.1500 
 30 H       -1.8180    -4.3330    -0.8550 H     1 <1>   0.1500 
 31 H       -4.2440    -4.0490    -0.9140 H     1 <1>   0.1500 
 32 H       -6.1550     0.1850     0.3780 H     1 <1>   0.1500 
 33 H       -8.6410    -0.5530    -0.0120 H     1 <1>   0.1500 
 34 H       -8.5110    -4.4550    -0.5510 H     1 <1>   0.0800 
 35 H       -8.8120    -3.5620    -2.0220 H     1 <1>   0.0800 
 36 H      -10.2570    -2.0850    -0.6530 H     1 <1>   0.4500 
 37 H       -9.9170    -4.0960     1.4390 H     1 <1>   0.0800 
 38 H       -9.4620    -2.4120     1.4740 H     1 <1>   0.0800 
 39 H      -11.1270    -3.8480    -2.1070 H     1 <1>   0.0800 
 40 H      -11.3100    -4.7940    -0.6460 H     1 <1>   0.0800 
 41 H      -11.4860    -2.0840     2.4180 H     1 <1>   0.0800 
 42 H      -12.0690    -3.6280     1.9150 H     1 <1>   0.0800 
 43 H      -13.3100    -3.7690    -0.5280 H     1 <1>   0.0800 
 44 H      -12.8610    -2.4940    -1.5910 H     1 <1>   0.0800 
 45 H      -14.3830    -2.5880     1.3270 H     1 <1>   0.0800 
 46 H      -13.6730    -1.1600     1.9760 H     1 <1>   0.0800 
 47 H      -12.4960     0.7190     0.9360 H     1 <1>   0.0800 
 48 H      -11.7850     0.9550    -0.6510 H     1 <1>   0.0800 
 49 H      -13.6160    -0.2690    -1.6910 H     1 <1>   0.0800 
 50 H      -15.9320    -1.1600    -1.3200 H     1 <1>   0.4000 
 51 H      -15.4000     0.5340     1.6260 H     1 <1>   0.0800 
 52 H      -16.3750    -0.8970     1.4500 H     1 <1>   0.0800 
 53 H      -16.4750     0.3780     0.2600 H     1 <1>   0.0800 
 54 H      -14.6390     1.7820    -0.0500 H     1 <1>   0.4000 
@<TRIPOS>BOND
  1   1   2  1   
  2   2   3  ar  
  3   2   4  ar  
  4   3   5  ar  
  5   3  28  1   
  6   4   6  ar  
  7   4  29  1   
  8   5   7  1   
  9   5   8  ar  
 10   6   8  ar  
 11   6  30  1   
 12   7   9  1   
 13   7  10  2   
 14   8  31  1   
 15   9  11  1   
 16  10  12  1   
 17  10  32  1   
 18  11  12  2   
 19  11  13  1   
 20  12  33  1   
 21  13  14  1   
 22  13  34  1   
 23  13  35  1   
 24  14  15  1   
 25  14  16  1   
 26  14  36  1   
 27  15  17  1   
 28  15  37  1   
 29  15  38  1   
 30  16  18  1   
 31  16  39  1   
 32  16  40  1   
 33  17  19  1   
 34  17  41  1   
 35  17  42  1   
 36  18  19  1   
 37  18  43  1   
 38  18  44  1   
 39  19  20  1   
 40  19  21  1   
 41  20  22  1   
 42  21  23  1   
 43  21  45  1   
 44  21  46  1   
 45  22  24  1   
 46  22  47  1   
 47  22  48  1   
 48  23  24  1   
 49  23  25  1   
 50  23  26  1   
 51  24  27  1   
 52  24  49  1   
 53  25  50  1   
 54  26  51  1   
 55  26  52  1   
 56  26  53  1   
 57  27  54  1   
@<TRIPOS>SUBSTRUCTURE
  1 ****  12 GROUP 4 **** **** 0

# MOE 2024.06 (io_trps.svl 2023.06)
