@<TRIPOS>MOLECULE
NONAME
58 61 1 0 0 
SMALL
USER_CHARGES


@<TRIPOS>ATOM
  1 CL      -1.7080     3.6430     2.6190 Cl    1 <1>  -0.1770 
  2 C       -2.3940     2.9480     1.1690 C.ar  1 <1>   0.1770 
  3 C       -1.5640     2.5900     0.1170 C.ar  1 <1>  -0.1440 
  4 C       -3.7640     2.7810     1.0990 C.ar  1 <1>  -0.1500 
  5 C       -2.1340     2.0490    -1.0270 C.ar  1 <1>  -0.1500 
  6 C       -0.0640     2.7840     0.2170 C.3   1 <1>   0.4870 
  7 C       -4.3230     2.2450    -0.0480 C.ar  1 <1>  -0.1500 
  8 C       -3.5080     1.8800    -1.1060 C.ar  1 <1>  -0.1500 
  9 N        0.2430     4.2450     0.2790 N.4   1 <1>  -0.9590 
 10 C       -0.2170     4.9690    -0.9410 C.3   1 <1>   0.3430 
 11 C        1.6750     4.4880     0.6010 C.3   1 <1>   0.3430 
 12 C       -0.0100     6.4720    -0.7530 C.3   1 <1>  -0.1600 
 13 C        1.9060     5.9850     0.8080 C.3   1 <1>  -0.1600 
 14 C        1.4390     6.8090    -0.3940 C.3   1 <1>   0.2890 
 15 N        1.4970     8.2340    -0.0200 N.pl3 1 <1>  -0.8690 
 16 C        2.1390     9.3240    -0.4630 C.ar  1 <1>   0.7710 
 17 N        1.8810    10.4210     0.2120 N.ar  1 <1>  -0.6200 
 18 N        2.9800     9.2890    -1.5140 N.ar  1 <1>  -0.1790 
 19 C        2.4880    11.5370    -0.1490 C.ar  1 <1>   0.4100 
 20 C        3.6050    10.4170    -1.9350 C.ar  1 <1>   0.2110 
 21 N        2.2410    12.6560     0.5790 N.pl3 1 <1>  -0.8380 
 22 C        3.3620    11.5630    -1.2550 C.ar  1 <1>  -0.1500 
 23 C        3.2230    13.7720     0.7850 C.3   1 <1>   0.2090 
 24 C        0.9690    12.8630     1.3390 C.3   1 <1>   0.2090 
 25 C        2.6060    15.1130     0.3530 C.3   1 <1>   0.2000 
 26 C        0.3260    14.1890     0.9100 C.3   1 <1>  -0.1600 
 27 O        3.4810    16.1450     0.6430 O.3   1 <1>  -0.6800 
 28 C        1.2810    15.3840     1.0740 C.3   1 <1>  -0.1600 
 29 H       -4.3870     3.0660     1.9300 H     1 <1>   0.1500 
 30 H       -1.5280     1.7460    -1.8660 H     1 <1>   0.1500 
 31 H        0.4220     2.3350    -0.6340 H     1 <1>   0.0800 
 32 H        0.2920     2.2940     1.1090 H     1 <1>   0.0800 
 33 H       -5.3900     2.1080    -0.1160 H     1 <1>   0.1500 
 34 H       -3.9490     1.4590    -1.9950 H     1 <1>   0.1500 
 35 H       -0.3220     4.5900     1.0730 H     1 <1>   0.4500 
 36 H       -1.2640     4.7740    -1.1160 H     1 <1>   0.0800 
 37 H        0.3360     4.6260    -1.8010 H     1 <1>   0.0800 
 38 H        2.2970     4.1290    -0.2040 H     1 <1>   0.0800 
 39 H        1.9470     3.9570     1.5000 H     1 <1>   0.0800 
 40 H       -0.6750     6.8130     0.0210 H     1 <1>   0.0800 
 41 H       -0.2820     6.9740    -1.6640 H     1 <1>   0.0800 
 42 H        2.9560     6.1530     0.9740 H     1 <1>   0.0800 
 43 H        1.3810     6.2920     1.6960 H     1 <1>   0.0800 
 44 H        2.0780     6.6110    -1.2400 H     1 <1>   0.0800 
 45 H        0.9060     8.4640     0.7890 H     1 <1>   0.4000 
 46 H        3.1180     8.3990    -1.9750 H     1 <1>   0.4570 
 47 H        4.2640    10.3740    -2.7880 H     1 <1>   0.1500 
 48 H        3.8110    12.4920    -1.5510 H     1 <1>   0.1500 
 49 H        4.1320    13.6010     0.2410 H     1 <1>   0.0800 
 50 H        3.4680    13.8180     1.8330 H     1 <1>   0.0800 
 51 H        1.1840    12.8810     2.3940 H     1 <1>   0.0800 
 52 H        0.2740    12.0620     1.1540 H     1 <1>   0.0800 
 53 H        2.4570    15.1070    -0.7130 H     1 <1>   0.0800 
 54 H       -0.5610    14.3550     1.4950 H     1 <1>   0.0800 
 55 H        0.0240    14.1060    -0.1200 H     1 <1>   0.0800 
 56 H        3.4700    16.3450     1.5980 H     1 <1>   0.4000 
 57 H        0.8220    16.2690     0.6670 H     1 <1>   0.0800 
 58 H        1.4620    15.5390     2.1240 H     1 <1>   0.0800 
@<TRIPOS>BOND
  1   1   2  1   
  2   2   3  ar  
  3   2   4  ar  
  4   3   5  ar  
  5   3   6  1   
  6   4   7  ar  
  7   4  29  1   
  8   5   8  ar  
  9   5  30  1   
 10   6   9  1   
 11   6  31  1   
 12   6  32  1   
 13   7   8  ar  
 14   7  33  1   
 15   8  34  1   
 16   9  10  1   
 17   9  11  1   
 18   9  35  1   
 19  10  12  1   
 20  10  36  1   
 21  10  37  1   
 22  11  13  1   
 23  11  38  1   
 24  11  39  1   
 25  12  14  1   
 26  12  40  1   
 27  12  41  1   
 28  13  14  1   
 29  13  42  1   
 30  13  43  1   
 31  14  15  1   
 32  14  44  1   
 33  15  16  1   
 34  15  45  1   
 35  16  17  ar  
 36  16  18  ar  
 37  17  19  ar  
 38  18  20  ar  
 39  18  46  1   
 40  19  21  1   
 41  19  22  ar  
 42  20  22  ar  
 43  20  47  1   
 44  21  23  1   
 45  21  24  1   
 46  22  48  1   
 47  23  25  1   
 48  23  49  1   
 49  23  50  1   
 50  24  26  1   
 51  24  51  1   
 52  24  52  1   
 53  25  27  1   
 54  25  28  1   
 55  25  53  1   
 56  26  28  1   
 57  26  54  1   
 58  26  55  1   
 59  27  56  1   
 60  28  57  1   
 61  28  58  1   
@<TRIPOS>SUBSTRUCTURE
  1 ****  15 GROUP 4 **** **** 0

# MOE 2024.06 (io_trps.svl 2023.06)
