@<TRIPOS>MOLECULE
NONAME
48 51 1 0 0 
SMALL
USER_CHARGES


@<TRIPOS>ATOM
  1 O       -0.5580     0.4470     1.0270 O.2   1 <1>  -0.5700 
  2 C       -1.4400     1.0100     0.3970 C.2   1 <1>   0.7160 
  3 N       -2.5610     0.2680     0.0780 N.am  1 <1>  -0.6600 
  4 C       -1.2570     2.4080     0.0200 C.2   1 <1>   0.2030 
  5 C       -3.7900     0.7630    -0.5930 C.3   1 <1>   0.1400 
  6 C       -2.7460    -1.1420     0.4880 C.3   1 <1>   0.1400 
  7 N       -1.9980     3.1380    -0.7630 N.2   1 <1>  -0.4100 
  8 C       -0.2080     3.1960     0.4600 C.2   1 <1>  -0.1500 
  9 C       -4.8140    -0.3740    -0.4820 C.3   1 <1>   0.2000 
 10 C       -3.9490    -1.6290    -0.3210 C.3   1 <1>  -0.0800 
 11 O       -1.5040     4.3470    -0.8580 O.3   1 <1>  -0.0190 
 12 C       -0.4090     4.3950    -0.1150 C.2   1 <1>   0.0870 
 13 O       -5.5860    -0.2110     0.6740 O.3   1 <1>  -0.5600 
 14 C       -4.6740    -2.8290     0.3160 C.3   1 <1>   0.0200 
 15 C        0.3570     5.6200    -0.0280 C.ar  1 <1>   0.0530 
 16 C       -6.6890     0.6300     0.5400 C.3   1 <1>   0.0400 
 17 C       -3.8460    -4.1040     0.3020 C.2   1 <1>  -0.0400 
 18 C        1.5350     5.6850     0.7180 C.ar  1 <1>  -0.1500 
 19 C       -0.0480     6.7830    -0.6840 C.ar  1 <1>  -0.1500 
 20 O       -4.3180    -5.1630     0.9060 O.3   1 <1>  -0.0190 
 21 C       -2.6560    -4.4330    -0.2260 C.2   1 <1>  -0.1500 
 22 C        2.2720     6.8520     0.8050 C.ar  1 <1>  -0.1500 
 23 C        0.6830     7.9540    -0.6000 C.ar  1 <1>  -0.1500 
 24 N       -3.5080    -6.1780     0.8130 N.2   1 <1>  -0.4100 
 25 C       -2.4970    -5.7670     0.1370 C.2   1 <1>   0.1080 
 26 C        1.8470     7.9910     0.1460 C.ar  1 <1>  -0.1500 
 27 C       -1.3020    -6.6240    -0.2120 C.3   1 <1>  -0.0590 
 28 H       -4.1470     1.6650    -0.1290 H     1 <1>   0.0800 
 29 H       -3.5650     0.9540    -1.6280 H     1 <1>   0.0800 
 30 H       -1.8600    -1.7200     0.2890 H     1 <1>   0.0800 
 31 H       -2.9620    -1.1700     1.5430 H     1 <1>   0.0800 
 32 H        0.5730     2.8690     1.1200 H     1 <1>   0.1500 
 33 H       -5.4640    -0.4370    -1.3390 H     1 <1>   0.0800 
 34 H       -3.5990    -1.9130    -1.2980 H     1 <1>   0.0800 
 35 H       -5.5900    -3.0150    -0.2160 H     1 <1>   0.0800 
 36 H       -4.9310    -2.5990     1.3360 H     1 <1>   0.0800 
 37 H       -7.1890     0.6760     1.4910 H     1 <1>   0.0800 
 38 H       -7.3580     0.2240    -0.1990 H     1 <1>   0.0800 
 39 H       -6.3630     1.6150     0.2570 H     1 <1>   0.0800 
 40 H        1.8860     4.8130     1.2380 H     1 <1>   0.1500 
 41 H       -0.9510     6.7760    -1.2690 H     1 <1>   0.1500 
 42 H       -1.9600    -3.8480    -0.7970 H     1 <1>   0.1500 
 43 H        3.1770     6.8770     1.3870 H     1 <1>   0.1500 
 44 H        0.3480     8.8370    -1.1160 H     1 <1>   0.1500 
 45 H        2.4180     8.9010     0.2120 H     1 <1>   0.1500 
 46 H       -1.1840    -6.6700    -1.2780 H     1 <1>   0.0800 
 47 H       -1.4430    -7.6210     0.1660 H     1 <1>   0.0800 
 48 H       -0.4140    -6.2080     0.2280 H     1 <1>   0.0800 
@<TRIPOS>BOND
  1   1   2  2   
  2   2   3  am  
  3   2   4  1   
  4   3   5  1   
  5   3   6  1   
  6   4   7  2   
  7   4   8  1   
  8   5   9  1   
  9   5  28  1   
 10   5  29  1   
 11   6  10  1   
 12   6  30  1   
 13   6  31  1   
 14   7  11  1   
 15   8  12  2   
 16   8  32  1   
 17   9  10  1   
 18   9  13  1   
 19   9  33  1   
 20  10  14  1   
 21  10  34  1   
 22  11  12  1   
 23  12  15  1   
 24  13  16  1   
 25  14  17  1   
 26  14  35  1   
 27  14  36  1   
 28  15  18  ar  
 29  15  19  ar  
 30  16  37  1   
 31  16  38  1   
 32  16  39  1   
 33  17  20  1   
 34  17  21  2   
 35  18  22  ar  
 36  18  40  1   
 37  19  23  ar  
 38  19  41  1   
 39  20  24  1   
 40  21  25  1   
 41  21  42  1   
 42  22  26  ar  
 43  22  43  1   
 44  23  26  ar  
 45  23  44  1   
 46  24  25  2   
 47  25  27  1   
 48  26  45  1   
 49  27  46  1   
 50  27  47  1   
 51  27  48  1   
@<TRIPOS>SUBSTRUCTURE
  1 ****   2 GROUP 4 **** **** 0

# MOE 2024.06 (io_trps.svl 2023.06)
