@<TRIPOS>MOLECULE
NONAME
54 58 1 0 0 
SMALL
USER_CHARGES


@<TRIPOS>ATOM
  1 O       -0.7860    -0.3590    -1.1410 O.2   1 <1>  -0.5700 
  2 C       -1.6390     0.5070    -1.1780 C.2   1 <1>   0.7160 
  3 N       -2.6620     0.3580    -2.0570 N.am  1 <1>  -0.7300 
  4 C       -1.6070     1.6370    -0.3000 C.2   1 <1>  -0.0860 
  5 C       -3.0590    -0.9370    -2.6460 C.3   1 <1>   0.3210 
  6 C       -2.7090     2.4330     0.0440 C.2   1 <1>   0.3720 
  7 C       -0.5890     2.1890     0.4180 C.2   1 <1>   0.0870 
  8 C       -3.9480    -1.6800    -1.6630 C.2   1 <1>   0.1080 
  9 N       -2.3780     3.3490     0.8830 N.2   1 <1>  -0.4100 
 10 N       -4.0180     2.2440    -0.4310 N.pl3 1 <1>  -0.8210 
 11 O       -1.1010     3.1860     1.0960 O.3   1 <1>  -0.0190 
 12 C        0.8180     1.8990     0.5440 C.ar  1 <1>   0.0530 
 13 N       -5.2300    -1.7620    -1.7490 N.2   1 <1>  -0.4100 
 14 C       -3.4880    -2.3430    -0.5280 C.2   1 <1>  -0.1500 
 15 C       -4.8360     1.3280     0.4140 C.3   1 <1>   0.2090 
 16 C       -4.8130     3.4780    -0.7000 C.3   1 <1>   0.2090 
 17 C        1.4700     2.0650     1.7660 C.ar  1 <1>  -0.1500 
 18 C        1.5860     1.4620    -0.5360 C.ar  1 <1>  -0.1500 
 19 O       -5.6170    -2.4550    -0.7160 O.3   1 <1>  -0.0190 
 20 C       -4.6090    -2.8170     0.0330 C.2   1 <1>   0.0550 
 21 C       -6.0760     2.1150     0.8120 C.3   1 <1>  -0.1600 
 22 C       -6.2410     3.1380    -0.3000 C.3   1 <1>  -0.1600 
 23 C        2.8190     1.8000     1.9050 C.ar  1 <1>  -0.1500 
 24 C        2.9360     1.1920    -0.4050 C.ar  1 <1>  -0.1500 
 25 C       -4.8510    -3.6290     1.2910 C.3   1 <1>  -0.0150 
 26 C        3.5650     1.3600     0.8240 C.ar  1 <1>   0.0830 
 27 C       -3.7850    -4.5110     1.8600 C.3   1 <1>  -0.2000 
 28 C       -4.9980    -5.1140     1.2080 C.3   1 <1>  -0.2000 
 29 O        4.8800     1.1190     1.0410 O.3   1 <1>  -0.3620 
 30 C        5.7180     0.6350     0.0160 C.3   1 <1>   0.0400 
 31 H       -3.4460     1.0050    -1.8830 H     1 <1>   0.3700 
 32 H       -2.1870    -1.5280    -2.8670 H     1 <1>   0.0800 
 33 H       -3.5970    -0.7630    -3.5610 H     1 <1>   0.0800 
 34 H       -2.4640    -2.4280    -0.2090 H     1 <1>   0.1500 
 35 H       -4.2930     0.9940     1.2830 H     1 <1>   0.0800 
 36 H       -5.1210     0.4720    -0.1730 H     1 <1>   0.0800 
 37 H       -4.7530     3.7460    -1.7400 H     1 <1>   0.0800 
 38 H       -4.4570     4.3020    -0.1030 H     1 <1>   0.0800 
 39 H        0.9100     2.4050     2.6190 H     1 <1>   0.1500 
 40 H        1.1190     1.3300    -1.4950 H     1 <1>   0.1500 
 41 H       -5.8860     2.6140     1.7460 H     1 <1>   0.0800 
 42 H       -6.9360     1.4770     0.9190 H     1 <1>   0.0800 
 43 H       -6.7440     2.6920    -1.1400 H     1 <1>   0.0800 
 44 H       -6.7850     4.0090     0.0190 H     1 <1>   0.0800 
 45 H        3.3070     1.9310     2.8540 H     1 <1>   0.1500 
 46 H        3.4790     0.8540    -1.2660 H     1 <1>   0.1500 
 47 H       -5.4880    -3.1120     1.9870 H     1 <1>   0.1000 
 48 H       -3.6860    -4.5720     2.9300 H     1 <1>   0.1000 
 49 H       -2.8400    -4.5890     1.3530 H     1 <1>   0.1000 
 50 H       -4.8910    -5.5860     0.2470 H     1 <1>   0.1000 
 51 H       -5.7410    -5.5910     1.8230 H     1 <1>   0.1000 
 52 H        6.7050     0.5100     0.4230 H     1 <1>   0.0800 
 53 H        5.7410     1.3530    -0.7850 H     1 <1>   0.0800 
 54 H        5.3410    -0.3120    -0.3260 H     1 <1>   0.0800 
@<TRIPOS>BOND
  1   1   2  2   
  2   2   3  am  
  3   2   4  1   
  4   3   5  1   
  5   3  31  1   
  6   4   6  1   
  7   4   7  2   
  8   5   8  1   
  9   5  32  1   
 10   5  33  1   
 11   6   9  2   
 12   6  10  1   
 13   7  11  1   
 14   7  12  1   
 15   8  13  2   
 16   8  14  1   
 17   9  11  1   
 18  10  15  1   
 19  10  16  1   
 20  12  17  ar  
 21  12  18  ar  
 22  13  19  1   
 23  14  20  2   
 24  14  34  1   
 25  15  21  1   
 26  15  35  1   
 27  15  36  1   
 28  16  22  1   
 29  16  37  1   
 30  16  38  1   
 31  17  23  ar  
 32  17  39  1   
 33  18  24  ar  
 34  18  40  1   
 35  19  20  1   
 36  20  25  1   
 37  21  22  1   
 38  21  41  1   
 39  21  42  1   
 40  22  43  1   
 41  22  44  1   
 42  23  26  ar  
 43  23  45  1   
 44  24  26  ar  
 45  24  46  1   
 46  25  27  1   
 47  25  28  1   
 48  25  47  1   
 49  26  29  1   
 50  27  28  1   
 51  27  48  1   
 52  27  49  1   
 53  28  50  1   
 54  28  51  1   
 55  29  30  1   
 56  30  52  1   
 57  30  53  1   
 58  30  54  1   
@<TRIPOS>SUBSTRUCTURE
  1 ****   2 GROUP 4 **** **** 0

# MOE 2024.06 (io_trps.svl 2023.06)
