@<TRIPOS>MOLECULE
NONAME
53 55 1 0 0 
SMALL
USER_CHARGES


@<TRIPOS>ATOM
  1 O       -0.0930     0.5670    -1.2800 O.2   1 <1>  -0.5700 
  2 C       -0.0520     1.6710    -0.7890 C.2   1 <1>   0.5690 
  3 N       -1.1580     2.2750    -0.2530 N.am  1 <1>  -0.6600 
  4 C        1.2880     2.4130    -0.8040 C.3   1 <1>   0.1810 
  5 C       -1.0810     3.6510     0.3440 C.3   1 <1>   0.3640 
  6 C       -2.4580     1.5590    -0.0950 C.3   1 <1>   0.0600 
  7 O        1.3540     3.4580     0.1340 O.3   1 <1>  -0.5600 
  8 C       -2.2250     4.5200    -0.2010 C.ar  1 <1>  -0.1430 
  9 C        0.2650     4.3600     0.0680 C.3   1 <1>   0.2610 
 10 C       -3.0780     5.2490     0.6290 C.ar  1 <1>  -0.1430 
 11 C       -2.4060     4.5910    -1.5790 C.ar  1 <1>  -0.1500 
 12 C        0.4450     5.5150     1.0660 C.2   1 <1>   0.5690 
 13 C       -4.0710     6.0370     0.0660 C.ar  1 <1>  -0.1500 
 14 C       -2.9690     5.2190     2.1490 C.3   1 <1>  -0.0960 
 15 C       -3.3990     5.3770    -2.1300 C.ar  1 <1>  -0.1500 
 16 O        0.5310     5.2390     2.2430 O.2   1 <1>  -0.5700 
 17 N        0.5000     6.8240     0.6490 N.am  1 <1>  -0.6600 
 18 C       -4.2330     6.1050    -1.3050 C.ar  1 <1>  -0.1500 
 19 C        1.0080     7.8850     1.5680 C.3   1 <1>   0.2840 
 20 C        0.1240     7.3050    -0.7120 C.3   1 <1>   0.0600 
 21 C        2.1960     8.6140     0.9440 C.ar  1 <1>  -0.1430 
 22 C        3.4540     8.0250     0.8320 C.ar  1 <1>  -0.1430 
 23 C        2.0070     9.9080     0.4760 C.ar  1 <1>  -0.1500 
 24 C        4.4930     8.7370     0.2510 C.ar  1 <1>  -0.1500 
 25 C        3.7300     6.6090     1.3240 C.3   1 <1>  -0.0970 
 26 C        3.0480    10.6110    -0.1020 C.ar  1 <1>  -0.1500 
 27 C        4.2940    10.0240    -0.2150 C.ar  1 <1>  -0.1500 
 28 H        1.4610     2.8210    -1.7820 H     1 <1>   0.0800 
 29 H        2.0770     1.7200    -0.5730 H     1 <1>   0.0800 
 30 H       -1.1760     3.5340     1.4070 H     1 <1>   0.0800 
 31 H       -2.7820     1.6110     0.9290 H     1 <1>   0.0800 
 32 H       -2.3580     0.5230    -0.3710 H     1 <1>   0.0800 
 33 H       -3.2050     2.0100    -0.7250 H     1 <1>   0.0800 
 34 H        0.2590     4.7510    -0.9290 H     1 <1>   0.0800 
 35 H       -1.7700     4.0230    -2.2380 H     1 <1>   0.1500 
 36 H       -4.7320     6.6080     0.6940 H     1 <1>   0.1500 
 37 H       -3.7790     5.7590     2.6040 H     1 <1>   0.0800 
 38 H       -2.0500     5.6740     2.4680 H     1 <1>   0.0800 
 39 H       -3.0070     4.2080     2.5090 H     1 <1>   0.0800 
 40 H       -3.5260     5.4200    -3.1980 H     1 <1>   0.1500 
 41 H       -5.0090     6.7190    -1.7270 H     1 <1>   0.1500 
 42 H        0.2110     8.5780     1.7680 H     1 <1>   0.0800 
 43 H        1.3070     7.4670     2.5130 H     1 <1>   0.0800 
 44 H       -0.2330     8.3190    -0.6580 H     1 <1>   0.0800 
 45 H       -0.6620     6.7030    -1.1290 H     1 <1>   0.0800 
 46 H        0.9860     7.2760    -1.3570 H     1 <1>   0.0800 
 47 H        1.0430    10.3780     0.5570 H     1 <1>   0.1500 
 48 H        5.4680     8.2930     0.1570 H     1 <1>   0.1500 
 49 H        4.7850     6.4090     1.3520 H     1 <1>   0.0800 
 50 H        3.2690     5.8950     0.6660 H     1 <1>   0.0800 
 51 H        3.3410     6.4670     2.3160 H     1 <1>   0.0800 
 52 H        2.8900    11.6120    -0.4620 H     1 <1>   0.1500 
 53 H        5.1070    10.5660    -0.6630 H     1 <1>   0.1500 
@<TRIPOS>BOND
  1   1   2  2   
  2   2   3  am  
  3   2   4  1   
  4   3   5  1   
  5   3   6  1   
  6   4   7  1   
  7   4  28  1   
  8   4  29  1   
  9   5   8  1   
 10   5   9  1   
 11   5  30  1   
 12   6  31  1   
 13   6  32  1   
 14   6  33  1   
 15   7   9  1   
 16   8  10  ar  
 17   8  11  ar  
 18   9  12  1   
 19   9  34  1   
 20  10  13  ar  
 21  10  14  1   
 22  11  15  ar  
 23  11  35  1   
 24  12  16  2   
 25  12  17  am  
 26  13  18  ar  
 27  13  36  1   
 28  14  37  1   
 29  14  38  1   
 30  14  39  1   
 31  15  18  ar  
 32  15  40  1   
 33  17  19  1   
 34  17  20  1   
 35  18  41  1   
 36  19  21  1   
 37  19  42  1   
 38  19  43  1   
 39  20  44  1   
 40  20  45  1   
 41  20  46  1   
 42  21  22  ar  
 43  21  23  ar  
 44  22  24  ar  
 45  22  25  1   
 46  23  26  ar  
 47  23  47  1   
 48  24  27  ar  
 49  24  48  1   
 50  25  49  1   
 51  25  50  1   
 52  25  51  1   
 53  26  27  ar  
 54  26  52  1   
 55  27  53  1   
@<TRIPOS>SUBSTRUCTURE
  1 ****  12 GROUP 4 **** **** 0

# MOE 2024.06 (io_trps.svl 2023.06)
