@<TRIPOS>MOLECULE
NONAME
38 40 1 0 0 
SMALL
USER_CHARGES


@<TRIPOS>ATOM
  1 F       -0.7040     0.0200     0.9740 F     1 <1>  -0.1900 
  2 C       -1.7640    -0.7060     0.6900 C.ar  1 <1>   0.1900 
  3 C       -2.8720    -0.2130     0.0120 C.ar  1 <1>   0.3920 
  4 C       -1.7710    -2.0160     1.0850 C.ar  1 <1>   0.1600 
  5 O       -3.0240     1.0510    -0.4470 O.3   1 <1>  -0.3630 
  6 N       -3.8990    -0.9950    -0.2380 N.ar  1 <1>  -0.6200 
  7 N       -2.7940    -2.8040     0.8370 N.ar  1 <1>  -0.6200 
  8 C       -2.0640     2.0750    -0.3120 C.3   1 <1>   0.0400 
  9 C       -3.8220    -2.2550     0.1870 C.ar  1 <1>   0.7200 
 10 N       -4.9040    -3.0730    -0.0740 N.pl3 1 <1>  -0.8380 
 11 C       -4.7320    -4.5370    -0.2990 C.3   1 <1>   0.2090 
 12 C       -6.2180    -2.5090    -0.5020 C.3   1 <1>   0.2090 
 13 C       -5.8740    -5.3060     0.3610 C.3   1 <1>  -0.1600 
 14 C       -7.3600    -3.2930     0.1460 C.3   1 <1>  -0.1600 
 15 C       -7.2240    -4.7870    -0.1410 C.3   1 <1>   0.2000 
 16 O       -8.2700    -5.4560     0.5330 O.3   1 <1>  -0.3630 
 17 C       -8.7280    -6.6650     0.1710 C.ar  1 <1>   0.7030 
 18 N       -8.1820    -7.2590    -0.8910 N.ar  1 <1>  -0.6200 
 19 N       -9.7040    -7.1340     0.9390 N.ar  1 <1>  -0.6200 
 20 C       -8.6730    -8.4380    -1.1940 C.ar  1 <1>   0.1600 
 21 C      -10.1720    -8.3140     0.6080 C.ar  1 <1>   0.1600 
 22 C       -9.6830    -9.0180    -0.4650 C.ar  1 <1>  -0.1500 
 23 H       -0.9260    -2.4230     1.6110 H     1 <1>   0.1500 
 24 H       -2.4570     2.9630    -0.7740 H     1 <1>   0.0800 
 25 H       -1.1590     1.7770    -0.8120 H     1 <1>   0.0800 
 26 H       -1.8880     2.2570     0.7330 H     1 <1>   0.0800 
 27 H       -3.7960    -4.8900     0.0990 H     1 <1>   0.0800 
 28 H       -4.7300    -4.7280    -1.3590 H     1 <1>   0.0800 
 29 H       -6.2910    -2.5630    -1.5740 H     1 <1>   0.0800 
 30 H       -6.3040    -1.4760    -0.2110 H     1 <1>   0.0800 
 31 H       -5.8050    -5.1810     1.4270 H     1 <1>   0.0800 
 32 H       -5.7700    -6.3490     0.1290 H     1 <1>   0.0800 
 33 H       -8.2970    -2.9340    -0.2400 H     1 <1>   0.0800 
 34 H       -7.3370    -3.1210     1.2080 H     1 <1>   0.0800 
 35 H       -7.3280    -4.9520    -1.2010 H     1 <1>   0.0800 
 36 H       -8.2600    -8.9540    -2.0440 H     1 <1>   0.1500 
 37 H      -10.9640    -8.7270     1.2100 H     1 <1>   0.1500 
 38 H      -10.0750    -9.9840    -0.7240 H     1 <1>   0.1500 
@<TRIPOS>BOND
  1   1   2  1   
  2   2   3  ar  
  3   2   4  ar  
  4   3   5  1   
  5   3   6  ar  
  6   4   7  ar  
  7   4  23  1   
  8   5   8  1   
  9   6   9  ar  
 10   7   9  ar  
 11   8  24  1   
 12   8  25  1   
 13   8  26  1   
 14   9  10  1   
 15  10  11  1   
 16  10  12  1   
 17  11  13  1   
 18  11  27  1   
 19  11  28  1   
 20  12  14  1   
 21  12  29  1   
 22  12  30  1   
 23  13  15  1   
 24  13  31  1   
 25  13  32  1   
 26  14  15  1   
 27  14  33  1   
 28  14  34  1   
 29  15  16  1   
 30  15  35  1   
 31  16  17  1   
 32  17  18  ar  
 33  17  19  ar  
 34  18  20  ar  
 35  19  21  ar  
 36  20  22  ar  
 37  20  36  1   
 38  21  22  ar  
 39  21  37  1   
 40  22  38  1   
@<TRIPOS>SUBSTRUCTURE
  1 ****  10 GROUP 4 **** **** 0

# MOE 2024.06 (io_trps.svl 2023.06)
