@<TRIPOS>MOLECULE
NONAME
34 35 1 0 0 
SMALL
USER_CHARGES


@<TRIPOS>ATOM
  1 CL       1.4240     0.6050    -2.7040 Cl    1 <1>  -0.1770 
  2 C        1.9760     1.0910    -1.1210 C.ar  1 <1>   0.1770 
  3 C        2.3870     0.1290    -0.2130 C.ar  1 <1>  -0.1440 
  4 C        1.9820     2.4390    -0.8050 C.ar  1 <1>  -0.1500 
  5 C        2.8060     0.5600     1.0350 C.ar  1 <1>   0.1770 
  6 C        2.3930    -1.3420    -0.5710 C.3   1 <1>   0.4870 
  7 C        2.4080     2.8460     0.4490 C.ar  1 <1>  -0.1500 
  8 CL       3.3200    -0.6150     2.2210 Cl    1 <1>  -0.1770 
  9 C        2.8220     1.9010     1.3750 C.ar  1 <1>  -0.1500 
 10 N        1.2810    -2.0320     0.1260 N.4   1 <1>  -0.9590 
 11 C        1.4620    -3.5350     0.0710 C.3   1 <1>   0.3430 
 12 C       -0.0560    -1.6140    -0.3960 C.3   1 <1>   0.3430 
 13 C        0.1440    -4.3310     0.1370 C.3   1 <1>   0.2000 
 14 C       -1.1560    -2.1620     0.5190 C.3   1 <1>  -0.1600 
 15 O       -0.3680    -4.4270    -1.1460 O.3   1 <1>  -0.6800 
 16 C       -0.8840    -3.6080     1.0130 C.3   1 <1>  -0.1860 
 17 C       -2.1450    -4.4370     1.0990 C.2   1 <1>   0.9060 
 18 O       -2.5650    -4.7410     2.2130 O.co2 1 <1>  -0.9000 
 19 O       -2.6740    -4.7920     0.0390 O.co2 1 <1>  -0.9000 
 20 H        1.6590     3.1630    -1.5340 H     1 <1>   0.1500 
 21 H        3.3340    -1.7700    -0.2650 H     1 <1>   0.0800 
 22 H        2.2970    -1.4750    -1.6360 H     1 <1>   0.0800 
 23 H        2.4180     3.8940     0.7040 H     1 <1>   0.1500 
 24 H        3.1550     2.2050     2.3530 H     1 <1>   0.1500 
 25 H        1.3020    -1.7590     1.1170 H     1 <1>   0.4500 
 26 H        1.9650    -3.8190    -0.8390 H     1 <1>   0.0800 
 27 H        2.0810    -3.8380     0.8990 H     1 <1>   0.0800 
 28 H       -0.1330    -0.5410    -0.4490 H     1 <1>   0.0800 
 29 H       -0.1920    -2.0140    -1.3890 H     1 <1>   0.0800 
 30 H        0.3150    -5.3340     0.4910 H     1 <1>   0.0800 
 31 H       -1.2960    -1.5140     1.3650 H     1 <1>   0.0800 
 32 H       -2.0760    -2.1470    -0.0410 H     1 <1>   0.0800 
 33 H       -1.3340    -4.6940    -1.0320 H     1 <1>   0.4000 
 34 H       -0.4850    -3.5560     2.0090 H     1 <1>   0.0800 
@<TRIPOS>BOND
  1   1   2  1   
  2   2   3  ar  
  3   2   4  ar  
  4   3   5  ar  
  5   3   6  1   
  6   4   7  ar  
  7   4  20  1   
  8   5   8  1   
  9   5   9  ar  
 10   6  10  1   
 11   6  21  1   
 12   6  22  1   
 13   7   9  ar  
 14   7  23  1   
 15   9  24  1   
 16  10  11  1   
 17  10  12  1   
 18  10  25  1   
 19  11  13  1   
 20  11  26  1   
 21  11  27  1   
 22  12  14  1   
 23  12  28  1   
 24  12  29  1   
 25  13  15  1   
 26  13  16  1   
 27  13  30  1   
 28  14  16  1   
 29  14  31  1   
 30  14  32  1   
 31  15  33  1   
 32  16  17  1   
 33  16  34  1   
 34  17  18  ar  
 35  17  19  ar  
@<TRIPOS>SUBSTRUCTURE
  1 ****  10 GROUP 4 **** **** 0

# MOE 2024.06 (io_trps.svl 2023.06)
