@<TRIPOS>MOLECULE
NONAME
46 49 1 0 0 
SMALL
USER_CHARGES


@<TRIPOS>ATOM
  1 CL      -1.0770    -1.4310     2.9730 Cl    1 <1>  -0.1770 
  2 C       -1.2160    -2.4990     1.5960 C.ar  1 <1>   0.1770 
  3 C       -1.9000    -3.6820     1.7220 C.ar  1 <1>  -0.1500 
  4 C       -0.6170    -2.1110     0.3920 C.ar  1 <1>  -0.1500 
  5 C       -1.9970    -4.5190     0.6040 C.ar  1 <1>   0.0000 
  6 C       -0.7080    -2.9290    -0.7110 C.ar  1 <1>  -0.1500 
  7 C       -1.4040    -4.1370    -0.5960 C.ar  1 <1>  -0.1520 
  8 C       -2.5970    -5.7680     0.3700 C.2   1 <1>  -0.1500 
  9 N       -1.6420    -5.1230    -1.5150 N.pl3 1 <1>   0.0330 
 10 C       -2.3810    -6.1220    -0.9330 C.2   1 <1>  -0.2370 
 11 C       -2.7500    -7.2910    -1.6890 C.2   1 <1>   0.7150 
 12 O       -2.1370    -7.5430    -2.7110 O.2   1 <1>  -0.5700 
 13 N       -3.7720    -8.1140    -1.2940 N.am  1 <1>  -0.6600 
 14 C       -3.6820    -9.5960    -1.4480 C.3   1 <1>   0.1400 
 15 C       -5.0660    -7.6240    -0.7400 C.3   1 <1>   0.1400 
 16 C       -3.8060   -10.3270    -0.0830 C.3   1 <1>  -0.1060 
 17 C       -5.5950    -8.5550     0.3610 C.3   1 <1>  -0.1600 
 18 C       -4.6620   -11.5720    -0.3640 C.2   1 <1>   0.9060 
 19 C       -4.4560    -9.3750     0.9660 C.3   1 <1>   0.2000 
 20 C       -2.4230   -10.8240     0.4220 C.3   1 <1>  -0.0650 
 21 O       -5.6260   -11.8600     0.3620 O.co2 1 <1>  -0.9000 
 22 O       -4.3650   -12.2860    -1.3290 O.co2 1 <1>  -0.9000 
 23 O       -4.9460   -10.0710     2.0500 O.3   1 <1>  -0.6800 
 24 C       -1.3440    -9.7480     0.6440 C.3   1 <1>  -0.1950 
 25 C       -0.4050    -9.3270    -0.4420 C.3   1 <1>  -0.2000 
 26 C        0.0940   -10.1560     0.7040 C.3   1 <1>  -0.2000 
 27 H       -2.3540    -3.9690     2.6510 H     1 <1>   0.1500 
 28 H       -0.0920    -1.1740     0.3510 H     1 <1>   0.1500 
 29 H       -0.2550    -2.6550    -1.6470 H     1 <1>   0.1500 
 30 H       -3.1190    -6.3340     1.1210 H     1 <1>   0.1500 
 31 H       -1.2960    -5.1640    -2.4810 H     1 <1>   0.2700 
 32 H       -4.4840    -9.9000    -2.1000 H     1 <1>   0.0800 
 33 H       -2.7660    -9.8760    -1.9380 H     1 <1>   0.0800 
 34 H       -4.9460    -6.6320    -0.3460 H     1 <1>   0.0800 
 35 H       -5.7880    -7.5720    -1.5370 H     1 <1>   0.0800 
 36 H       -6.3280    -9.2210    -0.0610 H     1 <1>   0.0800 
 37 H       -6.0750    -7.9690     1.1230 H     1 <1>   0.0800 
 38 H       -3.7290    -8.6860     1.3510 H     1 <1>   0.0800 
 39 H       -2.5750   -11.3460     1.3510 H     1 <1>   0.0800 
 40 H       -2.0460   -11.5500    -0.2790 H     1 <1>   0.0800 
 41 H       -5.3920   -10.8830     1.6540 H     1 <1>   0.4000 
 42 H       -1.6350    -9.0040     1.3630 H     1 <1>   0.1000 
 43 H       -0.4920    -9.7830    -1.4130 H     1 <1>   0.1000 
 44 H       -0.1280    -8.2890    -0.5010 H     1 <1>   0.1000 
 45 H        0.7300    -9.6960     1.4400 H     1 <1>   0.1000 
 46 H        0.3520   -11.1850     0.5190 H     1 <1>   0.1000 
@<TRIPOS>BOND
  1   1   2  1   
  2   2   3  ar  
  3   2   4  ar  
  4   3   5  ar  
  5   3  27  1   
  6   4   6  ar  
  7   4  28  1   
  8   5   7  ar  
  9   5   8  1   
 10   6   7  ar  
 11   6  29  1   
 12   7   9  1   
 13   8  10  2   
 14   8  30  1   
 15   9  10  1   
 16   9  31  1   
 17  10  11  1   
 18  11  12  2   
 19  11  13  am  
 20  13  14  1   
 21  13  15  1   
 22  14  16  1   
 23  14  32  1   
 24  14  33  1   
 25  15  17  1   
 26  15  34  1   
 27  15  35  1   
 28  16  18  1   
 29  16  19  1   
 30  16  20  1   
 31  17  19  1   
 32  17  36  1   
 33  17  37  1   
 34  18  21  ar  
 35  18  22  ar  
 36  19  23  1   
 37  19  38  1   
 38  20  24  1   
 39  20  39  1   
 40  20  40  1   
 41  23  41  1   
 42  24  25  1   
 43  24  26  1   
 44  24  42  1   
 45  25  26  1   
 46  25  43  1   
 47  25  44  1   
 48  26  45  1   
 49  26  46  1   
@<TRIPOS>SUBSTRUCTURE
  1 ****  10 GROUP 4 **** **** 0

# MOE 2024.06 (io_trps.svl 2023.06)
