@<TRIPOS>MOLECULE
NONAME
54 56 1 0 0 
SMALL
USER_CHARGES


@<TRIPOS>ATOM
  1 O       -2.1520     0.4100    -2.6880 O.2   1 <1>  -0.5700 
  2 C       -1.8590     1.2390    -1.8480 C.2   1 <1>   0.5440 
  3 N       -1.6860     0.7920    -0.5460 N.am  1 <1>  -0.6600 
  4 C       -1.6770     2.6320    -2.2470 C.ar  1 <1>   0.3960 
  5 C       -1.1740    -0.5840    -0.2740 C.3   1 <1>   0.1400 
  6 C       -1.5640     1.7030     0.6300 C.3   1 <1>   0.1400 
  7 N       -0.6390     3.3320    -1.7600 N.ar  1 <1>  -0.6200 
  8 C       -2.5940     3.1980    -3.1350 C.ar  1 <1>   0.1600 
  9 C        0.3000    -0.5110     0.1780 C.3   1 <1>   0.3430 
 10 C       -0.0900     1.7900     1.0570 C.3   1 <1>   0.3430 
 11 C       -0.5870     4.5830    -2.1860 C.ar  1 <1>   0.4100 
 12 N       -2.5680     4.4500    -3.5660 N.ar  1 <1>  -0.6200 
 13 N        0.5070     0.4360     1.3370 N.4   1 <1>  -0.9590 
 14 N        0.4800     5.3210    -1.6960 N.pl3 1 <1>  -0.8380 
 15 C       -1.5450     5.1150    -3.0680 C.ar  1 <1>   0.1600 
 16 C        1.9580     0.6170     1.6400 C.3   1 <1>   0.2630 
 17 C        1.8570     4.8030    -1.9440 C.3   1 <1>   0.3900 
 18 C        0.3920     6.7780    -1.4100 C.3   1 <1>   0.2090 
 19 C        2.5010     4.3390    -0.6480 C.2   1 <1>  -0.1810 
 20 C       -0.6750     7.0340    -0.3500 C.3   1 <1>  -0.2400 
 21 C        1.8660     4.1850     0.5750 C.2   1 <1>   0.1390 
 22 C        3.7800     3.9730    -0.4090 C.2   1 <1>  -0.3020 
 23 N        2.6540     3.7070     1.4920 N.2   1 <1>  -0.7070 
 24 N        3.8580     3.6180     0.8890 N.pl3 1 <1>   0.3140 
 25 C        5.0830     3.2210     1.6160 C.3   1 <1>   0.0960 
 26 C        5.8920     4.4520     2.0420 C.3   1 <1>  -0.2400 
 27 H       -1.2420    -1.1950    -1.1580 H     1 <1>   0.0800 
 28 H       -1.7760    -1.0470     0.4880 H     1 <1>   0.0800 
 29 H       -2.1610     1.3240     1.4410 H     1 <1>   0.0800 
 30 H       -1.9320     2.6860     0.3920 H     1 <1>   0.0800 
 31 H       -3.3910     2.5730    -3.5020 H     1 <1>   0.1500 
 32 H        0.8880    -0.1790    -0.6620 H     1 <1>   0.0800 
 33 H        0.6370    -1.4980     0.4460 H     1 <1>   0.0800 
 34 H        0.0010     2.4210     1.9260 H     1 <1>   0.0800 
 35 H        0.4560     2.2560     0.2540 H     1 <1>   0.0800 
 36 H        0.0360     0.0490     2.1650 H     1 <1>   0.4500 
 37 H       -1.4370     6.1390    -3.3710 H     1 <1>   0.1500 
 38 H        2.4640     1.0460     0.7900 H     1 <1>   0.0800 
 39 H        2.4160    -0.3270     1.8820 H     1 <1>   0.0800 
 40 H        2.0830     1.2900     2.4740 H     1 <1>   0.0800 
 41 H        2.4630     5.5700    -2.3950 H     1 <1>   0.0800 
 42 H        1.8160     3.9730    -2.6290 H     1 <1>   0.0800 
 43 H        0.1670     7.3210    -2.3120 H     1 <1>   0.0800 
 44 H        1.3400     7.1300    -1.0360 H     1 <1>   0.0800 
 45 H       -1.6470     6.7390    -0.7010 H     1 <1>   0.0800 
 46 H       -0.7060     8.0830    -0.1190 H     1 <1>   0.0800 
 47 H       -0.4400     6.4960     0.5500 H     1 <1>   0.0800 
 48 H        0.8300     4.4300     0.7370 H     1 <1>   0.1500 
 49 H        4.6250     3.9530    -1.0730 H     1 <1>   0.1500 
 50 H        5.6750     2.5930     0.9770 H     1 <1>   0.0800 
 51 H        4.7950     2.6590     2.4860 H     1 <1>   0.0800 
 52 H        6.2020     5.0170     1.1810 H     1 <1>   0.0800 
 53 H        6.7690     4.1450     2.5830 H     1 <1>   0.0800 
 54 H        5.2990     5.0810     2.6840 H     1 <1>   0.0800 
@<TRIPOS>BOND
  1   1   2  2   
  2   2   3  am  
  3   2   4  1   
  4   3   5  1   
  5   3   6  1   
  6   4   7  ar  
  7   4   8  ar  
  8   5   9  1   
  9   5  27  1   
 10   5  28  1   
 11   6  10  1   
 12   6  29  1   
 13   6  30  1   
 14   7  11  ar  
 15   8  12  ar  
 16   8  31  1   
 17   9  13  1   
 18   9  32  1   
 19   9  33  1   
 20  10  13  1   
 21  10  34  1   
 22  10  35  1   
 23  11  14  1   
 24  11  15  ar  
 25  12  15  ar  
 26  13  16  1   
 27  13  36  1   
 28  14  17  1   
 29  14  18  1   
 30  15  37  1   
 31  16  38  1   
 32  16  39  1   
 33  16  40  1   
 34  17  19  1   
 35  17  41  1   
 36  17  42  1   
 37  18  20  1   
 38  18  43  1   
 39  18  44  1   
 40  19  21  1   
 41  19  22  2   
 42  20  45  1   
 43  20  46  1   
 44  20  47  1   
 45  21  23  2   
 46  21  48  1   
 47  22  24  1   
 48  22  49  1   
 49  23  24  1   
 50  24  25  1   
 51  25  26  1   
 52  25  50  1   
 53  25  51  1   
 54  26  52  1   
 55  26  53  1   
 56  26  54  1   
@<TRIPOS>SUBSTRUCTURE
  1 ****   7 GROUP 4 **** **** 0

# MOE 2024.06 (io_trps.svl 2023.06)
