@<TRIPOS>MOLECULE
NONAME
50 51 1 0 0 
SMALL
USER_CHARGES


@<TRIPOS>ATOM
  1 CL       2.4250     1.8640    -2.0820 Cl    1 <1>  -0.1770 
  2 C        2.6470     0.3450    -1.2460 C.ar  1 <1>   0.1770 
  3 C        3.0750     0.3320     0.0800 C.ar  1 <1>   0.0860 
  4 C        2.3950    -0.8160    -1.9500 C.ar  1 <1>  -0.1500 
  5 C        3.2450    -0.9160     0.6930 C.ar  1 <1>  -0.1440 
  6 C        3.3360     1.5730     0.7730 C.2   1 <1>   0.5440 
  7 C        2.5710    -2.0390    -1.3290 C.ar  1 <1>  -0.1500 
  8 C        2.9940    -2.0830    -0.0120 C.ar  1 <1>  -0.1500 
  9 C        3.7040    -1.0000     2.1440 C.3   1 <1>  -0.0960 
 10 O        2.4670     2.0430     1.4840 O.2   1 <1>  -0.5700 
 11 N        4.5480     2.2290     0.6590 N.am  1 <1>  -0.6600 
 12 C        5.6770     1.7290    -0.1870 C.3   1 <1>   0.1400 
 13 C        4.7690     3.5490     1.3120 C.3   1 <1>   0.1400 
 14 C        5.9820     2.6770    -1.3550 C.3   1 <1>   0.1400 
 15 C        4.5050     4.6690     0.2990 C.3   1 <1>  -0.1600 
 16 N        6.6350     3.9310    -0.8700 N.am  1 <1>  -0.6600 
 17 C        5.7170     5.0680    -0.5590 C.3   1 <1>   0.1400 
 18 C        7.9980     3.9550    -0.7080 C.2   1 <1>   0.5690 
 19 O        8.6590     2.9510    -0.8360 O.2   1 <1>  -0.5700 
 20 C        8.7180     5.2530    -0.3520 C.3   1 <1>  -0.0990 
 21 C       10.2510     5.1890    -0.5070 C.3   1 <1>  -0.1600 
 22 C       10.9200     6.5290    -0.1520 C.3   1 <1>  -0.0550 
 23 S       12.7070     6.5380    -0.3460 S.o2  1 <1>   1.3330 
 24 O       13.2660     7.7550     0.1840 O.2   1 <1>  -0.6500 
 25 O       13.0980     6.0480    -1.6420 O.2   1 <1>  -0.6500 
 26 N       13.2460     5.3670     0.6880 N.am  1 <1>  -0.9780 
 27 H        2.0650    -0.7620    -2.9720 H     1 <1>   0.1500 
 28 H        2.3780    -2.9520    -1.8660 H     1 <1>   0.1500 
 29 H        3.1250    -3.0410     0.4620 H     1 <1>   0.1500 
 30 H        2.9990    -0.4950     2.7810 H     1 <1>   0.0800 
 31 H        4.6650    -0.5310     2.2560 H     1 <1>   0.0800 
 32 H        3.7830    -2.0210     2.4700 H     1 <1>   0.0800 
 33 H        5.4450     0.7610    -0.5890 H     1 <1>   0.0800 
 34 H        6.5590     1.6170     0.4200 H     1 <1>   0.0800 
 35 H        5.7710     3.6070     1.7000 H     1 <1>   0.0800 
 36 H        4.0920     3.6570     2.1430 H     1 <1>   0.0800 
 37 H        5.0790     2.9060    -1.8940 H     1 <1>   0.0800 
 38 H        6.6470     2.1780    -2.0380 H     1 <1>   0.0800 
 39 H        4.1860     5.5430     0.8370 H     1 <1>   0.0800 
 40 H        3.6820     4.3890    -0.3350 H     1 <1>   0.0800 
 41 H        6.2530     5.8310    -0.0250 H     1 <1>   0.0800 
 42 H        5.3700     5.5010    -1.4820 H     1 <1>   0.0800 
 43 H        8.4770     5.4960     0.6670 H     1 <1>   0.0800 
 44 H        8.3420     6.0320    -0.9900 H     1 <1>   0.0800 
 45 H       10.4940     4.9250    -1.5240 H     1 <1>   0.0800 
 46 H       10.6400     4.4150     0.1330 H     1 <1>   0.0800 
 47 H       10.6850     6.7760     0.8660 H     1 <1>   0.0800 
 48 H       10.5070     7.2980    -0.7760 H     1 <1>   0.0800 
 49 H       14.0740     5.7820     1.1090 H     1 <1>   0.4200 
 50 H       13.5880     4.6360     0.0660 H     1 <1>   0.4200 
@<TRIPOS>BOND
  1   1   2  1   
  2   2   3  ar  
  3   2   4  ar  
  4   3   5  ar  
  5   3   6  1   
  6   4   7  ar  
  7   4  27  1   
  8   5   8  ar  
  9   5   9  1   
 10   6  10  2   
 11   6  11  am  
 12   7   8  ar  
 13   7  28  1   
 14   8  29  1   
 15   9  30  1   
 16   9  31  1   
 17   9  32  1   
 18  11  12  1   
 19  11  13  1   
 20  12  14  1   
 21  12  33  1   
 22  12  34  1   
 23  13  15  1   
 24  13  35  1   
 25  13  36  1   
 26  14  16  1   
 27  14  37  1   
 28  14  38  1   
 29  15  17  1   
 30  15  39  1   
 31  15  40  1   
 32  16  17  1   
 33  16  18  am  
 34  17  41  1   
 35  17  42  1   
 36  18  19  2   
 37  18  20  1   
 38  20  21  1   
 39  20  43  1   
 40  20  44  1   
 41  21  22  1   
 42  21  45  1   
 43  21  46  1   
 44  22  23  1   
 45  22  47  1   
 46  22  48  1   
 47  23  24  2   
 48  23  25  2   
 49  23  26  am  
 50  26  49  1   
 51  26  50  1   
@<TRIPOS>SUBSTRUCTURE
  1 ****  14 GROUP 4 **** **** 0

# MOE 2024.06 (io_trps.svl 2023.06)
