@<TRIPOS>MOLECULE
NONAME
51 53 1 0 0 
SMALL
USER_CHARGES


@<TRIPOS>ATOM
  1 F       -1.3490    -0.8640     0.9550 F     1 <1>  -0.1900 
  2 C       -2.4890    -0.2420     0.7970 C.ar  1 <1>   0.1900 
  3 C       -2.5980     1.1490     0.9080 C.ar  1 <1>   0.0830 
  4 C       -3.5870    -1.0330     0.5180 C.ar  1 <1>  -0.1500 
  5 O       -1.5950     2.0320     1.1790 O.3   1 <1>  -0.3630 
  6 C       -3.8510     1.7110     0.7260 C.ar  1 <1>  -0.1500 
  7 C       -4.8230    -0.4390     0.3430 C.ar  1 <1>  -0.1500 
  8 C       -0.2490     1.6420     1.3420 C.3   1 <1>   0.0400 
  9 C       -4.9840     0.9460     0.4400 C.ar  1 <1>   0.0530 
 10 C       -6.2700     1.5740     0.2600 C.2   1 <1>   0.0870 
 11 O       -6.5400     2.7190     0.8370 O.3   1 <1>  -0.0190 
 12 C       -7.3850     1.2110    -0.4250 C.2   1 <1>  -0.0860 
 13 N       -7.7540     3.1400     0.5940 N.2   1 <1>  -0.4100 
 14 C       -8.2850     2.2500    -0.1710 C.2   1 <1>   0.3720 
 15 C       -7.6350     0.0590    -1.2280 C.2   1 <1>   0.7160 
 16 N       -9.5960     2.3170    -0.6660 N.pl3 1 <1>  -0.8210 
 17 O       -7.0760    -0.0380    -2.3060 O.2   1 <1>  -0.5700 
 18 N       -8.4510    -0.9700    -0.8000 N.am  1 <1>  -0.6600 
 19 C       -9.6820     2.5420    -2.1350 C.3   1 <1>   0.1290 
 20 C      -10.5230     3.2080     0.0880 C.3   1 <1>   0.1290 
 21 C       -8.6320    -2.2190    -1.5890 C.3   1 <1>   0.1400 
 22 C       -9.2170    -0.9300     0.4770 C.3   1 <1>   0.1400 
 23 C       -8.2330    -3.4260    -0.7370 C.3   1 <1>  -0.1600 
 24 C       -8.8160    -2.1220     1.3460 C.3   1 <1>  -0.1600 
 25 C       -8.9990    -3.4390     0.5910 C.3   1 <1>   0.2000 
 26 O       -8.4940    -4.4490     1.4040 O.3   1 <1>  -0.5600 
 27 C       -9.0260    -5.7180     1.1870 C.3   1 <1>   0.0400 
 28 H       -3.4730    -2.0990     0.4400 H     1 <1>   0.1500 
 29 H       -3.9440     2.7790     0.8080 H     1 <1>   0.1500 
 30 H       -5.6700    -1.0660     0.1320 H     1 <1>   0.1500 
 31 H        0.3360     2.5270     1.5180 H     1 <1>   0.0800 
 32 H        0.0870     1.1570     0.4430 H     1 <1>   0.0800 
 33 H       -0.1750     0.9830     2.1880 H     1 <1>   0.0800 
 34 H       -8.9970     1.8970    -2.6590 H     1 <1>   0.0800 
 35 H       -9.4370     3.5640    -2.3660 H     1 <1>   0.0800 
 36 H      -10.6790     2.3300    -2.4790 H     1 <1>   0.0800 
 37 H      -10.4480     3.0040     1.1430 H     1 <1>   0.0800 
 38 H      -11.5370     3.0340    -0.2260 H     1 <1>   0.0800 
 39 H      -10.2670     4.2400    -0.0840 H     1 <1>   0.0800 
 40 H       -8.0330    -2.2000    -2.4840 H     1 <1>   0.0800 
 41 H       -9.6640    -2.2990    -1.8830 H     1 <1>   0.0800 
 42 H      -10.2690    -0.9710     0.2540 H     1 <1>   0.0800 
 43 H       -9.0340    -0.0190     1.0200 H     1 <1>   0.0800 
 44 H       -7.1760    -3.3800    -0.5450 H     1 <1>   0.0800 
 45 H       -8.4400    -4.3220    -1.2930 H     1 <1>   0.0800 
 46 H       -9.4220    -2.1330     2.2340 H     1 <1>   0.0800 
 47 H       -7.7870    -2.0110     1.6390 H     1 <1>   0.0800 
 48 H      -10.0500    -3.6110     0.4230 H     1 <1>   0.0800 
 49 H       -8.5690    -6.3940     1.8880 H     1 <1>   0.0800 
 50 H       -8.8050    -6.0360     0.1840 H     1 <1>   0.0800 
 51 H      -10.0890    -5.6920     1.3530 H     1 <1>   0.0800 
@<TRIPOS>BOND
  1   1   2  1   
  2   2   3  ar  
  3   2   4  ar  
  4   3   5  1   
  5   3   6  ar  
  6   4   7  ar  
  7   4  28  1   
  8   5   8  1   
  9   6   9  ar  
 10   6  29  1   
 11   7   9  ar  
 12   7  30  1   
 13   8  31  1   
 14   8  32  1   
 15   8  33  1   
 16   9  10  1   
 17  10  11  1   
 18  10  12  2   
 19  11  13  1   
 20  12  14  1   
 21  12  15  1   
 22  13  14  2   
 23  14  16  1   
 24  15  17  2   
 25  15  18  am  
 26  16  19  1   
 27  16  20  1   
 28  18  21  1   
 29  18  22  1   
 30  19  34  1   
 31  19  35  1   
 32  19  36  1   
 33  20  37  1   
 34  20  38  1   
 35  20  39  1   
 36  21  23  1   
 37  21  40  1   
 38  21  41  1   
 39  22  24  1   
 40  22  42  1   
 41  22  43  1   
 42  23  25  1   
 43  23  44  1   
 44  23  45  1   
 45  24  25  1   
 46  24  46  1   
 47  24  47  1   
 48  25  26  1   
 49  25  48  1   
 50  26  27  1   
 51  27  49  1   
 52  27  50  1   
 53  27  51  1   
@<TRIPOS>SUBSTRUCTURE
  1 ****  12 GROUP 4 **** **** 0

# MOE 2024.06 (io_trps.svl 2023.06)
