@<TRIPOS>MOLECULE
NONAME
46 49 1 0 0 
SMALL
USER_CHARGES


@<TRIPOS>ATOM
  1 S       -0.9710    -0.4940     0.1070 S.3   1 <1>  -0.2860 
  2 C       -0.2100     1.0820     0.4840 C.2   1 <1>   0.2420 
  3 C       -0.7970    -1.4140     1.7160 C.3   1 <1>   0.1310 
  4 N        0.3360     1.3710     1.6080 N.2   1 <1>  -0.3380 
  5 N       -0.1610     2.0690    -0.3930 N.pl3 1 <1>   0.0330 
  6 C       -1.3250    -2.8350     1.6050 C.2   1 <1>   0.5690 
  7 N        0.7780     2.6240     1.4790 N.2   1 <1>  -0.3380 
  8 C        0.4770     3.0400     0.2750 C.2   1 <1>   0.1860 
  9 O       -1.7530    -3.3590     2.6020 O.2   1 <1>  -0.5700 
 10 N       -1.3000    -3.4620     0.3950 N.am  1 <1>  -0.7300 
 11 C        0.7630     4.3310    -0.2970 C.2   1 <1>   0.1400 
 12 C       -1.6950    -4.8520     0.0180 C.3   1 <1>   0.2200 
 13 O        1.4020     5.2540     0.4120 O.3   1 <1>  -0.2800 
 14 C        0.4890     4.8460    -1.5280 C.2   1 <1>  -0.1500 
 15 C       -3.1670    -5.0240    -0.3350 C.3   1 <1>  -0.0800 
 16 C       -1.4740    -5.9540     1.0560 C.3   1 <1>   0.1200 
 17 C        1.5410     6.3350    -0.3250 C.2   1 <1>  -0.0100 
 18 C        0.9950     6.1480    -1.5440 C.2   1 <1>  -0.1500 
 19 C       -3.3010    -6.5460    -0.2270 C.3   1 <1>   0.1200 
 20 C       -4.1430    -4.3030     0.6210 C.3   1 <1>  -0.0170 
 21 O       -2.3620    -6.9780     0.7130 O.3   1 <1>  -0.5600 
 22 C       -5.5950    -4.5710     0.2540 C.ar  1 <1>  -0.1430 
 23 C       -6.3940    -5.4090     1.0070 C.ar  1 <1>  -0.1500 
 24 C       -6.1910    -3.9900    -0.8470 C.ar  1 <1>  -0.1500 
 25 C       -7.7090    -5.6240     0.6290 C.ar  1 <1>   0.1600 
 26 C       -7.5160    -4.2710    -1.1370 C.ar  1 <1>   0.1600 
 27 N       -8.2890    -5.0770    -0.4270 N.ar  1 <1>  -0.6200 
 28 H        0.2450    -1.4200     1.9730 H     1 <1>   0.0800 
 29 H       -1.3500    -0.8650     2.4570 H     1 <1>   0.0800 
 30 H       -0.5250     2.0810    -1.3440 H     1 <1>   0.2700 
 31 H       -0.9960    -2.8930    -0.4000 H     1 <1>   0.3700 
 32 H       -1.1110    -5.1290    -0.8430 H     1 <1>   0.0800 
 33 H       -0.0150     4.3800    -2.3540 H     1 <1>   0.1500 
 34 H       -3.3550    -4.7110    -1.3450 H     1 <1>   0.0800 
 35 H       -1.7270    -5.6440     2.0510 H     1 <1>   0.0800 
 36 H       -0.4700    -6.3390     1.0300 H     1 <1>   0.0800 
 37 H        2.0410     7.1900     0.0970 H     1 <1>   0.1500 
 38 H        0.9460     6.8370    -2.3690 H     1 <1>   0.1500 
 39 H       -3.0550    -7.0150    -1.1650 H     1 <1>   0.0800 
 40 H       -4.2790    -6.8710     0.0820 H     1 <1>   0.0800 
 41 H       -3.9770    -3.2410     0.5790 H     1 <1>   0.0800 
 42 H       -3.9620    -4.6160     1.6350 H     1 <1>   0.0800 
 43 H       -6.0040    -5.8960     1.8820 H     1 <1>   0.1500 
 44 H       -5.6390    -3.3200    -1.4790 H     1 <1>   0.1500 
 45 H       -8.3150    -6.2820     1.2280 H     1 <1>   0.1500 
 46 H       -7.9630    -3.8090    -2.0000 H     1 <1>   0.1500 
@<TRIPOS>BOND
  1   1   2  1   
  2   1   3  1   
  3   2   4  2   
  4   2   5  1   
  5   3   6  1   
  6   3  28  1   
  7   3  29  1   
  8   4   7  1   
  9   5   8  1   
 10   5  30  1   
 11   6   9  2   
 12   6  10  am  
 13   7   8  2   
 14   8  11  1   
 15  10  12  1   
 16  10  31  1   
 17  11  13  1   
 18  11  14  2   
 19  12  15  1   
 20  12  16  1   
 21  12  32  1   
 22  13  17  1   
 23  14  18  1   
 24  14  33  1   
 25  15  19  1   
 26  15  20  1   
 27  15  34  1   
 28  16  21  1   
 29  16  35  1   
 30  16  36  1   
 31  17  18  2   
 32  17  37  1   
 33  18  38  1   
 34  19  21  1   
 35  19  39  1   
 36  19  40  1   
 37  20  22  1   
 38  20  41  1   
 39  20  42  1   
 40  22  23  ar  
 41  22  24  ar  
 42  23  25  ar  
 43  23  43  1   
 44  24  26  ar  
 45  24  44  1   
 46  25  27  ar  
 47  25  45  1   
 48  26  27  ar  
 49  26  46  1   
@<TRIPOS>SUBSTRUCTURE
  1 ****   1 GROUP 4 **** **** 0

# MOE 2024.06 (io_trps.svl 2023.06)
