@<TRIPOS>MOLECULE
NONAME
49 51 1 0 0 
SMALL
USER_CHARGES


@<TRIPOS>ATOM
  1 S        0.8460    -0.2790    -1.0340 S.3   1 <1>  -0.0800 
  2 C        1.9050    -0.0320     0.3520 C.2   1 <1>  -0.1400 
  3 C       -0.5820    -0.1650    -0.0230 C.2   1 <1>  -0.1100 
  4 C        1.1740     0.1240     1.4730 C.2   1 <1>  -0.1500 
  5 C        3.4110    -0.0190     0.1260 C.3   1 <1>   0.4690 
  6 C       -0.2390     0.0470     1.2600 C.2   1 <1>  -0.1500 
  7 N        3.6910     1.0870    -0.8110 N.pl3 1 <1>  -0.8690 
  8 C        3.9470    -1.3580    -0.4370 C.3   1 <1>  -0.0800 
  9 C        4.5280     2.1330    -0.5430 C.ar  1 <1>   0.4100 
 10 C        3.5750    -2.5460     0.4790 C.3   1 <1>  -0.1600 
 11 C        5.4770    -1.3180    -0.6460 C.3   1 <1>  -0.1600 
 12 N        5.3870     2.0010     0.4600 N.ar  1 <1>  -0.6200 
 13 C        4.4580     3.2810    -1.3270 C.ar  1 <1>  -0.1500 
 14 C        4.1220    -3.8760    -0.0560 C.3   1 <1>  -0.1600 
 15 C        6.0230    -2.6500    -1.1750 C.3   1 <1>  -0.1600 
 16 C        6.1820     3.0320     0.6870 C.ar  1 <1>   0.1600 
 17 C        5.2870     4.3450    -1.0710 C.ar  1 <1>  -0.1500 
 18 C        5.6400    -3.8130    -0.2530 C.3   1 <1>  -0.1600 
 19 C        6.1840     4.2360    -0.0120 C.ar  1 <1>   0.0860 
 20 C        7.0940     5.2940     0.3610 C.2   1 <1>   0.5440 
 21 O        8.2480     5.0120     0.6250 O.2   1 <1>  -0.5700 
 22 N        6.6960     6.6160     0.4440 N.am  1 <1>  -0.6600 
 23 C        5.2830     7.0430     0.6380 C.3   1 <1>   0.0600 
 24 C        7.6940     7.7160     0.5650 C.3   1 <1>   0.0600 
 25 H       -1.5390    -0.2700    -0.5030 H     1 <1>   0.1500 
 26 H        1.5730     0.2950     2.4580 H     1 <1>   0.1500 
 27 H        3.8870     0.1660     1.0740 H     1 <1>   0.0800 
 28 H       -0.9270     0.1550     2.0810 H     1 <1>   0.1500 
 29 H        2.9010     1.2520    -1.4340 H     1 <1>   0.4000 
 30 H        3.4840    -1.5230    -1.3930 H     1 <1>   0.0800 
 31 H        2.5050    -2.6280     0.5640 H     1 <1>   0.0800 
 32 H        3.9710    -2.3750     1.4660 H     1 <1>   0.0800 
 33 H        5.9590    -1.0800     0.2870 H     1 <1>   0.0800 
 34 H        5.7290    -0.5390    -1.3450 H     1 <1>   0.0800 
 35 H        3.7510     3.3180    -2.1340 H     1 <1>   0.1500 
 36 H        3.6490    -4.1020    -0.9970 H     1 <1>   0.0800 
 37 H        3.8810    -4.6680     0.6320 H     1 <1>   0.0800 
 38 H        7.0950    -2.5920    -1.2560 H     1 <1>   0.0800 
 39 H        5.6270    -2.8300    -2.1600 H     1 <1>   0.0800 
 40 H        6.8910     2.9280     1.4920 H     1 <1>   0.1500 
 41 H        5.2570     5.2390    -1.6680 H     1 <1>   0.1500 
 42 H        5.9890    -4.7390    -0.6760 H     1 <1>   0.0800 
 43 H        6.1200    -3.6830     0.7020 H     1 <1>   0.0800 
 44 H        4.6560     6.2020     0.8740 H     1 <1>   0.0800 
 45 H        4.9210     7.5150    -0.2590 H     1 <1>   0.0800 
 46 H        5.2230     7.7450     1.4520 H     1 <1>   0.0800 
 47 H        8.6620     7.3870     0.2270 H     1 <1>   0.0800 
 48 H        7.7730     8.0220     1.5930 H     1 <1>   0.0800 
 49 H        7.3900     8.5550    -0.0350 H     1 <1>   0.0800 
@<TRIPOS>BOND
  1   1   2  1   
  2   1   3  1   
  3   2   4  2   
  4   2   5  1   
  5   3   6  2   
  6   3  25  1   
  7   4   6  1   
  8   4  26  1   
  9   5   7  1   
 10   5   8  1   
 11   5  27  1   
 12   6  28  1   
 13   7   9  1   
 14   7  29  1   
 15   8  10  1   
 16   8  11  1   
 17   8  30  1   
 18   9  12  ar  
 19   9  13  ar  
 20  10  14  1   
 21  10  31  1   
 22  10  32  1   
 23  11  15  1   
 24  11  33  1   
 25  11  34  1   
 26  12  16  ar  
 27  13  17  ar  
 28  13  35  1   
 29  14  18  1   
 30  14  36  1   
 31  14  37  1   
 32  15  18  1   
 33  15  38  1   
 34  15  39  1   
 35  16  19  ar  
 36  16  40  1   
 37  17  19  ar  
 38  17  41  1   
 39  18  42  1   
 40  18  43  1   
 41  19  20  1   
 42  20  21  2   
 43  20  22  am  
 44  22  23  1   
 45  22  24  1   
 46  23  44  1   
 47  23  45  1   
 48  23  46  1   
 49  24  47  1   
 50  24  48  1   
 51  24  49  1   
@<TRIPOS>SUBSTRUCTURE
  1 ****   9 GROUP 4 **** **** 0

# MOE 2024.06 (io_trps.svl 2023.06)
