@<TRIPOS>MOLECULE
NONAME
47 50 1 0 0 
SMALL
USER_CHARGES


@<TRIPOS>ATOM
  1 O       -2.0710    -0.2100     3.0410 O.3   1 <1>  -0.6800 
  2 C       -2.4700    -0.1380     1.7200 C.3   1 <1>   0.1200 
  3 C       -3.9270     0.3460     1.7080 C.3   1 <1>   0.3430 
  4 N       -4.4750     0.5300     0.3250 N.4   1 <1>  -0.9590 
  5 C       -5.7980     1.2420     0.4160 C.3   1 <1>   0.3430 
  6 C       -4.6260    -0.7700    -0.3980 C.3   1 <1>   0.3430 
  7 C       -6.4070     1.5350    -0.9670 C.3   1 <1>   0.1430 
  8 C       -5.1590    -0.5250    -1.8130 C.3   1 <1>  -0.1600 
  9 C       -7.7850     2.1160    -0.7610 C.ar  1 <1>   0.1670 
 10 C       -6.4940     0.2400    -1.8010 C.3   1 <1>  -0.1600 
 11 C       -5.6770     2.6730    -1.7320 C.3   1 <1>  -0.1600 
 12 N       -8.6780     1.6240     0.0590 N.ar  1 <1>  -0.6200 
 13 C       -7.9860     3.2300    -1.5130 C.ar  1 <1>  -0.1440 
 14 C       -6.7740     3.5660    -2.3460 C.3   1 <1>  -0.0170 
 15 C       -9.8420     2.2900     0.1100 C.ar  1 <1>   0.6200 
 16 C       -9.2010     3.8550    -1.4040 C.ar  1 <1>   0.1600 
 17 N      -10.1280     3.3940    -0.5950 N.ar  1 <1>  -0.6200 
 18 C      -10.8690     1.7780     1.0060 C.ar  1 <1>   0.0000 
 19 C      -11.7710     2.6310     1.6480 C.ar  1 <1>  -0.1500 
 20 C      -10.9990     0.4110     1.2660 C.ar  1 <1>  -0.1500 
 21 C      -12.7440     2.1500     2.5050 C.ar  1 <1>  -0.1500 
 22 C      -11.9700    -0.0780     2.1220 C.ar  1 <1>  -0.1500 
 23 C      -12.8460     0.7920     2.7440 C.ar  1 <1>  -0.1500 
 24 H       -1.1390    -0.5040     3.1270 H     1 <1>   0.4000 
 25 H       -2.3750    -1.1210     1.2920 H     1 <1>   0.0800 
 26 H       -1.8240     0.5600     1.2160 H     1 <1>   0.0800 
 27 H       -3.9660     1.2850     2.2350 H     1 <1>   0.0800 
 28 H       -4.5330    -0.3650     2.2460 H     1 <1>   0.0800 
 29 H       -3.8330     1.1290    -0.2110 H     1 <1>   0.4500 
 30 H       -5.6860     2.1710     0.9510 H     1 <1>   0.0800 
 31 H       -6.4950     0.6310     0.9660 H     1 <1>   0.0800 
 32 H       -5.3140    -1.4050     0.1370 H     1 <1>   0.0800 
 33 H       -3.6760    -1.2770    -0.4580 H     1 <1>   0.0800 
 34 H       -5.3060    -1.4760    -2.2960 H     1 <1>   0.0800 
 35 H       -4.4220     0.0090    -2.3860 H     1 <1>   0.0800 
 36 H       -6.8020     0.4660    -2.8080 H     1 <1>   0.0800 
 37 H       -7.2520    -0.3970    -1.3740 H     1 <1>   0.0800 
 38 H       -5.0060     2.3110    -2.4910 H     1 <1>   0.0800 
 39 H       -5.1150     3.2740    -1.0380 H     1 <1>   0.0800 
 40 H       -6.9570     3.2980    -3.3730 H     1 <1>   0.0800 
 41 H       -6.5220     4.6110    -2.2820 H     1 <1>   0.0800 
 42 H       -9.4170     4.7400    -1.9790 H     1 <1>   0.1500 
 43 H      -11.7080     3.6910     1.4720 H     1 <1>   0.1500 
 44 H      -10.3300    -0.2820     0.7880 H     1 <1>   0.1500 
 45 H      -13.4240     2.8330     2.9840 H     1 <1>   0.1500 
 46 H      -12.0470    -1.1360     2.3030 H     1 <1>   0.1500 
 47 H      -13.6030     0.4150     3.4100 H     1 <1>   0.1500 
@<TRIPOS>BOND
  1   1   2  1   
  2   1  24  1   
  3   2   3  1   
  4   2  25  1   
  5   2  26  1   
  6   3   4  1   
  7   3  27  1   
  8   3  28  1   
  9   4   5  1   
 10   4   6  1   
 11   4  29  1   
 12   5   7  1   
 13   5  30  1   
 14   5  31  1   
 15   6   8  1   
 16   6  32  1   
 17   6  33  1   
 18   7   9  1   
 19   7  10  1   
 20   7  11  1   
 21   8  10  1   
 22   8  34  1   
 23   8  35  1   
 24   9  12  ar  
 25   9  13  ar  
 26  10  36  1   
 27  10  37  1   
 28  11  14  1   
 29  11  38  1   
 30  11  39  1   
 31  12  15  ar  
 32  13  14  1   
 33  13  16  ar  
 34  14  40  1   
 35  14  41  1   
 36  15  17  ar  
 37  15  18  1   
 38  16  17  ar  
 39  16  42  1   
 40  18  19  ar  
 41  18  20  ar  
 42  19  21  ar  
 43  19  43  1   
 44  20  22  ar  
 45  20  44  1   
 46  21  23  ar  
 47  21  45  1   
 48  22  23  ar  
 49  22  46  1   
 50  23  47  1   
@<TRIPOS>SUBSTRUCTURE
  1 ****  12 GROUP 4 **** **** 0

# MOE 2024.06 (io_trps.svl 2023.06)
