@<TRIPOS>MOLECULE
NONAME
47 50 1 0 0 
SMALL
USER_CHARGES


@<TRIPOS>ATOM
  1 O        1.8280    -0.5880     2.3130 O.2   1 <1>  -0.5700 
  2 C        2.0470    -0.9840     1.1900 C.2   1 <1>   0.6300 
  3 N        2.5360    -0.1220     0.2270 N.am  1 <1>  -0.6600 
  4 C        1.7560    -2.4620     0.8820 C.3   1 <1>   0.0320 
  5 C        2.7750     1.3110     0.5940 C.3   1 <1>   0.1400 
  6 C        2.9920    -0.5910    -1.1190 C.3   1 <1>   0.1400 
  7 C        0.5610    -2.6340    -0.0520 C.ar  1 <1>  -0.0320 
  8 C        2.8920    -3.4520     0.8960 C.3   1 <1>  -0.2000 
  9 C        1.8740    -3.4780     1.9860 C.3   1 <1>  -0.2000 
 10 C        4.2730     1.6810     0.7510 C.3   1 <1>   0.4230 
 11 C        4.4140    -0.1390    -1.5170 C.3   1 <1>  -0.0800 
 12 C       -0.6800    -2.1680     0.3520 C.ar  1 <1>  -0.1500 
 13 C        0.6830    -3.2360    -1.2970 C.ar  1 <1>  -0.1500 
 14 N        4.9110     2.1410    -0.5370 N.4   1 <1>  -0.9590 
 15 C        5.1410     0.5800     1.4190 C.3   1 <1>   0.1200 
 16 C        5.5540    -0.6820    -0.6280 C.3   1 <1>   0.1200 
 17 C        4.4820     1.3730    -1.7430 C.3   1 <1>   0.3430 
 18 C       -1.7830    -2.2910    -0.4760 C.ar  1 <1>  -0.1500 
 19 C       -0.4170    -3.3610    -2.1270 C.ar  1 <1>  -0.1500 
 20 C        4.7140     3.6080    -0.7540 C.3   1 <1>   0.2630 
 21 O        5.2410    -0.6400     0.7280 O.3   1 <1>  -0.5600 
 22 C       -1.6510    -2.8870    -1.7180 C.ar  1 <1>  -0.1500 
 23 H        2.3030     1.9490    -0.1310 H     1 <1>   0.0800 
 24 H        2.2950     1.5270     1.5320 H     1 <1>   0.0800 
 25 H        2.9790    -1.6640    -1.1570 H     1 <1>   0.0800 
 26 H        2.2810    -0.2470    -1.8520 H     1 <1>   0.0800 
 27 H        2.9060    -4.2820     0.2130 H     1 <1>   0.1000 
 28 H        3.8800    -3.0980     1.1340 H     1 <1>   0.1000 
 29 H        2.1550    -3.1430     2.9690 H     1 <1>   0.1000 
 30 H        1.1620    -4.2850     2.0150 H     1 <1>   0.1000 
 31 H        4.2980     2.5190     1.4280 H     1 <1>   0.0800 
 32 H        4.5770    -0.5660    -2.4900 H     1 <1>   0.0800 
 33 H       -0.7890    -1.7050     1.3180 H     1 <1>   0.1500 
 34 H        1.6320    -3.6140    -1.6290 H     1 <1>   0.1500 
 35 H        5.9180     1.9650    -0.4170 H     1 <1>   0.4500 
 36 H        4.7150     0.3450     2.3800 H     1 <1>   0.0800 
 37 H        6.1390     0.9440     1.5890 H     1 <1>   0.0800 
 38 H        6.4840    -0.1650    -0.7900 H     1 <1>   0.0800 
 39 H        5.7120    -1.7220    -0.8620 H     1 <1>   0.0800 
 40 H        3.5120     1.7150    -2.0680 H     1 <1>   0.0800 
 41 H        5.1780     1.5700    -2.5430 H     1 <1>   0.0800 
 42 H       -2.7410    -1.9230    -0.1530 H     1 <1>   0.1500 
 43 H       -0.3160    -3.8300    -3.0910 H     1 <1>   0.1500 
 44 H        3.6670     3.8330    -0.8770 H     1 <1>   0.0800 
 45 H        5.2410     3.9300    -1.6380 H     1 <1>   0.0800 
 46 H        5.0900     4.1660     0.0890 H     1 <1>   0.0800 
 47 H       -2.5080    -2.9840    -2.3620 H     1 <1>   0.1500 
@<TRIPOS>BOND
  1   1   2  2   
  2   2   3  am  
  3   2   4  1   
  4   3   5  1   
  5   3   6  1   
  6   4   7  1   
  7   4   8  1   
  8   4   9  1   
  9   5  10  1   
 10   5  23  1   
 11   5  24  1   
 12   6  11  1   
 13   6  25  1   
 14   6  26  1   
 15   7  12  ar  
 16   7  13  ar  
 17   8   9  1   
 18   8  27  1   
 19   8  28  1   
 20   9  29  1   
 21   9  30  1   
 22  10  14  1   
 23  10  15  1   
 24  10  31  1   
 25  11  16  1   
 26  11  17  1   
 27  11  32  1   
 28  12  18  ar  
 29  12  33  1   
 30  13  19  ar  
 31  13  34  1   
 32  14  17  1   
 33  14  20  1   
 34  14  35  1   
 35  15  21  1   
 36  15  36  1   
 37  15  37  1   
 38  16  21  1   
 39  16  38  1   
 40  16  39  1   
 41  17  40  1   
 42  17  41  1   
 43  18  22  ar  
 44  18  42  1   
 45  19  22  ar  
 46  19  43  1   
 47  20  44  1   
 48  20  45  1   
 49  20  46  1   
 50  22  47  1   
@<TRIPOS>SUBSTRUCTURE
  1 ****   3 GROUP 4 **** **** 0

# MOE 2024.06 (io_trps.svl 2023.06)
