@<TRIPOS>MOLECULE
NONAME
51 53 1 0 0 
SMALL
USER_CHARGES


@<TRIPOS>ATOM
  1 O        0.5770    -1.5010    -0.3710 O.3   1 <1>  -0.3630 
  2 C        0.1970    -2.6340     0.2760 C.ar  1 <1>   0.0830 
  3 C        0.0420    -0.2370    -0.0440 C.3   1 <1>   0.0400 
  4 C        0.8140    -3.8260    -0.0940 C.ar  1 <1>  -0.1440 
  5 C       -0.7630    -2.6380     1.2840 C.ar  1 <1>  -0.1500 
  6 C        0.4650    -5.0020     0.5530 C.ar  1 <1>  -0.1500 
  7 C        1.8820    -3.7960    -1.1860 C.3   1 <1>   0.2640 
  8 C       -1.1080    -3.8180     1.9160 C.ar  1 <1>  -0.1500 
  9 C       -0.5000    -5.0080     1.5490 C.ar  1 <1>  -0.1440 
 10 O        2.0550    -5.0610    -1.7620 O.3   1 <1>  -0.5600 
 11 C       -0.8950    -6.3120     2.2110 C.3   1 <1>   0.4860 
 12 C        3.1150    -5.0980    -2.6670 C.3   1 <1>   0.0400 
 13 N       -1.7920    -7.0320     1.2770 N.4   1 <1>  -0.9590 
 14 C       -3.0590    -6.3210     0.9350 C.3   1 <1>   0.3430 
 15 C       -2.1440    -8.4300     1.6100 C.3   1 <1>   0.3430 
 16 C       -4.0710    -7.4160     0.5710 C.3   1 <1>   0.2000 
 17 C       -3.3310    -8.7560     0.6980 C.3   1 <1>  -0.0800 
 18 O       -5.1210    -7.3960     1.4830 O.3   1 <1>  -0.6800 
 19 C       -2.9130    -9.3460    -0.6760 C.3   1 <1>  -0.0170 
 20 C       -1.6400    -8.7700    -1.2930 C.ar  1 <1>   0.1670 
 21 N       -1.6250    -7.4700    -1.5460 N.ar  1 <1>  -0.6200 
 22 C       -0.5570    -9.6110    -1.5510 C.ar  1 <1>   0.1600 
 23 C       -0.4790    -7.0720    -2.0840 C.ar  1 <1>   0.1600 
 24 N        0.5950    -9.2100    -2.0540 N.ar  1 <1>  -0.6200 
 25 C        0.5960    -7.9160    -2.3240 C.ar  1 <1>   0.1600 
 26 H        0.5040     0.4960    -0.6800 H     1 <1>   0.0800 
 27 H        0.2650    -0.0180     0.9850 H     1 <1>   0.0800 
 28 H       -1.0190    -0.2500    -0.2160 H     1 <1>   0.0800 
 29 H       -1.2510    -1.7310     1.5890 H     1 <1>   0.1500 
 30 H        0.9590    -5.9180     0.2730 H     1 <1>   0.1500 
 31 H        2.8170    -3.4780    -0.7570 H     1 <1>   0.0800 
 32 H        1.5980    -3.1120    -1.9680 H     1 <1>   0.0800 
 33 H       -1.8530    -3.7920     2.6940 H     1 <1>   0.1500 
 34 H       -1.3960    -6.1200     3.1450 H     1 <1>   0.0800 
 35 H       -0.0100    -6.8970     2.4040 H     1 <1>   0.0800 
 36 H        3.2050    -6.0980    -3.0530 H     1 <1>   0.0800 
 37 H        4.0270    -4.8310    -2.1610 H     1 <1>   0.0800 
 38 H        2.9190    -4.4150    -3.4760 H     1 <1>   0.0800 
 39 H       -1.2990    -7.0660     0.3610 H     1 <1>   0.4500 
 40 H       -3.4220    -5.7460     1.7700 H     1 <1>   0.0800 
 41 H       -2.8940    -5.6680     0.0930 H     1 <1>   0.0800 
 42 H       -1.3140    -9.0990     1.4440 H     1 <1>   0.0800 
 43 H       -2.4520    -8.4910     2.6410 H     1 <1>   0.0800 
 44 H       -4.4870    -7.2540    -0.4090 H     1 <1>   0.0800 
 45 H       -3.9660    -9.4850     1.1720 H     1 <1>   0.0800 
 46 H       -4.8510    -7.6360     2.3900 H     1 <1>   0.4000 
 47 H       -3.7190    -9.2240    -1.3800 H     1 <1>   0.0800 
 48 H       -2.7810   -10.4070    -0.5530 H     1 <1>   0.0800 
 49 H       -0.6390   -10.6610    -1.3310 H     1 <1>   0.1500 
 50 H       -0.3760    -6.0300    -2.3420 H     1 <1>   0.1500 
 51 H        1.4890    -7.5020    -2.7550 H     1 <1>   0.1500 
@<TRIPOS>BOND
  1   1   2  1   
  2   1   3  1   
  3   2   4  ar  
  4   2   5  ar  
  5   3  26  1   
  6   3  27  1   
  7   3  28  1   
  8   4   6  ar  
  9   4   7  1   
 10   5   8  ar  
 11   5  29  1   
 12   6   9  ar  
 13   6  30  1   
 14   7  10  1   
 15   7  31  1   
 16   7  32  1   
 17   8   9  ar  
 18   8  33  1   
 19   9  11  1   
 20  10  12  1   
 21  11  13  1   
 22  11  34  1   
 23  11  35  1   
 24  12  36  1   
 25  12  37  1   
 26  12  38  1   
 27  13  14  1   
 28  13  15  1   
 29  13  39  1   
 30  14  16  1   
 31  14  40  1   
 32  14  41  1   
 33  15  17  1   
 34  15  42  1   
 35  15  43  1   
 36  16  17  1   
 37  16  18  1   
 38  16  44  1   
 39  17  19  1   
 40  17  45  1   
 41  18  46  1   
 42  19  20  1   
 43  19  47  1   
 44  19  48  1   
 45  20  21  ar  
 46  20  22  ar  
 47  21  23  ar  
 48  22  24  ar  
 49  22  49  1   
 50  23  25  ar  
 51  23  50  1   
 52  24  25  ar  
 53  25  51  1   
@<TRIPOS>SUBSTRUCTURE
  1 ****   6 GROUP 4 **** **** 0

# MOE 2024.06 (io_trps.svl 2023.06)
