@<TRIPOS>MOLECULE
NONAME
51 53 1 0 0 
SMALL
USER_CHARGES


@<TRIPOS>ATOM
  1 S        0.7130    -0.1740     0.2270 S.o2  1 <1>   1.3330 
  2 O        2.1350     0.0960     0.2280 O.2   1 <1>  -0.6500 
  3 O        0.0110    -0.3030     1.4840 O.2   1 <1>  -0.6500 
  4 N        0.4350    -1.5760    -0.6870 N.am  1 <1>  -0.8490 
  5 C       -0.0680     1.1110    -0.7460 C.3   1 <1>  -0.0550 
  6 C       -0.8950    -2.1580    -0.4680 C.3   1 <1>   0.1160 
  7 C        1.4640    -2.5960    -0.4650 C.3   1 <1>   0.1160 
  8 C        0.0080     2.4990    -0.0840 C.3   1 <1>  -0.0800 
  9 C       -0.6240     3.5850    -0.9370 C.3   1 <1>   0.2000 
 10 C        1.4320     3.0100     0.1390 C.3   1 <1>   0.2090 
 11 O       -2.0020     3.5710    -0.7820 O.3   1 <1>  -0.6800 
 12 C        0.0070     4.8790    -0.4320 C.3   1 <1>   0.2090 
 13 N        1.3830     4.5030     0.0270 N.pl3 1 <1>  -0.8380 
 14 C        2.4830     5.3130     0.0890 C.ar  1 <1>   0.1000 
 15 C        2.4440     6.7520     0.0990 C.ar  1 <1>   0.0000 
 16 C        3.7580     4.7310     0.0850 C.ar  1 <1>  -0.1500 
 17 C        3.6270     7.4640    -0.1860 C.ar  1 <1>   0.3610 
 18 C        1.3120     7.5300     0.4220 C.ar  1 <1>  -0.1500 
 19 C        4.9010     5.4590    -0.1090 C.ar  1 <1>   0.2180 
 20 N        4.8190     6.7860    -0.2850 N.ar  1 <1>  -0.1790 
 21 C        3.6010     8.8600    -0.3120 C.ar  1 <1>  -0.1500 
 22 C        1.2850     8.9060     0.3240 C.ar  1 <1>  -0.1440 
 23 C        6.2730     4.8040    -0.1470 C.3   1 <1>  -0.0970 
 24 C        2.4530     9.5680    -0.0720 C.ar  1 <1>  -0.1500 
 25 C        0.0230     9.7320     0.6470 C.3   1 <1>   1.1630 
 26 F        0.1880    10.4780     1.7300 F     1 <1>  -0.3400 
 27 F       -1.0510     8.9830     0.8640 F     1 <1>  -0.3400 
 28 F       -0.2910    10.5610    -0.3390 F     1 <1>  -0.3400 
 29 H        0.3970     1.1490    -1.7120 H     1 <1>   0.0800 
 30 H       -1.1010     0.8630    -0.8930 H     1 <1>   0.0800 
 31 H       -1.0470    -2.9920    -1.1320 H     1 <1>   0.0800 
 32 H       -1.6590    -1.4260    -0.6640 H     1 <1>   0.0800 
 33 H       -0.9950    -2.4970     0.5510 H     1 <1>   0.0800 
 34 H        1.2680    -3.4630    -1.0710 H     1 <1>   0.0800 
 35 H        1.4870    -2.8860     0.5730 H     1 <1>   0.0800 
 36 H        2.4320    -2.2090    -0.7370 H     1 <1>   0.0800 
 37 H       -0.4740     2.4660     0.8780 H     1 <1>   0.0800 
 38 H       -0.3960     3.4520    -1.9810 H     1 <1>   0.0800 
 39 H        2.0810     2.6200    -0.6270 H     1 <1>   0.0800 
 40 H        1.8020     2.7100     1.1070 H     1 <1>   0.0800 
 41 H       -2.2500     3.6470     0.1600 H     1 <1>   0.4000 
 42 H       -0.5620     5.2370     0.4080 H     1 <1>   0.0800 
 43 H        0.0450     5.6170    -1.2140 H     1 <1>   0.0800 
 44 H        3.8550     3.6690     0.2090 H     1 <1>   0.1500 
 45 H        0.4370     7.0270     0.7810 H     1 <1>   0.1500 
 46 H        5.6640     7.3320    -0.4560 H     1 <1>   0.4570 
 47 H        4.4940     9.3930    -0.5900 H     1 <1>   0.1500 
 48 H        6.1920     3.7420     0.0140 H     1 <1>   0.0800 
 49 H        6.9050     5.2090     0.6240 H     1 <1>   0.0800 
 50 H        6.7390     4.9600    -1.1040 H     1 <1>   0.0800 
 51 H        2.4460    10.6440    -0.1710 H     1 <1>   0.1500 
@<TRIPOS>BOND
  1   1   2  2   
  2   1   3  2   
  3   1   4  am  
  4   1   5  1   
  5   4   6  1   
  6   4   7  1   
  7   5   8  1   
  8   5  29  1   
  9   5  30  1   
 10   6  31  1   
 11   6  32  1   
 12   6  33  1   
 13   7  34  1   
 14   7  35  1   
 15   7  36  1   
 16   8   9  1   
 17   8  10  1   
 18   8  37  1   
 19   9  11  1   
 20   9  12  1   
 21   9  38  1   
 22  10  13  1   
 23  10  39  1   
 24  10  40  1   
 25  11  41  1   
 26  12  13  1   
 27  12  42  1   
 28  12  43  1   
 29  13  14  1   
 30  14  15  ar  
 31  14  16  ar  
 32  15  17  ar  
 33  15  18  ar  
 34  16  19  ar  
 35  16  44  1   
 36  17  20  ar  
 37  17  21  ar  
 38  18  22  ar  
 39  18  45  1   
 40  19  20  ar  
 41  19  23  1   
 42  20  46  1   
 43  21  24  ar  
 44  21  47  1   
 45  22  24  ar  
 46  22  25  1   
 47  23  48  1   
 48  23  49  1   
 49  23  50  1   
 50  24  51  1   
 51  25  26  1   
 52  25  27  1   
 53  25  28  1   
@<TRIPOS>SUBSTRUCTURE
  1 ****  13 GROUP 4 **** **** 0

# MOE 2024.06 (io_trps.svl 2023.06)
