@<TRIPOS>MOLECULE
NONAME
39 41 1 0 0 
SMALL
USER_CHARGES


@<TRIPOS>ATOM
  1 O        4.4370    -2.3270     0.6170 O.2   1 <1>  -0.5700 
  2 C        3.2800    -2.2260     0.2420 C.2   1 <1>   0.5440 
  3 N        2.7260    -0.9580     0.2480 N.am  1 <1>  -0.6600 
  4 C        2.5730    -3.4280    -0.2060 C.ar  1 <1>   0.3960 
  5 C        1.4050    -0.5780    -0.3000 C.3   1 <1>   0.1400 
  6 C        3.4580     0.2320     0.7350 C.3   1 <1>   0.1400 
  7 N        1.2420    -3.5530    -0.0550 N.ar  1 <1>  -0.6200 
  8 C        3.3360    -4.4470    -0.7890 C.ar  1 <1>   0.1600 
  9 C        1.4490     0.9420    -0.4000 C.3   1 <1>  -0.1600 
 10 C        2.4440     1.3690     0.6750 C.3   1 <1>  -0.1600 
 11 C        0.7640    -4.6930    -0.5040 C.ar  1 <1>   0.4100 
 12 N        2.8670    -5.5960    -1.2580 N.ar  1 <1>  -0.6200 
 13 N       -0.5890    -4.8160    -0.3300 N.pl3 1 <1>  -0.8690 
 14 C        1.5630    -5.6810    -1.1000 C.ar  1 <1>   0.1600 
 15 C       -1.1810    -6.0500     0.2380 C.3   1 <1>   0.2090 
 16 C       -2.0930    -6.7150    -0.7920 C.3   1 <1>   0.0200 
 17 C       -2.6880    -8.0110    -0.2710 C.2   1 <1>  -0.0400 
 18 O       -3.4870    -8.6820    -1.0750 O.3   1 <1>  -0.2800 
 19 C       -2.5610    -8.6570     0.9110 C.2   1 <1>  -0.1500 
 20 C       -3.8870    -9.7620    -0.4360 C.2   1 <1>  -0.0100 
 21 C       -3.3500    -9.8080     0.8010 C.2   1 <1>  -0.1500 
 22 H        0.6380    -0.8860     0.3910 H     1 <1>   0.0800 
 23 H        1.2340    -1.0340    -1.2600 H     1 <1>   0.0800 
 24 H        4.2880     0.4260     0.0770 H     1 <1>   0.0800 
 25 H        3.8220     0.0720     1.7360 H     1 <1>   0.0800 
 26 H        4.3980    -4.2940    -0.8720 H     1 <1>   0.1500 
 27 H        0.4770     1.3800    -0.2590 H     1 <1>   0.0800 
 28 H        1.8200     1.2170    -1.3720 H     1 <1>   0.0800 
 29 H        2.9130     2.3100     0.4530 H     1 <1>   0.0800 
 30 H        1.9460     1.4410     1.6270 H     1 <1>   0.0800 
 31 H       -0.9710    -3.9620     0.0890 H     1 <1>   0.4000 
 32 H        1.0770    -6.5700    -1.4560 H     1 <1>   0.1500 
 33 H       -1.7530    -5.7980     1.1160 H     1 <1>   0.0800 
 34 H       -0.4020    -6.7350     0.5310 H     1 <1>   0.0800 
 35 H       -1.5310    -6.9310    -1.6820 H     1 <1>   0.0800 
 36 H       -2.8930    -6.0450    -1.0470 H     1 <1>   0.0800 
 37 H       -1.9900    -8.3890     1.7820 H     1 <1>   0.1500 
 38 H       -4.5530   -10.4440    -0.9350 H     1 <1>   0.1500 
 39 H       -3.4790   -10.5550     1.5640 H     1 <1>   0.1500 
@<TRIPOS>BOND
  1   1   2  2   
  2   2   3  am  
  3   2   4  1   
  4   3   5  1   
  5   3   6  1   
  6   4   7  ar  
  7   4   8  ar  
  8   5   9  1   
  9   5  22  1   
 10   5  23  1   
 11   6  10  1   
 12   6  24  1   
 13   6  25  1   
 14   7  11  ar  
 15   8  12  ar  
 16   8  26  1   
 17   9  10  1   
 18   9  27  1   
 19   9  28  1   
 20  10  29  1   
 21  10  30  1   
 22  11  13  1   
 23  11  14  ar  
 24  12  14  ar  
 25  13  15  1   
 26  13  31  1   
 27  14  32  1   
 28  15  16  1   
 29  15  33  1   
 30  15  34  1   
 31  16  17  1   
 32  16  35  1   
 33  16  36  1   
 34  17  18  1   
 35  17  19  2   
 36  18  20  1   
 37  19  21  1   
 38  19  37  1   
 39  20  21  2   
 40  20  38  1   
 41  21  39  1   
@<TRIPOS>SUBSTRUCTURE
  1 ****  11 GROUP 4 **** **** 0

# MOE 2024.06 (io_trps.svl 2023.06)
