@<TRIPOS>MOLECULE
NONAME
57 60 1 0 0 
SMALL
USER_CHARGES


@<TRIPOS>ATOM
  1 O       -0.1930    -0.2890     0.1260 O.2   1 <1>  -0.5700 
  2 C       -1.1670     0.4270     0.1040 C.2   1 <1>   0.5690 
  3 N       -2.3990    -0.1340    -0.1450 N.am  1 <1>  -0.6600 
  4 C       -0.9240     1.9550     0.3200 C.3   1 <1>   0.0610 
  5 C       -3.7420     0.4950    -0.2480 C.3   1 <1>   0.1400 
  6 C       -2.5180    -1.5990    -0.3980 C.3   1 <1>   0.1400 
  7 C       -1.0230     2.6770    -1.0420 C.3   1 <1>  -0.1600 
  8 C        0.5130     2.1920     0.8730 C.3   1 <1>  -0.1600 
  9 C       -1.9210     2.5710     1.3340 C.3   1 <1>  -0.2400 
 10 C       -4.6670    -0.6020    -0.7730 C.3   1 <1>   0.2000 
 11 C       -4.0150    -1.9120    -0.3510 C.3   1 <1>  -0.0800 
 12 C       -0.5740     4.1380    -0.9900 C.3   1 <1>   0.3430 
 13 C        0.9480     3.6550     0.8860 C.3   1 <1>   0.3430 
 14 O       -5.9370    -0.4990    -0.2270 O.3   1 <1>  -0.6800 
 15 C       -4.4310    -3.0990    -1.2370 C.3   1 <1>  -0.0160 
 16 N        0.8260     4.2160    -0.4880 N.4   1 <1>  -0.9590 
 17 C       -3.7390    -4.3790    -0.8040 C.ar  1 <1>   0.1670 
 18 C        1.3450     5.6160    -0.5430 C.3   1 <1>   0.2630 
 19 N       -2.5650    -4.6200    -1.3010 N.ar  1 <1>  -0.6200 
 20 C       -4.3860    -5.2270     0.1100 C.ar  1 <1>  -0.1500 
 21 C       -1.9300    -5.7530    -0.9050 C.ar  1 <1>   0.3100 
 22 C       -3.7740    -6.3720     0.5210 C.ar  1 <1>  -0.1500 
 23 C       -2.4990    -6.6660     0.0100 C.ar  1 <1>   0.0000 
 24 C       -0.6540    -6.0310    -1.4200 C.ar  1 <1>  -0.1500 
 25 C       -1.7710    -7.8180     0.3690 C.ar  1 <1>  -0.1500 
 26 C        0.0380    -7.1560    -1.0570 C.ar  1 <1>  -0.1500 
 27 C       -0.5290    -8.0590    -0.1520 C.ar  1 <1>  -0.1500 
 28 H       -4.0640     0.8020     0.7310 H     1 <1>   0.0800 
 29 H       -3.7340     1.3270    -0.9260 H     1 <1>   0.0800 
 30 H       -2.1110    -1.8200    -1.3710 H     1 <1>   0.0800 
 31 H       -1.9770    -2.1670     0.3410 H     1 <1>   0.0800 
 32 H       -2.0340     2.6460    -1.4020 H     1 <1>   0.0800 
 33 H       -0.4210     2.1550    -1.7670 H     1 <1>   0.0800 
 34 H        1.2340     1.6560     0.2800 H     1 <1>   0.0800 
 35 H        0.5800     1.7940     1.8710 H     1 <1>   0.0800 
 36 H       -1.6210     3.5470     1.6670 H     1 <1>   0.0800 
 37 H       -1.9980     1.9360     2.2000 H     1 <1>   0.0800 
 38 H       -2.9000     2.6810     0.9100 H     1 <1>   0.0800 
 39 H       -4.7490    -0.5310    -1.8440 H     1 <1>   0.0800 
 40 H       -4.2610    -2.1270     0.6740 H     1 <1>   0.0800 
 41 H       -1.2280     4.6950    -0.3390 H     1 <1>   0.0800 
 42 H       -0.6350     4.5650    -1.9780 H     1 <1>   0.0800 
 43 H        1.9720     3.7170     1.2210 H     1 <1>   0.0800 
 44 H        0.3360     4.2170     1.5710 H     1 <1>   0.0800 
 45 H       -5.9090    -0.6480     0.7380 H     1 <1>   0.4000 
 46 H       -4.1780    -2.8970    -2.2630 H     1 <1>   0.0800 
 47 H       -5.4970    -3.2290    -1.1880 H     1 <1>   0.0800 
 48 H        1.4050     3.6260    -1.1050 H     1 <1>   0.4500 
 49 H        0.7600     6.2580     0.0960 H     1 <1>   0.0800 
 50 H        1.2940     5.9950    -1.5510 H     1 <1>   0.0800 
 51 H        2.3720     5.6480    -0.2170 H     1 <1>   0.0800 
 52 H       -5.3600    -4.9610     0.4770 H     1 <1>   0.1500 
 53 H       -4.2370    -7.0470     1.2190 H     1 <1>   0.1500 
 54 H       -0.2360    -5.3240    -2.1130 H     1 <1>   0.1500 
 55 H       -2.2120    -8.5080     1.0670 H     1 <1>   0.1500 
 56 H        1.0160    -7.3560    -1.4600 H     1 <1>   0.1500 
 57 H        0.0250    -8.9400     0.1250 H     1 <1>   0.1500 
@<TRIPOS>BOND
  1   1   2  2   
  2   2   3  am  
  3   2   4  1   
  4   3   5  1   
  5   3   6  1   
  6   4   7  1   
  7   4   8  1   
  8   4   9  1   
  9   5  10  1   
 10   5  28  1   
 11   5  29  1   
 12   6  11  1   
 13   6  30  1   
 14   6  31  1   
 15   7  12  1   
 16   7  32  1   
 17   7  33  1   
 18   8  13  1   
 19   8  34  1   
 20   8  35  1   
 21   9  36  1   
 22   9  37  1   
 23   9  38  1   
 24  10  11  1   
 25  10  14  1   
 26  10  39  1   
 27  11  15  1   
 28  11  40  1   
 29  12  16  1   
 30  12  41  1   
 31  12  42  1   
 32  13  16  1   
 33  13  43  1   
 34  13  44  1   
 35  14  45  1   
 36  15  17  1   
 37  15  46  1   
 38  15  47  1   
 39  16  18  1   
 40  16  48  1   
 41  17  19  ar  
 42  17  20  ar  
 43  18  49  1   
 44  18  50  1   
 45  18  51  1   
 46  19  21  ar  
 47  20  22  ar  
 48  20  52  1   
 49  21  23  ar  
 50  21  24  ar  
 51  22  23  ar  
 52  22  53  1   
 53  23  25  ar  
 54  24  26  ar  
 55  24  54  1   
 56  25  27  ar  
 57  25  55  1   
 58  26  27  ar  
 59  26  56  1   
 60  27  57  1   
@<TRIPOS>SUBSTRUCTURE
  1 ****   6 GROUP 4 **** **** 0

# MOE 2024.06 (io_trps.svl 2023.06)
