@<TRIPOS>MOLECULE
NONAME
57 59 1 0 0 
SMALL
USER_CHARGES


@<TRIPOS>ATOM
  1 O        1.1870    -2.7580     3.1640 O.2   1 <1>  -0.5700 
  2 C        1.8000    -3.1380     2.1770 C.2   1 <1>   0.7670 
  3 N        3.1610    -3.2420     2.2910 N.2   1 <1>  -0.6610 
  4 C        1.1350    -3.4370     0.9430 C.2   1 <1>  -0.1240 
  5 C        3.8190    -3.5870     1.2520 C.2   1 <1>   0.4390 
  6 C        1.8930    -3.7680    -0.1370 C.2   1 <1>  -0.0380 
  7 C       -0.3970    -3.4060     0.9170 C.3   1 <1>   0.0390 
  8 N        3.2430    -3.8370     0.0470 N.pl3 1 <1>  -0.5500 
  9 C        5.3160    -3.7490     1.3280 C.3   1 <1>  -0.1790 
 10 C        1.4260    -4.1000    -1.5430 C.3   1 <1>  -0.1020 
 11 C       -0.9390    -4.8210     1.0820 C.2   1 <1>   0.5690 
 12 O       -0.8480    -5.3250     2.1750 O.2   1 <1>  -0.5700 
 13 N       -1.4530    -5.5310     0.0270 N.am  1 <1>  -0.6600 
 14 C       -1.2630    -7.0220    -0.0060 C.3   1 <1>   0.3640 
 15 C       -2.3130    -4.9540    -1.0490 C.3   1 <1>   0.1400 
 16 C        0.1730    -7.3160    -0.4790 C.ar  1 <1>  -0.1430 
 17 C       -2.3680    -7.7460    -0.8290 C.3   1 <1>   0.2000 
 18 C       -2.2800    -5.8220    -2.3120 C.3   1 <1>   0.1200 
 19 C        1.2050    -7.1630     0.4380 C.ar  1 <1>  -0.1500 
 20 C        0.4950    -7.7100    -1.7730 C.ar  1 <1>  -0.1500 
 21 O       -2.6880    -7.1430    -2.0710 O.3   1 <1>  -0.5600 
 22 C       -3.6770    -7.8790    -0.0360 C.3   1 <1>   0.1200 
 23 C        2.5390    -7.3500     0.0870 C.ar  1 <1>   0.0830 
 24 C        1.8140    -7.9130    -2.1370 C.ar  1 <1>  -0.1500 
 25 O       -3.5320    -8.8170     0.9810 O.3   1 <1>  -0.6800 
 26 O        3.5520    -7.1400     0.9800 O.3   1 <1>  -0.3630 
 27 C        2.8400    -7.7350    -1.2260 C.ar  1 <1>   0.0830 
 28 C        3.2950    -6.8520     2.3400 C.3   1 <1>   0.0400 
 29 O        4.0980    -7.9430    -1.7000 O.3   1 <1>  -0.3630 
 30 C        5.0050    -8.7070    -0.9340 C.3   1 <1>   0.0400 
 31 H       -0.7310    -2.9530     0.0080 H     1 <1>   0.0800 
 32 H       -0.7860    -2.8040     1.7180 H     1 <1>   0.0800 
 33 H        3.8430    -4.1790    -0.7080 H     1 <1>   0.4000 
 34 H        5.5850    -4.7570     1.0720 H     1 <1>   0.0800 
 35 H        5.6580    -3.5430     2.3260 H     1 <1>   0.0800 
 36 H        5.7930    -3.0660     0.6510 H     1 <1>   0.0800 
 37 H        1.8060    -3.3710    -2.2340 H     1 <1>   0.0800 
 38 H        0.3590    -4.1180    -1.6220 H     1 <1>   0.0800 
 39 H        1.7960    -5.0670    -1.8290 H     1 <1>   0.0800 
 40 H       -1.3360    -7.3990     1.0000 H     1 <1>   0.0800 
 41 H       -3.3270    -4.8890    -0.6940 H     1 <1>   0.0800 
 42 H       -1.9930    -3.9640    -1.3080 H     1 <1>   0.0800 
 43 H       -2.0300    -8.7400    -1.0600 H     1 <1>   0.0800 
 44 H       -1.2840    -5.8420    -2.7180 H     1 <1>   0.0800 
 45 H       -2.9380    -5.4150    -3.0590 H     1 <1>   0.0800 
 46 H        0.9480    -6.8770     1.4400 H     1 <1>   0.1500 
 47 H       -0.2660    -7.8630    -2.5170 H     1 <1>   0.1500 
 48 H       -4.4770    -8.2070    -0.6760 H     1 <1>   0.0800 
 49 H       -3.9400    -6.9400     0.4200 H     1 <1>   0.0800 
 50 H        2.0570    -8.2140    -3.1410 H     1 <1>   0.1500 
 51 H       -3.5410    -9.7270     0.6240 H     1 <1>   0.4000 
 52 H        4.2360    -6.7240     2.8410 H     1 <1>   0.0800 
 53 H        2.7550    -7.6740     2.7750 H     1 <1>   0.0800 
 54 H        2.7230    -5.9450     2.4090 H     1 <1>   0.0800 
 55 H        5.7370    -9.1250    -1.6010 H     1 <1>   0.0800 
 56 H        4.4690    -9.4940    -0.4330 H     1 <1>   0.0800 
 57 H        5.4880    -8.0640    -0.2220 H     1 <1>   0.0800 
@<TRIPOS>BOND
  1   1   2  2   
  2   2   3  1   
  3   2   4  1   
  4   3   5  2   
  5   4   6  2   
  6   4   7  1   
  7   5   8  1   
  8   5   9  1   
  9   6   8  1   
 10   6  10  1   
 11   7  11  1   
 12   7  31  1   
 13   7  32  1   
 14   8  33  1   
 15   9  34  1   
 16   9  35  1   
 17   9  36  1   
 18  10  37  1   
 19  10  38  1   
 20  10  39  1   
 21  11  12  2   
 22  11  13  am  
 23  13  14  1   
 24  13  15  1   
 25  14  16  1   
 26  14  17  1   
 27  14  40  1   
 28  15  18  1   
 29  15  41  1   
 30  15  42  1   
 31  16  19  ar  
 32  16  20  ar  
 33  17  21  1   
 34  17  22  1   
 35  17  43  1   
 36  18  21  1   
 37  18  44  1   
 38  18  45  1   
 39  19  23  ar  
 40  19  46  1   
 41  20  24  ar  
 42  20  47  1   
 43  22  25  1   
 44  22  48  1   
 45  22  49  1   
 46  23  26  1   
 47  23  27  ar  
 48  24  27  ar  
 49  24  50  1   
 50  25  51  1   
 51  26  28  1   
 52  27  29  1   
 53  28  52  1   
 54  28  53  1   
 55  28  54  1   
 56  29  30  1   
 57  30  55  1   
 58  30  56  1   
 59  30  57  1   
@<TRIPOS>SUBSTRUCTURE
  1 ****  19 GROUP 4 **** **** 0

# MOE 2024.06 (io_trps.svl 2023.06)
