@<TRIPOS>MOLECULE
NONAME
51 53 1 0 0 
SMALL
USER_CHARGES


@<TRIPOS>ATOM
  1 O       -0.5570     0.1130     0.0550 O.2   1 <1>  -0.5700 
  2 C       -1.5350     0.7990     0.2830 C.2   1 <1>   0.5440 
  3 N       -2.7340     0.1750     0.5470 N.am  1 <1>  -0.6600 
  4 C       -1.4200     2.2450     0.2450 C.ar  1 <1>   0.0860 
  5 C       -2.8080    -1.2890     0.8540 C.3   1 <1>   0.1400 
  6 C       -4.0540     0.7370     0.1310 C.3   1 <1>   0.1400 
  7 C       -2.0440     3.0760     1.1640 C.ar  1 <1>  -0.1500 
  8 C       -0.6690     2.8990    -0.7190 C.ar  1 <1>  -0.1500 
  9 C       -3.5040    -2.0560    -0.2850 C.3   1 <1>   0.3440 
 10 C       -4.6880    -0.1320    -0.9800 C.3   1 <1>   0.2000 
 11 C       -1.9180     4.4490     1.0670 C.ar  1 <1>   0.1660 
 12 C       -0.6000     4.2790    -0.7370 C.ar  1 <1>   0.1660 
 13 O       -4.7500    -1.4700    -0.5670 O.3   1 <1>  -0.5600 
 14 C       -3.7000    -3.5210     0.0960 C.ar  1 <1>  -0.1440 
 15 C       -6.1110     0.3070    -1.3960 C.3   1 <1>  -0.0800 
 16 N       -1.2170     5.0610     0.1310 N.ar  1 <1>  -0.6200 
 17 C       -2.6040     5.3530     2.0690 C.3   1 <1>  -0.0970 
 18 C        0.2180     4.9890    -1.7950 C.3   1 <1>  -0.0970 
 19 C       -2.7140    -4.4460    -0.2180 C.ar  1 <1>  -0.1500 
 20 C       -4.8380    -3.9520     0.7640 C.ar  1 <1>  -0.1500 
 21 C       -6.1230     1.7180    -2.0040 C.3   1 <1>  -0.2400 
 22 C       -7.1400     0.2290    -0.2540 C.3   1 <1>  -0.2400 
 23 C       -2.8620    -5.7770     0.1300 C.ar  1 <1>  -0.1500 
 24 C       -4.9880    -5.2830     1.1130 C.ar  1 <1>  -0.1500 
 25 C       -4.0000    -6.1970     0.7960 C.ar  1 <1>  -0.1500 
 26 H       -1.8250    -1.6970     1.0060 H     1 <1>   0.0800 
 27 H       -3.3640    -1.4340     1.7630 H     1 <1>   0.0800 
 28 H       -4.7050     0.7680     0.9860 H     1 <1>   0.0800 
 29 H       -3.9350     1.7400    -0.2370 H     1 <1>   0.0800 
 30 H       -2.6240     2.6390     1.9560 H     1 <1>   0.1500 
 31 H       -0.1410     2.3150    -1.4500 H     1 <1>   0.1500 
 32 H       -2.9020    -1.9980    -1.1750 H     1 <1>   0.0800 
 33 H       -4.0570    -0.0930    -1.8520 H     1 <1>   0.0800 
 34 H       -6.4270    -0.3740    -2.1680 H     1 <1>   0.0800 
 35 H       -3.1550     4.7850     2.7950 H     1 <1>   0.0800 
 36 H       -3.2800     6.0110     1.5540 H     1 <1>   0.0800 
 37 H       -1.8660     5.9470     2.5770 H     1 <1>   0.0800 
 38 H        0.6920     4.2880    -2.4570 H     1 <1>   0.0800 
 39 H        0.9760     5.5850    -1.3200 H     1 <1>   0.0800 
 40 H       -0.4200     5.6350    -2.3690 H     1 <1>   0.0800 
 41 H       -1.8230    -4.1340    -0.7350 H     1 <1>   0.1500 
 42 H       -5.6150    -3.2490     1.0120 H     1 <1>   0.1500 
 43 H       -5.8860     2.4640    -1.2670 H     1 <1>   0.0800 
 44 H       -7.0980     1.9380    -2.4030 H     1 <1>   0.0800 
 45 H       -5.4110     1.7860    -2.8080 H     1 <1>   0.0800 
 46 H       -6.9220     0.9400     0.5210 H     1 <1>   0.0800 
 47 H       -7.1470    -0.7590     0.1740 H     1 <1>   0.0800 
 48 H       -8.1260     0.4330    -0.6330 H     1 <1>   0.0800 
 49 H       -2.0920    -6.4870    -0.1180 H     1 <1>   0.1500 
 50 H       -5.8760    -5.6050     1.6280 H     1 <1>   0.1500 
 51 H       -4.1160    -7.2320     1.0660 H     1 <1>   0.1500 
@<TRIPOS>BOND
  1   1   2  2   
  2   2   3  am  
  3   2   4  1   
  4   3   5  1   
  5   3   6  1   
  6   4   7  ar  
  7   4   8  ar  
  8   5   9  1   
  9   5  26  1   
 10   5  27  1   
 11   6  10  1   
 12   6  28  1   
 13   6  29  1   
 14   7  11  ar  
 15   7  30  1   
 16   8  12  ar  
 17   8  31  1   
 18   9  13  1   
 19   9  14  1   
 20   9  32  1   
 21  10  13  1   
 22  10  15  1   
 23  10  33  1   
 24  11  16  ar  
 25  11  17  1   
 26  12  16  ar  
 27  12  18  1   
 28  14  19  ar  
 29  14  20  ar  
 30  15  21  1   
 31  15  22  1   
 32  15  34  1   
 33  17  35  1   
 34  17  36  1   
 35  17  37  1   
 36  18  38  1   
 37  18  39  1   
 38  18  40  1   
 39  19  23  ar  
 40  19  41  1   
 41  20  24  ar  
 42  20  42  1   
 43  21  43  1   
 44  21  44  1   
 45  21  45  1   
 46  22  46  1   
 47  22  47  1   
 48  22  48  1   
 49  23  25  ar  
 50  23  49  1   
 51  24  25  ar  
 52  24  50  1   
 53  25  51  1   
@<TRIPOS>SUBSTRUCTURE
  1 ****   3 GROUP 4 **** **** 0

# MOE 2024.06 (io_trps.svl 2023.06)
