@<TRIPOS>MOLECULE
NONAME
48 51 1 0 0 
SMALL
USER_CHARGES


@<TRIPOS>ATOM
  1 O        0.7820    -0.3430     1.5790 O.2   1 <1>  -0.5700 
  2 C        1.1560    -1.3290     0.9690 C.2   1 <1>   0.6950 
  3 N        0.3220    -2.4140     0.9710 N.2   1 <1>  -0.6610 
  4 C        2.4170    -1.3340     0.2750 C.ar  1 <1>   0.0860 
  5 C        0.6500    -3.4880     0.3170 C.2   1 <1>   0.5000 
  6 C        2.7540    -2.4970    -0.4120 C.ar  1 <1>   0.1000 
  7 C        3.3150    -0.2620     0.2460 C.ar  1 <1>  -0.1500 
  8 N        1.8470    -3.5330    -0.3630 N.pl3 1 <1>  -0.5500 
  9 C       -0.1800    -4.7120     0.2580 C.2   1 <1>   0.6300 
 10 C        3.9560    -2.5870    -1.1090 C.ar  1 <1>  -0.1500 
 11 C        4.5050    -0.3510    -0.4450 C.ar  1 <1>  -0.1500 
 12 O        0.3260    -5.7170    -0.2280 O.2   1 <1>  -0.5700 
 13 N       -1.4930    -4.8260     0.7000 N.am  1 <1>  -0.6600 
 14 C        4.8270    -1.5190    -1.1260 C.ar  1 <1>  -0.1500 
 15 C       -2.0680    -6.1790     0.9810 C.3   1 <1>   0.1400 
 16 C       -2.3850    -3.6450     0.9180 C.3   1 <1>   0.1400 
 17 C       -2.7750    -6.7500    -0.2560 C.3   1 <1>   0.1400 
 18 C       -3.8590    -3.8850     0.5620 C.3   1 <1>  -0.1600 
 19 N       -4.1080    -6.1120    -0.4780 N.am  1 <1>  -0.6600 
 20 C       -4.0720    -4.6490    -0.7490 C.3   1 <1>   0.1400 
 21 C       -5.3110    -6.7790    -0.4210 C.2   1 <1>   0.6300 
 22 O       -6.3610    -6.2120    -0.6180 O.2   1 <1>  -0.5700 
 23 C       -5.3750    -8.2830    -0.1070 C.3   1 <1>  -0.0950 
 24 C       -4.9350    -8.7890     1.2380 C.3   1 <1>  -0.2000 
 25 C       -6.3930    -8.7540     0.8910 C.3   1 <1>  -0.2000 
 26 C       -5.1590    -9.1540    -1.3520 C.3   1 <1>  -0.1450 
 27 H        3.0620     0.6420     0.7750 H     1 <1>   0.1500 
 28 H        2.0520    -4.4310    -0.8180 H     1 <1>   0.4000 
 29 H        4.2030    -3.4920    -1.6350 H     1 <1>   0.1500 
 30 H        5.1880     0.4820    -0.4600 H     1 <1>   0.1500 
 31 H        5.7580    -1.5830    -1.6640 H     1 <1>   0.1500 
 32 H       -2.7490    -6.1350     1.8120 H     1 <1>   0.0800 
 33 H       -1.2700    -6.8470     1.2560 H     1 <1>   0.0800 
 34 H       -2.0430    -2.8330     0.3000 H     1 <1>   0.0800 
 35 H       -2.3080    -3.3280     1.9440 H     1 <1>   0.0800 
 36 H       -2.8820    -7.8090    -0.1240 H     1 <1>   0.0800 
 37 H       -2.1550    -6.6010    -1.1230 H     1 <1>   0.0800 
 38 H       -4.3230    -2.9200     0.4660 H     1 <1>   0.0800 
 39 H       -4.3660    -4.3870     1.3680 H     1 <1>   0.0800 
 40 H       -3.2910    -4.4230    -1.4540 H     1 <1>   0.0800 
 41 H       -5.0040    -4.3380    -1.1890 H     1 <1>   0.0800 
 42 H       -4.5780    -8.0880     1.9730 H     1 <1>   0.1000 
 43 H       -4.4470    -9.7450     1.3080 H     1 <1>   0.1000 
 44 H       -6.9090    -9.6810     0.7130 H     1 <1>   0.1000 
 45 H       -7.0250    -8.0180     1.3580 H     1 <1>   0.1000 
 46 H       -4.1920    -8.9640    -1.7810 H     1 <1>   0.0800 
 47 H       -5.9110    -8.9240    -2.0860 H     1 <1>   0.0800 
 48 H       -5.2290   -10.1990    -1.1070 H     1 <1>   0.0800 
@<TRIPOS>BOND
  1   1   2  2   
  2   2   3  1   
  3   2   4  1   
  4   3   5  2   
  5   4   6  ar  
  6   4   7  ar  
  7   5   8  1   
  8   5   9  1   
  9   6   8  1   
 10   6  10  ar  
 11   7  11  ar  
 12   7  27  1   
 13   8  28  1   
 14   9  12  2   
 15   9  13  am  
 16  10  14  ar  
 17  10  29  1   
 18  11  14  ar  
 19  11  30  1   
 20  13  15  1   
 21  13  16  1   
 22  14  31  1   
 23  15  17  1   
 24  15  32  1   
 25  15  33  1   
 26  16  18  1   
 27  16  34  1   
 28  16  35  1   
 29  17  19  1   
 30  17  36  1   
 31  17  37  1   
 32  18  20  1   
 33  18  38  1   
 34  18  39  1   
 35  19  20  1   
 36  19  21  am  
 37  20  40  1   
 38  20  41  1   
 39  21  22  2   
 40  21  23  1   
 41  23  24  1   
 42  23  25  1   
 43  23  26  1   
 44  24  25  1   
 45  24  42  1   
 46  24  43  1   
 47  25  44  1   
 48  25  45  1   
 49  26  46  1   
 50  26  47  1   
 51  26  48  1   
@<TRIPOS>SUBSTRUCTURE
  1 ****  13 GROUP 4 **** **** 0

# MOE 2024.06 (io_trps.svl 2023.06)
