@<TRIPOS>MOLECULE
NONAME
33 33 1 0 0 
SMALL
USER_CHARGES


@<TRIPOS>ATOM
  1 F        0.5130     1.2660     0.1830 F     1 <1>  -0.3400 
  2 C        1.3940     1.4800    -0.7840 C.3   1 <1>   1.1640 
  3 F        0.8670     2.4060    -1.5750 F     1 <1>  -0.3400 
  4 F        1.4430     0.3640    -1.5020 F     1 <1>  -0.3400 
  5 C        2.7700     1.8920    -0.2280 C.ar  1 <1>  -0.1440 
  6 C        3.0380     3.2200     0.0830 C.ar  1 <1>  -0.1500 
  7 C        3.7690     0.9520    -0.0110 C.ar  1 <1>  -0.1500 
  8 C        4.2660     3.6180     0.5890 C.ar  1 <1>  -0.1440 
  9 C        4.9980     1.3330     0.4920 C.ar  1 <1>  -0.1500 
 10 C        5.2590     2.6620     0.7920 C.ar  1 <1>  -0.1430 
 11 C        4.4420     5.1040     0.9010 C.3   1 <1>  -0.0160 
 12 C        6.6320     3.0130     1.3250 C.3   1 <1>   0.4870 
 13 C        4.7560     5.8990    -0.3740 C.3   1 <1>  -0.1600 
 14 N        7.4300     3.4540     0.1690 N.4   1 <1>  -0.8530 
 15 C        5.0320     7.3740    -0.0610 C.3   1 <1>  -0.1600 
 16 C        5.3490     8.1570    -1.3380 C.3   1 <1>  -0.2400 
 17 H        2.2680     3.9600    -0.0720 H     1 <1>   0.1500 
 18 H        3.5920    -0.0900    -0.2320 H     1 <1>   0.1500 
 19 H        5.7410     0.5690     0.6500 H     1 <1>   0.1500 
 20 H        5.2070     5.2660     1.6370 H     1 <1>   0.0800 
 21 H        3.5270     5.4820     1.3280 H     1 <1>   0.0800 
 22 H        7.0800     2.1460     1.7840 H     1 <1>   0.0800 
 23 H        6.5620     3.7940     2.0640 H     1 <1>   0.0800 
 24 H        3.9130     5.8330    -1.0430 H     1 <1>   0.0800 
 25 H        5.6030     5.4770    -0.8810 H     1 <1>   0.0800 
 26 H        7.4440     2.7080    -0.5340 H     1 <1>   0.4500 
 27 H        8.3890     3.7040     0.4280 H     1 <1>   0.4500 
 28 H        6.9670     4.2610    -0.2610 H     1 <1>   0.4500 
 29 H        5.8610     7.4630     0.6200 H     1 <1>   0.0800 
 30 H        4.1680     7.8120     0.4110 H     1 <1>   0.0800 
 31 H        6.2240     7.7640    -1.8230 H     1 <1>   0.0800 
 32 H        5.5290     9.1910    -1.1000 H     1 <1>   0.0800 
 33 H        4.5210     8.1100    -2.0250 H     1 <1>   0.0800 
@<TRIPOS>BOND
  1   1   2  1   
  2   2   3  1   
  3   2   4  1   
  4   2   5  1   
  5   5   6  ar  
  6   5   7  ar  
  7   6   8  ar  
  8   6  17  1   
  9   7   9  ar  
 10   7  18  1   
 11   8  10  ar  
 12   8  11  1   
 13   9  10  ar  
 14   9  19  1   
 15  10  12  1   
 16  11  13  1   
 17  11  20  1   
 18  11  21  1   
 19  12  14  1   
 20  12  22  1   
 21  12  23  1   
 22  13  15  1   
 23  13  24  1   
 24  13  25  1   
 25  14  26  1   
 26  14  27  1   
 27  14  28  1   
 28  15  16  1   
 29  15  29  1   
 30  15  30  1   
 31  16  31  1   
 32  16  32  1   
 33  16  33  1   
@<TRIPOS>SUBSTRUCTURE
  1 ****   6 GROUP 4 **** **** 0

# MOE 2024.06 (io_trps.svl 2023.06)
