@<TRIPOS>MOLECULE
NONAME
55 58 1 0 0 
SMALL
USER_CHARGES


@<TRIPOS>ATOM
  1 O       -1.4400     0.6620    -2.6210 O.2   1 <1>  -0.5700 
  2 C       -2.0610     1.0360    -1.6440 C.2   1 <1>   0.5440 
  3 N       -2.9360     0.1590    -1.0290 N.am  1 <1>  -0.6600 
  4 C       -1.8490     2.3850    -1.1600 C.ar  1 <1>   0.0860 
  5 C       -3.2680    -1.1640    -1.6470 C.3   1 <1>   0.1400 
  6 C       -3.7180     0.5080     0.1880 C.3   1 <1>   0.1400 
  7 C       -2.8610     3.3430    -1.1810 C.ar  1 <1>  -0.1500 
  8 C       -0.6120     2.7790    -0.6580 C.ar  1 <1>  -0.1500 
  9 C       -3.2410    -2.3620    -0.6640 C.3   1 <1>   0.0000 
 10 C       -3.6020    -0.6010     1.2280 C.3   1 <1>  -0.1600 
 11 C       -2.6510     4.6230    -0.7010 C.ar  1 <1>  -0.1500 
 12 C       -0.4030     4.0580    -0.1780 C.ar  1 <1>  -0.1500 
 13 C       -3.9960    -1.9550     0.6320 C.3   1 <1>   0.2000 
 14 C       -4.0740    -3.4990    -1.3090 C.3   1 <1>   0.1200 
 15 C       -1.7930    -2.9210    -0.4500 C.3   1 <1>  -0.0160 
 16 C       -1.4160     5.0180    -0.1810 C.ar  1 <1>   0.0540 
 17 O       -3.8270    -2.9070     1.6140 O.3   1 <1>  -0.6800 
 18 O       -3.5180    -3.9320    -2.5090 O.3   1 <1>  -0.6800 
 19 C       -0.8910    -2.2560     0.5850 C.ar  1 <1>  -0.1440 
 20 C       -1.1890     6.3580     0.3310 C.2   1 <1>   0.4620 
 21 C       -0.7500    -2.8050     1.8530 C.ar  1 <1>  -0.1500 
 22 C       -0.1750    -1.1140     0.2640 C.ar  1 <1>  -0.1500 
 23 N       -2.1450     7.2970     0.3540 N.2   1 <1>  -0.2270 
 24 N       -0.0660     6.7840     0.8140 N.2   1 <1>  -0.7070 
 25 C        0.0570    -2.1930     2.7970 C.ar  1 <1>  -0.1500 
 26 C        0.6340    -0.5020     1.2050 C.ar  1 <1>  -0.1500 
 27 N       -1.6230     8.3400     0.8580 N.2   1 <1>  -0.4180 
 28 N       -0.3740     8.0180     1.1290 N.pl3 1 <1>   0.5800 
 29 C        0.7460    -1.0380     2.4750 C.ar  1 <1>  -0.1500 
 30 C        0.5790     8.9560     1.7270 C.3   1 <1>   0.0160 
 31 H       -4.2560    -1.0740    -2.0630 H     1 <1>   0.0800 
 32 H       -2.6020    -1.3700    -2.4670 H     1 <1>   0.0800 
 33 H       -3.3630     1.4240     0.6270 H     1 <1>   0.0800 
 34 H       -4.7500     0.6440    -0.0870 H     1 <1>   0.0800 
 35 H       -3.8210     3.0740    -1.5830 H     1 <1>   0.1500 
 36 H        0.1920     2.0640    -0.6500 H     1 <1>   0.1500 
 37 H       -4.2590    -0.3720     2.0470 H     1 <1>   0.0800 
 38 H       -2.5990    -0.6100     1.6070 H     1 <1>   0.0800 
 39 H       -3.4610     5.3310    -0.7340 H     1 <1>   0.1500 
 40 H        0.5680     4.3240     0.2060 H     1 <1>   0.1500 
 41 H       -5.0510    -1.9190     0.4190 H     1 <1>   0.0800 
 42 H       -5.0830    -3.1800    -1.5080 H     1 <1>   0.0800 
 43 H       -4.1170    -4.3500    -0.6490 H     1 <1>   0.0800 
 44 H       -1.8700    -3.9580    -0.1730 H     1 <1>   0.0800 
 45 H       -1.2740    -2.9170    -1.3930 H     1 <1>   0.0800 
 46 H       -2.8980    -2.8590     1.9200 H     1 <1>   0.4000 
 47 H       -3.5440    -3.2350    -3.1930 H     1 <1>   0.4000 
 48 H       -1.2570    -3.7170     2.1140 H     1 <1>   0.1500 
 49 H       -0.2440    -0.7020    -0.7270 H     1 <1>   0.1500 
 50 H        0.1550    -2.6200     3.7800 H     1 <1>   0.1500 
 51 H        1.1800     0.3880     0.9470 H     1 <1>   0.1500 
 52 H        1.3730    -0.5620     3.2080 H     1 <1>   0.1500 
 53 H        1.5170     8.4580     1.8820 H     1 <1>   0.0800 
 54 H        0.1870     9.2990     2.6650 H     1 <1>   0.0800 
 55 H        0.7130     9.7870     1.0610 H     1 <1>   0.0800 
@<TRIPOS>BOND
  1   1   2  2   
  2   2   3  am  
  3   2   4  1   
  4   3   5  1   
  5   3   6  1   
  6   4   7  ar  
  7   4   8  ar  
  8   5   9  1   
  9   5  31  1   
 10   5  32  1   
 11   6  10  1   
 12   6  33  1   
 13   6  34  1   
 14   7  11  ar  
 15   7  35  1   
 16   8  12  ar  
 17   8  36  1   
 18   9  13  1   
 19   9  14  1   
 20   9  15  1   
 21  10  13  1   
 22  10  37  1   
 23  10  38  1   
 24  11  16  ar  
 25  11  39  1   
 26  12  16  ar  
 27  12  40  1   
 28  13  17  1   
 29  13  41  1   
 30  14  18  1   
 31  14  42  1   
 32  14  43  1   
 33  15  19  1   
 34  15  44  1   
 35  15  45  1   
 36  16  20  1   
 37  17  46  1   
 38  18  47  1   
 39  19  21  ar  
 40  19  22  ar  
 41  20  23  1   
 42  20  24  2   
 43  21  25  ar  
 44  21  48  1   
 45  22  26  ar  
 46  22  49  1   
 47  23  27  2   
 48  24  28  1   
 49  25  29  ar  
 50  25  50  1   
 51  26  29  ar  
 52  26  51  1   
 53  27  28  1   
 54  28  30  1   
 55  29  52  1   
 56  30  53  1   
 57  30  54  1   
 58  30  55  1   
@<TRIPOS>SUBSTRUCTURE
  1 ****   4 GROUP 4 **** **** 0

# MOE 2024.06 (io_trps.svl 2023.06)
