@<TRIPOS>MOLECULE
NONAME
50 52 1 0 0 
SMALL
USER_CHARGES


@<TRIPOS>ATOM
  1 O        0.4540    -3.0350    -2.3550 O.2   1 <1>  -0.5700 
  2 C       -0.5170    -3.3930    -1.7350 C.2   1 <1>   0.5690 
  3 N       -0.8240    -3.0520    -0.4640 N.am  1 <1>  -0.6600 
  4 C       -1.5570    -4.3200    -2.3000 C.3   1 <1>  -0.0990 
  5 C       -2.0610    -3.7050     0.0070 C.3   1 <1>   0.1400 
  6 C       -0.0290    -2.1700     0.4140 C.3   1 <1>   0.1400 
  7 C       -2.3350    -4.7850    -1.0540 C.3   1 <1>  -0.0800 
  8 C       -0.7940    -0.8740     0.6680 C.3   1 <1>  -0.2400 
  9 C       -1.8280    -6.1660    -0.5960 C.3   1 <1>   0.2090 
 10 N       -2.4720    -6.6250     0.6740 N.pl3 1 <1>  -0.8380 
 11 C       -3.8230    -6.4270     0.9270 C.ar  1 <1>   0.4100 
 12 C       -1.5280    -6.8960     1.7960 C.3   1 <1>   0.1290 
 13 N       -4.0820    -5.7640     2.0560 N.ar  1 <1>  -0.6200 
 14 C       -4.8310    -6.8780     0.0500 C.ar  1 <1>   0.0860 
 15 C       -5.3470    -5.5160     2.3270 C.ar  1 <1>   0.1600 
 16 C       -4.5390    -7.6200    -1.1480 C.2   1 <1>   0.5440 
 17 C       -6.1510    -6.5870     0.3650 C.ar  1 <1>  -0.1500 
 18 C       -6.4080    -5.8950     1.5250 C.ar  1 <1>  -0.1500 
 19 O       -4.6410    -7.0750    -2.2340 O.2   1 <1>  -0.5700 
 20 N       -4.1810    -8.9470    -1.1120 N.am  1 <1>  -0.6600 
 21 C       -3.9520    -9.7330     0.1190 C.3   1 <1>   0.1400 
 22 C       -3.9000    -9.7450    -2.3220 C.3   1 <1>   0.1400 
 23 C       -3.2730   -11.0110    -0.3630 C.3   1 <1>  -0.1600 
 24 C       -3.7270   -11.1710    -1.8120 C.3   1 <1>  -0.1600 
 25 H       -1.1020    -5.1280    -2.8420 H     1 <1>   0.0800 
 26 H       -2.1940    -3.7580    -2.9580 H     1 <1>   0.0800 
 27 H       -2.8600    -2.9850     0.0240 H     1 <1>   0.0800 
 28 H       -1.9310    -4.1150     0.9940 H     1 <1>   0.0800 
 29 H        0.9110    -1.9470    -0.0640 H     1 <1>   0.0800 
 30 H        0.1730    -2.6760     1.3420 H     1 <1>   0.0800 
 31 H       -3.3850    -4.8430    -1.2780 H     1 <1>   0.0800 
 32 H       -1.0070    -0.3850    -0.2650 H     1 <1>   0.0800 
 33 H       -0.1970    -0.2150     1.2710 H     1 <1>   0.0800 
 34 H       -1.7130    -1.0730     1.1890 H     1 <1>   0.0800 
 35 H       -0.7620    -6.1110    -0.4530 H     1 <1>   0.0800 
 36 H       -2.0110    -6.8950    -1.3660 H     1 <1>   0.0800 
 37 H       -0.7850    -7.6090     1.4840 H     1 <1>   0.0800 
 38 H       -2.0590    -7.3000     2.6410 H     1 <1>   0.0800 
 39 H       -1.0430    -5.9830     2.0950 H     1 <1>   0.0800 
 40 H       -5.5550    -4.9780     3.2360 H     1 <1>   0.1500 
 41 H       -6.9450    -6.9010    -0.2900 H     1 <1>   0.1500 
 42 H       -7.4160    -5.6520     1.8100 H     1 <1>   0.1500 
 43 H       -4.9010    -9.9580     0.5750 H     1 <1>   0.0800 
 44 H       -3.3290    -9.1980     0.8150 H     1 <1>   0.0800 
 45 H       -2.9890    -9.3870    -2.7720 H     1 <1>   0.0800 
 46 H       -4.7080    -9.6650    -3.0290 H     1 <1>   0.0800 
 47 H       -3.5340   -11.8570     0.2470 H     1 <1>   0.0800 
 48 H       -2.2060   -10.8700    -0.3290 H     1 <1>   0.0800 
 49 H       -3.0230   -11.7260    -2.4060 H     1 <1>   0.0800 
 50 H       -4.6810   -11.6690    -1.8430 H     1 <1>   0.0800 
@<TRIPOS>BOND
  1   1   2  2   
  2   2   3  am  
  3   2   4  1   
  4   3   5  1   
  5   3   6  1   
  6   4   7  1   
  7   4  25  1   
  8   4  26  1   
  9   5   7  1   
 10   5  27  1   
 11   5  28  1   
 12   6   8  1   
 13   6  29  1   
 14   6  30  1   
 15   7   9  1   
 16   7  31  1   
 17   8  32  1   
 18   8  33  1   
 19   8  34  1   
 20   9  10  1   
 21   9  35  1   
 22   9  36  1   
 23  10  11  1   
 24  10  12  1   
 25  11  13  ar  
 26  11  14  ar  
 27  12  37  1   
 28  12  38  1   
 29  12  39  1   
 30  13  15  ar  
 31  14  16  1   
 32  14  17  ar  
 33  15  18  ar  
 34  15  40  1   
 35  16  19  2   
 36  16  20  am  
 37  17  18  ar  
 38  17  41  1   
 39  18  42  1   
 40  20  21  1   
 41  20  22  1   
 42  21  23  1   
 43  21  43  1   
 44  21  44  1   
 45  22  24  1   
 46  22  45  1   
 47  22  46  1   
 48  23  24  1   
 49  23  47  1   
 50  23  48  1   
 51  24  49  1   
 52  24  50  1   
@<TRIPOS>SUBSTRUCTURE
  1 ****  10 GROUP 4 **** **** 0

# MOE 2024.06 (io_trps.svl 2023.06)
