@<TRIPOS>MOLECULE
NONAME
50 52 1 0 0 
SMALL
USER_CHARGES


@<TRIPOS>ATOM
  1 F       -0.7150     0.1540     0.9900 F     1 <1>  -0.1900 
  2 C       -1.9450     0.5350     0.7550 C.ar  1 <1>   0.1900 
  3 C       -2.2680     1.8630     0.4580 C.ar  1 <1>   0.0830 
  4 C       -2.9150    -0.4470     0.8190 C.ar  1 <1>  -0.1500 
  5 O       -1.4060     2.9160     0.3650 O.3   1 <1>  -0.3630 
  6 C       -3.6000     2.1640     0.2280 C.ar  1 <1>  -0.1500 
  7 C       -4.2360    -0.1110     0.5860 C.ar  1 <1>  -0.1500 
  8 C       -0.0100     2.7840     0.5170 C.3   1 <1>   0.0400 
  9 C       -4.6110     1.2000     0.2820 C.ar  1 <1>   0.0530 
 10 C       -5.9870     1.5650     0.0380 C.2   1 <1>   0.0870 
 11 O       -6.3830     2.7990     0.2200 O.3   1 <1>  -0.0190 
 12 C       -7.0790     0.8620    -0.3640 C.2   1 <1>  -0.0860 
 13 N       -7.6530     2.9730    -0.0310 N.2   1 <1>  -0.4100 
 14 C       -8.0970     1.8210    -0.3960 C.2   1 <1>   0.3720 
 15 C       -7.2070    -0.5220    -0.6960 C.2   1 <1>   0.7160 
 16 N       -9.4290     1.5850    -0.7760 N.pl3 1 <1>  -0.8210 
 17 O       -6.5430    -0.9700    -1.6140 O.2   1 <1>  -0.5700 
 18 N       -8.0210    -1.3800     0.0140 N.am  1 <1>  -0.6600 
 19 C       -9.6060     1.2280    -2.2110 C.3   1 <1>   0.1290 
 20 C      -10.4210     2.6010    -0.3260 C.3   1 <1>   0.1290 
 21 C       -8.1990    -2.8000    -0.4230 C.3   1 <1>   0.1400 
 22 C       -8.8070    -0.9290     1.2020 C.3   1 <1>   0.1400 
 23 C       -9.5650    -3.3470     0.0180 C.3   1 <1>  -0.0800 
 24 C       -9.0000    -2.0890     2.1840 C.3   1 <1>  -0.1600 
 25 C       -9.7290    -3.2870     1.5490 C.3   1 <1>  -0.1600 
 26 C       -9.7820    -4.7770    -0.4940 C.3   1 <1>  -0.2400 
 27 H       -2.6370    -1.4600     1.0490 H     1 <1>   0.1500 
 28 H       -3.8550     3.1830    -0.0040 H     1 <1>   0.1500 
 29 H       -4.9800    -0.8850     0.6440 H     1 <1>   0.1500 
 30 H        0.4350     3.7520     0.3700 H     1 <1>   0.0800 
 31 H        0.3600     2.0970    -0.2230 H     1 <1>   0.0800 
 32 H        0.2030     2.4340     1.5110 H     1 <1>   0.0800 
 33 H       -8.8890     0.4840    -2.5090 H     1 <1>   0.0800 
 34 H       -9.4720     2.1020    -2.8250 H     1 <1>   0.0800 
 35 H      -10.5940     0.8320    -2.3690 H     1 <1>   0.0800 
 36 H      -10.2810     2.8090     0.7210 H     1 <1>   0.0800 
 37 H      -11.4200     2.2310    -0.4740 H     1 <1>   0.0800 
 38 H      -10.2910     3.5150    -0.8810 H     1 <1>   0.0800 
 39 H       -7.4110    -3.3960     0.0030 H     1 <1>   0.0800 
 40 H       -8.1210    -2.8590    -1.4960 H     1 <1>   0.0800 
 41 H       -9.7660    -0.5670     0.8720 H     1 <1>   0.0800 
 42 H       -8.2980    -0.1230     1.7020 H     1 <1>   0.0800 
 43 H      -10.3180    -2.7210    -0.4330 H     1 <1>   0.0800 
 44 H       -9.5490    -1.7460     3.0420 H     1 <1>   0.0800 
 45 H       -8.0280    -2.4000     2.5260 H     1 <1>   0.0800 
 46 H       -9.3500    -4.1880     2.0010 H     1 <1>   0.0800 
 47 H      -10.7800    -3.2300     1.7770 H     1 <1>   0.0800 
 48 H       -9.0350    -5.4410    -0.0960 H     1 <1>   0.0800 
 49 H       -9.7240    -4.8010    -1.5680 H     1 <1>   0.0800 
 50 H      -10.7530    -5.1340    -0.2000 H     1 <1>   0.0800 
@<TRIPOS>BOND
  1   1   2  1   
  2   2   3  ar  
  3   2   4  ar  
  4   3   5  1   
  5   3   6  ar  
  6   4   7  ar  
  7   4  27  1   
  8   5   8  1   
  9   6   9  ar  
 10   6  28  1   
 11   7   9  ar  
 12   7  29  1   
 13   8  30  1   
 14   8  31  1   
 15   8  32  1   
 16   9  10  1   
 17  10  11  1   
 18  10  12  2   
 19  11  13  1   
 20  12  14  1   
 21  12  15  1   
 22  13  14  2   
 23  14  16  1   
 24  15  17  2   
 25  15  18  am  
 26  16  19  1   
 27  16  20  1   
 28  18  21  1   
 29  18  22  1   
 30  19  33  1   
 31  19  34  1   
 32  19  35  1   
 33  20  36  1   
 34  20  37  1   
 35  20  38  1   
 36  21  23  1   
 37  21  39  1   
 38  21  40  1   
 39  22  24  1   
 40  22  41  1   
 41  22  42  1   
 42  23  25  1   
 43  23  26  1   
 44  23  43  1   
 45  24  25  1   
 46  24  44  1   
 47  24  45  1   
 48  25  46  1   
 49  25  47  1   
 50  26  48  1   
 51  26  49  1   
 52  26  50  1   
@<TRIPOS>SUBSTRUCTURE
  1 ****  12 GROUP 4 **** **** 0

# MOE 2024.06 (io_trps.svl 2023.06)
