@<TRIPOS>MOLECULE
NONAME
48 51 1 0 0 
SMALL
USER_CHARGES


@<TRIPOS>ATOM
  1 O        3.6060    -0.9420     2.8990 O.2   1 <1>  -0.5700 
  2 C        2.8450    -1.3740     2.0470 C.2   1 <1>   0.7150 
  3 N        2.5200    -0.5300     0.9910 N.am  1 <1>  -0.6600 
  4 C        2.3170    -2.7150     2.1920 C.2   1 <1>   0.0550 
  5 C        2.7440     0.9450     1.1450 C.3   1 <1>   0.1400 
  6 C        2.1810    -1.0840    -0.3620 C.3   1 <1>   0.1400 
  7 O        1.2700    -3.1340     1.4780 O.3   1 <1>  -0.2800 
  8 C        2.7070    -3.7350     3.0110 C.2   1 <1>  -0.1500 
  9 C        3.9460     1.5080     0.3430 C.3   1 <1>   0.4230 
 10 C        2.9510    -0.4680    -1.5490 C.3   1 <1>  -0.0800 
 11 C        1.0080    -4.3810     1.8040 C.2   1 <1>   0.2030 
 12 C        1.8610    -4.8160     2.7570 C.2   1 <1>  -0.1500 
 13 N        3.5780     1.9290    -1.0590 N.4   1 <1>  -0.9590 
 14 C        5.1960     0.5880     0.3210 C.3   1 <1>   0.1200 
 15 C        4.4640    -0.7720    -1.5630 C.3   1 <1>   0.1200 
 16 C        2.6170     1.0120    -1.7400 C.3   1 <1>   0.3430 
 17 O        0.0090    -5.0550     1.1880 O.3   1 <1>  -0.1460 
 18 C        3.0760     3.3380    -1.0990 C.3   1 <1>   0.2630 
 19 O        5.0320    -0.6630    -0.2980 O.3   1 <1>  -0.5600 
 20 C       -0.8070    -4.4200     0.3120 C.ar  1 <1>   0.0820 
 21 C       -0.8840    -4.8880    -0.9910 C.ar  1 <1>  -0.1500 
 22 C       -1.5680    -3.3260     0.7030 C.ar  1 <1>  -0.1500 
 23 C       -1.7070    -4.2550    -1.9060 C.ar  1 <1>  -0.1500 
 24 C       -2.3920    -2.6950    -0.2130 C.ar  1 <1>  -0.1500 
 25 C       -2.4590    -3.1580    -1.5170 C.ar  1 <1>  -0.1500 
 26 H        1.8430     1.4690     0.8820 H     1 <1>   0.0800 
 27 H        2.9200     1.1670     2.1830 H     1 <1>   0.0800 
 28 H        2.3940    -2.1390    -0.3780 H     1 <1>   0.0800 
 29 H        1.1200    -0.9740    -0.5170 H     1 <1>   0.0800 
 30 H        3.5150    -3.7200     3.7210 H     1 <1>   0.1500 
 31 H        4.2540     2.3980     0.8650 H     1 <1>   0.0800 
 32 H        2.5500    -0.9540    -2.4200 H     1 <1>   0.0800 
 33 H        1.8980    -5.7830     3.2250 H     1 <1>   0.1500 
 34 H        4.4570     1.8840    -1.5930 H     1 <1>   0.4500 
 35 H        5.4900     0.3830     1.3370 H     1 <1>   0.0800 
 36 H        6.0190     1.0870    -0.1590 H     1 <1>   0.0800 
 37 H        5.0070    -0.1460    -2.2510 H     1 <1>   0.0800 
 38 H        4.6110    -1.7960    -1.8650 H     1 <1>   0.0800 
 39 H        1.6180     1.1890    -1.3750 H     1 <1>   0.0800 
 40 H        2.6190     1.2310    -2.7960 H     1 <1>   0.0800 
 41 H        2.1570     3.4250    -0.5430 H     1 <1>   0.0800 
 42 H        2.8930     3.6420    -2.1170 H     1 <1>   0.0800 
 43 H        3.8040     4.0080    -0.6700 H     1 <1>   0.0800 
 44 H       -0.3000    -5.7420    -1.2830 H     1 <1>   0.1500 
 45 H       -1.5140    -2.9740     1.7180 H     1 <1>   0.1500 
 46 H       -1.7650    -4.6160    -2.9180 H     1 <1>   0.1500 
 47 H       -2.9840    -1.8480     0.0890 H     1 <1>   0.1500 
 48 H       -3.1030    -2.6690    -2.2280 H     1 <1>   0.1500 
@<TRIPOS>BOND
  1   1   2  2   
  2   2   3  am  
  3   2   4  1   
  4   3   5  1   
  5   3   6  1   
  6   4   7  1   
  7   4   8  2   
  8   5   9  1   
  9   5  26  1   
 10   5  27  1   
 11   6  10  1   
 12   6  28  1   
 13   6  29  1   
 14   7  11  1   
 15   8  12  1   
 16   8  30  1   
 17   9  13  1   
 18   9  14  1   
 19   9  31  1   
 20  10  15  1   
 21  10  16  1   
 22  10  32  1   
 23  11  12  2   
 24  11  17  1   
 25  12  33  1   
 26  13  16  1   
 27  13  18  1   
 28  13  34  1   
 29  14  19  1   
 30  14  35  1   
 31  14  36  1   
 32  15  19  1   
 33  15  37  1   
 34  15  38  1   
 35  16  39  1   
 36  16  40  1   
 37  17  20  1   
 38  18  41  1   
 39  18  42  1   
 40  18  43  1   
 41  20  21  ar  
 42  20  22  ar  
 43  21  23  ar  
 44  21  44  1   
 45  22  24  ar  
 46  22  45  1   
 47  23  25  ar  
 48  23  46  1   
 49  24  25  ar  
 50  24  47  1   
 51  25  48  1   
@<TRIPOS>SUBSTRUCTURE
  1 ****   6 GROUP 4 **** **** 0

# MOE 2024.06 (io_trps.svl 2023.06)
