@<TRIPOS>MOLECULE
NONAME
41 43 1 0 0 
SMALL
USER_CHARGES


@<TRIPOS>ATOM
  1 O        2.3770    -0.6810     2.6840 O.2   1 <1>  -0.5700 
  2 C        1.8430    -0.9940     1.6370 C.2   1 <1>   0.5440 
  3 N        1.7480    -0.0710     0.6220 N.am  1 <1>  -0.4940 
  4 C        1.3140    -2.3350     1.4630 C.ar  1 <1>   0.0860 
  5 C        2.2410     1.2470     0.4690 C.2   1 <1>  -0.0880 
  6 C        0.7910    -2.7990     0.2450 C.ar  1 <1>   0.1400 
  7 C        1.2980    -3.2540     2.5120 C.ar  1 <1>  -0.1500 
  8 N        2.3620     2.2170     1.4190 N.pl3 1 <1>   0.3140 
  9 C        2.6620     1.8030    -0.6930 C.2   1 <1>  -0.1810 
 10 O        0.6910    -2.1360    -0.9120 O.3   1 <1>  -0.2800 
 11 C        0.2860    -4.0800     0.0870 C.ar  1 <1>   0.0000 
 12 C        0.7930    -4.5460     2.3670 C.ar  1 <1>  -0.1500 
 13 N        2.8430     3.3660     0.8920 N.2   1 <1>  -0.7070 
 14 C        1.9580     2.1800     2.8300 C.3   1 <1>   0.0160 
 15 C        3.0210     3.1070    -0.3640 C.2   1 <1>   0.1080 
 16 C        2.7380     1.1630    -2.0690 C.3   1 <1>  -0.0590 
 17 C        0.1360    -2.9500    -1.8010 C.2   1 <1>  -0.0400 
 18 C        0.2840    -4.9680     1.1580 C.ar  1 <1>  -0.1500 
 19 C       -0.1350    -4.1490    -1.2560 C.2   1 <1>  -0.1500 
 20 C        3.5610     4.1490    -1.3270 C.3   1 <1>   0.0210 
 21 C       -0.0900    -2.4270    -3.2030 C.3   1 <1>  -0.0600 
 22 C        2.4240     4.9370    -1.9860 C.3   1 <1>  -0.2400 
 23 H        1.3570    -0.4680    -0.2370 H     1 <1>   0.3700 
 24 H        1.6890    -2.9590     3.4720 H     1 <1>   0.1500 
 25 H        0.8040    -5.2150     3.2110 H     1 <1>   0.1500 
 26 H        1.0730     1.5830     2.9310 H     1 <1>   0.0800 
 27 H        1.7620     3.1800     3.1660 H     1 <1>   0.0800 
 28 H        2.7560     1.7540     3.4080 H     1 <1>   0.0800 
 29 H        2.4160     0.1390    -2.0340 H     1 <1>   0.0800 
 30 H        3.7520     1.1880    -2.4250 H     1 <1>   0.0800 
 31 H        2.1110     1.7000    -2.7570 H     1 <1>   0.0800 
 32 H       -0.1090    -5.9620     1.0310 H     1 <1>   0.1500 
 33 H       -0.5800    -5.0170    -1.7090 H     1 <1>   0.1500 
 34 H        4.1600     3.6700    -2.0790 H     1 <1>   0.0800 
 35 H        4.1950     4.8250    -0.7810 H     1 <1>   0.0800 
 36 H       -0.7350    -1.5680    -3.1720 H     1 <1>   0.0800 
 37 H       -0.5460    -3.1850    -3.8140 H     1 <1>   0.0800 
 38 H        0.8500    -2.1430    -3.6420 H     1 <1>   0.0800 
 39 H        1.7840     4.2740    -2.5400 H     1 <1>   0.0800 
 40 H        2.8220     5.6800    -2.6520 H     1 <1>   0.0800 
 41 H        1.8380     5.4260    -1.2270 H     1 <1>   0.0800 
@<TRIPOS>BOND
  1   1   2  2   
  2   2   3  am  
  3   2   4  1   
  4   3   5  1   
  5   3  23  1   
  6   4   6  ar  
  7   4   7  ar  
  8   5   8  1   
  9   5   9  2   
 10   6  10  1   
 11   6  11  ar  
 12   7  12  ar  
 13   7  24  1   
 14   8  13  1   
 15   8  14  1   
 16   9  15  1   
 17   9  16  1   
 18  10  17  1   
 19  11  18  ar  
 20  11  19  1   
 21  12  18  ar  
 22  12  25  1   
 23  13  15  2   
 24  14  26  1   
 25  14  27  1   
 26  14  28  1   
 27  15  20  1   
 28  16  29  1   
 29  16  30  1   
 30  16  31  1   
 31  17  19  2   
 32  17  21  1   
 33  18  32  1   
 34  19  33  1   
 35  20  22  1   
 36  20  34  1   
 37  20  35  1   
 38  21  36  1   
 39  21  37  1   
 40  21  38  1   
 41  22  39  1   
 42  22  40  1   
 43  22  41  1   
@<TRIPOS>SUBSTRUCTURE
  1 ****   3 GROUP 4 **** **** 0

# MOE 2024.06 (io_trps.svl 2023.06)
