@<TRIPOS>MOLECULE
NONAME
46 48 1 0 0 
SMALL
USER_CHARGES


@<TRIPOS>ATOM
  1 N       -0.3130     0.0430    -0.0600 N.ar  1 <1>  -0.6200 
  2 C        0.8220     0.6550     0.2440 C.ar  1 <1>   0.7710 
  3 C       -1.3670     0.7830    -0.3380 C.ar  1 <1>   0.4100 
  4 N        0.9040     1.9930     0.3110 N.ar  1 <1>  -0.1790 
  5 N        1.9380    -0.0840     0.5000 N.pl3 1 <1>  -0.8380 
  6 N       -2.5220     0.1540    -0.6600 N.pl3 1 <1>  -0.8690 
  7 C       -1.3230     2.1980    -0.3030 C.ar  1 <1>  -0.1430 
  8 C       -0.1530     2.7950     0.0480 C.ar  1 <1>   0.2170 
  9 C        1.8800    -1.5820     0.5760 C.3   1 <1>   0.1290 
 10 C        3.3400     0.4250     0.6510 C.3   1 <1>   0.1290 
 11 C       -2.8090    -1.2910    -0.8710 C.3   1 <1>   0.2890 
 12 C       -2.5670     3.0250    -0.6430 C.3   1 <1>  -0.0170 
 13 C        0.0390     4.3050     0.1550 C.3   1 <1>  -0.0170 
 14 C       -2.5200    -2.1080     0.3950 C.3   1 <1>   0.0960 
 15 C       -2.0480    -1.7730    -2.1090 C.3   1 <1>  -0.2400 
 16 C       -2.2480     4.5070    -0.8850 C.3   1 <1>  -0.1600 
 17 C       -1.3000     5.0520     0.1870 C.3   1 <1>  -0.1600 
 18 N       -3.0040    -3.4870     0.2350 N.pl3 1 <1>   0.3140 
 19 N       -4.2880    -3.7860     0.1010 N.2   1 <1>  -0.7070 
 20 C       -2.2960    -4.6190     0.1830 C.2   1 <1>   0.0360 
 21 C       -4.2630    -5.0730    -0.0180 C.2   1 <1>   0.3660 
 22 N       -3.0520    -5.6430     0.0230 N.2   1 <1>  -0.5650 
 23 H        1.8040     2.3570     0.5880 H     1 <1>   0.4570 
 24 H       -3.3400     0.7310    -0.8700 H     1 <1>   0.4000 
 25 H        0.9020    -1.9220     0.8680 H     1 <1>   0.0800 
 26 H        2.5840    -1.9470     1.3040 H     1 <1>   0.0800 
 27 H        2.1220    -2.0050    -0.3850 H     1 <1>   0.0800 
 28 H        3.4560     1.4140     0.2460 H     1 <1>   0.0800 
 29 H        4.0210    -0.2230     0.1240 H     1 <1>   0.0800 
 30 H        3.6170     0.4310     1.6930 H     1 <1>   0.0800 
 31 H       -3.8650    -1.3760    -1.0750 H     1 <1>   0.0800 
 32 H       -3.2680     2.9420     0.1710 H     1 <1>   0.0800 
 33 H       -3.0410     2.6370    -1.5290 H     1 <1>   0.0800 
 34 H        0.6080     4.6430    -0.6940 H     1 <1>   0.0800 
 35 H        0.5900     4.5510     1.0460 H     1 <1>   0.0800 
 36 H       -3.0330    -1.6710     1.2300 H     1 <1>   0.0800 
 37 H       -1.4680    -2.1360     0.5980 H     1 <1>   0.0800 
 38 H       -0.9890    -1.7770    -1.9340 H     1 <1>   0.0800 
 39 H       -2.2660    -1.1350    -2.9460 H     1 <1>   0.0800 
 40 H       -2.3540    -2.7720    -2.3660 H     1 <1>   0.0800 
 41 H       -3.1650     5.0740    -0.8840 H     1 <1>   0.0800 
 42 H       -1.7960     4.6240    -1.8560 H     1 <1>   0.0800 
 43 H       -1.1330     6.1040     0.0260 H     1 <1>   0.0800 
 44 H       -1.7580     4.9380     1.1560 H     1 <1>   0.0800 
 45 H       -1.2250    -4.6480     0.2660 H     1 <1>   0.1500 
 46 H       -5.1500    -5.6740    -0.1460 H     1 <1>   0.1500 
@<TRIPOS>BOND
  1   1   2  ar  
  2   1   3  ar  
  3   2   4  ar  
  4   2   5  1   
  5   3   6  1   
  6   3   7  ar  
  7   4   8  ar  
  8   4  23  1   
  9   5   9  1   
 10   5  10  1   
 11   6  11  1   
 12   6  24  1   
 13   7   8  ar  
 14   7  12  1   
 15   8  13  1   
 16   9  25  1   
 17   9  26  1   
 18   9  27  1   
 19  10  28  1   
 20  10  29  1   
 21  10  30  1   
 22  11  14  1   
 23  11  15  1   
 24  11  31  1   
 25  12  16  1   
 26  12  32  1   
 27  12  33  1   
 28  13  17  1   
 29  13  34  1   
 30  13  35  1   
 31  14  18  1   
 32  14  36  1   
 33  14  37  1   
 34  15  38  1   
 35  15  39  1   
 36  15  40  1   
 37  16  17  1   
 38  16  41  1   
 39  16  42  1   
 40  17  43  1   
 41  17  44  1   
 42  18  19  1   
 43  18  20  1   
 44  19  21  2   
 45  20  22  2   
 46  20  45  1   
 47  21  22  1   
 48  21  46  1   
@<TRIPOS>SUBSTRUCTURE
  1 ****   1 GROUP 4 **** **** 0

# MOE 2024.06 (io_trps.svl 2023.06)
