@<TRIPOS>MOLECULE
NONAME
55 56 1 0 0 
SMALL
USER_CHARGES


@<TRIPOS>ATOM
  1 S        1.0540     0.6050    -1.8130 S.o2  1 <1>   1.3330 
  2 O        0.5030     1.4090    -2.8800 O.2   1 <1>  -0.6500 
  3 O        1.3540    -0.7910    -2.0450 O.2   1 <1>  -0.6500 
  4 N       -0.0270     0.6950    -0.5050 N.am  1 <1>  -0.8490 
  5 C        2.5400     1.3940    -1.1930 C.3   1 <1>  -0.0550 
  6 C       -1.0190    -0.3840    -0.5330 C.3   1 <1>   0.1160 
  7 C       -0.7090     1.9910    -0.4030 C.3   1 <1>   0.1160 
  8 C        3.2680     0.6020    -0.0840 C.3   1 <1>  -0.0800 
  9 C        4.6180     1.1720     0.3240 C.3   1 <1>   0.2200 
 10 C        2.5200     0.5120     1.2520 C.3   1 <1>   0.1200 
 11 N        4.5530     2.6480     0.4370 N.am  1 <1>  -0.7300 
 12 C        4.7620     0.5770     1.7170 C.3   1 <1>   0.1200 
 13 O        3.4800     0.6310     2.2620 O.3   1 <1>  -0.5600 
 14 C        5.0310     3.5190    -0.4810 C.2   1 <1>   0.5690 
 15 O        5.5520     3.1510    -1.5030 O.2   1 <1>  -0.5700 
 16 C        4.9050     4.9950    -0.2190 C.3   1 <1>  -0.0990 
 17 C        6.2660     5.5600     0.1890 C.3   1 <1>   0.0960 
 18 N        6.1390     6.9930     0.5170 N.pl3 1 <1>   0.3140 
 19 N        5.5330     7.3540     1.6550 N.2   1 <1>  -0.7070 
 20 C        6.5390     8.0660    -0.1920 C.2   1 <1>  -0.3320 
 21 C        5.5610     8.6440     1.6560 C.2   1 <1>   0.1080 
 22 C        6.1680     9.1840     0.5120 C.2   1 <1>  -0.0860 
 23 C        7.2880     7.9450    -1.5150 C.3   1 <1>  -0.0600 
 24 C        4.9700     9.4370     2.8040 C.3   1 <1>  -0.0590 
 25 C        6.3000    10.5950     0.2420 C.2   1 <1>   0.5950 
 26 O        6.3900    11.4370     1.0990 O.2   1 <1>  -0.5700 
 27 C        6.2940    11.0940    -1.1860 C.3   1 <1>  -0.1790 
 28 H        3.2220     1.5130    -2.0140 H     1 <1>   0.0800 
 29 H        2.2950     2.3750    -0.8400 H     1 <1>   0.0800 
 30 H       -1.6810    -0.3060     0.3130 H     1 <1>   0.0800 
 31 H       -0.5260    -1.3410    -0.4850 H     1 <1>   0.0800 
 32 H       -1.5960    -0.3380    -1.4420 H     1 <1>   0.0800 
 33 H       -1.3080     2.0240     0.4910 H     1 <1>   0.0800 
 34 H       -1.3470     2.1490    -1.2580 H     1 <1>   0.0800 
 35 H        0.0110     2.7890    -0.3580 H     1 <1>   0.0800 
 36 H        3.4280    -0.4030    -0.4350 H     1 <1>   0.0800 
 37 H        5.4160     0.8730    -0.3370 H     1 <1>   0.0800 
 38 H        2.0090    -0.4310     1.3610 H     1 <1>   0.0800 
 39 H        1.8190     1.3190     1.3760 H     1 <1>   0.0800 
 40 H        4.1110     2.9760     1.3010 H     1 <1>   0.3700 
 41 H        5.4470     1.1260     2.3390 H     1 <1>   0.0800 
 42 H        5.0570    -0.4560     1.6650 H     1 <1>   0.0800 
 43 H        4.5630     5.4780    -1.1160 H     1 <1>   0.0800 
 44 H        4.1870     5.1660     0.5630 H     1 <1>   0.0800 
 45 H        6.9770     5.4280    -0.6050 H     1 <1>   0.0800 
 46 H        6.6300     5.0510     1.0630 H     1 <1>   0.0800 
 47 H        7.6980     8.8870    -1.8240 H     1 <1>   0.0800 
 48 H        6.6270     7.5870    -2.2840 H     1 <1>   0.0800 
 49 H        8.1100     7.2580    -1.4160 H     1 <1>   0.0800 
 50 H        4.2640    10.1550     2.4320 H     1 <1>   0.0800 
 51 H        5.7530     9.9520     3.3280 H     1 <1>   0.0800 
 52 H        4.4690     8.7770     3.4880 H     1 <1>   0.0800 
 53 H        5.7730    10.4050    -1.8220 H     1 <1>   0.0800 
 54 H        7.3040    11.2190    -1.5270 H     1 <1>   0.0800 
 55 H        5.7950    12.0450    -1.2290 H     1 <1>   0.0800 
@<TRIPOS>BOND
  1   1   2  2   
  2   1   3  2   
  3   1   4  am  
  4   1   5  1   
  5   4   6  1   
  6   4   7  1   
  7   5   8  1   
  8   5  28  1   
  9   5  29  1   
 10   6  30  1   
 11   6  31  1   
 12   6  32  1   
 13   7  33  1   
 14   7  34  1   
 15   7  35  1   
 16   8   9  1   
 17   8  10  1   
 18   8  36  1   
 19   9  11  1   
 20   9  12  1   
 21   9  37  1   
 22  10  13  1   
 23  10  38  1   
 24  10  39  1   
 25  11  14  am  
 26  11  40  1   
 27  12  13  1   
 28  12  41  1   
 29  12  42  1   
 30  14  15  2   
 31  14  16  1   
 32  16  17  1   
 33  16  43  1   
 34  16  44  1   
 35  17  18  1   
 36  17  45  1   
 37  17  46  1   
 38  18  19  1   
 39  18  20  1   
 40  19  21  2   
 41  20  22  2   
 42  20  23  1   
 43  21  22  1   
 44  21  24  1   
 45  22  25  1   
 46  23  47  1   
 47  23  48  1   
 48  23  49  1   
 49  24  50  1   
 50  24  51  1   
 51  24  52  1   
 52  25  26  2   
 53  25  27  1   
 54  27  53  1   
 55  27  54  1   
 56  27  55  1   
@<TRIPOS>SUBSTRUCTURE
  1 ****  16 GROUP 4 **** **** 0

# MOE 2024.06 (io_trps.svl 2023.06)
