@<TRIPOS>MOLECULE
NONAME
44 46 1 0 0 
SMALL
USER_CHARGES


@<TRIPOS>ATOM
  1 F       -0.9500    -0.0900    -1.4230 F     1 <1>  -0.3400 
  2 C       -1.4550    -0.2960    -0.2130 C.3   1 <1>   1.1640 
  3 F       -0.5960     0.2340     0.6470 F     1 <1>  -0.3400 
  4 F       -2.5590     0.4390    -0.1430 F     1 <1>  -0.3400 
  5 C       -1.7130    -1.7860     0.0750 C.ar  1 <1>  -0.1440 
  6 C       -2.7620    -2.1860     0.8980 C.ar  1 <1>  -0.1500 
  7 C       -0.8930    -2.7670    -0.4720 C.ar  1 <1>  -0.1500 
  8 C       -2.9880    -3.5260     1.1590 C.ar  1 <1>  -0.1500 
  9 C       -1.1180    -4.1080    -0.2120 C.ar  1 <1>  -0.1500 
 10 C       -2.1720    -4.4970     0.6010 C.ar  1 <1>  -0.1430 
 11 C       -2.4270    -5.9660     0.8810 C.3   1 <1>   0.4870 
 12 N       -3.0280    -6.5820    -0.3340 N.4   1 <1>  -0.9590 
 13 C       -4.4330    -6.0950    -0.5310 C.3   1 <1>   0.3430 
 14 C       -3.1020    -8.0700    -0.1930 C.3   1 <1>   0.3430 
 15 C       -5.3340    -7.1860     0.0550 C.3   1 <1>   0.2000 
 16 C       -4.5790    -8.4590    -0.3230 C.3   1 <1>  -0.0800 
 17 O       -5.3530    -7.0410     1.4400 O.3   1 <1>  -0.6800 
 18 C       -4.9380    -9.7310     0.4700 C.3   1 <1>  -0.0170 
 19 C       -4.0100   -10.8680     0.0770 C.ar  1 <1>  -0.1430 
 20 C       -4.1150   -11.5060    -1.1430 C.ar  1 <1>  -0.1500 
 21 C       -3.0100   -11.3180     0.9170 C.ar  1 <1>  -0.1500 
 22 C       -3.2260   -12.5180    -1.4650 C.ar  1 <1>   0.1600 
 23 C       -2.1740   -12.3400     0.4990 C.ar  1 <1>   0.1600 
 24 N       -2.2520   -12.9400    -0.6760 N.ar  1 <1>  -0.6200 
 25 H       -3.4100    -1.4500     1.3470 H     1 <1>   0.1500 
 26 H       -0.0650    -2.4880    -1.1050 H     1 <1>   0.1500 
 27 H       -3.8070    -3.7990     1.8060 H     1 <1>   0.1500 
 28 H       -0.4550    -4.8370    -0.6480 H     1 <1>   0.1500 
 29 H       -3.0930    -6.0740     1.7220 H     1 <1>   0.0800 
 30 H       -1.4930    -6.4470     1.1190 H     1 <1>   0.0800 
 31 H       -2.4520    -6.3050    -1.1370 H     1 <1>   0.4500 
 32 H       -4.6120    -5.1440    -0.0580 H     1 <1>   0.0800 
 33 H       -4.6350    -6.0050    -1.5860 H     1 <1>   0.0800 
 34 H       -2.5120    -8.5700    -0.9450 H     1 <1>   0.0800 
 35 H       -2.7440    -8.3660     0.7800 H     1 <1>   0.0800 
 36 H       -6.3430    -7.1400    -0.3220 H     1 <1>   0.0800 
 37 H       -4.7640    -8.6560    -1.3650 H     1 <1>   0.0800 
 38 H       -6.1030    -7.5360     1.8370 H     1 <1>   0.4000 
 39 H       -5.9570   -10.0150     0.2680 H     1 <1>   0.0800 
 40 H       -4.8510    -9.5590     1.5290 H     1 <1>   0.0800 
 41 H       -4.8770   -11.2340    -1.8500 H     1 <1>   0.1500 
 42 H       -2.8690   -10.8950     1.8950 H     1 <1>   0.1500 
 43 H       -3.3200   -13.0070    -2.4210 H     1 <1>   0.1500 
 44 H       -1.4000   -12.6840     1.1650 H     1 <1>   0.1500 
@<TRIPOS>BOND
  1   1   2  1   
  2   2   3  1   
  3   2   4  1   
  4   2   5  1   
  5   5   6  ar  
  6   5   7  ar  
  7   6   8  ar  
  8   6  25  1   
  9   7   9  ar  
 10   7  26  1   
 11   8  10  ar  
 12   8  27  1   
 13   9  10  ar  
 14   9  28  1   
 15  10  11  1   
 16  11  12  1   
 17  11  29  1   
 18  11  30  1   
 19  12  13  1   
 20  12  14  1   
 21  12  31  1   
 22  13  15  1   
 23  13  32  1   
 24  13  33  1   
 25  14  16  1   
 26  14  34  1   
 27  14  35  1   
 28  15  16  1   
 29  15  17  1   
 30  15  36  1   
 31  16  18  1   
 32  16  37  1   
 33  17  38  1   
 34  18  19  1   
 35  18  39  1   
 36  18  40  1   
 37  19  20  ar  
 38  19  21  ar  
 39  20  22  ar  
 40  20  41  1   
 41  21  23  ar  
 42  21  42  1   
 43  22  24  ar  
 44  22  43  1   
 45  23  24  ar  
 46  23  44  1   
@<TRIPOS>SUBSTRUCTURE
  1 ****  12 GROUP 4 **** **** 0

# MOE 2024.06 (io_trps.svl 2023.06)
