@<TRIPOS>MOLECULE
NONAME
48 51 1 0 0 
SMALL
USER_CHARGES


@<TRIPOS>ATOM
  1 O       -0.4750     0.4060     1.0450 O.2   1 <1>  -0.5700 
  2 C       -1.3780     0.9780     0.4520 C.2   1 <1>   0.7160 
  3 N       -2.5220     0.2450     0.1950 N.am  1 <1>  -0.6600 
  4 C       -1.2010     2.3760     0.0510 C.2   1 <1>   0.2030 
  5 C       -3.7550     0.7490    -0.4580 C.3   1 <1>   0.1400 
  6 C       -2.7020    -1.1650     0.5980 C.3   1 <1>   0.1400 
  7 N       -1.9910     3.1130    -0.7180 N.2   1 <1>  -0.7070 
  8 C       -0.1020     3.1400     0.4570 C.2   1 <1>  -0.1500 
  9 C       -4.7730    -0.3960    -0.3650 C.3   1 <1>   0.2000 
 10 C       -3.9030    -1.6490    -0.2170 C.3   1 <1>  -0.0800 
 11 N       -1.3950     4.3120    -0.7860 N.pl3 1 <1>   0.3000 
 12 C       -0.2440     4.3750    -0.0870 C.2   1 <1>  -0.2050 
 13 O       -5.5540    -0.2550     0.7890 O.3   1 <1>  -0.5600 
 14 C       -4.6210    -2.8600     0.4050 C.3   1 <1>   0.0200 
 15 C        0.5460     5.5760    -0.0340 C.ar  1 <1>   0.3630 
 16 C       -6.6450     0.6030     0.6690 C.3   1 <1>   0.0400 
 17 C       -3.7860    -4.1300     0.3750 C.2   1 <1>  -0.0400 
 18 N        0.0820     6.6330    -0.7050 N.ar  1 <1>  -0.6200 
 19 C        1.7360     5.6160     0.6900 C.ar  1 <1>  -0.1500 
 20 O       -4.2530    -5.2010     0.9600 O.3   1 <1>  -0.0190 
 21 C       -2.5920    -4.4430    -0.1540 C.2   1 <1>  -0.1500 
 22 C        0.8130     7.7330    -0.6510 C.ar  1 <1>   0.1600 
 23 C        2.4880     6.7680     0.7380 C.ar  1 <1>  -0.1500 
 24 N       -3.4380    -6.2100     0.8540 N.2   1 <1>  -0.4100 
 25 C       -2.4270    -5.7820     0.1870 C.2   1 <1>   0.1080 
 26 C        2.0040     7.8540     0.0430 C.ar  1 <1>  -0.1500 
 27 C       -1.2250    -6.6270    -0.1710 C.3   1 <1>  -0.0590 
 28 H       -4.1080     1.6420     0.0270 H     1 <1>   0.0800 
 29 H       -3.5350     0.9630    -1.4890 H     1 <1>   0.0800 
 30 H       -1.8140    -1.7390     0.3960 H     1 <1>   0.0800 
 31 H       -2.9200    -1.1980     1.6520 H     1 <1>   0.0800 
 32 H        0.6890     2.7740     1.0870 H     1 <1>   0.1500 
 33 H       -5.4180    -0.4500    -1.2250 H     1 <1>   0.0800 
 34 H       -3.5510    -1.9180    -1.1970 H     1 <1>   0.0800 
 35 H       -1.7630     5.1140    -1.3140 H     1 <1>   0.2700 
 36 H       -5.5360    -3.0440    -0.1280 H     1 <1>   0.0800 
 37 H       -4.8780    -2.6440     1.4280 H     1 <1>   0.0800 
 38 H       -7.1580     0.6250     1.6150 H     1 <1>   0.0800 
 39 H       -7.3090     0.2310    -0.0920 H     1 <1>   0.0800 
 40 H       -6.3030     1.5940     0.4240 H     1 <1>   0.0800 
 41 H        2.0670     4.7390     1.2130 H     1 <1>   0.1500 
 42 H       -1.8980    -3.8450    -0.7140 H     1 <1>   0.1500 
 43 H        0.4450     8.5890    -1.1910 H     1 <1>   0.1500 
 44 H        3.4100     6.8180     1.2920 H     1 <1>   0.1500 
 45 H        2.5410     8.7860     0.0380 H     1 <1>   0.1500 
 46 H       -1.1050    -6.6570    -1.2380 H     1 <1>   0.0800 
 47 H       -1.3620    -7.6300     0.1920 H     1 <1>   0.0800 
 48 H       -0.3420    -6.2120     0.2770 H     1 <1>   0.0800 
@<TRIPOS>BOND
  1   1   2  2   
  2   2   3  am  
  3   2   4  1   
  4   3   5  1   
  5   3   6  1   
  6   4   7  2   
  7   4   8  1   
  8   5   9  1   
  9   5  28  1   
 10   5  29  1   
 11   6  10  1   
 12   6  30  1   
 13   6  31  1   
 14   7  11  1   
 15   8  12  2   
 16   8  32  1   
 17   9  10  1   
 18   9  13  1   
 19   9  33  1   
 20  10  14  1   
 21  10  34  1   
 22  11  12  1   
 23  11  35  1   
 24  12  15  1   
 25  13  16  1   
 26  14  17  1   
 27  14  36  1   
 28  14  37  1   
 29  15  18  ar  
 30  15  19  ar  
 31  16  38  1   
 32  16  39  1   
 33  16  40  1   
 34  17  20  1   
 35  17  21  2   
 36  18  22  ar  
 37  19  23  ar  
 38  19  41  1   
 39  20  24  1   
 40  21  25  1   
 41  21  42  1   
 42  22  26  ar  
 43  22  43  1   
 44  23  26  ar  
 45  23  44  1   
 46  24  25  2   
 47  25  27  1   
 48  26  45  1   
 49  27  46  1   
 50  27  47  1   
 51  27  48  1   
@<TRIPOS>SUBSTRUCTURE
  1 ****   2 GROUP 4 **** **** 0

# MOE 2024.06 (io_trps.svl 2023.06)
