@<TRIPOS>MOLECULE
NONAME
45 47 1 0 0 
SMALL
USER_CHARGES


@<TRIPOS>ATOM
  1 S        0.6270    -0.0750     0.1970 S.o2  1 <1>   1.3330 
  2 O        0.7810    -0.5100     1.5670 O.2   1 <1>  -0.6500 
  3 O        0.4570    -1.0570    -0.8490 O.2   1 <1>  -0.6500 
  4 N       -0.6900     0.9940     0.1300 N.am  1 <1>  -0.8490 
  5 C        2.0250     0.9700    -0.2000 C.3   1 <1>  -0.0550 
  6 C       -1.1310     1.2890    -1.2380 C.3   1 <1>   0.1160 
  7 C       -1.8250     0.5180     0.9250 C.3   1 <1>   0.1160 
  8 C        3.3650     0.2070    -0.2220 C.3   1 <1>  -0.0800 
  9 C        4.5540     1.0130    -0.7280 C.3   1 <1>   0.2200 
 10 C        3.8430    -0.2870     1.1510 C.3   1 <1>   0.1200 
 11 N        4.5220     2.3930    -0.1860 N.am  1 <1>  -0.7300 
 12 C        5.6980     0.2600    -0.0680 C.3   1 <1>   0.1200 
 13 O        5.2210    -0.0480     1.2050 O.3   1 <1>  -0.5600 
 14 C        4.0980     3.4930    -0.8630 C.2   1 <1>   0.7150 
 15 O        3.6520     3.3480    -1.9830 O.2   1 <1>  -0.5700 
 16 C        4.1550     4.7950    -0.2530 C.2   1 <1>  -0.2370 
 17 N        4.3590     5.0140     1.0910 N.pl3 1 <1>   0.0330 
 18 C        4.0140     6.0160    -0.8490 C.2   1 <1>  -0.1500 
 19 C        4.3510     6.3610     1.3370 C.ar  1 <1>  -0.1520 
 20 C        4.1350     7.0180     0.1280 C.ar  1 <1>   0.0000 
 21 C        4.5140     7.0680     2.5350 C.ar  1 <1>  -0.1500 
 22 C        4.0810     8.4160     0.0990 C.ar  1 <1>  -0.1500 
 23 C        4.4600     8.4430     2.5050 C.ar  1 <1>  -0.1500 
 24 C        4.2440     9.0890     1.2830 C.ar  1 <1>   0.1900 
 25 F        4.1980    10.3970     1.2850 F     1 <1>  -0.1900 
 26 H        1.8700     1.4060    -1.1680 H     1 <1>   0.0800 
 27 H        2.0730     1.7690     0.5130 H     1 <1>   0.0800 
 28 H       -1.9170     2.0240    -1.2220 H     1 <1>   0.0800 
 29 H       -1.4960     0.3960    -1.7190 H     1 <1>   0.0800 
 30 H       -0.3140     1.6840    -1.8180 H     1 <1>   0.0800 
 31 H       -2.6350     1.2250     0.8810 H     1 <1>   0.0800 
 32 H       -1.5320     0.4070     1.9560 H     1 <1>   0.0800 
 33 H       -2.1650    -0.4370     0.5580 H     1 <1>   0.0800 
 34 H        3.2540    -0.6540    -0.8590 H     1 <1>   0.0800 
 35 H        4.6300     1.0220    -1.8030 H     1 <1>   0.0800 
 36 H        3.6660    -1.3420     1.2790 H     1 <1>   0.0800 
 37 H        3.3840     0.2550     1.9600 H     1 <1>   0.0800 
 38 H        4.9470     2.4740     0.7360 H     1 <1>   0.3700 
 39 H        6.5990     0.8430     0.0090 H     1 <1>   0.0800 
 40 H        5.9000    -0.6640    -0.5820 H     1 <1>   0.0800 
 41 H        4.4560     4.2960     1.8140 H     1 <1>   0.2700 
 42 H        3.8350     6.2060    -1.8940 H     1 <1>   0.1500 
 43 H        4.6780     6.5400     3.4580 H     1 <1>   0.1500 
 44 H        3.9150     8.9350    -0.8260 H     1 <1>   0.1500 
 45 H        4.5800     9.0320     3.3950 H     1 <1>   0.1500 
@<TRIPOS>BOND
  1   1   2  2   
  2   1   3  2   
  3   1   4  am  
  4   1   5  1   
  5   4   6  1   
  6   4   7  1   
  7   5   8  1   
  8   5  26  1   
  9   5  27  1   
 10   6  28  1   
 11   6  29  1   
 12   6  30  1   
 13   7  31  1   
 14   7  32  1   
 15   7  33  1   
 16   8   9  1   
 17   8  10  1   
 18   8  34  1   
 19   9  11  1   
 20   9  12  1   
 21   9  35  1   
 22  10  13  1   
 23  10  36  1   
 24  10  37  1   
 25  11  14  am  
 26  11  38  1   
 27  12  13  1   
 28  12  39  1   
 29  12  40  1   
 30  14  15  2   
 31  14  16  1   
 32  16  17  1   
 33  16  18  2   
 34  17  19  1   
 35  17  41  1   
 36  18  20  1   
 37  18  42  1   
 38  19  20  ar  
 39  19  21  ar  
 40  20  22  ar  
 41  21  23  ar  
 42  21  43  1   
 43  22  24  ar  
 44  22  44  1   
 45  23  24  ar  
 46  23  45  1   
 47  24  25  1   
@<TRIPOS>SUBSTRUCTURE
  1 ****  14 GROUP 4 **** **** 0

# MOE 2024.06 (io_trps.svl 2023.06)
