@<TRIPOS>MOLECULE
NONAME
47 48 1 0 0 
SMALL
USER_CHARGES


@<TRIPOS>ATOM
  1 N       -0.9610    -1.1750    -0.3860 N.ar  1 <1>  -0.6200 
  2 C       -1.4540    -0.8890     0.8140 C.ar  1 <1>   0.1660 
  3 C       -0.5680    -0.1480    -1.1210 C.ar  1 <1>   0.1660 
  4 C       -1.5750     0.4050     1.3010 C.ar  1 <1>  -0.1500 
  5 C       -1.9070    -2.0560     1.7060 C.3   1 <1>   0.2540 
  6 C       -0.6560     1.1740    -0.7160 C.ar  1 <1>  -0.1500 
  7 C        0.0090    -0.4890    -2.4790 C.3   1 <1>  -0.0970 
  8 C       -1.1730     1.4700     0.5250 C.ar  1 <1>  -0.1500 
  9 N       -3.0180    -2.8840     1.1550 N.3   1 <1>  -0.8100 
 10 C       -2.4630    -3.8990     0.2290 C.3   1 <1>   0.2900 
 11 C       -4.0810    -2.0380     0.5670 C.3   1 <1>   0.1100 
 12 C       -3.5360    -4.8720    -0.2200 C.2   1 <1>  -0.3320 
 13 C       -5.4470    -2.7490     0.5670 C.3   1 <1>   0.3430 
 14 N       -3.8090    -5.1070    -1.5180 N.pl3 1 <1>   0.0330 
 15 C       -4.3860    -5.6470     0.4920 C.2   1 <1>   0.0460 
 16 N       -6.6080    -1.8250     0.3520 N.4   1 <1>  -0.9590 
 17 C       -4.8410    -5.9750    -1.5080 C.2   1 <1>   0.0360 
 18 N       -5.2290    -6.3060    -0.3210 N.2   1 <1>  -0.5650 
 19 C       -4.4800    -5.8320     1.9910 C.3   1 <1>  -0.0590 
 20 C       -7.8730    -2.6120     0.4680 C.3   1 <1>   0.2630 
 21 C       -6.5380    -1.1340    -0.9730 C.3   1 <1>   0.2630 
 22 H       -1.9760     0.5870     2.2810 H     1 <1>   0.1500 
 23 H       -2.2310    -1.6590     2.6520 H     1 <1>   0.0800 
 24 H       -1.0550    -2.6800     1.9130 H     1 <1>   0.0800 
 25 H       -0.3200     1.9660    -1.3600 H     1 <1>   0.1500 
 26 H        0.8610    -1.1320    -2.3530 H     1 <1>   0.0800 
 27 H        0.3180     0.3960    -3.0030 H     1 <1>   0.0800 
 28 H       -0.7280    -1.0020    -3.0670 H     1 <1>   0.0800 
 29 H       -1.2510     2.4860     0.8740 H     1 <1>   0.1500 
 30 H       -1.6880    -4.4570     0.7290 H     1 <1>   0.0800 
 31 H       -2.0240    -3.4210    -0.6290 H     1 <1>   0.0800 
 32 H       -3.8020    -1.7520    -0.4330 H     1 <1>   0.0800 
 33 H       -4.1770    -1.1490     1.1650 H     1 <1>   0.0800 
 34 H       -5.5600    -3.2450     1.5170 H     1 <1>   0.0800 
 35 H       -5.4550    -3.5030    -0.2010 H     1 <1>   0.0800 
 36 H       -3.3270    -4.7330    -2.3410 H     1 <1>   0.2700 
 37 H       -6.5920    -1.1190     1.1030 H     1 <1>   0.4500 
 38 H       -5.2830    -6.3510    -2.4150 H     1 <1>   0.1500 
 39 H       -3.7500    -5.2270     2.4950 H     1 <1>   0.0800 
 40 H       -4.3010    -6.8640     2.2320 H     1 <1>   0.0800 
 41 H       -5.4610    -5.5630     2.3330 H     1 <1>   0.0800 
 42 H       -7.9030    -3.3840    -0.2850 H     1 <1>   0.0800 
 43 H       -8.7300    -1.9700     0.3410 H     1 <1>   0.0800 
 44 H       -7.9340    -3.0810     1.4370 H     1 <1>   0.0800 
 45 H       -6.5300    -1.8590    -1.7710 H     1 <1>   0.0800 
 46 H       -5.6440    -0.5370    -1.0400 H     1 <1>   0.0800 
 47 H       -7.3920    -0.4880    -1.1030 H     1 <1>   0.0800 
@<TRIPOS>BOND
  1   1   2  ar  
  2   1   3  ar  
  3   2   4  ar  
  4   2   5  1   
  5   3   6  ar  
  6   3   7  1   
  7   4   8  ar  
  8   4  22  1   
  9   5   9  1   
 10   5  23  1   
 11   5  24  1   
 12   6   8  ar  
 13   6  25  1   
 14   7  26  1   
 15   7  27  1   
 16   7  28  1   
 17   8  29  1   
 18   9  10  1   
 19   9  11  1   
 20  10  12  1   
 21  10  30  1   
 22  10  31  1   
 23  11  13  1   
 24  11  32  1   
 25  11  33  1   
 26  12  14  1   
 27  12  15  2   
 28  13  16  1   
 29  13  34  1   
 30  13  35  1   
 31  14  17  1   
 32  14  36  1   
 33  15  18  1   
 34  15  19  1   
 35  16  20  1   
 36  16  21  1   
 37  16  37  1   
 38  17  18  2   
 39  17  38  1   
 40  19  39  1   
 41  19  40  1   
 42  19  41  1   
 43  20  42  1   
 44  20  43  1   
 45  20  44  1   
 46  21  45  1   
 47  21  46  1   
 48  21  47  1   
@<TRIPOS>SUBSTRUCTURE
  1 ****  11 GROUP 4 **** **** 0

# MOE 2024.06 (io_trps.svl 2023.06)
