@<TRIPOS>MOLECULE
NONAME
50 53 1 0 0 
SMALL
USER_CHARGES


@<TRIPOS>ATOM
  1 S       -0.3030     0.2740     1.0750 S.o2  1 <1>   1.5000 
  2 O       -0.7420     1.2100     2.0850 O.2   1 <1>  -0.6500 
  3 O       -0.1520    -1.1240     1.4280 O.2   1 <1>  -0.6500 
  4 N       -1.4430     0.3040    -0.1920 N.am  1 <1>  -0.8490 
  5 C        1.1930     0.9010     0.2790 C.2   1 <1>  -0.0220 
  6 C       -1.5570    -0.9560    -0.9430 C.3   1 <1>   0.1960 
  7 C       -2.7530     0.8790     0.1440 C.3   1 <1>   0.1960 
  8 S        2.1670    -0.2460    -0.6570 S.3   1 <1>  -0.0800 
  9 C        1.7460     2.1280     0.2060 C.2   1 <1>  -0.1500 
 10 C       -2.4160    -2.0190    -0.1950 C.3   1 <1>   0.4230 
 11 C       -3.6000    -0.1260     0.9390 C.3   1 <1>  -0.1600 
 12 C        3.3260     1.0040    -1.1200 C.ar  1 <1>   0.0400 
 13 C        2.9500     2.2200    -0.5730 C.ar  1 <1>   0.0000 
 14 N       -2.4460    -3.3880    -0.8620 N.4   1 <1>  -0.9590 
 15 C       -3.8180    -1.4690     0.1880 C.3   1 <1>   0.0000 
 16 C        4.4490     0.8400    -1.9090 C.ar  1 <1>  -0.1500 
 17 C        3.7500     3.3290    -0.8350 C.ar  1 <1>  -0.1500 
 18 C       -3.5590    -4.2730    -0.3820 C.3   1 <1>   0.3430 
 19 C       -2.4020    -3.3860    -2.3610 C.3   1 <1>   0.2630 
 20 C       -4.5180    -2.4750     1.1490 C.3   1 <1>  -0.1600 
 21 C       -4.6790    -1.2510    -1.0900 C.3   1 <1>   0.1200 
 22 C        5.2300     1.9540    -2.1590 C.ar  1 <1>  -0.1500 
 23 C        4.8800     3.1910    -1.6230 C.ar  1 <1>  -0.1500 
 24 C       -3.9730    -3.9130     1.0440 C.3   1 <1>  -0.1600 
 25 O       -5.8340    -0.5420    -0.8120 O.3   1 <1>  -0.6800 
 26 H       -1.9960    -0.7310    -1.8980 H     1 <1>   0.0800 
 27 H       -0.5710    -1.3500    -1.1200 H     1 <1>   0.0800 
 28 H       -2.6320     1.7910     0.7080 H     1 <1>   0.0800 
 29 H       -3.2680     1.1470    -0.7640 H     1 <1>   0.0800 
 30 H        1.3480     3.0090     0.6790 H     1 <1>   0.1500 
 31 H       -1.9250    -2.1750     0.7500 H     1 <1>   0.0800 
 32 H       -3.1100    -0.3000     1.8830 H     1 <1>   0.0800 
 33 H       -4.5440     0.3340     1.1740 H     1 <1>   0.0800 
 34 H       -1.5770    -3.8400    -0.5370 H     1 <1>   0.4500 
 35 H        4.7010    -0.1240    -2.3110 H     1 <1>   0.1500 
 36 H        3.4850     4.2870    -0.4230 H     1 <1>   0.1500 
 37 H       -4.4170    -4.1610    -1.0250 H     1 <1>   0.0800 
 38 H       -3.2480    -5.3060    -0.4220 H     1 <1>   0.0800 
 39 H       -3.2700    -2.8920    -2.7650 H     1 <1>   0.0800 
 40 H       -2.3810    -4.3980    -2.7340 H     1 <1>   0.0800 
 41 H       -1.5190    -2.8790    -2.7150 H     1 <1>   0.0800 
 42 H       -4.4010    -2.1640     2.1740 H     1 <1>   0.0800 
 43 H       -5.5780    -2.4880     0.9620 H     1 <1>   0.0800 
 44 H       -4.9750    -2.1850    -1.5320 H     1 <1>   0.0800 
 45 H       -4.1470    -0.6800    -1.8300 H     1 <1>   0.0800 
 46 H        6.1130     1.8670    -2.7690 H     1 <1>   0.1500 
 47 H        5.4980     4.0490    -1.8260 H     1 <1>   0.1500 
 48 H       -4.7300    -4.6020     1.3790 H     1 <1>   0.0800 
 49 H       -3.1260    -4.0370     1.6980 H     1 <1>   0.0800 
 50 H       -6.4220    -1.0150    -0.1900 H     1 <1>   0.4000 
@<TRIPOS>BOND
  1   1   2  2   
  2   1   3  2   
  3   1   4  am  
  4   1   5  1   
  5   4   6  1   
  6   4   7  1   
  7   5   8  1   
  8   5   9  2   
  9   6  10  1   
 10   6  26  1   
 11   6  27  1   
 12   7  11  1   
 13   7  28  1   
 14   7  29  1   
 15   8  12  1   
 16   9  13  1   
 17   9  30  1   
 18  10  14  1   
 19  10  15  1   
 20  10  31  1   
 21  11  15  1   
 22  11  32  1   
 23  11  33  1   
 24  12  13  ar  
 25  12  16  ar  
 26  13  17  ar  
 27  14  18  1   
 28  14  19  1   
 29  14  34  1   
 30  15  20  1   
 31  15  21  1   
 32  16  22  ar  
 33  16  35  1   
 34  17  23  ar  
 35  17  36  1   
 36  18  24  1   
 37  18  37  1   
 38  18  38  1   
 39  19  39  1   
 40  19  40  1   
 41  19  41  1   
 42  20  24  1   
 43  20  42  1   
 44  20  43  1   
 45  21  25  1   
 46  21  44  1   
 47  21  45  1   
 48  22  23  ar  
 49  22  46  1   
 50  23  47  1   
 51  24  48  1   
 52  24  49  1   
 53  25  50  1   
@<TRIPOS>SUBSTRUCTURE
  1 ****   4 GROUP 4 **** **** 0

# MOE 2024.06 (io_trps.svl 2023.06)
