@<TRIPOS>MOLECULE
NONAME
55 58 1 0 0 
SMALL
USER_CHARGES


@<TRIPOS>ATOM
  1 O       -4.1190     2.3830    -1.3610 O.2   1 <1>  -0.5700 
  2 C       -2.9400     2.4130    -1.1030 C.2   1 <1>   0.5690 
  3 N       -2.3640     1.9390     0.0240 N.am  1 <1>  -0.6600 
  4 C       -1.9030     2.9720    -2.0360 C.3   1 <1>  -0.0990 
  5 C       -0.8990     2.0660     0.0230 C.3   1 <1>   0.1400 
  6 C       -3.0860     1.2790     1.1300 C.3   1 <1>   0.1400 
  7 C       -0.6070     2.9420    -1.2050 C.3   1 <1>  -0.1600 
  8 C       -3.1170    -0.2280     0.8790 C.3   1 <1>  -0.1600 
  9 C       -4.0250    -0.9470     1.8890 C.3   1 <1>  -0.0990 
 10 C       -4.1220    -2.4320     1.5900 C.2   1 <1>   0.5690 
 11 O       -3.3810    -3.1740     2.1880 O.2   1 <1>  -0.5700 
 12 N       -5.0180    -2.8970     0.6670 N.am  1 <1>  -0.6600 
 13 C       -5.9960    -2.0940    -0.1120 C.3   1 <1>   0.1400 
 14 C       -5.1200    -4.3320     0.3120 C.3   1 <1>   0.1400 
 15 C       -6.7370    -3.1060    -0.9900 C.3   1 <1>   0.2000 
 16 C       -6.4860    -4.4740    -0.3590 C.3   1 <1>  -0.0800 
 17 O       -8.0990    -2.8480    -1.0250 O.3   1 <1>  -0.6800 
 18 C       -6.5610    -5.6200    -1.3820 C.3   1 <1>  -0.0170 
 19 C       -6.2870    -6.9630    -0.7300 C.ar  1 <1>   0.1670 
 20 N       -5.0530    -7.3600    -0.6760 N.ar  1 <1>  -0.6200 
 21 C       -7.3650    -7.7000    -0.2130 C.ar  1 <1>  -0.1500 
 22 C       -4.7970    -8.5530    -0.0800 C.ar  1 <1>   0.3100 
 23 C       -7.1380    -8.9010     0.3870 C.ar  1 <1>  -0.1500 
 24 C       -5.8140    -9.3640     0.4700 C.ar  1 <1>   0.0000 
 25 C       -3.4690    -9.0010     0.0000 C.ar  1 <1>  -0.1500 
 26 C       -5.4630   -10.5880     1.0730 C.ar  1 <1>  -0.1500 
 27 C       -3.1480   -10.1950     0.5910 C.ar  1 <1>  -0.1500 
 28 C       -4.1580   -10.9960     1.1330 C.ar  1 <1>  -0.1500 
 29 H       -1.8300     2.3350    -2.8970 H     1 <1>   0.0800 
 30 H       -2.1660     3.9700    -2.3350 H     1 <1>   0.0800 
 31 H       -0.5550     2.5340     0.9300 H     1 <1>   0.0800 
 32 H       -0.4540     1.0920    -0.0830 H     1 <1>   0.0800 
 33 H       -2.6050     1.5020     2.0670 H     1 <1>   0.0800 
 34 H       -4.0920     1.6640     1.1630 H     1 <1>   0.0800 
 35 H       -0.3670     3.9370    -0.8730 H     1 <1>   0.0800 
 36 H        0.2240     2.5580    -1.7700 H     1 <1>   0.0800 
 37 H       -3.4840    -0.4060    -0.1160 H     1 <1>   0.0800 
 38 H       -2.1210    -0.6290     0.9490 H     1 <1>   0.0800 
 39 H       -5.0070    -0.5140     1.8850 H     1 <1>   0.0800 
 40 H       -3.6220    -0.8270     2.8790 H     1 <1>   0.0800 
 41 H       -6.6740    -1.6010     0.5620 H     1 <1>   0.0800 
 42 H       -5.4870    -1.3700    -0.7240 H     1 <1>   0.0800 
 43 H       -4.3260    -4.5810    -0.3710 H     1 <1>   0.0800 
 44 H       -5.0400    -4.9560     1.1870 H     1 <1>   0.0800 
 45 H       -6.3560    -3.0600    -1.9970 H     1 <1>   0.0800 
 46 H       -7.2040    -4.6480     0.4240 H     1 <1>   0.0800 
 47 H       -8.4730    -2.8820    -0.1240 H     1 <1>   0.4000 
 48 H       -5.8410    -5.4590    -2.1650 H     1 <1>   0.0800 
 49 H       -7.5350    -5.6320    -1.8370 H     1 <1>   0.0800 
 50 H       -8.3610    -7.3050    -0.2970 H     1 <1>   0.1500 
 51 H       -7.9370    -9.4950     0.7950 H     1 <1>   0.1500 
 52 H       -2.7090    -8.3700    -0.4210 H     1 <1>   0.1500 
 53 H       -6.2430   -11.2000     1.4890 H     1 <1>   0.1500 
 54 H       -2.1250   -10.5260     0.6450 H     1 <1>   0.1500 
 55 H       -3.8920   -11.9320     1.5940 H     1 <1>   0.1500 
@<TRIPOS>BOND
  1   1   2  2   
  2   2   3  am  
  3   2   4  1   
  4   3   5  1   
  5   3   6  1   
  6   4   7  1   
  7   4  29  1   
  8   4  30  1   
  9   5   7  1   
 10   5  31  1   
 11   5  32  1   
 12   6   8  1   
 13   6  33  1   
 14   6  34  1   
 15   7  35  1   
 16   7  36  1   
 17   8   9  1   
 18   8  37  1   
 19   8  38  1   
 20   9  10  1   
 21   9  39  1   
 22   9  40  1   
 23  10  11  2   
 24  10  12  am  
 25  12  13  1   
 26  12  14  1   
 27  13  15  1   
 28  13  41  1   
 29  13  42  1   
 30  14  16  1   
 31  14  43  1   
 32  14  44  1   
 33  15  16  1   
 34  15  17  1   
 35  15  45  1   
 36  16  18  1   
 37  16  46  1   
 38  17  47  1   
 39  18  19  1   
 40  18  48  1   
 41  18  49  1   
 42  19  20  ar  
 43  19  21  ar  
 44  20  22  ar  
 45  21  23  ar  
 46  21  50  1   
 47  22  24  ar  
 48  22  25  ar  
 49  23  24  ar  
 50  23  51  1   
 51  24  26  ar  
 52  25  27  ar  
 53  25  52  1   
 54  26  28  ar  
 55  26  53  1   
 56  27  28  ar  
 57  27  54  1   
 58  28  55  1   
@<TRIPOS>SUBSTRUCTURE
  1 ****  14 GROUP 4 **** **** 0

# MOE 2024.06 (io_trps.svl 2023.06)
