@<TRIPOS>MOLECULE
NONAME
42 43 1 0 0 
SMALL
USER_CHARGES


@<TRIPOS>ATOM
  1 CL       0.4310    -0.9590     2.3000 Cl    1 <1>  -0.1770 
  2 C        0.4520    -2.3560     1.2670 C.ar  1 <1>   0.7970 
  3 N       -0.5750    -2.4660     0.4450 N.ar  1 <1>  -0.6200 
  4 N        1.4910    -3.1510     1.4180 N.ar  1 <1>  -0.6200 
  5 C       -0.5330    -3.5230    -0.3370 C.ar  1 <1>   0.1600 
  6 C        1.4950    -4.2100     0.6430 C.ar  1 <1>   0.4100 
  7 C        0.4880    -4.4390    -0.2920 C.ar  1 <1>  -0.1440 
  8 N        2.5790    -5.0300     0.8380 N.pl3 1 <1>  -0.6000 
  9 C        0.4890    -5.6190    -1.2600 C.3   1 <1>  -0.0960 
 10 C        2.6320    -6.4220     0.8690 C.ar  1 <1>   0.1000 
 11 C        3.6840    -7.0860     0.2560 C.ar  1 <1>  -0.1500 
 12 C        1.6550    -7.1670     1.5160 C.ar  1 <1>  -0.1500 
 13 C        3.7830    -8.4700     0.2660 C.ar  1 <1>  -0.0090 
 14 C        1.7290    -8.5460     1.5370 C.ar  1 <1>  -0.1500 
 15 S        5.1650    -9.3000    -0.5620 S.o2  1 <1>   1.4470 
 16 C        2.7850    -9.1900     0.9140 C.ar  1 <1>  -0.1500 
 17 O        5.3080   -10.6430    -0.0490 O.2   1 <1>  -0.6500 
 18 O        5.0600    -9.0650    -1.9840 O.2   1 <1>  -0.6500 
 19 N        6.4920    -8.4810     0.0640 N.am  1 <1>  -0.9140 
 20 C        7.7210    -8.4150    -0.6820 C.3   1 <1>   0.3560 
 21 C        8.7720    -7.9690     0.3330 C.3   1 <1>  -0.2400 
 22 C        8.1350    -9.7760    -1.2480 C.3   1 <1>  -0.2400 
 23 C        7.6230    -7.3490    -1.7740 C.3   1 <1>  -0.2400 
 24 H       -1.3440    -3.6490    -1.0360 H     1 <1>   0.1500 
 25 H        3.3190    -4.5540     1.3580 H     1 <1>   0.4000 
 26 H       -0.1740    -5.4390    -2.0870 H     1 <1>   0.0800 
 27 H        0.1690    -6.5140    -0.7560 H     1 <1>   0.0800 
 28 H        1.4770    -5.7780    -1.6540 H     1 <1>   0.0800 
 29 H        4.4420    -6.5090    -0.2450 H     1 <1>   0.1500 
 30 H        0.8410    -6.6620     2.0050 H     1 <1>   0.1500 
 31 H        0.9680    -9.1200     2.0380 H     1 <1>   0.1500 
 32 H        2.8350   -10.2670     0.9320 H     1 <1>   0.1500 
 33 H        6.7140    -9.0280     0.8900 H     1 <1>   0.4200 
 34 H        8.8790    -8.6950     1.1190 H     1 <1>   0.0800 
 35 H        8.5010    -7.0210     0.7630 H     1 <1>   0.0800 
 36 H        9.7280    -7.8570    -0.1460 H     1 <1>   0.0800 
 37 H        8.1410   -10.5270    -0.4790 H     1 <1>   0.0800 
 38 H        9.1240    -9.7120    -1.6640 H     1 <1>   0.0800 
 39 H        7.4780   -10.0870    -2.0400 H     1 <1>   0.0800 
 40 H        7.2670    -6.4220    -1.3630 H     1 <1>   0.0800 
 41 H        6.9690    -7.6540    -2.5680 H     1 <1>   0.0800 
 42 H        8.5910    -7.1770    -2.2080 H     1 <1>   0.0800 
@<TRIPOS>BOND
  1   1   2  1   
  2   2   3  ar  
  3   2   4  ar  
  4   3   5  ar  
  5   4   6  ar  
  6   5   7  ar  
  7   5  24  1   
  8   6   7  ar  
  9   6   8  1   
 10   7   9  1   
 11   8  10  1   
 12   8  25  1   
 13   9  26  1   
 14   9  27  1   
 15   9  28  1   
 16  10  11  ar  
 17  10  12  ar  
 18  11  13  ar  
 19  11  29  1   
 20  12  14  ar  
 21  12  30  1   
 22  13  15  1   
 23  13  16  ar  
 24  14  16  ar  
 25  14  31  1   
 26  15  17  2   
 27  15  18  2   
 28  15  19  am  
 29  16  32  1   
 30  19  20  1   
 31  19  33  1   
 32  20  21  1   
 33  20  22  1   
 34  20  23  1   
 35  21  34  1   
 36  21  35  1   
 37  21  36  1   
 38  22  37  1   
 39  22  38  1   
 40  22  39  1   
 41  23  40  1   
 42  23  41  1   
 43  23  42  1   
@<TRIPOS>SUBSTRUCTURE
  1 ****  11 GROUP 4 **** **** 0

# MOE 2024.06 (io_trps.svl 2023.06)
