@<TRIPOS>MOLECULE
NONAME
46 47 1 0 0 
SMALL
USER_CHARGES


@<TRIPOS>ATOM
  1 O        2.2140    -1.0610     1.3740 O.2   1 <1>  -0.5700 
  2 C        2.1960    -1.1520     0.1700 C.2   1 <1>   0.5690 
  3 N        2.2200    -0.0760    -0.6780 N.am  1 <1>  -0.5470 
  4 C        2.1280    -2.5540    -0.4510 C.3   1 <1>   0.1710 
  5 C        2.2740     1.3050    -0.4290 C.ar  1 <1>   0.1170 
  6 N        0.7610    -3.0790    -0.7350 N.3   1 <1>  -0.8100 
  7 C        1.8960     2.1760    -1.4420 C.ar  1 <1>  -0.1500 
  8 C        2.7010     1.8490     0.7780 C.ar  1 <1>  -0.1500 
  9 C       -0.0310    -3.1540     0.5070 C.3   1 <1>   0.2900 
 10 C        0.0620    -2.3020    -1.7730 C.3   1 <1>   0.0300 
 11 C        1.9380     3.5460    -1.2580 C.ar  1 <1>  -0.1500 
 12 C        2.7420     3.2190     0.9640 C.ar  1 <1>  -0.1500 
 13 C       -1.2570    -4.0050     0.2630 C.2   1 <1>  -0.3320 
 14 C        2.3600     4.0840    -0.0510 C.ar  1 <1>  -0.1430 
 15 N       -1.2030    -5.1490    -0.4430 N.pl3 1 <1>   0.3000 
 16 C       -2.5430    -3.8420     0.6420 C.2   1 <1>  -0.1500 
 17 C        2.4090     5.5950     0.1730 C.3   1 <1>   0.0630 
 18 N       -2.4120    -5.7380    -0.5340 N.2   1 <1>  -0.7070 
 19 C       -3.2080    -4.9470     0.1200 C.2   1 <1>   0.1390 
 20 C        0.9910     6.1900     0.0920 C.3   1 <1>  -0.1600 
 21 C        3.3800     6.2460    -0.8210 C.3   1 <1>  -0.2400 
 22 C        0.9210     7.6680     0.5000 C.3   1 <1>  -0.2400 
 23 H        2.1260    -0.3140    -1.6620 H     1 <1>   0.3700 
 24 H        2.6200    -3.2320     0.2250 H     1 <1>   0.0800 
 25 H        2.6990    -2.5580    -1.3620 H     1 <1>   0.0800 
 26 H        1.5630     1.7870    -2.3860 H     1 <1>   0.1500 
 27 H        3.0080     1.2080     1.5820 H     1 <1>   0.1500 
 28 H       -0.3170    -2.1690     0.8380 H     1 <1>   0.0800 
 29 H        0.5570    -3.6130     1.2850 H     1 <1>   0.0800 
 30 H        0.6670    -2.2440    -2.6610 H     1 <1>   0.0800 
 31 H       -0.1600    -1.3080    -1.4230 H     1 <1>   0.0800 
 32 H       -0.8650    -2.7840    -2.0350 H     1 <1>   0.0800 
 33 H        1.6370     4.1960    -2.0600 H     1 <1>   0.1500 
 34 H        3.0740     3.6070     1.9110 H     1 <1>   0.1500 
 35 H       -0.3540    -5.5180    -0.8900 H     1 <1>   0.2700 
 36 H       -2.9870    -3.0490     1.2170 H     1 <1>   0.1500 
 37 H        2.7880     5.7770     1.1650 H     1 <1>   0.0800 
 38 H       -4.2620    -5.1350     0.2390 H     1 <1>   0.1500 
 39 H        0.3500     5.6250     0.7480 H     1 <1>   0.0800 
 40 H        0.6060     6.0800    -0.9060 H     1 <1>   0.0800 
 41 H        2.9970     6.1910    -1.8240 H     1 <1>   0.0800 
 42 H        4.3280     5.7390    -0.7890 H     1 <1>   0.0800 
 43 H        3.5450     7.2780    -0.5710 H     1 <1>   0.0800 
 44 H        1.3270     7.8070     1.4860 H     1 <1>   0.0800 
 45 H       -0.1040     7.9960     0.5040 H     1 <1>   0.0800 
 46 H        1.4660     8.2840    -0.1930 H     1 <1>   0.0800 
@<TRIPOS>BOND
  1   1   2  2   
  2   2   3  am  
  3   2   4  1   
  4   3   5  1   
  5   3  23  1   
  6   4   6  1   
  7   4  24  1   
  8   4  25  1   
  9   5   7  ar  
 10   5   8  ar  
 11   6   9  1   
 12   6  10  1   
 13   7  11  ar  
 14   7  26  1   
 15   8  12  ar  
 16   8  27  1   
 17   9  13  1   
 18   9  28  1   
 19   9  29  1   
 20  10  30  1   
 21  10  31  1   
 22  10  32  1   
 23  11  14  ar  
 24  11  33  1   
 25  12  14  ar  
 26  12  34  1   
 27  13  15  1   
 28  13  16  2   
 29  14  17  1   
 30  15  18  1   
 31  15  35  1   
 32  16  19  1   
 33  16  36  1   
 34  17  20  1   
 35  17  21  1   
 36  17  37  1   
 37  18  19  2   
 38  19  38  1   
 39  20  22  1   
 40  20  39  1   
 41  20  40  1   
 42  21  41  1   
 43  21  42  1   
 44  21  43  1   
 45  22  44  1   
 46  22  45  1   
 47  22  46  1   
@<TRIPOS>SUBSTRUCTURE
  1 ****   3 GROUP 4 **** **** 0

# MOE 2024.06 (io_trps.svl 2023.06)
