@<TRIPOS>MOLECULE
NONAME
48 50 1 0 0 
SMALL
USER_CHARGES


@<TRIPOS>ATOM
  1 F       -0.3870     0.7970    -0.4420 F     1 <1>  -0.1900 
  2 C       -1.6820     0.9700    -0.5040 C.ar  1 <1>   0.1900 
  3 C       -2.3220     2.0300     0.1490 C.ar  1 <1>   0.0830 
  4 C       -2.3900     0.0490    -1.2530 C.ar  1 <1>  -0.1500 
  5 O       -1.7370     2.9980     0.9120 O.3   1 <1>  -0.3630 
  6 C       -3.6980     2.1270     0.0200 C.ar  1 <1>  -0.1500 
  7 C       -3.7620     0.1770    -1.3610 C.ar  1 <1>  -0.1500 
  8 C       -0.3530     3.0320     1.1840 C.3   1 <1>   0.0400 
  9 C       -4.4470     1.2130    -0.7240 C.ar  1 <1>   0.0530 
 10 C       -5.8770     1.3600    -0.8330 C.2   1 <1>   0.0870 
 11 O       -6.3880     2.5560    -0.9760 O.3   1 <1>  -0.0190 
 12 C       -6.9180     0.4810    -0.8310 C.2   1 <1>  -0.0860 
 13 N       -7.6900     2.5490    -1.0780 N.2   1 <1>  -0.4100 
 14 C       -8.0350     1.3140    -0.9940 C.2   1 <1>   0.3720 
 15 C       -6.9490    -0.9420    -0.6770 C.2   1 <1>   0.7160 
 16 N       -9.3760     0.8960    -1.0430 N.pl3 1 <1>  -0.8210 
 17 O       -5.9810    -1.5670    -0.2870 O.2   1 <1>  -0.5700 
 18 N       -8.0910    -1.6270    -0.9540 N.am  1 <1>  -0.7300 
 19 C      -10.1320     1.4710    -2.1920 C.3   1 <1>   0.1290 
 20 C      -10.0880     1.1440     0.2420 C.3   1 <1>   0.1290 
 21 C       -8.3720    -3.0470    -0.6480 C.3   1 <1>   0.1400 
 22 C       -9.3290    -3.1540     0.5460 C.3   1 <1>   0.0000 
 23 C      -10.7630    -2.7030     0.2270 C.3   1 <1>   0.2580 
 24 C       -9.9940    -4.5350     0.6630 C.3   1 <1>   0.2580 
 25 C       -8.7680    -2.6140     1.8790 C.3   1 <1>  -0.2400 
 26 O      -11.2240    -3.8640     0.9080 O.3   1 <1>  -0.5160 
 27 H       -1.8720    -0.7560    -1.7420 H     1 <1>   0.1500 
 28 H       -4.2010     2.9370     0.5160 H     1 <1>   0.1500 
 29 H       -4.3110    -0.5390    -1.9460 H     1 <1>   0.1500 
 30 H       -0.1590     3.8760     1.8210 H     1 <1>   0.0800 
 31 H        0.1830     3.1430     0.2580 H     1 <1>   0.0800 
 32 H       -0.0730     2.1240     1.6860 H     1 <1>   0.0800 
 33 H       -8.8980    -1.0190    -1.1650 H     1 <1>   0.3700 
 34 H       -9.5630     1.3540    -3.0990 H     1 <1>   0.0800 
 35 H      -10.3120     2.5210    -2.0330 H     1 <1>   0.0800 
 36 H      -11.0730     0.9630    -2.3070 H     1 <1>   0.0800 
 37 H       -9.5420     0.6980     1.0550 H     1 <1>   0.0800 
 38 H      -11.0730     0.7120     0.2090 H     1 <1>   0.0800 
 39 H      -10.1710     2.2030     0.4210 H     1 <1>   0.0800 
 40 H       -7.4530    -3.5620    -0.4210 H     1 <1>   0.0800 
 41 H       -8.8050    -3.5100    -1.5190 H     1 <1>   0.0800 
 42 H      -11.0390    -2.7560    -0.8120 H     1 <1>   0.0000 
 43 H      -11.0900    -1.8140     0.7350 H     1 <1>   0.0000 
 44 H       -9.7050    -5.1160     1.5210 H     1 <1>   0.0000 
 45 H      -10.0600    -5.0920    -0.2560 H     1 <1>   0.0000 
 46 H       -8.5630    -1.5610     1.8020 H     1 <1>   0.0800 
 47 H       -7.8530    -3.1210     2.1280 H     1 <1>   0.0800 
 48 H       -9.4730    -2.7650     2.6790 H     1 <1>   0.0800 
@<TRIPOS>BOND
  1   1   2  1   
  2   2   3  ar  
  3   2   4  ar  
  4   3   5  1   
  5   3   6  ar  
  6   4   7  ar  
  7   4  27  1   
  8   5   8  1   
  9   6   9  ar  
 10   6  28  1   
 11   7   9  ar  
 12   7  29  1   
 13   8  30  1   
 14   8  31  1   
 15   8  32  1   
 16   9  10  1   
 17  10  11  1   
 18  10  12  2   
 19  11  13  1   
 20  12  14  1   
 21  12  15  1   
 22  13  14  2   
 23  14  16  1   
 24  15  17  2   
 25  15  18  am  
 26  16  19  1   
 27  16  20  1   
 28  18  21  1   
 29  18  33  1   
 30  19  34  1   
 31  19  35  1   
 32  19  36  1   
 33  20  37  1   
 34  20  38  1   
 35  20  39  1   
 36  21  22  1   
 37  21  40  1   
 38  21  41  1   
 39  22  23  1   
 40  22  24  1   
 41  22  25  1   
 42  23  26  1   
 43  23  42  1   
 44  23  43  1   
 45  24  26  1   
 46  24  44  1   
 47  24  45  1   
 48  25  46  1   
 49  25  47  1   
 50  25  48  1   
@<TRIPOS>SUBSTRUCTURE
  1 ****  12 GROUP 4 **** **** 0

# MOE 2024.06 (io_trps.svl 2023.06)
