@<TRIPOS>MOLECULE
NONAME
46 48 1 0 0 
SMALL
USER_CHARGES


@<TRIPOS>ATOM
  1 O       -1.0600     0.3450     2.2610 O.2   1 <1>  -0.5700 
  2 C       -1.5810     0.9330     1.3320 C.2   1 <1>   0.5440 
  3 N       -2.3830     0.2120     0.4780 N.am  1 <1>  -0.6600 
  4 C       -1.4010     2.3590     1.2030 C.ar  1 <1>   0.0860 
  5 C       -3.3300     0.7780    -0.5140 C.3   1 <1>   0.1400 
  6 C       -2.5650    -1.2570     0.5830 C.3   1 <1>   0.1400 
  7 C       -0.8810     2.9530     0.0450 C.ar  1 <1>   0.3920 
  8 C       -1.7410     3.2010     2.2540 C.ar  1 <1>  -0.1500 
  9 C       -4.4320    -0.2750    -0.6120 C.3   1 <1>   0.2000 
 10 C       -3.6830    -1.5980    -0.4110 C.3   1 <1>  -0.0800 
 11 O       -0.5060     2.1420    -0.9670 O.3   1 <1>  -0.3630 
 12 N       -0.7230     4.2620    -0.1390 N.ar  1 <1>  -0.6200 
 13 C       -1.5720     4.5540     2.0820 C.ar  1 <1>  -0.1500 
 14 O       -5.3100    -0.0750     0.4440 O.3   1 <1>  -0.6800 
 15 C       -4.5570    -2.7910     0.0190 C.3   1 <1>  -0.0170 
 16 C        0.1070     2.6380    -2.1420 C.3   1 <1>   0.0400 
 17 C       -1.0710     5.0340     0.8830 C.ar  1 <1>   0.3930 
 18 C       -3.7370    -4.0700     0.0890 C.ar  1 <1>  -0.1430 
 19 O       -0.9340     6.3680     0.7690 O.3   1 <1>  -0.3630 
 20 C       -3.1790    -4.5190     1.2690 C.ar  1 <1>  -0.1500 
 21 C       -3.5080    -4.8480    -1.0270 C.ar  1 <1>  -0.1500 
 22 C       -0.4160     6.9580    -0.4070 C.3   1 <1>   0.0400 
 23 C       -2.4380    -5.6890     1.2740 C.ar  1 <1>   0.1600 
 24 C       -2.7520    -6.0030    -0.9140 C.ar  1 <1>   0.1600 
 25 N       -2.2100    -6.4430     0.2100 N.ar  1 <1>  -0.6200 
 26 H       -3.7170     1.7360    -0.2110 H     1 <1>   0.0800 
 27 H       -2.8280     0.8730    -1.4610 H     1 <1>   0.0800 
 28 H       -1.6500    -1.7700     0.3400 H     1 <1>   0.0800 
 29 H       -2.8520    -1.5030     1.5910 H     1 <1>   0.0800 
 30 H       -2.1230     2.7930     3.1750 H     1 <1>   0.1500 
 31 H       -4.9860    -0.2280    -1.5340 H     1 <1>   0.0800 
 32 H       -3.2110    -1.8460    -1.3450 H     1 <1>   0.0800 
 33 H       -1.8210     5.2500     2.8610 H     1 <1>   0.1500 
 34 H       -4.7860     0.0180     1.2660 H     1 <1>   0.4000 
 35 H       -5.3570    -2.9190    -0.6890 H     1 <1>   0.0800 
 36 H       -5.0060    -2.6010     0.9780 H     1 <1>   0.0800 
 37 H        0.3320     1.8050    -2.7840 H     1 <1>   0.0800 
 38 H        1.0140     3.1500    -1.8700 H     1 <1>   0.0800 
 39 H       -0.5720     3.3120    -2.6320 H     1 <1>   0.0800 
 40 H       -3.3110    -3.9730     2.1850 H     1 <1>   0.1500 
 41 H       -3.9100    -4.5690    -1.9840 H     1 <1>   0.1500 
 42 H       -0.3970     8.0240    -0.2710 H     1 <1>   0.0800 
 43 H       -1.0540     6.7010    -1.2350 H     1 <1>   0.0800 
 44 H        0.5800     6.5870    -0.5720 H     1 <1>   0.0800 
 45 H       -2.0080    -6.0230     2.2040 H     1 <1>   0.1500 
 46 H       -2.5840    -6.5980    -1.7960 H     1 <1>   0.1500 
@<TRIPOS>BOND
  1   1   2  2   
  2   2   3  am  
  3   2   4  1   
  4   3   5  1   
  5   3   6  1   
  6   4   7  ar  
  7   4   8  ar  
  8   5   9  1   
  9   5  26  1   
 10   5  27  1   
 11   6  10  1   
 12   6  28  1   
 13   6  29  1   
 14   7  11  1   
 15   7  12  ar  
 16   8  13  ar  
 17   8  30  1   
 18   9  10  1   
 19   9  14  1   
 20   9  31  1   
 21  10  15  1   
 22  10  32  1   
 23  11  16  1   
 24  12  17  ar  
 25  13  17  ar  
 26  13  33  1   
 27  14  34  1   
 28  15  18  1   
 29  15  35  1   
 30  15  36  1   
 31  16  37  1   
 32  16  38  1   
 33  16  39  1   
 34  17  19  1   
 35  18  20  ar  
 36  18  21  ar  
 37  19  22  1   
 38  20  23  ar  
 39  20  40  1   
 40  21  24  ar  
 41  21  41  1   
 42  22  42  1   
 43  22  43  1   
 44  22  44  1   
 45  23  25  ar  
 46  23  45  1   
 47  24  25  ar  
 48  24  46  1   
@<TRIPOS>SUBSTRUCTURE
  1 ****   3 GROUP 4 **** **** 0

# MOE 2024.06 (io_trps.svl 2023.06)
