@<TRIPOS>MOLECULE
NONAME
45 47 1 0 0 
SMALL
USER_CHARGES


@<TRIPOS>ATOM
  1 O       -3.0610     2.2980    -1.7580 O.2   1 <1>  -0.5700 
  2 C       -2.9340     1.5940    -0.7820 C.2   1 <1>   0.5770 
  3 N       -3.8860     0.6430    -0.5080 N.am  1 <1>  -0.6600 
  4 C       -1.6650     1.7520     0.0710 C.3   1 <1>   0.0530 
  5 C       -4.9900     0.3700    -1.4670 C.3   1 <1>   0.1400 
  6 C       -3.8480    -0.4230     0.5290 C.3   1 <1>   0.1400 
  7 C       -1.0820     3.2050     0.0820 C.3   1 <1>   0.0000 
  8 C       -1.9220     1.9560     1.6020 C.3   1 <1>   0.0000 
  9 C       -0.6270     0.6930    -0.3430 C.3   1 <1>   0.1200 
 10 C       -5.7280    -0.8450    -0.9020 C.3   1 <1>   0.2000 
 11 C       -4.6860    -1.5700    -0.0470 C.3   1 <1>  -0.0800 
 12 C       -1.9680     3.4800     1.3220 C.3   1 <1>   0.0000 
 13 O        0.4900     0.7130     0.4940 O.3   1 <1>  -0.5600 
 14 O       -6.7370    -0.4020    -0.0620 O.3   1 <1>  -0.6800 
 15 C       -3.8370    -2.5340    -0.9030 C.3   1 <1>  -0.0170 
 16 C        1.4800    -0.1870     0.1200 C.3   1 <1>   0.0400 
 17 C       -2.8760    -3.3520    -0.0540 C.ar  1 <1>   0.1670 
 18 N       -1.6490    -2.8740     0.0910 N.ar  1 <1>  -0.6200 
 19 C       -3.3110    -4.5430     0.5270 C.ar  1 <1>   0.1600 
 20 C       -0.8990    -3.6550     0.8530 C.ar  1 <1>   0.1600 
 21 N       -2.5620    -5.3240     1.2870 N.ar  1 <1>  -0.6200 
 22 C       -1.3410    -4.8390     1.4300 C.ar  1 <1>   0.1600 
 23 H       -5.6370     1.2240    -1.5730 H     1 <1>   0.0800 
 24 H       -4.5640     0.1300    -2.4250 H     1 <1>   0.0800 
 25 H       -2.8450    -0.7210     0.7700 H     1 <1>   0.0800 
 26 H       -4.3200    -0.0530     1.4230 H     1 <1>   0.0800 
 27 H       -0.0350     3.2500     0.3280 H     1 <1>   0.0000 
 28 H       -1.3280     3.8180    -0.7660 H     1 <1>   0.0000 
 29 H       -2.8560     1.5870     1.9810 H     1 <1>   0.0000 
 30 H       -1.0880     1.6920     2.2290 H     1 <1>   0.0000 
 31 H       -0.3030     0.8910    -1.3500 H     1 <1>   0.0800 
 32 H       -1.0550    -0.2910    -0.3030 H     1 <1>   0.0800 
 33 H       -6.1750    -1.4610    -1.6640 H     1 <1>   0.0800 
 34 H       -5.1600    -2.1330     0.7390 H     1 <1>   0.0800 
 35 H       -2.9530     3.8270     1.0620 H     1 <1>   0.0000 
 36 H       -1.4870     4.0760     2.0770 H     1 <1>   0.0000 
 37 H       -6.3990     0.3340     0.4870 H     1 <1>   0.4000 
 38 H       -3.2780    -1.9860    -1.6420 H     1 <1>   0.0800 
 39 H       -4.4880    -3.2080    -1.4290 H     1 <1>   0.0800 
 40 H        2.2800    -0.1200     0.8360 H     1 <1>   0.0800 
 41 H        1.8460     0.0740    -0.8580 H     1 <1>   0.0800 
 42 H        1.0720    -1.1830     0.1190 H     1 <1>   0.0800 
 43 H       -4.3240    -4.8620     0.3580 H     1 <1>   0.1500 
 44 H        0.1150    -3.3440     1.0300 H     1 <1>   0.1500 
 45 H       -0.6550    -5.4070     2.0350 H     1 <1>   0.1500 
@<TRIPOS>BOND
  1   1   2  2   
  2   2   3  am  
  3   2   4  1   
  4   3   5  1   
  5   3   6  1   
  6   4   7  1   
  7   4   8  1   
  8   4   9  1   
  9   5  10  1   
 10   5  23  1   
 11   5  24  1   
 12   6  11  1   
 13   6  25  1   
 14   6  26  1   
 15   7  12  1   
 16   7  27  1   
 17   7  28  1   
 18   8  12  1   
 19   8  29  1   
 20   8  30  1   
 21   9  13  1   
 22   9  31  1   
 23   9  32  1   
 24  10  11  1   
 25  10  14  1   
 26  10  33  1   
 27  11  15  1   
 28  11  34  1   
 29  12  35  1   
 30  12  36  1   
 31  13  16  1   
 32  14  37  1   
 33  15  17  1   
 34  15  38  1   
 35  15  39  1   
 36  16  40  1   
 37  16  41  1   
 38  16  42  1   
 39  17  18  ar  
 40  17  19  ar  
 41  18  20  ar  
 42  19  21  ar  
 43  19  43  1   
 44  20  22  ar  
 45  20  44  1   
 46  21  22  ar  
 47  22  45  1   
@<TRIPOS>SUBSTRUCTURE
  1 ****   6 GROUP 4 **** **** 0

# MOE 2024.06 (io_trps.svl 2023.06)
