@<TRIPOS>MOLECULE
NONAME
57 60 1 0 0 
SMALL
USER_CHARGES


@<TRIPOS>ATOM
  1 O       -0.0140     0.5730     1.3320 O.2   1 <1>  -0.5700 
  2 C       -0.6110     1.2690     0.5320 C.2   1 <1>   0.6900 
  3 N       -1.9760     1.2100     0.4280 N.am  1 <1>  -0.6600 
  4 N        0.0730     2.1210    -0.2670 N.am  1 <1>  -0.7300 
  5 C       -2.8150     2.3190    -0.1260 C.3   1 <1>   0.1400 
  6 C       -2.7600     0.1600     1.1350 C.3   1 <1>   0.1400 
  7 C        1.5270     2.3300    -0.2540 C.3   1 <1>   0.2200 
  8 C       -3.6260     3.0020     0.9920 C.3   1 <1>   0.1430 
  9 C       -3.5880     0.7920     2.2610 C.3   1 <1>  -0.1600 
 10 C        1.8040     3.8230    -0.0500 C.3   1 <1>  -0.1600 
 11 C        2.1120     1.8300    -1.5790 C.3   1 <1>  -0.1600 
 12 C       -4.4800     4.0850     0.3600 C.ar  1 <1>   0.1670 
 13 C       -4.4650     1.9480     1.7460 C.3   1 <1>  -0.1600 
 14 C       -2.7140     3.8150     1.9540 C.3   1 <1>  -0.1600 
 15 C        3.3070     4.1260    -0.1380 C.3   1 <1>  -0.1600 
 16 C        3.6150     2.1290    -1.6690 C.3   1 <1>  -0.1600 
 17 N       -5.5400     3.8780    -0.3800 N.ar  1 <1>  -0.6200 
 18 C       -3.9960     5.3290     0.6330 C.ar  1 <1>  -0.1430 
 19 C       -2.7520     5.2790     1.4840 C.3   1 <1>  -0.0170 
 20 C        3.8980     3.6240    -1.4630 C.3   1 <1>  -0.1600 
 21 C       -6.1350     4.9800    -0.8440 C.ar  1 <1>   0.7200 
 22 C       -4.6720     6.4030     0.1120 C.ar  1 <1>   0.1600 
 23 N       -5.7420     6.2390    -0.6290 N.ar  1 <1>  -0.6200 
 24 N       -7.2610     4.7990    -1.6250 N.pl3 1 <1>  -0.8380 
 25 C       -7.9940     3.5030    -1.6700 C.3   1 <1>   0.1290 
 26 C       -7.8530     5.9060    -2.4250 C.3   1 <1>   0.1290 
 27 H       -0.4210     2.5040    -1.0650 H     1 <1>   0.3700 
 28 H       -3.4940     1.9090    -0.8530 H     1 <1>   0.0800 
 29 H       -2.2120     3.0560    -0.6230 H     1 <1>   0.0800 
 30 H       -2.1060    -0.5930     1.5420 H     1 <1>   0.0800 
 31 H       -3.4140    -0.3200     0.4270 H     1 <1>   0.0800 
 32 H        1.9700     1.7760     0.5580 H     1 <1>   0.0800 
 33 H       -2.9160     1.1470     3.0230 H     1 <1>   0.0800 
 34 H       -4.2110     0.0370     2.7060 H     1 <1>   0.0800 
 35 H        1.4370     4.1210     0.9160 H     1 <1>   0.0800 
 36 H        1.2880     4.3910    -0.8040 H     1 <1>   0.0800 
 37 H        1.6100     2.3110    -2.4000 H     1 <1>   0.0800 
 38 H        1.9550     0.7680    -1.6550 H     1 <1>   0.0800 
 39 H       -5.2030     1.5470     1.0720 H     1 <1>   0.0800 
 40 H       -4.9930     2.4080     2.5620 H     1 <1>   0.0800 
 41 H       -1.7080     3.4370     1.9910 H     1 <1>   0.0800 
 42 H       -3.1200     3.7750     2.9490 H     1 <1>   0.0800 
 43 H        3.8150     3.6450     0.6810 H     1 <1>   0.0800 
 44 H        3.4690     5.1860    -0.0490 H     1 <1>   0.0800 
 45 H        3.9880     1.8200    -2.6310 H     1 <1>   0.0800 
 46 H        4.1360     1.5620    -0.9160 H     1 <1>   0.0800 
 47 H       -1.8900     5.5060     0.8810 H     1 <1>   0.0800 
 48 H       -2.8090     5.9590     2.3160 H     1 <1>   0.0800 
 49 H        4.9610     3.7930    -1.4700 H     1 <1>   0.0800 
 50 H        3.4710     4.1830    -2.2780 H     1 <1>   0.0800 
 51 H       -4.3310     7.4060     0.3020 H     1 <1>   0.1500 
 52 H       -7.8520     2.9560    -0.7540 H     1 <1>   0.0800 
 53 H       -7.6280     2.9120    -2.4910 H     1 <1>   0.0800 
 54 H       -9.0470     3.6780    -1.7980 H     1 <1>   0.0800 
 55 H       -7.0880     6.5950    -2.7390 H     1 <1>   0.0800 
 56 H       -8.5760     6.4330    -1.8280 H     1 <1>   0.0800 
 57 H       -8.3340     5.5120    -3.3030 H     1 <1>   0.0800 
@<TRIPOS>BOND
  1   1   2  2   
  2   2   3  am  
  3   2   4  am  
  4   3   5  1   
  5   3   6  1   
  6   4   7  1   
  7   4  27  1   
  8   5   8  1   
  9   5  28  1   
 10   5  29  1   
 11   6   9  1   
 12   6  30  1   
 13   6  31  1   
 14   7  10  1   
 15   7  11  1   
 16   7  32  1   
 17   8  12  1   
 18   8  13  1   
 19   8  14  1   
 20   9  13  1   
 21   9  33  1   
 22   9  34  1   
 23  10  15  1   
 24  10  35  1   
 25  10  36  1   
 26  11  16  1   
 27  11  37  1   
 28  11  38  1   
 29  12  17  ar  
 30  12  18  ar  
 31  13  39  1   
 32  13  40  1   
 33  14  19  1   
 34  14  41  1   
 35  14  42  1   
 36  15  20  1   
 37  15  43  1   
 38  15  44  1   
 39  16  20  1   
 40  16  45  1   
 41  16  46  1   
 42  17  21  ar  
 43  18  19  1   
 44  18  22  ar  
 45  19  47  1   
 46  19  48  1   
 47  20  49  1   
 48  20  50  1   
 49  21  23  ar  
 50  21  24  1   
 51  22  23  ar  
 52  22  51  1   
 53  24  25  1   
 54  24  26  1   
 55  25  52  1   
 56  25  53  1   
 57  25  54  1   
 58  26  55  1   
 59  26  56  1   
 60  26  57  1   
@<TRIPOS>SUBSTRUCTURE
  1 ****   5 GROUP 4 **** **** 0

# MOE 2024.06 (io_trps.svl 2023.06)
