@<TRIPOS>MOLECULE
NONAME
38 39 1 0 0 
SMALL
USER_CHARGES


@<TRIPOS>ATOM
  1 S        0.1460    -0.2460    -1.2780 S.o2  1 <1>   1.3330 
  2 O       -0.7220    -1.1850    -1.9500 O.2   1 <1>  -0.6500 
  3 O        1.4350     0.0730    -1.8470 O.2   1 <1>  -0.6500 
  4 N        0.3990    -0.8180     0.3020 N.am  1 <1>  -0.8490 
  5 C       -0.7450     1.2910    -1.0230 C.3   1 <1>  -0.0550 
  6 C        1.5630    -1.7060     0.3820 C.3   1 <1>   0.1160 
  7 C       -0.7750    -1.4910     0.8690 C.3   1 <1>   0.1160 
  8 C        0.0000     2.3130    -0.1430 C.3   1 <1>  -0.0800 
  9 C       -0.8750     3.5120     0.2050 C.3   1 <1>   0.2000 
 10 C        1.2350     2.9340    -0.8000 C.3   1 <1>   0.1400 
 11 O       -1.6820     3.2090     1.2890 O.3   1 <1>  -0.6800 
 12 C        0.0980     4.6450     0.5180 C.3   1 <1>   0.1400 
 13 N        1.3240     4.3120    -0.2490 N.am  1 <1>  -0.6600 
 14 C        2.1920     5.2490    -0.7690 C.2   1 <1>   0.7150 
 15 O        2.8750     4.9280    -1.7240 O.2   1 <1>  -0.5700 
 16 C        2.2920     6.5750    -0.2080 C.2   1 <1>  -0.0450 
 17 S        2.7370     7.9090    -1.2800 S.3   1 <1>  -0.0800 
 18 C        2.1130     7.0750     1.0440 C.2   1 <1>  -0.1500 
 19 C        2.6480     9.0820     0.0150 C.2   1 <1>  -0.1100 
 20 C        2.3090     8.4820     1.1690 C.2   1 <1>  -0.1500 
 21 H       -0.9590     1.7340    -1.9760 H     1 <1>   0.0800 
 22 H       -1.6850     1.0660    -0.5580 H     1 <1>   0.0800 
 23 H        1.7070    -2.0440     1.3940 H     1 <1>   0.0800 
 24 H        2.4510    -1.1790     0.0750 H     1 <1>   0.0800 
 25 H        1.4290    -2.5590    -0.2620 H     1 <1>   0.0800 
 26 H       -0.5860    -1.7630     1.8930 H     1 <1>   0.0800 
 27 H       -1.0090    -2.3810     0.3070 H     1 <1>   0.0800 
 28 H       -1.6290    -0.8350     0.8450 H     1 <1>   0.0800 
 29 H        0.3270     1.8400     0.7670 H     1 <1>   0.0800 
 30 H       -1.5060     3.7920    -0.6220 H     1 <1>   0.0800 
 31 H        1.1200     2.9880    -1.8710 H     1 <1>   0.0800 
 32 H        2.1290     2.3770    -0.5730 H     1 <1>   0.0800 
 33 H       -1.1420     2.9190     2.0500 H     1 <1>   0.4000 
 34 H        0.3340     4.6640     1.5680 H     1 <1>   0.0800 
 35 H       -0.3060     5.5930     0.2060 H     1 <1>   0.0800 
 36 H        1.8530     6.4870     1.9060 H     1 <1>   0.1500 
 37 H        2.8630    10.1080    -0.2280 H     1 <1>   0.1500 
 38 H        2.1890     8.9800     2.1160 H     1 <1>   0.1500 
@<TRIPOS>BOND
  1   1   2  2   
  2   1   3  2   
  3   1   4  am  
  4   1   5  1   
  5   4   6  1   
  6   4   7  1   
  7   5   8  1   
  8   5  21  1   
  9   5  22  1   
 10   6  23  1   
 11   6  24  1   
 12   6  25  1   
 13   7  26  1   
 14   7  27  1   
 15   7  28  1   
 16   8   9  1   
 17   8  10  1   
 18   8  29  1   
 19   9  11  1   
 20   9  12  1   
 21   9  30  1   
 22  10  13  1   
 23  10  31  1   
 24  10  32  1   
 25  11  33  1   
 26  12  13  1   
 27  12  34  1   
 28  12  35  1   
 29  13  14  am  
 30  14  15  2   
 31  14  16  1   
 32  16  17  1   
 33  16  18  2   
 34  17  19  1   
 35  18  20  1   
 36  18  36  1   
 37  19  20  2   
 38  19  37  1   
 39  20  38  1   
@<TRIPOS>SUBSTRUCTURE
  1 ****  10 GROUP 4 **** **** 0

# MOE 2024.06 (io_trps.svl 2023.06)
