@<TRIPOS>MOLECULE
NONAME
56 59 1 0 0 
SMALL
USER_CHARGES


@<TRIPOS>ATOM
  1 O       -0.5790     2.1990    -0.6550 O.3   1 <1>  -0.5600 
  2 C        0.2300     2.8370     0.2760 C.3   1 <1>   0.1200 
  3 C       -0.3830     0.8210    -0.7580 C.3   1 <1>   0.1200 
  4 C        1.6920     2.7490    -0.1910 C.3   1 <1>  -0.0800 
  5 C        1.0490     0.5480    -1.2330 C.3   1 <1>  -0.1600 
  6 C        2.0790     1.2630    -0.3470 C.3   1 <1>  -0.1600 
  7 C        2.5860     3.5020     0.8120 C.3   1 <1>   0.3430 
  8 N        3.7430     4.2300     0.1850 N.4   1 <1>  -0.9590 
  9 C        3.2780     5.3530    -0.6900 C.3   1 <1>   0.3430 
 10 C        4.7070     3.3550    -0.5620 C.3   1 <1>   0.3430 
 11 C        3.9280     6.6960    -0.2990 C.3   1 <1>   0.0000 
 12 C        5.4730     2.3930     0.3570 C.3   1 <1>   0.1200 
 13 C        3.4020     7.7850    -1.2630 C.3   1 <1>  -0.1600 
 14 C        5.4740     6.6510    -0.4150 C.3   1 <1>  -0.1600 
 15 C        3.5460     7.1040     1.1480 C.3   1 <1>  -0.1600 
 16 O        6.2830     1.6070    -0.4420 O.3   1 <1>  -0.6800 
 17 C        4.0030     9.1600    -0.9210 C.3   1 <1>  -0.0800 
 18 C        6.0830     8.0200    -0.0640 C.3   1 <1>  -0.0800 
 19 C        4.1540     8.4740     1.5010 C.3   1 <1>  -0.0800 
 20 C        5.5360     9.0830    -1.0340 C.3   1 <1>  -0.1600 
 21 C        3.6190     9.5350     0.5210 C.3   1 <1>  -0.1600 
 22 C        5.6870     8.3980     1.3760 C.3   1 <1>  -0.1600 
 23 H        0.0820     2.3700     1.2360 H     1 <1>   0.0800 
 24 H       -0.0970     3.8620     0.3310 H     1 <1>   0.0800 
 25 H       -1.0970     0.4390    -1.4680 H     1 <1>   0.0800 
 26 H       -0.5720     0.3720     0.2020 H     1 <1>   0.0800 
 27 H        1.7320     3.2270    -1.1530 H     1 <1>   0.0800 
 28 H        1.1410     0.8870    -2.2510 H     1 <1>   0.0800 
 29 H        1.2310    -0.5120    -1.2270 H     1 <1>   0.0800 
 30 H        2.0920     0.7860     0.6190 H     1 <1>   0.0800 
 31 H        3.0510     1.1480    -0.7900 H     1 <1>   0.0800 
 32 H        2.9460     2.8060     1.5520 H     1 <1>   0.0800 
 33 H        1.9770     4.2260     1.3290 H     1 <1>   0.0800 
 34 H        4.2700     4.6890     0.9400 H     1 <1>   0.4500 
 35 H        2.2080     5.4600    -0.6080 H     1 <1>   0.0800 
 36 H        3.5040     5.1350    -1.7210 H     1 <1>   0.0800 
 37 H        5.4310     3.9730    -1.0680 H     1 <1>   0.0800 
 38 H        4.1790     2.7870    -1.3090 H     1 <1>   0.0800 
 39 H        4.8060     1.7400     0.8920 H     1 <1>   0.0800 
 40 H        6.1030     2.9330     1.0420 H     1 <1>   0.0800 
 41 H        2.3280     7.8490    -1.2040 H     1 <1>   0.0800 
 42 H        3.6550     7.5360    -2.2800 H     1 <1>   0.0800 
 43 H        5.7620     6.3870    -1.4190 H     1 <1>   0.0800 
 44 H        5.8910     5.9180     0.2510 H     1 <1>   0.0800 
 45 H        3.9010     6.3830     1.8610 H     1 <1>   0.0800 
 46 H        2.4750     7.1620     1.2450 H     1 <1>   0.0800 
 47 H        6.8290     0.9860     0.0870 H     1 <1>   0.4000 
 48 H        3.6270     9.9050    -1.6020 H     1 <1>   0.0800 
 49 H        7.1560     7.9770    -0.1450 H     1 <1>   0.0800 
 50 H        3.8860     8.7470     2.5080 H     1 <1>   0.0800 
 51 H        5.9650    10.0420    -0.8020 H     1 <1>   0.0800 
 52 H        5.8180     8.8390    -2.0440 H     1 <1>   0.0800 
 53 H        2.5490     9.6100     0.6090 H     1 <1>   0.0800 
 54 H        4.0320    10.4980     0.7680 H     1 <1>   0.0800 
 55 H        6.1170     9.3530     1.6290 H     1 <1>   0.0800 
 56 H        6.0790     7.6750     2.0690 H     1 <1>   0.0800 
@<TRIPOS>BOND
  1   1   2  1   
  2   1   3  1   
  3   2   4  1   
  4   2  23  1   
  5   2  24  1   
  6   3   5  1   
  7   3  25  1   
  8   3  26  1   
  9   4   6  1   
 10   4   7  1   
 11   4  27  1   
 12   5   6  1   
 13   5  28  1   
 14   5  29  1   
 15   6  30  1   
 16   6  31  1   
 17   7   8  1   
 18   7  32  1   
 19   7  33  1   
 20   8   9  1   
 21   8  10  1   
 22   8  34  1   
 23   9  11  1   
 24   9  35  1   
 25   9  36  1   
 26  10  12  1   
 27  10  37  1   
 28  10  38  1   
 29  11  13  1   
 30  11  14  1   
 31  11  15  1   
 32  12  16  1   
 33  12  39  1   
 34  12  40  1   
 35  13  17  1   
 36  13  41  1   
 37  13  42  1   
 38  14  18  1   
 39  14  43  1   
 40  14  44  1   
 41  15  19  1   
 42  15  45  1   
 43  15  46  1   
 44  16  47  1   
 45  17  20  1   
 46  17  21  1   
 47  17  48  1   
 48  18  20  1   
 49  18  22  1   
 50  18  49  1   
 51  19  21  1   
 52  19  22  1   
 53  19  50  1   
 54  20  51  1   
 55  20  52  1   
 56  21  53  1   
 57  21  54  1   
 58  22  55  1   
 59  22  56  1   
@<TRIPOS>SUBSTRUCTURE
  1 ****   9 GROUP 4 **** **** 0

# MOE 2024.06 (io_trps.svl 2023.06)
