@<TRIPOS>MOLECULE
NONAME
50 52 1 0 0 
SMALL
USER_CHARGES


@<TRIPOS>ATOM
  1 O       -0.1050     0.0220    -1.1310 O.2   1 <1>  -0.5700 
  2 C       -1.0950     0.6790    -0.9180 C.2   1 <1>   0.5690 
  3 N       -2.2940     0.0940    -0.6190 N.am  1 <1>  -0.6600 
  4 C       -0.9660     2.1890    -0.9730 C.3   1 <1>  -0.0990 
  5 C       -3.5820     0.7830    -0.3460 C.3   1 <1>   0.1400 
  6 C       -2.4440    -1.3730    -0.4710 C.3   1 <1>   0.1400 
  7 C       -0.6270     2.7610     0.4070 C.3   1 <1>  -0.0160 
  8 C       -4.5990    -0.3420    -0.1580 C.3   1 <1>   0.2000 
  9 C       -3.7810    -1.5660     0.2460 C.3   1 <1>  -0.0800 
 10 C       -0.6010     4.2800     0.3610 C.ar  1 <1>  -0.1440 
 11 O       -5.5210    -0.0340     0.8290 O.3   1 <1>  -0.6800 
 12 C       -4.4710    -2.8970    -0.0860 C.3   1 <1>   0.0210 
 13 C        0.5540     4.9480    -0.0130 C.ar  1 <1>  -0.1500 
 14 C       -1.7320     5.0110     0.6900 C.ar  1 <1>  -0.1500 
 15 C       -3.5700    -4.0700     0.2460 C.2   1 <1>   0.1080 
 16 C        0.5830     6.3310    -0.0600 C.ar  1 <1>  -0.1500 
 17 C       -1.7060     6.3930     0.6440 C.ar  1 <1>  -0.1500 
 18 N       -3.1240    -4.2970     1.4420 N.2   1 <1>  -0.7070 
 19 C       -3.1140    -5.0100    -0.6730 C.2   1 <1>  -0.1500 
 20 C       -0.5530     7.0640     0.2710 C.ar  1 <1>   0.0820 
 21 N       -2.3640    -5.4010     1.3180 N.pl3 1 <1>   0.3000 
 22 C       -2.3410    -5.8510     0.0460 C.2   1 <1>  -0.3320 
 23 O       -0.6120     8.4190     0.2530 O.3   1 <1>  -0.3620 
 24 C       -1.5680    -7.0740    -0.4120 C.3   1 <1>  -0.0600 
 25 C        0.5120     9.1970    -0.0940 C.3   1 <1>   0.0400 
 26 H       -0.1800     2.4390    -1.6630 H     1 <1>   0.0800 
 27 H       -1.8720     2.6270    -1.3450 H     1 <1>   0.0800 
 28 H       -3.4910     1.3690     0.5520 H     1 <1>   0.0800 
 29 H       -3.8610     1.4070    -1.1760 H     1 <1>   0.0800 
 30 H       -2.4580    -1.8230    -1.4490 H     1 <1>   0.0800 
 31 H       -1.6300    -1.7910     0.1000 H     1 <1>   0.0800 
 32 H        0.3320     2.3880     0.7240 H     1 <1>   0.0800 
 33 H       -1.3540     2.4340     1.1290 H     1 <1>   0.0800 
 34 H       -5.1300    -0.5080    -1.0800 H     1 <1>   0.0800 
 35 H       -3.5760    -1.5310     1.3020 H     1 <1>   0.0800 
 36 H       -5.1050    -0.0990     1.7110 H     1 <1>   0.4000 
 37 H       -4.7310    -2.9310    -1.1280 H     1 <1>   0.0800 
 38 H       -5.3750    -2.9860     0.4890 H     1 <1>   0.0800 
 39 H        1.4380     4.3900    -0.2720 H     1 <1>   0.1500 
 40 H       -2.6380     4.5100     0.9830 H     1 <1>   0.1500 
 41 H        1.4940     6.8170    -0.3540 H     1 <1>   0.1500 
 42 H       -2.5810     6.9640     0.8980 H     1 <1>   0.1500 
 43 H       -3.3420    -5.0370    -1.7230 H     1 <1>   0.1500 
 44 H       -1.8750    -5.8210     2.1180 H     1 <1>   0.2700 
 45 H       -1.7080    -7.2260    -1.4670 H     1 <1>   0.0800 
 46 H       -1.9140    -7.9500     0.1090 H     1 <1>   0.0800 
 47 H       -0.5170    -6.9430    -0.2220 H     1 <1>   0.0800 
 48 H        0.2330    10.2330    -0.0320 H     1 <1>   0.0800 
 49 H        0.8050     8.9560    -1.1000 H     1 <1>   0.0800 
 50 H        1.3070     8.9900     0.6010 H     1 <1>   0.0800 
@<TRIPOS>BOND
  1   1   2  2   
  2   2   3  am  
  3   2   4  1   
  4   3   5  1   
  5   3   6  1   
  6   4   7  1   
  7   4  26  1   
  8   4  27  1   
  9   5   8  1   
 10   5  28  1   
 11   5  29  1   
 12   6   9  1   
 13   6  30  1   
 14   6  31  1   
 15   7  10  1   
 16   7  32  1   
 17   7  33  1   
 18   8   9  1   
 19   8  11  1   
 20   8  34  1   
 21   9  12  1   
 22   9  35  1   
 23  10  13  ar  
 24  10  14  ar  
 25  11  36  1   
 26  12  15  1   
 27  12  37  1   
 28  12  38  1   
 29  13  16  ar  
 30  13  39  1   
 31  14  17  ar  
 32  14  40  1   
 33  15  18  2   
 34  15  19  1   
 35  16  20  ar  
 36  16  41  1   
 37  17  20  ar  
 38  17  42  1   
 39  18  21  1   
 40  19  22  2   
 41  19  43  1   
 42  20  23  1   
 43  21  22  1   
 44  21  44  1   
 45  22  24  1   
 46  23  25  1   
 47  24  45  1   
 48  24  46  1   
 49  24  47  1   
 50  25  48  1   
 51  25  49  1   
 52  25  50  1   
@<TRIPOS>SUBSTRUCTURE
  1 ****   3 GROUP 4 **** **** 0

# MOE 2024.06 (io_trps.svl 2023.06)
