@<TRIPOS>MOLECULE
NONAME
47 50 1 0 0 
SMALL
USER_CHARGES


@<TRIPOS>ATOM
  1 S        0.1350     0.2240     0.8460 S.3   1 <1>  -0.0800 
  2 C       -0.6020     1.6920     0.2400 C.ar  1 <1>   0.0400 
  3 C       -1.3290    -0.6640     0.4320 C.2   1 <1>   0.1980 
  4 C       -1.8690     1.3780    -0.2120 C.ar  1 <1>   0.2270 
  5 C       -0.0690     2.9670     0.1940 C.ar  1 <1>  -0.1500 
  6 N       -2.2490     0.0420    -0.0900 N.2   1 <1>  -0.5650 
  7 C       -1.3230    -2.1500     0.7430 C.3   1 <1>   0.0200 
  8 C       -2.6490     2.3970    -0.7410 C.ar  1 <1>  -0.1500 
  9 C       -0.8600     3.9720    -0.3380 C.ar  1 <1>  -0.1500 
 10 C       -2.6490    -2.8240     0.3530 C.3   1 <1>  -0.0990 
 11 C       -2.1430     3.6870    -0.8020 C.ar  1 <1>  -0.1500 
 12 C       -2.6770    -4.3160     0.6340 C.2   1 <1>   0.5690 
 13 O       -1.7550    -4.8270     1.2230 O.2   1 <1>  -0.5700 
 14 N       -3.7460    -5.0570     0.2180 N.am  1 <1>  -0.6600 
 15 C       -4.9580    -4.5610    -0.4840 C.3   1 <1>   0.1400 
 16 C       -3.8460    -6.5180     0.4550 C.3   1 <1>   0.1400 
 17 C       -5.9920    -5.6660    -0.2710 C.3   1 <1>   0.2000 
 18 C       -5.1510    -6.9470    -0.2290 C.3   1 <1>  -0.0800 
 19 O       -6.5890    -5.4620     0.9640 O.3   1 <1>  -0.6800 
 20 C       -5.8390    -8.1540     0.4380 C.3   1 <1>   0.0200 
 21 C       -5.0340    -9.4380     0.3290 C.2   1 <1>  -0.0400 
 22 O       -5.4560   -10.4960     0.9690 O.3   1 <1>  -0.0190 
 23 C       -3.9080    -9.7770    -0.3200 C.2   1 <1>  -0.1500 
 24 N       -4.6730   -11.5200     0.7870 N.2   1 <1>  -0.4100 
 25 C       -3.7310   -11.1160     0.0150 C.2   1 <1>   0.1080 
 26 C       -2.5890   -11.9860    -0.4600 C.3   1 <1>  -0.0590 
 27 H        0.9240     3.1610     0.5580 H     1 <1>   0.1500 
 28 H       -0.5130    -2.6130     0.2090 H     1 <1>   0.0800 
 29 H       -1.1480    -2.2820     1.7960 H     1 <1>   0.0800 
 30 H       -3.6360     2.1660    -1.0960 H     1 <1>   0.1500 
 31 H       -0.4850     4.9790    -0.3930 H     1 <1>   0.1500 
 32 H       -2.8190    -2.6690    -0.6970 H     1 <1>   0.0800 
 33 H       -3.4490    -2.3590     0.8970 H     1 <1>   0.0800 
 34 H       -2.7460     4.4780    -1.2120 H     1 <1>   0.1500 
 35 H       -5.3000    -3.6180    -0.0930 H     1 <1>   0.0800 
 36 H       -4.7390    -4.4620    -1.5320 H     1 <1>   0.0800 
 37 H       -2.9910    -7.0250     0.0430 H     1 <1>   0.0800 
 38 H       -3.8860    -6.6990     1.5160 H     1 <1>   0.0800 
 39 H       -6.7600    -5.6800    -1.0250 H     1 <1>   0.0800 
 40 H       -4.9160    -7.2100    -1.2460 H     1 <1>   0.0800 
 41 H       -5.8910    -5.3070     1.6320 H     1 <1>   0.4000 
 42 H       -6.7990    -8.3150    -0.0210 H     1 <1>   0.0800 
 43 H       -6.0100    -7.9500     1.4810 H     1 <1>   0.0800 
 44 H       -3.2650    -9.1980    -0.9560 H     1 <1>   0.1500 
 45 H       -1.6530   -11.5650    -0.1420 H     1 <1>   0.0800 
 46 H       -2.6030   -12.0540    -1.5320 H     1 <1>   0.0800 
 47 H       -2.6840   -12.9740    -0.0470 H     1 <1>   0.0800 
@<TRIPOS>BOND
  1   1   2  1   
  2   1   3  1   
  3   2   4  ar  
  4   2   5  ar  
  5   3   6  2   
  6   3   7  1   
  7   4   6  1   
  8   4   8  ar  
  9   5   9  ar  
 10   5  27  1   
 11   7  10  1   
 12   7  28  1   
 13   7  29  1   
 14   8  11  ar  
 15   8  30  1   
 16   9  11  ar  
 17   9  31  1   
 18  10  12  1   
 19  10  32  1   
 20  10  33  1   
 21  11  34  1   
 22  12  13  2   
 23  12  14  am  
 24  14  15  1   
 25  14  16  1   
 26  15  17  1   
 27  15  35  1   
 28  15  36  1   
 29  16  18  1   
 30  16  37  1   
 31  16  38  1   
 32  17  18  1   
 33  17  19  1   
 34  17  39  1   
 35  18  20  1   
 36  18  40  1   
 37  19  41  1   
 38  20  21  1   
 39  20  42  1   
 40  20  43  1   
 41  21  22  1   
 42  21  23  2   
 43  22  24  1   
 44  23  25  1   
 45  23  44  1   
 46  24  25  2   
 47  25  26  1   
 48  26  45  1   
 49  26  46  1   
 50  26  47  1   
@<TRIPOS>SUBSTRUCTURE
  1 ****  12 GROUP 4 **** **** 0

# MOE 2024.06 (io_trps.svl 2023.06)
