@<TRIPOS>MOLECULE
NONAME
57 60 1 0 0 
SMALL
USER_CHARGES


@<TRIPOS>ATOM
  1 O        1.3630     0.0110     1.4930 O.3   1 <1>  -0.6800 
  2 C        1.7340    -0.0200     0.1510 C.3   1 <1>   0.2000 
  3 C        2.4880    -1.3160    -0.1630 C.3   1 <1>  -0.0800 
  4 C        2.7690     1.0810    -0.1130 C.3   1 <1>   0.2090 
  5 C        3.9310    -1.0190     0.2510 C.3   1 <1>   0.2090 
  6 C        1.9220    -2.6030     0.4670 C.3   1 <1>  -0.0170 
  7 N        4.1110     0.4370     0.0210 N.pl3 1 <1>  -0.8380 
  8 C        2.7770    -3.8090     0.1060 C.ar  1 <1>  -0.1440 
  9 C        5.2770     1.1290     0.0010 C.ar  1 <1>   0.4100 
 10 C        3.6130    -4.4120     1.0240 C.ar  1 <1>  -0.1500 
 11 C        2.7620    -4.3620    -1.1590 C.ar  1 <1>  -0.1500 
 12 N        5.2140     2.4180    -0.2770 N.ar  1 <1>  -0.6200 
 13 C        6.5060     0.4990     0.2700 C.ar  1 <1>  -0.1500 
 14 C        4.3770    -5.5020     0.6430 C.ar  1 <1>   0.1600 
 15 C        3.5670    -5.4540    -1.4380 C.ar  1 <1>   0.1600 
 16 C        6.3360     3.1210    -0.2980 C.ar  1 <1>   0.7710 
 17 C        7.6450     1.2320     0.2510 C.ar  1 <1>   0.2180 
 18 N        4.3770    -6.0350    -0.5680 N.ar  1 <1>  -0.6200 
 19 N        7.5230     2.5480    -0.0360 N.ar  1 <1>  -0.1790 
 20 N        6.2960     4.4510    -0.5820 N.pl3 1 <1>  -0.8380 
 21 C        9.0270     0.6570     0.5350 C.3   1 <1>  -0.0170 
 22 C        7.4590     5.3620    -0.8180 C.3   1 <1>   0.2090 
 23 C        4.9970     5.1970    -0.6740 C.3   1 <1>   0.2090 
 24 C        9.9650     0.7750    -0.6740 C.3   1 <1>  -0.2400 
 25 C        7.4860     6.4340     0.2740 C.3   1 <1>  -0.1600 
 26 C        4.9660     6.2830     0.4070 C.3   1 <1>  -0.1600 
 27 C        6.1720     7.2290     0.3060 C.3   1 <1>  -0.1600 
 28 H        0.6160    -0.5940     1.6610 H     1 <1>   0.4000 
 29 H        0.8500     0.1140    -0.4480 H     1 <1>   0.0800 
 30 H        2.4910    -1.4360    -1.2320 H     1 <1>   0.0800 
 31 H        2.6580     1.8970     0.5810 H     1 <1>   0.0800 
 32 H        2.6640     1.4500    -1.1180 H     1 <1>   0.0800 
 33 H        4.6240    -1.6000    -0.3330 H     1 <1>   0.0800 
 34 H        4.0670    -1.2270     1.2990 H     1 <1>   0.0800 
 35 H        0.9180    -2.7650     0.1170 H     1 <1>   0.0800 
 36 H        1.8850    -2.5090     1.5380 H     1 <1>   0.0800 
 37 H        3.6780    -4.0490     2.0340 H     1 <1>   0.1500 
 38 H        2.1340    -3.9570    -1.9310 H     1 <1>   0.1500 
 39 H        6.5170    -0.5500     0.4910 H     1 <1>   0.1500 
 40 H        5.0220    -5.9610     1.3730 H     1 <1>   0.1500 
 41 H        3.5440    -5.8720    -2.4300 H     1 <1>   0.1500 
 42 H        8.3180     3.1700    -0.0480 H     1 <1>   0.4570 
 43 H        9.4610     1.1610     1.3820 H     1 <1>   0.0800 
 44 H        8.9330    -0.3840     0.7970 H     1 <1>   0.0800 
 45 H        8.3940     4.8330    -0.8350 H     1 <1>   0.0800 
 46 H        7.3410     5.8380    -1.7790 H     1 <1>   0.0800 
 47 H        4.9140     5.6500    -1.6480 H     1 <1>   0.0800 
 48 H        4.1450     4.5510    -0.5440 H     1 <1>   0.0800 
 49 H       10.1550     1.8020    -0.9300 H     1 <1>   0.0800 
 50 H        9.5400     0.2760    -1.5290 H     1 <1>   0.0800 
 51 H       10.9080     0.3070    -0.4500 H     1 <1>   0.0800 
 52 H        7.6500     5.9680     1.2300 H     1 <1>   0.0800 
 53 H        8.3040     7.1100     0.0940 H     1 <1>   0.0800 
 54 H        4.0570     6.8500     0.3120 H     1 <1>   0.0800 
 55 H        4.9530     5.8090     1.3730 H     1 <1>   0.0800 
 56 H        6.0880     7.8150    -0.5930 H     1 <1>   0.0800 
 57 H        6.1740     7.9070     1.1430 H     1 <1>   0.0800 
@<TRIPOS>BOND
  1   1   2  1   
  2   1  28  1   
  3   2   3  1   
  4   2   4  1   
  5   2  29  1   
  6   3   5  1   
  7   3   6  1   
  8   3  30  1   
  9   4   7  1   
 10   4  31  1   
 11   4  32  1   
 12   5   7  1   
 13   5  33  1   
 14   5  34  1   
 15   6   8  1   
 16   6  35  1   
 17   6  36  1   
 18   7   9  1   
 19   8  10  ar  
 20   8  11  ar  
 21   9  12  ar  
 22   9  13  ar  
 23  10  14  ar  
 24  10  37  1   
 25  11  15  ar  
 26  11  38  1   
 27  12  16  ar  
 28  13  17  ar  
 29  13  39  1   
 30  14  18  ar  
 31  14  40  1   
 32  15  18  ar  
 33  15  41  1   
 34  16  19  ar  
 35  16  20  1   
 36  17  19  ar  
 37  17  21  1   
 38  19  42  1   
 39  20  22  1   
 40  20  23  1   
 41  21  24  1   
 42  21  43  1   
 43  21  44  1   
 44  22  25  1   
 45  22  45  1   
 46  22  46  1   
 47  23  26  1   
 48  23  47  1   
 49  23  48  1   
 50  24  49  1   
 51  24  50  1   
 52  24  51  1   
 53  25  27  1   
 54  25  52  1   
 55  25  53  1   
 56  26  27  1   
 57  26  54  1   
 58  26  55  1   
 59  27  56  1   
 60  27  57  1   
@<TRIPOS>SUBSTRUCTURE
  1 ****   9 GROUP 4 **** **** 0

# MOE 2024.06 (io_trps.svl 2023.06)
