@<TRIPOS>MOLECULE
NONAME
46 48 1 0 0 
SMALL
USER_CHARGES


@<TRIPOS>ATOM
  1 S        0.4050    -0.5970    -1.7180 S.o2  1 <1>   1.5000 
  2 O        1.1360    -1.8460    -1.7800 O.2   1 <1>  -0.6500 
  3 O        0.3860     0.2480    -2.8940 O.2   1 <1>  -0.6500 
  4 N       -1.2080    -1.0040    -1.3850 N.am  1 <1>  -0.8490 
  5 C        1.0250     0.3690    -0.3070 C.2   1 <1>  -0.0220 
  6 C       -1.3440    -1.8720    -0.1920 C.3   1 <1>   0.1960 
  7 C       -2.1010     0.1670    -1.3680 C.3   1 <1>   0.1960 
  8 S        2.7310     0.8160    -0.3660 S.3   1 <1>  -0.0800 
  9 C        0.4890     0.8650     0.8320 C.2   1 <1>  -0.1500 
 10 C       -2.7960    -2.3520    -0.0280 C.3   1 <1>   0.2000 
 11 C       -3.5640    -0.2260    -1.1180 C.3   1 <1>  -0.1600 
 12 C        2.6450     1.6590     1.1690 C.2   1 <1>  -0.1400 
 13 C        1.3990     1.5890     1.6640 C.2   1 <1>  -0.1500 
 14 O       -3.1100    -3.0640    -1.1830 O.3   1 <1>  -0.6800 
 15 C       -3.7410    -1.1410     0.1300 C.3   1 <1>  -0.1060 
 16 C        3.9140     2.3040     1.6820 C.3   1 <1>  -0.0600 
 17 C       -3.3050    -0.4450     1.4290 C.2   1 <1>   0.9060 
 18 C       -5.2110    -1.6180     0.2780 C.3   1 <1>  -0.0170 
 19 O       -3.0300     0.7610     1.4420 O.co2 1 <1>  -0.9000 
 20 O       -3.1450    -1.1370     2.4400 O.co2 1 <1>  -0.9000 
 21 C       -6.2500    -0.5050     0.1710 C.ar  1 <1>  -0.1430 
 22 C       -7.0490    -0.4020    -0.9590 C.ar  1 <1>  -0.1500 
 23 C       -6.4100     0.4140     1.1960 C.ar  1 <1>  -0.1500 
 24 C       -7.9940     0.6050    -1.0620 C.ar  1 <1>  -0.1500 
 25 C       -7.3520     1.4220     1.0950 C.ar  1 <1>  -0.1500 
 26 C       -8.1460     1.5180    -0.0340 C.ar  1 <1>  -0.1500 
 27 H       -0.7140    -2.7400    -0.2950 H     1 <1>   0.0800 
 28 H       -1.0300    -1.3560     0.6980 H     1 <1>   0.0800 
 29 H       -1.7860     0.8690    -0.6170 H     1 <1>   0.0800 
 30 H       -2.0440     0.6730    -2.3180 H     1 <1>   0.0800 
 31 H       -0.5350     0.7620     1.1560 H     1 <1>   0.1500 
 32 H       -2.8840    -3.0200     0.8120 H     1 <1>   0.0800 
 33 H       -4.1290     0.6800    -0.9780 H     1 <1>   0.0800 
 34 H       -3.9530    -0.7100    -1.9940 H     1 <1>   0.0800 
 35 H        1.0590     2.0180     2.5920 H     1 <1>   0.1500 
 36 H       -2.7170    -2.5510    -1.9220 H     1 <1>   0.4000 
 37 H        3.7290     2.7860     2.6250 H     1 <1>   0.0800 
 38 H        4.2610     3.0380     0.9770 H     1 <1>   0.0800 
 39 H        4.6760     1.5580     1.8150 H     1 <1>   0.0800 
 40 H       -5.4280    -2.3540    -0.4740 H     1 <1>   0.0800 
 41 H       -5.3260    -2.1100     1.2290 H     1 <1>   0.0800 
 42 H       -6.9340    -1.1070    -1.7630 H     1 <1>   0.1500 
 43 H       -5.7910     0.3520     2.0770 H     1 <1>   0.1500 
 44 H       -8.6080     0.6760    -1.9420 H     1 <1>   0.1500 
 45 H       -7.4580     2.1300     1.8970 H     1 <1>   0.1500 
 46 H       -8.8770     2.3030    -0.1120 H     1 <1>   0.1500 
@<TRIPOS>BOND
  1   1   2  2   
  2   1   3  2   
  3   1   4  am  
  4   1   5  1   
  5   4   6  1   
  6   4   7  1   
  7   5   8  1   
  8   5   9  2   
  9   6  10  1   
 10   6  27  1   
 11   6  28  1   
 12   7  11  1   
 13   7  29  1   
 14   7  30  1   
 15   8  12  1   
 16   9  13  1   
 17   9  31  1   
 18  10  14  1   
 19  10  15  1   
 20  10  32  1   
 21  11  15  1   
 22  11  33  1   
 23  11  34  1   
 24  12  13  2   
 25  12  16  1   
 26  13  35  1   
 27  14  36  1   
 28  15  17  1   
 29  15  18  1   
 30  16  37  1   
 31  16  38  1   
 32  16  39  1   
 33  17  19  ar  
 34  17  20  ar  
 35  18  21  1   
 36  18  40  1   
 37  18  41  1   
 38  21  22  ar  
 39  21  23  ar  
 40  22  24  ar  
 41  22  42  1   
 42  23  25  ar  
 43  23  43  1   
 44  24  26  ar  
 45  24  44  1   
 46  25  26  ar  
 47  25  45  1   
 48  26  46  1   
@<TRIPOS>SUBSTRUCTURE
  1 ****   7 GROUP 4 **** **** 0

# MOE 2024.06 (io_trps.svl 2023.06)
