@<TRIPOS>MOLECULE
NONAME
57 59 1 0 0 
SMALL
USER_CHARGES


@<TRIPOS>ATOM
  1 O       -3.0860    -3.7010    -0.4090 O.co2 1 <1>  -0.9000 
  2 C       -4.2600    -4.0860    -0.4320 C.2   1 <1>   0.9060 
  3 O       -4.6630    -4.9460    -1.2190 O.co2 1 <1>  -0.9000 
  4 C       -5.2690    -3.3780     0.4890 C.3   1 <1>   0.2370 
  5 N       -5.7480    -2.0080     0.0260 N.4   1 <1>  -0.9590 
  6 C       -6.6940    -1.3750     0.9850 C.3   1 <1>   0.3430 
  7 C       -4.5840    -1.1420    -0.3420 C.3   1 <1>   0.3430 
  8 C       -7.4560    -0.1530     0.3980 C.3   1 <1>   0.1900 
  9 C       -4.9820     0.1290    -1.1090 C.3   1 <1>  -0.0800 
 10 N       -7.5260    -0.0750    -1.0980 N.3   1 <1>  -0.8100 
 11 C       -6.9100     1.1550     0.9940 C.3   1 <1>   0.1200 
 12 C       -4.9190     1.3890    -0.2350 C.3   1 <1>   0.1200 
 13 C       -6.2910    -0.0070    -1.9060 C.3   1 <1>   0.1100 
 14 C       -8.6430    -0.8030    -1.7390 C.3   1 <1>   0.2530 
 15 O       -5.5160     1.1780     1.0030 O.3   1 <1>  -0.5600 
 16 C       -8.5840    -2.2840    -1.3960 C.ar  1 <1>  -0.1430 
 17 C       -9.2870    -2.7630    -0.3020 C.ar  1 <1>  -0.1500 
 18 C       -7.8040    -3.1590    -2.1350 C.ar  1 <1>  -0.1500 
 19 C       -9.1660    -4.0830     0.0960 C.ar  1 <1>  -0.1430 
 20 C       -7.6820    -4.4810    -1.7490 C.ar  1 <1>  -0.1500 
 21 C       -8.3490    -4.9490    -0.6210 C.ar  1 <1>   0.0820 
 22 C       -9.8970    -4.5640     1.3360 C.3   1 <1>   0.2630 
 23 O       -8.2240    -6.2210    -0.1610 O.3   1 <1>  -0.3630 
 24 O       -8.9540    -4.6890     2.3370 O.3   1 <1>  -0.6800 
 25 C       -7.2490    -7.0960    -0.6890 C.3   1 <1>   0.1200 
 26 C       -7.3070    -8.4060     0.0980 C.3   1 <1>  -0.1600 
 27 C       -6.2550    -9.3990    -0.4090 C.3   1 <1>  -0.2400 
 28 H       -4.7950    -3.2850     1.4480 H     1 <1>   0.0800 
 29 H       -6.1130    -4.0360     0.5920 H     1 <1>   0.0800 
 30 H       -6.3010    -2.1630    -0.8320 H     1 <1>   0.4500 
 31 H       -7.4220    -2.1100     1.2840 H     1 <1>   0.0800 
 32 H       -6.1640    -1.0700     1.8720 H     1 <1>   0.0800 
 33 H       -4.0300    -0.8780     0.5430 H     1 <1>   0.0800 
 34 H       -3.9210    -1.7070    -0.9780 H     1 <1>   0.0800 
 35 H       -8.4670    -0.2150     0.7590 H     1 <1>   0.0800 
 36 H       -4.2120     0.2670    -1.8470 H     1 <1>   0.0800 
 37 H       -7.2230     1.2340     2.0200 H     1 <1>   0.0800 
 38 H       -7.2860     2.0120     0.4610 H     1 <1>   0.0800 
 39 H       -5.3840     2.2330    -0.7180 H     1 <1>   0.0800 
 40 H       -3.8900     1.6390    -0.0400 H     1 <1>   0.0800 
 41 H       -6.2140    -0.8830    -2.5270 H     1 <1>   0.0800 
 42 H       -6.3800     0.8370    -2.5690 H     1 <1>   0.0800 
 43 H       -9.5760    -0.3890    -1.3960 H     1 <1>   0.0800 
 44 H       -8.6060    -0.6680    -2.8070 H     1 <1>   0.0800 
 45 H       -9.9200    -2.0990     0.2600 H     1 <1>   0.1500 
 46 H       -7.2720    -2.8250    -3.0090 H     1 <1>   0.1500 
 47 H       -7.0450    -5.1250    -2.3290 H     1 <1>   0.1500 
 48 H      -10.3540    -5.5260     1.1720 H     1 <1>   0.0800 
 49 H      -10.6450    -3.8620     1.6600 H     1 <1>   0.0800 
 50 H       -8.2920    -5.3400     2.0250 H     1 <1>   0.4000 
 51 H       -7.4660    -7.2660    -1.7290 H     1 <1>   0.0800 
 52 H       -6.2820    -6.6370    -0.5850 H     1 <1>   0.0800 
 53 H       -7.1250    -8.2010     1.1380 H     1 <1>   0.0800 
 54 H       -8.2860    -8.8400    -0.0050 H     1 <1>   0.0800 
 55 H       -5.2680    -8.9790    -0.3130 H     1 <1>   0.0800 
 56 H       -6.4290    -9.6360    -1.4440 H     1 <1>   0.0800 
 57 H       -6.2990   -10.3080     0.1640 H     1 <1>   0.0800 
@<TRIPOS>BOND
  1   1   2  ar  
  2   2   3  ar  
  3   2   4  1   
  4   4   5  1   
  5   4  28  1   
  6   4  29  1   
  7   5   6  1   
  8   5   7  1   
  9   5  30  1   
 10   6   8  1   
 11   6  31  1   
 12   6  32  1   
 13   7   9  1   
 14   7  33  1   
 15   7  34  1   
 16   8  10  1   
 17   8  11  1   
 18   8  35  1   
 19   9  12  1   
 20   9  13  1   
 21   9  36  1   
 22  10  13  1   
 23  10  14  1   
 24  11  15  1   
 25  11  37  1   
 26  11  38  1   
 27  12  15  1   
 28  12  39  1   
 29  12  40  1   
 30  13  41  1   
 31  13  42  1   
 32  14  16  1   
 33  14  43  1   
 34  14  44  1   
 35  16  17  ar  
 36  16  18  ar  
 37  17  19  ar  
 38  17  45  1   
 39  18  20  ar  
 40  18  46  1   
 41  19  21  ar  
 42  19  22  1   
 43  20  21  ar  
 44  20  47  1   
 45  21  23  1   
 46  22  24  1   
 47  22  48  1   
 48  22  49  1   
 49  23  25  1   
 50  24  50  1   
 51  25  26  1   
 52  25  51  1   
 53  25  52  1   
 54  26  27  1   
 55  26  53  1   
 56  26  54  1   
 57  27  55  1   
 58  27  56  1   
 59  27  57  1   
@<TRIPOS>SUBSTRUCTURE
  1 ****   5 GROUP 4 **** **** 0

# MOE 2024.06 (io_trps.svl 2023.06)
