@<TRIPOS>MOLECULE
NONAME
60 63 1 0 0 
SMALL
USER_CHARGES


@<TRIPOS>ATOM
  1 O       -0.0190    -0.6770    -0.2020 O.2   1 <1>  -0.5700 
  2 C       -0.1080    -1.8890    -0.1540 C.2   1 <1>   0.5440 
  3 N       -1.3600    -2.4440     0.0330 N.am  1 <1>  -0.6600 
  4 C        1.1000    -2.6850    -0.3080 C.ar  1 <1>   0.0860 
  5 C       -1.6540    -3.8830    -0.2550 C.3   1 <1>   0.1400 
  6 C       -2.5190    -1.5770     0.3930 C.3   1 <1>   0.1400 
  7 C        1.4360    -3.7310     0.5490 C.ar  1 <1>  -0.1500 
  8 C        2.0020    -2.3940    -1.3240 C.ar  1 <1>  -0.1500 
  9 C       -3.1330    -4.1260    -0.6070 C.3   1 <1>   0.2200 
 10 C       -3.5200    -2.3610     1.2420 C.3   1 <1>  -0.1600 
 11 C        2.6070    -4.4640     0.4170 C.ar  1 <1>   0.0830 
 12 C        3.1800    -3.1000    -1.4670 C.ar  1 <1>  -0.1500 
 13 N       -3.3460    -5.5780    -0.8000 N.am  1 <1>  -0.7300 
 14 C       -4.0680    -3.6040     0.5140 C.3   1 <1>   0.2000 
 15 O        2.7310    -5.4560     1.3440 O.3   1 <1>  -0.3630 
 16 C        3.5140    -4.1330    -0.6030 C.ar  1 <1>  -0.1430 
 17 C       -2.8470    -6.2970    -1.8300 C.2   1 <1>   0.5690 
 18 O       -4.2640    -4.6180     1.4710 O.3   1 <1>  -0.5600 
 19 C        3.7120    -6.4710     1.3580 C.3   1 <1>   0.1200 
 20 C        4.8700    -4.7860    -0.8550 C.3   1 <1>  -0.0970 
 21 O       -2.5690    -5.7940    -2.8880 O.2   1 <1>  -0.5700 
 22 C       -2.5060    -7.7500    -1.5740 C.3   1 <1>  -0.0990 
 23 C       -5.4270    -4.4990     2.2330 C.3   1 <1>   0.0400 
 24 C        3.2460    -7.6160     2.2610 C.3   1 <1>   0.0960 
 25 C       -1.2680    -7.7940    -0.6650 C.3   1 <1>  -0.1600 
 26 N        2.2260    -8.4290     1.5740 N.pl3 1 <1>   0.3140 
 27 C       -0.7130    -9.1950    -0.3850 C.3   1 <1>   0.0210 
 28 N        2.4100    -9.7180     1.2720 N.2   1 <1>  -0.4180 
 29 C        1.0680    -8.0200     1.0630 C.2   1 <1>  -0.3020 
 30 C        0.5670    -9.0910     0.4290 C.2   1 <1>   0.0460 
 31 N        1.4000   -10.1250     0.5830 N.2   1 <1>  -0.2270 
 32 H       -1.0410    -4.2140    -1.0760 H     1 <1>   0.0800 
 33 H       -1.4110    -4.4630     0.6180 H     1 <1>   0.0800 
 34 H       -2.1740    -0.7210     0.9500 H     1 <1>   0.0800 
 35 H       -2.9860    -1.2200    -0.5100 H     1 <1>   0.0800 
 36 H        0.7680    -3.9720     1.3540 H     1 <1>   0.1500 
 37 H        1.7730    -1.5900    -2.0030 H     1 <1>   0.1500 
 38 H       -3.3470    -3.6130    -1.5290 H     1 <1>   0.0800 
 39 H       -4.3360    -1.7140     1.5050 H     1 <1>   0.0800 
 40 H       -3.0200    -2.6560     2.1480 H     1 <1>   0.0800 
 41 H        3.8430    -2.8230    -2.2690 H     1 <1>   0.1500 
 42 H       -3.6310    -6.0290     0.0760 H     1 <1>   0.3700 
 43 H       -5.0170    -3.3750     0.0590 H     1 <1>   0.0800 
 44 H        3.8540    -6.8460     0.3610 H     1 <1>   0.0800 
 45 H        4.6210    -6.0430     1.7390 H     1 <1>   0.0800 
 46 H        5.4520    -4.2090    -1.5510 H     1 <1>   0.0800 
 47 H        4.7430    -5.7660    -1.2770 H     1 <1>   0.0800 
 48 H        5.4390    -4.8430     0.0540 H     1 <1>   0.0800 
 49 H       -3.3410    -8.2440    -1.1110 H     1 <1>   0.0800 
 50 H       -2.2970    -8.2300    -2.5130 H     1 <1>   0.0800 
 51 H       -5.4700    -5.3340     2.9100 H     1 <1>   0.0800 
 52 H       -6.2840    -4.5180     1.5820 H     1 <1>   0.0800 
 53 H       -5.3980    -3.5830     2.7960 H     1 <1>   0.0800 
 54 H        2.8420    -7.2340     3.1800 H     1 <1>   0.0800 
 55 H        4.0790    -8.2550     2.4870 H     1 <1>   0.0800 
 56 H       -0.4910    -7.2110    -1.1320 H     1 <1>   0.0800 
 57 H       -1.5090    -7.3270     0.2750 H     1 <1>   0.0800 
 58 H       -0.4900    -9.6890    -1.3140 H     1 <1>   0.0800 
 59 H       -1.4310    -9.7880     0.1540 H     1 <1>   0.0800 
 60 H        0.7000    -7.0170     1.1640 H     1 <1>   0.1500 
@<TRIPOS>BOND
  1   1   2  2   
  2   2   3  am  
  3   2   4  1   
  4   3   5  1   
  5   3   6  1   
  6   4   7  ar  
  7   4   8  ar  
  8   5   9  1   
  9   5  32  1   
 10   5  33  1   
 11   6  10  1   
 12   6  34  1   
 13   6  35  1   
 14   7  11  ar  
 15   7  36  1   
 16   8  12  ar  
 17   8  37  1   
 18   9  13  1   
 19   9  14  1   
 20   9  38  1   
 21  10  14  1   
 22  10  39  1   
 23  10  40  1   
 24  11  15  1   
 25  11  16  ar  
 26  12  16  ar  
 27  12  41  1   
 28  13  17  am  
 29  13  42  1   
 30  14  18  1   
 31  14  43  1   
 32  15  19  1   
 33  16  20  1   
 34  17  21  2   
 35  17  22  1   
 36  18  23  1   
 37  19  24  1   
 38  19  44  1   
 39  19  45  1   
 40  20  46  1   
 41  20  47  1   
 42  20  48  1   
 43  22  25  1   
 44  22  49  1   
 45  22  50  1   
 46  23  51  1   
 47  23  52  1   
 48  23  53  1   
 49  24  26  1   
 50  24  54  1   
 51  24  55  1   
 52  25  27  1   
 53  25  56  1   
 54  25  57  1   
 55  26  28  1   
 56  26  29  1   
 57  27  30  1   
 58  27  58  1   
 59  27  59  1   
 60  28  31  2   
 61  29  30  2   
 62  29  60  1   
 63  30  31  1   
@<TRIPOS>SUBSTRUCTURE
  1 ****   5 GROUP 4 **** **** 0

# MOE 2024.06 (io_trps.svl 2023.06)
