@<TRIPOS>MOLECULE
NONAME
45 48 1 0 0 
SMALL
USER_CHARGES


@<TRIPOS>ATOM
  1 O        0.7080     0.7850    -1.1890 O.2   1 <1>  -0.5700 
  2 C        1.7310     0.3510    -0.6650 C.2   1 <1>   0.6900 
  3 N        2.7310     1.0930    -0.1580 N.am  1 <1>  -0.4200 
  4 N        2.0770    -0.9510    -0.4760 N.am  1 <1>  -0.2980 
  5 C        3.6390     0.1870     0.3380 C.2   1 <1>   0.4490 
  6 C        2.7450     2.5510     0.0710 C.3   1 <1>   0.1400 
  7 N        3.2910    -1.0300     0.1650 N.2   1 <1>  -0.5120 
  8 C        1.3060    -2.1490    -0.8530 C.3   1 <1>   0.0600 
  9 C        4.9210     0.6670     0.9930 C.3   1 <1>  -0.0990 
 10 C        4.1780     3.0250     0.3750 C.3   1 <1>  -0.0190 
 11 C        4.8300     2.1350     1.4570 C.3   1 <1>  -0.1600 
 12 C        4.1610     4.4870     0.7970 C.2   1 <1>   0.5690 
 13 O        3.3790     4.8290     1.6480 O.2   1 <1>  -0.5700 
 14 N        5.0440     5.3400     0.1940 N.am  1 <1>  -0.4940 
 15 C        5.2190     6.7150     0.3920 C.2   1 <1>   0.2040 
 16 O        4.4930     7.3970     1.2430 O.3   1 <1>  -0.0190 
 17 C        6.0780     7.5730    -0.1870 C.2   1 <1>  -0.1810 
 18 N        4.8190     8.6610     1.2620 N.2   1 <1>  -0.4100 
 19 C        5.7850     8.8070     0.4110 C.2   1 <1>   0.2350 
 20 C        7.1240     7.3210    -1.2630 C.3   1 <1>  -0.0590 
 21 C        6.4360    10.0670     0.1240 C.ar  1 <1>   0.0540 
 22 C        7.8170    10.2180     0.2280 C.ar  1 <1>  -0.1500 
 23 C        5.6900    11.1760    -0.2680 C.ar  1 <1>  -0.1500 
 24 C        8.4320    11.4210    -0.0660 C.ar  1 <1>  -0.1500 
 25 C        6.2980    12.3830    -0.5640 C.ar  1 <1>  -0.1500 
 26 C        7.6730    12.5060    -0.4660 C.ar  1 <1>  -0.1500 
 27 H        2.0970     2.7660     0.9040 H     1 <1>   0.0800 
 28 H        2.3550     3.0540    -0.7970 H     1 <1>   0.0800 
 29 H        0.3920    -1.8580    -1.3380 H     1 <1>   0.0800 
 30 H        1.0780    -2.7170     0.0310 H     1 <1>   0.0800 
 31 H        1.8920    -2.7510    -1.5230 H     1 <1>   0.0800 
 32 H        5.7130     0.5670     0.2730 H     1 <1>   0.0800 
 33 H        5.1520     0.0290     1.8280 H     1 <1>   0.0800 
 34 H        4.7480     2.9400    -0.5320 H     1 <1>   0.0800 
 35 H        5.8150     2.4980     1.6960 H     1 <1>   0.0800 
 36 H        4.2360     2.1850     2.3550 H     1 <1>   0.0800 
 37 H        5.6690     4.9290    -0.4930 H     1 <1>   0.3700 
 38 H        7.0060     6.3420    -1.6890 H     1 <1>   0.0800 
 39 H        8.1110     7.4000    -0.8460 H     1 <1>   0.0800 
 40 H        7.0210     8.0490    -2.0490 H     1 <1>   0.0800 
 41 H        8.4140     9.3840     0.5520 H     1 <1>   0.1500 
 42 H        4.6200    11.0840    -0.3390 H     1 <1>   0.1500 
 43 H        9.5010    11.5180     0.0180 H     1 <1>   0.1500 
 44 H        5.7020    13.2260    -0.8680 H     1 <1>   0.1500 
 45 H        8.1480    13.4440    -0.6960 H     1 <1>   0.1500 
@<TRIPOS>BOND
  1   1   2  2   
  2   2   3  am  
  3   2   4  am  
  4   3   5  1   
  5   3   6  1   
  6   4   7  1   
  7   4   8  1   
  8   5   7  2   
  9   5   9  1   
 10   6  10  1   
 11   6  27  1   
 12   6  28  1   
 13   8  29  1   
 14   8  30  1   
 15   8  31  1   
 16   9  11  1   
 17   9  32  1   
 18   9  33  1   
 19  10  11  1   
 20  10  12  1   
 21  10  34  1   
 22  11  35  1   
 23  11  36  1   
 24  12  13  2   
 25  12  14  am  
 26  14  15  1   
 27  14  37  1   
 28  15  16  1   
 29  15  17  2   
 30  16  18  1   
 31  17  19  1   
 32  17  20  1   
 33  18  19  2   
 34  19  21  1   
 35  20  38  1   
 36  20  39  1   
 37  20  40  1   
 38  21  22  ar  
 39  21  23  ar  
 40  22  24  ar  
 41  22  41  1   
 42  23  25  ar  
 43  23  42  1   
 44  24  26  ar  
 45  24  43  1   
 46  25  26  ar  
 47  25  44  1   
 48  26  45  1   
@<TRIPOS>SUBSTRUCTURE
  1 ****  14 GROUP 4 **** **** 0

# MOE 2024.06 (io_trps.svl 2023.06)
