@<TRIPOS>MOLECULE
NONAME
42 44 1 0 0 
SMALL
USER_CHARGES


@<TRIPOS>ATOM
  1 O       -3.5920     3.1370    -1.0160 O.2   1 <1>  -0.5700 
  2 C       -2.6790     2.5220    -0.5240 C.2   1 <1>   0.5690 
  3 N       -2.5670     1.1760    -0.6780 N.am  1 <1>  -0.7300 
  4 C       -1.6380     3.2960     0.2690 C.3   1 <1>   0.1570 
  5 C       -3.5080     0.3030    -1.4120 C.3   1 <1>   0.2200 
  6 N       -0.8060     2.3880     1.0870 N.pl3 1 <1>   0.0480 
  7 C       -3.8650    -0.8820    -0.5310 C.3   1 <1>  -0.0800 
  8 C       -2.7850    -0.3720    -2.5760 C.3   1 <1>   0.1200 
  9 C        0.2750     1.6610     0.7080 C.2   1 <1>   0.0060 
 10 C       -1.0530     2.0010     2.3510 C.2   1 <1>  -0.3020 
 11 C       -2.6820    -1.8200    -0.7810 C.3   1 <1>   0.1200 
 12 C       -5.2070    -1.5140    -0.9470 C.3   1 <1>  -0.0160 
 13 O       -2.2260    -1.5520    -2.0740 O.3   1 <1>  -0.5600 
 14 N        0.7070     0.8620     1.6250 N.2   1 <1>  -0.5650 
 15 C        0.9210     1.7530    -0.6620 C.3   1 <1>  -0.0600 
 16 C       -0.1210     1.0760     2.6630 C.2   1 <1>   0.0770 
 17 C       -5.5720    -2.6840    -0.0470 C.ar  1 <1>  -0.1430 
 18 C       -6.0500    -2.4940     1.2340 C.ar  1 <1>  -0.1500 
 19 C       -5.4440    -3.9950    -0.4610 C.ar  1 <1>  -0.1500 
 20 C       -6.3630    -3.5920     2.0180 C.ar  1 <1>   0.1600 
 21 C       -5.7860    -5.0220     0.4030 C.ar  1 <1>   0.1600 
 22 N       -6.2410    -4.8520     1.6330 N.ar  1 <1>  -0.6200 
 23 H       -1.7770     0.6820    -0.2450 H     1 <1>   0.3700 
 24 H       -2.1360     3.9920     0.9170 H     1 <1>   0.0800 
 25 H       -1.0110     3.8430    -0.4070 H     1 <1>   0.0800 
 26 H       -4.3660     0.8660    -1.7400 H     1 <1>   0.0800 
 27 H       -3.9210    -0.5970     0.5060 H     1 <1>   0.0800 
 28 H       -2.0090     0.2450    -2.9930 H     1 <1>   0.0800 
 29 H       -3.4830    -0.6480    -3.3460 H     1 <1>   0.0800 
 30 H       -1.8580     2.3880     2.9490 H     1 <1>   0.1500 
 31 H       -2.9380    -2.8620    -0.7050 H     1 <1>   0.0800 
 32 H       -1.8740    -1.6040    -0.1030 H     1 <1>   0.0800 
 33 H       -5.1620    -1.8460    -1.9700 H     1 <1>   0.0800 
 34 H       -5.9870    -0.7740    -0.8810 H     1 <1>   0.0800 
 35 H        1.7590     1.0800    -0.7120 H     1 <1>   0.0800 
 36 H        1.2760     2.7510    -0.8380 H     1 <1>   0.0800 
 37 H        0.2210     1.4800    -1.4300 H     1 <1>   0.0800 
 38 H        0.0000     0.5430     3.5920 H     1 <1>   0.1500 
 39 H       -6.1820    -1.5040     1.6300 H     1 <1>   0.1500 
 40 H       -5.0790    -4.2280    -1.4450 H     1 <1>   0.1500 
 41 H       -6.7340    -3.4240     3.0140 H     1 <1>   0.1500 
 42 H       -5.6780    -6.0380     0.0630 H     1 <1>   0.1500 
@<TRIPOS>BOND
  1   1   2  2   
  2   2   3  am  
  3   2   4  1   
  4   3   5  1   
  5   3  23  1   
  6   4   6  1   
  7   4  24  1   
  8   4  25  1   
  9   5   7  1   
 10   5   8  1   
 11   5  26  1   
 12   6   9  1   
 13   6  10  1   
 14   7  11  1   
 15   7  12  1   
 16   7  27  1   
 17   8  13  1   
 18   8  28  1   
 19   8  29  1   
 20   9  14  2   
 21   9  15  1   
 22  10  16  2   
 23  10  30  1   
 24  11  13  1   
 25  11  31  1   
 26  11  32  1   
 27  12  17  1   
 28  12  33  1   
 29  12  34  1   
 30  14  16  1   
 31  15  35  1   
 32  15  36  1   
 33  15  37  1   
 34  16  38  1   
 35  17  18  ar  
 36  17  19  ar  
 37  18  20  ar  
 38  18  39  1   
 39  19  21  ar  
 40  19  40  1   
 41  20  22  ar  
 42  20  41  1   
 43  21  22  ar  
 44  21  42  1   
@<TRIPOS>SUBSTRUCTURE
  1 ****   7 GROUP 4 **** **** 0

# MOE 2024.06 (io_trps.svl 2023.06)
