@<TRIPOS>MOLECULE
NONAME
50 52 1 0 0 
SMALL
USER_CHARGES


@<TRIPOS>ATOM
  1 F       -0.2000    -0.8230     0.9400 F     1 <1>  -0.3400 
  2 C       -0.0660     0.4200     0.4900 C.3   1 <1>   1.3000 
  3 F        0.0810     0.3720    -0.8280 F     1 <1>  -0.3400 
  4 F        1.0470     0.9200     1.0060 F     1 <1>  -0.3400 
  5 O       -1.1730     1.2200     0.8550 O.3   1 <1>  -0.3630 
  6 C       -2.3880     0.8460     0.4060 C.ar  1 <1>   0.0830 
  7 C       -3.1720    -0.0070     1.1660 C.ar  1 <1>  -0.1500 
  8 C       -2.8570     1.3310    -0.8040 C.ar  1 <1>  -0.1500 
  9 C       -4.4230    -0.3820     0.7100 C.ar  1 <1>  -0.1500 
 10 C       -4.1080     0.9550    -1.2590 C.ar  1 <1>  -0.1500 
 11 C       -4.9010     0.1020    -0.5020 C.ar  1 <1>  -0.1430 
 12 C       -6.2830    -0.2940    -0.9880 C.3   1 <1>   0.4870 
 13 N       -7.1980     0.8690    -0.8320 N.4   1 <1>  -0.9590 
 14 C       -7.3290     1.2850     0.5990 C.3   1 <1>   0.3430 
 15 C       -8.5160     0.6100    -1.4840 C.3   1 <1>   0.3430 
 16 C       -8.2350     2.5100     0.7170 C.3   1 <1>  -0.1600 
 17 C       -9.3730     1.8620    -1.3880 C.3   1 <1>  -0.1600 
 18 C       -9.6040     2.2530     0.0790 C.3   1 <1>   0.2800 
 19 O      -10.2580     3.4870     0.0490 O.3   1 <1>  -0.5600 
 20 C      -10.4010     1.2200     0.9120 C.3   1 <1>  -0.1600 
 21 C      -11.6090     3.5830     0.4190 C.3   1 <1>   0.1200 
 22 C      -11.8470     1.0570     0.4310 C.3   1 <1>   0.2800 
 23 C      -12.4180     2.3850    -0.0960 C.3   1 <1>  -0.1600 
 24 O      -11.8300     0.1490    -0.6030 O.3   1 <1>  -0.6800 
 25 C      -12.7220     0.4400     1.5210 C.3   1 <1>  -0.2400 
 26 H       -2.8010    -0.3760     2.1070 H     1 <1>   0.1500 
 27 H       -2.2420     1.9980    -1.3850 H     1 <1>   0.1500 
 28 H       -5.0140    -1.0530     1.3120 H     1 <1>   0.1500 
 29 H       -4.4480     1.3360    -2.2070 H     1 <1>   0.1500 
 30 H       -6.6480    -1.1340    -0.4200 H     1 <1>   0.0800 
 31 H       -6.2250    -0.5830    -2.0250 H     1 <1>   0.0800 
 32 H       -6.7560     1.6580    -1.3210 H     1 <1>   0.4500 
 33 H       -6.3580     1.5240     1.0050 H     1 <1>   0.0800 
 34 H       -7.7430     0.4750     1.1770 H     1 <1>   0.0800 
 35 H       -9.0220    -0.2090    -0.9990 H     1 <1>   0.0800 
 36 H       -8.3740     0.3550    -2.5220 H     1 <1>   0.0800 
 37 H       -7.7590     3.3470     0.2380 H     1 <1>   0.0800 
 38 H       -8.3590     2.7580     1.7560 H     1 <1>   0.0800 
 39 H      -10.3040     1.6840    -1.8900 H     1 <1>   0.0800 
 40 H       -8.8860     2.6670    -1.9080 H     1 <1>   0.0800 
 41 H      -10.4200     1.5690     1.9290 H     1 <1>   0.0800 
 42 H       -9.9230     0.2580     0.9310 H     1 <1>   0.0800 
 43 H      -11.9920     4.5020     0.0120 H     1 <1>   0.0800 
 44 H      -11.6560     3.6400     1.4940 H     1 <1>   0.0800 
 45 H      -12.4080     2.4160    -1.1710 H     1 <1>   0.0800 
 46 H      -13.4390     2.5050     0.2180 H     1 <1>   0.0800 
 47 H      -12.7500    -0.0520    -0.8650 H     1 <1>   0.4000 
 48 H      -12.7800     1.1020     2.3660 H     1 <1>   0.0800 
 49 H      -12.3070    -0.4950     1.8540 H     1 <1>   0.0800 
 50 H      -13.7220     0.2720     1.1620 H     1 <1>   0.0800 
@<TRIPOS>BOND
  1   1   2  1   
  2   2   3  1   
  3   2   4  1   
  4   2   5  1   
  5   5   6  1   
  6   6   7  ar  
  7   6   8  ar  
  8   7   9  ar  
  9   7  26  1   
 10   8  10  ar  
 11   8  27  1   
 12   9  11  ar  
 13   9  28  1   
 14  10  11  ar  
 15  10  29  1   
 16  11  12  1   
 17  12  13  1   
 18  12  30  1   
 19  12  31  1   
 20  13  14  1   
 21  13  15  1   
 22  13  32  1   
 23  14  16  1   
 24  14  33  1   
 25  14  34  1   
 26  15  17  1   
 27  15  35  1   
 28  15  36  1   
 29  16  18  1   
 30  16  37  1   
 31  16  38  1   
 32  17  18  1   
 33  17  39  1   
 34  17  40  1   
 35  18  19  1   
 36  18  20  1   
 37  19  21  1   
 38  20  22  1   
 39  20  41  1   
 40  20  42  1   
 41  21  23  1   
 42  21  43  1   
 43  21  44  1   
 44  22  23  1   
 45  22  24  1   
 46  22  25  1   
 47  23  45  1   
 48  23  46  1   
 49  24  47  1   
 50  25  48  1   
 51  25  49  1   
 52  25  50  1   
@<TRIPOS>SUBSTRUCTURE
  1 ****  14 GROUP 4 **** **** 0

# MOE 2024.06 (io_trps.svl 2023.06)
