@<TRIPOS>MOLECULE
NONAME
53 55 1 0 0 
SMALL
USER_CHARGES


@<TRIPOS>ATOM
  1 CL       1.3900    -0.1640     2.8040 Cl    1 <1>  -0.1770 
  2 C        2.5710    -0.1360     1.5120 C.ar  1 <1>   0.1770 
  3 C        2.8340    -1.2870     0.7770 C.ar  1 <1>   0.0830 
  4 C        3.2230     1.0530     1.2550 C.ar  1 <1>  -0.1500 
  5 O        2.1520    -2.4260     1.0870 O.3   1 <1>  -0.3630 
  6 C        3.7820    -1.2160    -0.2400 C.ar  1 <1>  -0.1500 
  7 C        4.1680     1.1300     0.2370 C.ar  1 <1>   0.1170 
  8 C        2.4140    -3.6400     0.4190 C.3   1 <1>   0.0400 
  9 C        4.4340    -0.0220    -0.5000 C.ar  1 <1>  -0.1500 
 10 N        4.8300     2.3440    -0.0450 N.am  1 <1>  -0.4770 
 11 C        6.1140     2.5300    -0.4670 C.2   1 <1>   0.5690 
 12 C        4.1380     3.6440     0.0850 C.3   1 <1>   0.1400 
 13 O        6.9460     1.6820    -0.6700 O.2   1 <1>  -0.5700 
 14 C        6.4170     3.9870    -0.6780 C.3   1 <1>  -0.0990 
 15 C        5.0220     4.6330    -0.6900 C.3   1 <1>  -0.0190 
 16 C        4.9830     6.0510    -0.1360 C.2   1 <1>   0.5690 
 17 O        4.1130     6.3440     0.6470 O.2   1 <1>  -0.5700 
 18 N        5.9410     6.9290    -0.5640 N.am  1 <1>  -0.4940 
 19 C        6.2420     8.2540    -0.1640 C.2   1 <1>  -0.0880 
 20 N        5.3820     9.2340     0.2380 N.pl3 1 <1>   0.3140 
 21 C        7.4820     8.8010    -0.1250 C.2   1 <1>  -0.1810 
 22 N        6.0410    10.3750     0.5320 N.2   1 <1>  -0.7070 
 23 C        3.9140     9.2180     0.2930 C.3   1 <1>   0.0160 
 24 C        7.2890    10.1070     0.3190 C.2   1 <1>   0.1080 
 25 C        8.8060     8.1420    -0.4750 C.3   1 <1>   0.0210 
 26 C        8.3730    11.1470     0.5450 C.3   1 <1>   0.0210 
 27 C        9.3810     7.4210     0.7450 C.3   1 <1>  -0.2400 
 28 C        8.6500    11.9470    -0.7320 C.3   1 <1>  -0.2400 
 29 H        2.9910     1.9100     1.8570 H     1 <1>   0.1500 
 30 H        4.0270    -2.0720    -0.8390 H     1 <1>   0.1500 
 31 H        1.7800    -4.3970     0.8450 H     1 <1>   0.0800 
 32 H        3.4460    -3.9050     0.5660 H     1 <1>   0.0800 
 33 H        2.1890    -3.5210    -0.6250 H     1 <1>   0.0800 
 34 H        5.1630     0.0140    -1.2890 H     1 <1>   0.1500 
 35 H        4.0850     3.9050     1.1280 H     1 <1>   0.0800 
 36 H        3.1450     3.5970    -0.3290 H     1 <1>   0.0800 
 37 H        6.9450     4.1360    -1.6010 H     1 <1>   0.0800 
 38 H        7.0080     4.3310     0.1520 H     1 <1>   0.0800 
 39 H        4.6620     4.6630    -1.7020 H     1 <1>   0.0800 
 40 H        6.6440     6.5330    -1.1850 H     1 <1>   0.3700 
 41 H        3.5320     8.6290    -0.5180 H     1 <1>   0.0800 
 42 H        3.5480    10.2240     0.2130 H     1 <1>   0.0800 
 43 H        3.6060     8.7970     1.2310 H     1 <1>   0.0800 
 44 H        9.5040     8.8840    -0.8230 H     1 <1>   0.0800 
 45 H        8.6600     7.4370    -1.2740 H     1 <1>   0.0800 
 46 H        9.2730    10.6660     0.8820 H     1 <1>   0.0800 
 47 H        8.0480    11.8160     1.3220 H     1 <1>   0.0800 
 48 H        9.5470     8.1230     1.5440 H     1 <1>   0.0800 
 49 H       10.3150     6.9520     0.4960 H     1 <1>   0.0800 
 50 H        8.6930     6.6700     1.0900 H     1 <1>   0.0800 
 51 H        8.9810    11.2930    -1.5180 H     1 <1>   0.0800 
 52 H        9.4070    12.6880    -0.5490 H     1 <1>   0.0800 
 53 H        7.7490    12.4400    -1.0510 H     1 <1>   0.0800 
@<TRIPOS>BOND
  1   1   2  1   
  2   2   3  ar  
  3   2   4  ar  
  4   3   5  1   
  5   3   6  ar  
  6   4   7  ar  
  7   4  29  1   
  8   5   8  1   
  9   6   9  ar  
 10   6  30  1   
 11   7   9  ar  
 12   7  10  1   
 13   8  31  1   
 14   8  32  1   
 15   8  33  1   
 16   9  34  1   
 17  10  11  am  
 18  10  12  1   
 19  11  13  2   
 20  11  14  1   
 21  12  15  1   
 22  12  35  1   
 23  12  36  1   
 24  14  15  1   
 25  14  37  1   
 26  14  38  1   
 27  15  16  1   
 28  15  39  1   
 29  16  17  2   
 30  16  18  am  
 31  18  19  1   
 32  18  40  1   
 33  19  20  1   
 34  19  21  2   
 35  20  22  1   
 36  20  23  1   
 37  21  24  1   
 38  21  25  1   
 39  22  24  2   
 40  23  41  1   
 41  23  42  1   
 42  23  43  1   
 43  24  26  1   
 44  25  27  1   
 45  25  44  1   
 46  25  45  1   
 47  26  28  1   
 48  26  46  1   
 49  26  47  1   
 50  27  48  1   
 51  27  49  1   
 52  27  50  1   
 53  28  51  1   
 54  28  52  1   
 55  28  53  1   
@<TRIPOS>SUBSTRUCTURE
  1 ****  15 GROUP 4 **** **** 0

# MOE 2024.06 (io_trps.svl 2023.06)
