@<TRIPOS>MOLECULE
NONAME
45 46 1 0 0 
SMALL
USER_CHARGES


@<TRIPOS>ATOM
  1 CL      -0.2020     0.7540    -0.5230 Cl    1 <1>  -0.1770 
  2 C        1.4300     1.3320    -0.2480 C.ar  1 <1>   0.1770 
  3 C        2.5240     0.4970     0.0210 C.ar  1 <1>   0.0830 
  4 C        1.5870     2.7030    -0.3080 C.ar  1 <1>  -0.1500 
  5 O        2.5410    -0.8580     0.1130 O.3   1 <1>  -0.3630 
  6 C        3.7580     1.0980     0.2200 C.ar  1 <1>  -0.1500 
  7 C        2.8240     3.3120    -0.1010 C.ar  1 <1>   0.0860 
  8 C        1.4340    -1.6960    -0.1190 C.3   1 <1>   0.1200 
  9 C        3.9080     2.4710     0.1590 C.ar  1 <1>  -0.1500 
 10 C        2.9600     4.7560    -0.1590 C.2   1 <1>   0.5440 
 11 C        1.8970    -3.1460     0.0230 C.3   1 <1>  -0.1600 
 12 O        2.1790     5.4280    -0.8020 O.2   1 <1>  -0.5700 
 13 N        3.9600     5.4020     0.5170 N.am  1 <1>  -0.7300 
 14 C        0.7420    -4.1250    -0.2150 C.3   1 <1>  -0.2400 
 15 C        4.0940     6.8800     0.6030 C.3   1 <1>   0.1400 
 16 C        4.5410     7.4620    -0.7400 C.3   1 <1>   0.0960 
 17 N        4.8110     8.9040    -0.5880 N.pl3 1 <1>   0.0480 
 18 C        5.9840     9.5380    -0.3280 C.2   1 <1>   0.0070 
 19 C        3.8930     9.8850    -0.6460 C.2   1 <1>  -0.3020 
 20 N        5.8580    10.8230    -0.2230 N.2   1 <1>  -0.5650 
 21 C        7.3060     8.7880    -0.1830 C.3   1 <1>   0.0200 
 22 C        4.5470    11.0430    -0.4230 C.2   1 <1>   0.0770 
 23 C        8.4740     9.6860     0.2470 C.3   1 <1>  -0.2400 
 24 H        0.7290     3.3170    -0.5190 H     1 <1>   0.1500 
 25 H        4.6090     0.4700     0.4220 H     1 <1>   0.1500 
 26 H        1.0700    -1.5130    -1.1140 H     1 <1>   0.0800 
 27 H        0.6770    -1.4700     0.6120 H     1 <1>   0.0800 
 28 H        4.8860     2.8910     0.3060 H     1 <1>   0.1500 
 29 H        2.2900    -3.2960     1.0140 H     1 <1>   0.0800 
 30 H        2.6790    -3.3390    -0.6910 H     1 <1>   0.0800 
 31 H        4.5140     4.8700     1.1900 H     1 <1>   0.3700 
 32 H       -0.0460    -3.9590     0.4990 H     1 <1>   0.0800 
 33 H        1.0910    -5.1370    -0.1100 H     1 <1>   0.0800 
 34 H        0.3430    -4.0020    -1.2070 H     1 <1>   0.0800 
 35 H        4.8140     7.1240     1.3650 H     1 <1>   0.0800 
 36 H        3.1420     7.3040     0.8770 H     1 <1>   0.0800 
 37 H        3.7670     7.3330    -1.4750 H     1 <1>   0.0800 
 38 H        5.4320     6.9700    -1.0820 H     1 <1>   0.0800 
 39 H        2.8500     9.7120    -0.8380 H     1 <1>   0.1500 
 40 H        7.5490     8.3330    -1.1260 H     1 <1>   0.0800 
 41 H        7.1870     8.0090     0.5470 H     1 <1>   0.0800 
 42 H        4.1390    12.0400    -0.3950 H     1 <1>   0.1500 
 43 H        8.6300    10.4600    -0.4840 H     1 <1>   0.0800 
 44 H        9.3760     9.1100     0.3420 H     1 <1>   0.0800 
 45 H        8.2530    10.1500     1.1920 H     1 <1>   0.0800 
@<TRIPOS>BOND
  1   1   2  1   
  2   2   3  ar  
  3   2   4  ar  
  4   3   5  1   
  5   3   6  ar  
  6   4   7  ar  
  7   4  24  1   
  8   5   8  1   
  9   6   9  ar  
 10   6  25  1   
 11   7   9  ar  
 12   7  10  1   
 13   8  11  1   
 14   8  26  1   
 15   8  27  1   
 16   9  28  1   
 17  10  12  2   
 18  10  13  am  
 19  11  14  1   
 20  11  29  1   
 21  11  30  1   
 22  13  15  1   
 23  13  31  1   
 24  14  32  1   
 25  14  33  1   
 26  14  34  1   
 27  15  16  1   
 28  15  35  1   
 29  15  36  1   
 30  16  17  1   
 31  16  37  1   
 32  16  38  1   
 33  17  18  1   
 34  17  19  1   
 35  18  20  2   
 36  18  21  1   
 37  19  22  2   
 38  19  39  1   
 39  20  22  1   
 40  21  23  1   
 41  21  40  1   
 42  21  41  1   
 43  22  42  1   
 44  23  43  1   
 45  23  44  1   
 46  23  45  1   
@<TRIPOS>SUBSTRUCTURE
  1 ****  10 GROUP 4 **** **** 0

# MOE 2024.06 (io_trps.svl 2023.06)
