@<TRIPOS>MOLECULE
NONAME
49 53 1 0 0 
SMALL
USER_CHARGES


@<TRIPOS>ATOM
  1 S        0.1140    -0.0630    -0.5320 S.3   1 <1>  -0.0800 
  2 C       -0.7690     1.3840    -0.9680 C.ar  1 <1>   0.0400 
  3 C       -1.4130    -0.9000    -0.2710 C.2   1 <1>   0.1980 
  4 C       -2.1200     1.1030    -0.8770 C.ar  1 <1>   0.2270 
  5 C       -0.2700     2.6170    -1.3450 C.ar  1 <1>  -0.1500 
  6 N       -2.4490    -0.1920    -0.4820 N.2   1 <1>  -0.5650 
  7 C       -1.3140    -2.3490     0.1700 C.3   1 <1>   0.0200 
  8 C       -3.0220     2.1130    -1.1800 C.ar  1 <1>  -0.1500 
  9 C       -1.1840     3.6130    -1.6440 C.ar  1 <1>  -0.1500 
 10 C       -2.6960    -2.9920     0.3730 C.3   1 <1>  -0.0990 
 11 C       -2.5520     3.3610    -1.5610 C.ar  1 <1>  -0.1500 
 12 C       -2.6350    -4.4480     0.8100 C.2   1 <1>   0.5690 
 13 O       -1.5460    -4.9480     0.9760 O.2   1 <1>  -0.5700 
 14 N       -3.7930    -5.1600     1.0030 N.am  1 <1>  -0.6600 
 15 C       -5.1750    -4.6260     0.8390 C.3   1 <1>   0.1400 
 16 C       -3.7610    -6.5940     1.4100 C.3   1 <1>   0.1400 
 17 C       -5.9010    -5.4400    -0.2330 C.3   1 <1>  -0.1600 
 18 C       -4.4780    -7.4350     0.3510 C.3   1 <1>  -0.1600 
 19 C       -5.9070    -6.9380     0.1060 C.3   1 <1>   0.4600 
 20 O       -6.6080    -7.1320     1.3200 O.3   1 <1>  -0.5600 
 21 C       -6.5890    -7.7560    -0.9850 C.2   1 <1>  -0.1400 
 22 C       -8.0140    -7.2030     1.2720 C.3   1 <1>   0.1200 
 23 S       -5.9270    -7.9240    -2.6040 S.3   1 <1>  -0.0800 
 24 C       -7.7390    -8.4320    -0.8720 C.2   1 <1>  -0.1810 
 25 C       -8.4910    -8.4100     0.4400 C.3   1 <1>   0.0210 
 26 C       -7.2700    -8.9540    -3.0810 C.2   1 <1>  -0.1100 
 27 C       -8.1330    -9.1240    -2.0600 C.2   1 <1>  -0.1500 
 28 H        0.7900     2.7870    -1.4010 H     1 <1>   0.1500 
 29 H       -0.7590    -2.3930     1.0900 H     1 <1>   0.0800 
 30 H       -0.7680    -2.9000    -0.5760 H     1 <1>   0.0800 
 31 H       -4.0740     1.9080    -1.1130 H     1 <1>   0.1500 
 32 H       -0.8390     4.5890    -1.9410 H     1 <1>   0.1500 
 33 H       -3.2400    -2.9360    -0.5520 H     1 <1>   0.0800 
 34 H       -3.2290    -2.4340     1.1190 H     1 <1>   0.0800 
 35 H       -3.2510     4.1460    -1.7960 H     1 <1>   0.1500 
 36 H       -5.1690    -3.5880     0.5590 H     1 <1>   0.0800 
 37 H       -5.6960    -4.7120     1.7780 H     1 <1>   0.0800 
 38 H       -4.2530    -6.7020     2.3620 H     1 <1>   0.0800 
 39 H       -2.7480    -6.9410     1.5190 H     1 <1>   0.0800 
 40 H       -5.3990    -5.2930    -1.1720 H     1 <1>   0.0800 
 41 H       -6.9060    -5.0840    -0.3520 H     1 <1>   0.0800 
 42 H       -4.5090    -8.4630     0.6590 H     1 <1>   0.0800 
 43 H       -3.9130    -7.3840    -0.5610 H     1 <1>   0.0800 
 44 H       -8.3880    -6.2870     0.8490 H     1 <1>   0.0800 
 45 H       -8.3730    -7.2860     2.2830 H     1 <1>   0.0800 
 46 H       -9.5470    -8.3250     0.2610 H     1 <1>   0.0800 
 47 H       -8.3080    -9.3220     0.9800 H     1 <1>   0.0800 
 48 H       -7.2710    -9.3280    -4.0890 H     1 <1>   0.1500 
 49 H       -9.0350    -9.7110    -2.0930 H     1 <1>   0.1500 
@<TRIPOS>BOND
  1   1   2  1   
  2   1   3  1   
  3   2   4  ar  
  4   2   5  ar  
  5   3   6  2   
  6   3   7  1   
  7   4   6  1   
  8   4   8  ar  
  9   5   9  ar  
 10   5  28  1   
 11   7  10  1   
 12   7  29  1   
 13   7  30  1   
 14   8  11  ar  
 15   8  31  1   
 16   9  11  ar  
 17   9  32  1   
 18  10  12  1   
 19  10  33  1   
 20  10  34  1   
 21  11  35  1   
 22  12  13  2   
 23  12  14  am  
 24  14  15  1   
 25  14  16  1   
 26  15  17  1   
 27  15  36  1   
 28  15  37  1   
 29  16  18  1   
 30  16  38  1   
 31  16  39  1   
 32  17  19  1   
 33  17  40  1   
 34  17  41  1   
 35  18  19  1   
 36  18  42  1   
 37  18  43  1   
 38  19  20  1   
 39  19  21  1   
 40  20  22  1   
 41  21  23  1   
 42  21  24  2   
 43  22  25  1   
 44  22  44  1   
 45  22  45  1   
 46  23  26  1   
 47  24  25  1   
 48  24  27  1   
 49  25  46  1   
 50  25  47  1   
 51  26  27  2   
 52  26  48  1   
 53  27  49  1   
@<TRIPOS>SUBSTRUCTURE
  1 ****  10 GROUP 4 **** **** 0

# MOE 2024.06 (io_trps.svl 2023.06)
