@<TRIPOS>MOLECULE
NONAME
21 22 1 0 0 
SMALL
USER_CHARGES


@<TRIPOS>ATOM
  1 N        1.2150    -8.0370     0.7430 N.3   1 <1>  -0.8100 
  2 C        0.5520    -6.7680     0.3510 C.3   1 <1>   0.1100 
  3 C        0.5900    -9.2770     0.2160 C.3   1 <1>   0.1100 
  4 C        2.6790    -8.0100     0.6400 C.3   1 <1>   0.0300 
  5 C       -0.9440    -6.9890    -0.0030 C.3   1 <1>   0.4720 
  6 C       -0.9130    -9.0640    -0.1140 C.3   1 <1>   0.4720 
  7 N       -1.0810    -7.9710    -1.1420 N.4   1 <1>  -0.8440 
  8 C       -1.6340    -8.0860     0.8530 C.3   1 <1>   0.0000 
  9 H        1.0560    -6.3250    -0.4920 H     1 <1>   0.0800 
 10 H        0.6230    -6.0770     1.1740 H     1 <1>   0.0800 
 11 H        0.6830   -10.0490     0.9620 H     1 <1>   0.0800 
 12 H        1.1050    -9.6120    -0.6680 H     1 <1>   0.0800 
 13 H        3.0690    -7.1590     1.1730 H     1 <1>   0.0800 
 14 H        2.9870    -7.9500    -0.3900 H     1 <1>   0.0800 
 15 H        3.0950    -8.9010     1.0790 H     1 <1>   0.0800 
 16 H       -1.5220    -6.0970    -0.1630 H     1 <1>   0.0000 
 17 H       -1.4640    -9.9510    -0.3690 H     1 <1>   0.0000 
 18 H       -0.3010    -7.9240    -1.8020 H     1 <1>   0.4500 
 19 H       -2.0130    -7.9620    -1.5660 H     1 <1>   0.4500 
 20 H       -2.7060    -8.0970     0.7540 H     1 <1>   0.0000 
 21 H       -1.3070    -8.1360     1.8770 H     1 <1>   0.0000 
@<TRIPOS>BOND
  1   1   2  1   
  2   1   3  1   
  3   1   4  1   
  4   2   5  1   
  5   2   9  1   
  6   2  10  1   
  7   3   6  1   
  8   3  11  1   
  9   3  12  1   
 10   4  13  1   
 11   4  14  1   
 12   4  15  1   
 13   5   7  1   
 14   5   8  1   
 15   5  16  1   
 16   6   7  1   
 17   6   8  1   
 18   6  17  1   
 19   7  18  1   
 20   7  19  1   
 21   8  20  1   
 22   8  21  1   
@<TRIPOS>SUBSTRUCTURE
  1 ****   1 GROUP 4 **** **** 0

# MOE 2024.06 (io_trps.svl 2023.06)
