@<TRIPOS>MOLECULE
NONAME
57 58 1 0 0 
SMALL
USER_CHARGES


@<TRIPOS>ATOM
  1 O       -0.4370     0.6040     1.3340 O.2   1 <1>  -0.5700 
  2 C       -1.1950     0.8590     0.4280 C.2   1 <1>   0.5690 
  3 N       -1.9910    -0.0860    -0.1430 N.am  1 <1>  -0.7300 
  4 C       -1.2140     2.3130    -0.0780 C.3   1 <1>   0.4040 
  5 C       -2.0390    -1.5050     0.2670 C.3   1 <1>   0.2200 
  6 N        0.0800     3.0480     0.1980 N.4   1 <1>  -0.9590 
  7 C       -1.6600    -2.3570    -0.9530 C.3   1 <1>  -0.1600 
  8 C       -3.4470    -1.7650     0.8190 C.3   1 <1>  -0.1600 
  9 C       -0.0950     4.5250     0.1010 C.3   1 <1>   0.3430 
 10 C        1.1840     2.5310    -0.6720 C.3   1 <1>   0.2630 
 11 C       -1.0600    -3.7310    -0.5930 C.3   1 <1>  -0.1600 
 12 C       -3.6680    -3.1640     1.4140 C.3   1 <1>  -0.1600 
 13 C        1.0860     5.2600     0.7320 C.3   1 <1>  -0.1600 
 14 C       -1.9610    -4.9220    -0.9500 C.3   1 <1>  -0.1600 
 15 C       -4.0740    -4.2350     0.3840 C.3   1 <1>  -0.1600 
 16 C        0.8740     6.7710     0.6240 C.3   1 <1>   0.2000 
 17 C       -2.9950    -5.2950     0.1210 C.3   1 <1>  -0.1600 
 18 O        0.5310     7.0390    -0.7010 O.3   1 <1>  -0.5600 
 19 C        2.1390     7.5590     0.9990 C.3   1 <1>  -0.1600 
 20 C        0.2170     8.3750    -0.9720 C.3   1 <1>   0.1200 
 21 C        1.9490     9.0560     0.7330 C.3   1 <1>  -0.1600 
 22 C        1.4380     9.2600    -0.6970 C.3   1 <1>  -0.1600 
 23 H       -2.6470     0.1320    -0.8960 H     1 <1>   0.3700 
 24 H       -2.0230     2.8150     0.4230 H     1 <1>   0.0800 
 25 H       -1.4180     2.3160    -1.1340 H     1 <1>   0.0800 
 26 H       -1.3180    -1.6680     1.0530 H     1 <1>   0.0800 
 27 H        0.3200     2.7910     1.1730 H     1 <1>   0.4500 
 28 H       -0.9000    -1.8290    -1.5020 H     1 <1>   0.0800 
 29 H       -2.5070    -2.4660    -1.6070 H     1 <1>   0.0800 
 30 H       -4.1870    -1.5720     0.0620 H     1 <1>   0.0800 
 31 H       -3.6090    -1.0590     1.6150 H     1 <1>   0.0800 
 32 H       -0.9970     4.8210     0.6110 H     1 <1>   0.0800 
 33 H       -0.1870     4.8170    -0.9340 H     1 <1>   0.0800 
 34 H        0.9830     2.7520    -1.7070 H     1 <1>   0.0800 
 35 H        1.2810     1.4630    -0.5550 H     1 <1>   0.0800 
 36 H        2.1220     2.9850    -0.3980 H     1 <1>   0.0800 
 37 H       -0.7740    -3.7800     0.4440 H     1 <1>   0.0800 
 38 H       -0.1530    -3.8430    -1.1630 H     1 <1>   0.0800 
 39 H       -4.4780    -3.0820     2.1190 H     1 <1>   0.0800 
 40 H       -2.8050    -3.4700     1.9810 H     1 <1>   0.0800 
 41 H        1.9980     5.0120     0.2220 H     1 <1>   0.0800 
 42 H        1.1830     4.9950     1.7690 H     1 <1>   0.0800 
 43 H       -1.3260    -5.7810    -1.0860 H     1 <1>   0.0800 
 44 H       -2.4520    -4.7510    -1.8920 H     1 <1>   0.0800 
 45 H       -4.3970    -3.7930    -0.5430 H     1 <1>   0.0800 
 46 H       -4.9290    -4.7520     0.7860 H     1 <1>   0.0800 
 47 H        0.0500     7.0760     1.2480 H     1 <1>   0.0800 
 48 H       -2.4970    -5.5550     1.0400 H     1 <1>   0.0800 
 49 H       -3.4930    -6.1870    -0.2200 H     1 <1>   0.0800 
 50 H        2.9710     7.1990     0.4180 H     1 <1>   0.0800 
 51 H        2.3710     7.4050     2.0380 H     1 <1>   0.0800 
 52 H       -0.6180     8.6660    -0.3570 H     1 <1>   0.0800 
 53 H       -0.0700     8.4440    -2.0070 H     1 <1>   0.0800 
 54 H        2.8790     9.5800     0.8720 H     1 <1>   0.0800 
 55 H        1.2320     9.4570     1.4290 H     1 <1>   0.0800 
 56 H        1.1760    10.2920    -0.8480 H     1 <1>   0.0800 
 57 H        2.2120     9.0120    -1.4020 H     1 <1>   0.0800 
@<TRIPOS>BOND
  1   1   2  2   
  2   2   3  am  
  3   2   4  1   
  4   3   5  1   
  5   3  23  1   
  6   4   6  1   
  7   4  24  1   
  8   4  25  1   
  9   5   7  1   
 10   5   8  1   
 11   5  26  1   
 12   6   9  1   
 13   6  10  1   
 14   6  27  1   
 15   7  11  1   
 16   7  28  1   
 17   7  29  1   
 18   8  12  1   
 19   8  30  1   
 20   8  31  1   
 21   9  13  1   
 22   9  32  1   
 23   9  33  1   
 24  10  34  1   
 25  10  35  1   
 26  10  36  1   
 27  11  14  1   
 28  11  37  1   
 29  11  38  1   
 30  12  15  1   
 31  12  39  1   
 32  12  40  1   
 33  13  16  1   
 34  13  41  1   
 35  13  42  1   
 36  14  17  1   
 37  14  43  1   
 38  14  44  1   
 39  15  17  1   
 40  15  45  1   
 41  15  46  1   
 42  16  18  1   
 43  16  19  1   
 44  16  47  1   
 45  17  48  1   
 46  17  49  1   
 47  18  20  1   
 48  19  21  1   
 49  19  50  1   
 50  19  51  1   
 51  20  22  1   
 52  20  52  1   
 53  20  53  1   
 54  21  22  1   
 55  21  54  1   
 56  21  55  1   
 57  22  56  1   
 58  22  57  1   
@<TRIPOS>SUBSTRUCTURE
  1 ****   4 GROUP 4 **** **** 0

# MOE 2024.06 (io_trps.svl 2023.06)
