@<TRIPOS>MOLECULE
NONAME
39 40 1 0 0 
SMALL
USER_CHARGES


@<TRIPOS>ATOM
  1 S       -1.5640    -0.1460    -0.6720 S.3   1 <1>  -0.0800 
  2 C       -1.4990    -1.2250     0.6820 C.2   1 <1>   0.4420 
  3 C       -0.9620     1.0950     0.3780 C.2   1 <1>   0.1980 
  4 N       -1.0610    -0.6470     1.7420 N.2   1 <1>  -0.3380 
  5 N       -1.9100    -2.5170     0.4460 N.am  1 <1>  -0.4940 
  6 N       -0.7580     0.6750     1.5630 N.2   1 <1>  -0.3380 
  7 C       -0.7350     2.4940    -0.1830 C.3   1 <1>   0.3800 
  8 C       -2.0550    -3.5920     1.2850 C.2   1 <1>   0.5440 
  9 O       -1.8540     2.8880    -0.9270 O.3   1 <1>  -0.5600 
 10 C        0.4920     2.5430    -1.0970 C.3   1 <1>  -0.2400 
 11 O       -1.8180    -3.4610     2.4680 O.2   1 <1>  -0.5700 
 12 C       -2.4730    -4.8830     0.7610 C.ar  1 <1>   0.0860 
 13 C       -2.1180     4.2560    -0.9360 C.3   1 <1>   0.0400 
 14 C       -3.2080    -5.0460    -0.4250 C.ar  1 <1>   0.0830 
 15 C       -2.1340    -6.0430     1.4640 C.ar  1 <1>  -0.1500 
 16 O       -3.5860    -3.9510    -1.1320 O.3   1 <1>  -0.3630 
 17 C       -3.5450    -6.3200    -0.9000 C.ar  1 <1>   0.0830 
 18 C       -2.4800    -7.3000     1.0140 C.ar  1 <1>  -0.1500 
 19 C       -4.9540    -3.5990    -1.0950 C.3   1 <1>   0.0400 
 20 O       -4.2180    -6.4130    -2.0830 O.3   1 <1>  -0.3630 
 21 C       -3.1820    -7.4440    -0.1680 C.ar  1 <1>  -0.1500 
 22 C       -4.4640    -7.6550    -2.7050 C.3   1 <1>   0.0400 
 23 H       -2.2350    -2.7040    -0.5050 H     1 <1>   0.3700 
 24 H       -0.6100     3.1690     0.6470 H     1 <1>   0.0800 
 25 H        0.3400     1.9150    -1.9560 H     1 <1>   0.0800 
 26 H        1.3530     2.1880    -0.5600 H     1 <1>   0.0800 
 27 H        0.6850     3.5490    -1.4190 H     1 <1>   0.0800 
 28 H       -2.9920     4.4230    -1.5410 H     1 <1>   0.0800 
 29 H       -1.2810     4.7840    -1.3590 H     1 <1>   0.0800 
 30 H       -2.3090     4.5890     0.0700 H     1 <1>   0.0800 
 31 H       -1.5830    -5.9510     2.3860 H     1 <1>   0.1500 
 32 H       -2.2020    -8.1710     1.5830 H     1 <1>   0.1500 
 33 H       -5.0800    -2.6750    -1.6300 H     1 <1>   0.0800 
 34 H       -5.2550    -3.4750    -0.0690 H     1 <1>   0.0800 
 35 H       -5.5350    -4.3730    -1.5630 H     1 <1>   0.0800 
 36 H       -3.4320    -8.4350    -0.4940 H     1 <1>   0.1500 
 37 H       -4.9490    -7.4670    -3.6460 H     1 <1>   0.0800 
 38 H       -5.1090    -8.2420    -2.0750 H     1 <1>   0.0800 
 39 H       -3.5260    -8.1550    -2.8720 H     1 <1>   0.0800 
@<TRIPOS>BOND
  1   1   2  1   
  2   1   3  1   
  3   2   4  2   
  4   2   5  1   
  5   3   6  2   
  6   3   7  1   
  7   4   6  1   
  8   5   8  am  
  9   5  23  1   
 10   7   9  1   
 11   7  10  1   
 12   7  24  1   
 13   8  11  2   
 14   8  12  1   
 15   9  13  1   
 16  10  25  1   
 17  10  26  1   
 18  10  27  1   
 19  12  14  ar  
 20  12  15  ar  
 21  13  28  1   
 22  13  29  1   
 23  13  30  1   
 24  14  16  1   
 25  14  17  ar  
 26  15  18  ar  
 27  15  31  1   
 28  16  19  1   
 29  17  20  1   
 30  17  21  ar  
 31  18  21  ar  
 32  18  32  1   
 33  19  33  1   
 34  19  34  1   
 35  19  35  1   
 36  20  22  1   
 37  21  36  1   
 38  22  37  1   
 39  22  38  1   
 40  22  39  1   
@<TRIPOS>SUBSTRUCTURE
  1 ****   5 GROUP 4 **** **** 0

# MOE 2024.06 (io_trps.svl 2023.06)
