@<TRIPOS>MOLECULE
NONAME
43 45 1 0 0 
SMALL
USER_CHARGES


@<TRIPOS>ATOM
  1 S        1.7120     0.1750    -1.3310 S.3   1 <1>  -0.0800 
  2 C        0.8080    -0.8670    -0.2610 C.2   1 <1>   0.1980 
  3 C        1.2990     1.5280    -0.3170 C.2   1 <1>  -0.1400 
  4 N        0.2670    -0.2720     0.7280 N.2   1 <1>  -0.5650 
  5 C        0.7560    -2.3480    -0.6050 C.3   1 <1>   0.5230 
  6 C        0.5420     1.0870     0.7030 C.2   1 <1>   0.0460 
  7 C        1.8360     2.8830    -0.7400 C.3   1 <1>  -0.0600 
  8 N       -0.2540    -3.0280     0.2690 N.4   1 <1>  -0.9590 
  9 C       -0.0450     1.9090     1.8320 C.3   1 <1>  -0.0590 
 10 C       -1.6650    -2.6820    -0.0890 C.3   1 <1>   0.3430 
 11 C       -0.1430    -4.5160     0.3200 C.3   1 <1>   0.3430 
 12 C       -2.4930    -3.8940     0.3410 C.3   1 <1>   0.2000 
 13 C       -1.5530    -5.0720     0.0760 C.3   1 <1>  -0.0800 
 14 O       -2.7870    -3.8070     1.6970 O.3   1 <1>  -0.6800 
 15 C       -1.8600    -6.3650     0.8600 C.3   1 <1>   0.0200 
 16 C       -0.8980    -7.4700     0.4670 C.2   1 <1>  -0.0400 
 17 O        0.3770    -7.3440     0.7230 O.3   1 <1>  -0.0190 
 18 C       -1.0790    -8.6500    -0.1440 C.2   1 <1>  -0.1500 
 19 N        1.0610    -8.3620     0.3000 N.2   1 <1>  -0.4100 
 20 C        0.2090    -9.1730    -0.2200 C.2   1 <1>   0.1080 
 21 C        0.5690   -10.5100    -0.8290 C.3   1 <1>  -0.0590 
 22 H        1.7330    -2.7700    -0.4380 H     1 <1>   0.0800 
 23 H        0.4990    -2.4720    -1.6430 H     1 <1>   0.0800 
 24 H        1.5290     3.6500    -0.0530 H     1 <1>   0.0800 
 25 H        1.4710     3.1330    -1.7200 H     1 <1>   0.0800 
 26 H        2.9110     2.8590    -0.7670 H     1 <1>   0.0800 
 27 H       -0.0880    -2.6190     1.2040 H     1 <1>   0.4500 
 28 H        0.2180     2.9450     1.7330 H     1 <1>   0.0800 
 29 H        0.3260     1.5480     2.7740 H     1 <1>   0.0800 
 30 H       -1.1160     1.8230     1.8250 H     1 <1>   0.0800 
 31 H       -1.9980    -1.7790     0.3990 H     1 <1>   0.0800 
 32 H       -1.7510    -2.5600    -1.1560 H     1 <1>   0.0800 
 33 H        0.5370    -4.8910    -0.4280 H     1 <1>   0.0800 
 34 H        0.2120    -4.8230     1.2910 H     1 <1>   0.0800 
 35 H       -3.4230    -3.9680    -0.1980 H     1 <1>   0.0800 
 36 H       -1.6170    -5.3070    -0.9720 H     1 <1>   0.0800 
 37 H       -1.9950    -3.7230     2.2610 H     1 <1>   0.4000 
 38 H       -2.8670    -6.6830     0.6490 H     1 <1>   0.0800 
 39 H       -1.7830    -6.2030     1.9210 H     1 <1>   0.0800 
 40 H       -1.9780    -9.1170    -0.5040 H     1 <1>   0.1500 
 41 H        0.0480   -11.2970    -0.3160 H     1 <1>   0.0800 
 42 H        1.6270   -10.6820    -0.7440 H     1 <1>   0.0800 
 43 H        0.2970   -10.5250    -1.8690 H     1 <1>   0.0800 
@<TRIPOS>BOND
  1   1   2  1   
  2   1   3  1   
  3   2   4  2   
  4   2   5  1   
  5   3   6  2   
  6   3   7  1   
  7   4   6  1   
  8   5   8  1   
  9   5  22  1   
 10   5  23  1   
 11   6   9  1   
 12   7  24  1   
 13   7  25  1   
 14   7  26  1   
 15   8  10  1   
 16   8  11  1   
 17   8  27  1   
 18   9  28  1   
 19   9  29  1   
 20   9  30  1   
 21  10  12  1   
 22  10  31  1   
 23  10  32  1   
 24  11  13  1   
 25  11  33  1   
 26  11  34  1   
 27  12  13  1   
 28  12  14  1   
 29  12  35  1   
 30  13  15  1   
 31  13  36  1   
 32  14  37  1   
 33  15  16  1   
 34  15  38  1   
 35  15  39  1   
 36  16  17  1   
 37  16  18  2   
 38  17  19  1   
 39  18  20  1   
 40  18  40  1   
 41  19  20  2   
 42  20  21  1   
 43  21  41  1   
 44  21  42  1   
 45  21  43  1   
@<TRIPOS>SUBSTRUCTURE
  1 ****   8 GROUP 4 **** **** 0

# MOE 2024.06 (io_trps.svl 2023.06)
