@<TRIPOS>MOLECULE
NONAME
43 44 1 0 0 
SMALL
USER_CHARGES


@<TRIPOS>ATOM
  1 F        0.7550     2.0590    -1.6580 F     1 <1>  -0.1900 
  2 C        1.8680     2.3270    -1.0290 C.ar  1 <1>   0.1900 
  3 C        3.0680     1.9820    -1.6210 C.ar  1 <1>  -0.1500 
  4 C        1.8050     2.9450     0.2040 C.ar  1 <1>  -0.1500 
  5 C        4.2450     2.2700    -0.9500 C.ar  1 <1>  -0.1500 
  6 C        2.9890     3.2270     0.8650 C.ar  1 <1>  -0.1500 
  7 C        4.2100     2.8940     0.2920 C.ar  1 <1>  -0.1430 
  8 C        5.5020     3.2130     1.0280 C.3   1 <1>  -0.0160 
  9 C        5.8180     4.7110     0.9260 C.3   1 <1>  -0.1600 
 10 C        7.1620     5.0480     1.5700 C.3   1 <1>   0.2090 
 11 N        7.3530     6.5170     1.5510 N.pl3 1 <1>  -0.8690 
 12 C        7.8740     7.3570     0.6530 C.ar  1 <1>   0.7710 
 13 N        7.9320     8.6230     1.0050 N.ar  1 <1>  -0.6200 
 14 N        8.2990     6.9060    -0.5390 N.ar  1 <1>  -0.1790 
 15 C        8.4330     9.4900     0.1420 C.ar  1 <1>   0.4100 
 16 C        8.8300     7.7550    -1.4510 C.ar  1 <1>   0.2110 
 17 N        8.4770    10.8000     0.5120 N.pl3 1 <1>  -0.8380 
 18 C        8.9060     9.0650    -1.1180 C.ar  1 <1>  -0.1500 
 19 C        8.5830    11.9430    -0.4360 C.3   1 <1>   0.2090 
 20 C        8.2580    11.2280     1.9310 C.3   1 <1>   0.1290 
 21 C       10.0370    12.3990    -0.5170 C.3   1 <1>  -0.2400 
 22 H        3.0730     1.4980    -2.5810 H     1 <1>   0.1500 
 23 H        0.8510     3.1960     0.6320 H     1 <1>   0.1500 
 24 H        5.1830     2.0000    -1.4020 H     1 <1>   0.1500 
 25 H        2.9510     3.7060     1.8290 H     1 <1>   0.1500 
 26 H        6.3070     2.6330     0.6090 H     1 <1>   0.0800 
 27 H        5.3980     2.9270     2.0610 H     1 <1>   0.0800 
 28 H        5.0370     5.2620     1.4230 H     1 <1>   0.0800 
 29 H        5.8220     4.9960    -0.1110 H     1 <1>   0.0800 
 30 H        7.9660     4.5540     1.0510 H     1 <1>   0.0800 
 31 H        7.1710     4.7090     2.5940 H     1 <1>   0.0800 
 32 H        7.0260     6.9910     2.4030 H     1 <1>   0.4000 
 33 H        8.1870     5.9120    -0.7030 H     1 <1>   0.4570 
 34 H        9.1720     7.3690    -2.3980 H     1 <1>   0.1500 
 35 H        9.3280     9.7830    -1.7940 H     1 <1>   0.1500 
 36 H        7.9640    12.7550    -0.0940 H     1 <1>   0.0800 
 37 H        8.2260    11.6570    -1.4100 H     1 <1>   0.0800 
 38 H        8.5620    10.4550     2.6150 H     1 <1>   0.0800 
 39 H        7.2150    11.4420     2.0880 H     1 <1>   0.0800 
 40 H        8.8340    12.1100     2.1510 H     1 <1>   0.0800 
 41 H       10.3750    12.7450     0.4430 H     1 <1>   0.0800 
 42 H       10.1230    13.2100    -1.2170 H     1 <1>   0.0800 
 43 H       10.6700    11.5960    -0.8440 H     1 <1>   0.0800 
@<TRIPOS>BOND
  1   1   2  1   
  2   2   3  ar  
  3   2   4  ar  
  4   3   5  ar  
  5   3  22  1   
  6   4   6  ar  
  7   4  23  1   
  8   5   7  ar  
  9   5  24  1   
 10   6   7  ar  
 11   6  25  1   
 12   7   8  1   
 13   8   9  1   
 14   8  26  1   
 15   8  27  1   
 16   9  10  1   
 17   9  28  1   
 18   9  29  1   
 19  10  11  1   
 20  10  30  1   
 21  10  31  1   
 22  11  12  1   
 23  11  32  1   
 24  12  13  ar  
 25  12  14  ar  
 26  13  15  ar  
 27  14  16  ar  
 28  14  33  1   
 29  15  17  1   
 30  15  18  ar  
 31  16  18  ar  
 32  16  34  1   
 33  17  19  1   
 34  17  20  1   
 35  18  35  1   
 36  19  21  1   
 37  19  36  1   
 38  19  37  1   
 39  20  38  1   
 40  20  39  1   
 41  20  40  1   
 42  21  41  1   
 43  21  42  1   
 44  21  43  1   
@<TRIPOS>SUBSTRUCTURE
  1 ****   9 GROUP 4 **** **** 0

# MOE 2024.06 (io_trps.svl 2023.06)
