@<TRIPOS>MOLECULE
NONAME
47 49 1 0 0 
SMALL
USER_CHARGES


@<TRIPOS>ATOM
  1 CL      -5.2900    -0.8180    -2.8600 Cl    1 <1>  -0.1770 
  2 C       -4.0630     0.2610    -2.2330 C.ar  1 <1>   0.1770 
  3 C       -3.2910    -0.1160    -1.1360 C.ar  1 <1>   0.0830 
  4 C       -3.8980     1.4890    -2.8430 C.ar  1 <1>  -0.1500 
  5 O       -3.4980    -1.3350    -0.5780 O.3   1 <1>  -0.3630 
  6 C       -2.3290     0.7660    -0.6490 C.ar  1 <1>  -0.1500 
  7 C       -2.9410     2.3490    -2.3400 C.ar  1 <1>   0.1770 
  8 C       -3.3780    -1.4980     0.8290 C.3   1 <1>   0.1810 
  9 C       -2.1570     2.0020    -1.2530 C.ar  1 <1>  -0.1500 
 10 CL      -2.7140     3.9080    -3.0920 Cl    1 <1>  -0.1770 
 11 C       -3.9190    -2.8490     1.2940 C.2   1 <1>   0.5690 
 12 O       -3.1160    -3.5980     1.8040 O.2   1 <1>  -0.5700 
 13 N       -5.2500    -3.1960     1.1830 N.am  1 <1>  -0.6600 
 14 C       -6.2680    -2.3360     0.5030 C.3   1 <1>   0.2200 
 15 C       -5.6930    -4.5360     1.6830 C.3   1 <1>   0.0600 
 16 C       -7.0720    -3.0550    -0.5760 C.3   1 <1>  -0.1600 
 17 C       -7.3220    -1.7870     1.4590 C.3   1 <1>  -0.1600 
 18 C       -8.2990    -2.1590    -0.7840 C.3   1 <1>  -0.0800 
 19 C       -8.4960    -1.3970     0.5490 C.3   1 <1>  -0.0800 
 20 C       -9.5290    -2.9400    -1.2850 C.3   1 <1>   0.1400 
 21 C       -9.8700    -1.6400     1.1970 C.3   1 <1>  -0.0990 
 22 N      -10.7700    -2.1620    -1.0400 N.am  1 <1>  -0.6600 
 23 C      -10.9670    -1.5320     0.1580 C.2   1 <1>   0.5690 
 24 C      -11.7820    -2.1510    -2.1290 C.3   1 <1>   0.0600 
 25 O      -11.9640    -0.9050     0.4240 O.2   1 <1>  -0.5700 
 26 H       -4.4990     1.7700    -3.6880 H     1 <1>   0.1500 
 27 H       -1.7040     0.5020     0.1840 H     1 <1>   0.1500 
 28 H       -2.3370    -1.4340     1.0870 H     1 <1>   0.0800 
 29 H       -3.9200    -0.7080     1.3150 H     1 <1>   0.0800 
 30 H       -1.4180     2.6950    -0.8900 H     1 <1>   0.1500 
 31 H       -5.8000    -1.4920     0.0330 H     1 <1>   0.0800 
 32 H       -6.7150    -4.5100     2.0130 H     1 <1>   0.0800 
 33 H       -5.0810    -4.8480     2.5130 H     1 <1>   0.0800 
 34 H       -5.5940    -5.2620     0.8950 H     1 <1>   0.0800 
 35 H       -6.5000    -3.1640    -1.4810 H     1 <1>   0.0800 
 36 H       -7.3900    -4.0220    -0.2340 H     1 <1>   0.0800 
 37 H       -7.6300    -2.5460     2.1540 H     1 <1>   0.0800 
 38 H       -6.9500    -0.9380     2.0040 H     1 <1>   0.0800 
 39 H       -8.0500    -1.4310    -1.5380 H     1 <1>   0.0800 
 40 H       -8.4210    -0.3450     0.3270 H     1 <1>   0.0800 
 41 H       -9.6140    -3.8770    -0.7630 H     1 <1>   0.0800 
 42 H       -9.4210    -3.1480    -2.3360 H     1 <1>   0.0800 
 43 H      -10.0420    -0.9220     1.9780 H     1 <1>   0.0800 
 44 H       -9.9200    -2.6240     1.6240 H     1 <1>   0.0800 
 45 H      -11.3620    -1.7020    -3.0120 H     1 <1>   0.0800 
 46 H      -12.6480    -1.5830    -1.8340 H     1 <1>   0.0800 
 47 H      -12.0900    -3.1580    -2.3510 H     1 <1>   0.0800 
@<TRIPOS>BOND
  1   1   2  1   
  2   2   3  ar  
  3   2   4  ar  
  4   3   5  1   
  5   3   6  ar  
  6   4   7  ar  
  7   4  26  1   
  8   5   8  1   
  9   6   9  ar  
 10   6  27  1   
 11   7   9  ar  
 12   7  10  1   
 13   8  11  1   
 14   8  28  1   
 15   8  29  1   
 16   9  30  1   
 17  11  12  2   
 18  11  13  am  
 19  13  14  1   
 20  13  15  1   
 21  14  16  1   
 22  14  17  1   
 23  14  31  1   
 24  15  32  1   
 25  15  33  1   
 26  15  34  1   
 27  16  18  1   
 28  16  35  1   
 29  16  36  1   
 30  17  19  1   
 31  17  37  1   
 32  17  38  1   
 33  18  19  1   
 34  18  20  1   
 35  18  39  1   
 36  19  21  1   
 37  19  40  1   
 38  20  22  1   
 39  20  41  1   
 40  20  42  1   
 41  21  23  1   
 42  21  43  1   
 43  21  44  1   
 44  22  23  am  
 45  22  24  1   
 46  23  25  2   
 47  24  45  1   
 48  24  46  1   
 49  24  47  1   
@<TRIPOS>SUBSTRUCTURE
  1 ****  14 GROUP 4 **** **** 0

# MOE 2024.06 (io_trps.svl 2023.06)
