@<TRIPOS>MOLECULE
NONAME
53 55 1 0 0 
SMALL
USER_CHARGES


@<TRIPOS>ATOM
  1 O        0.6410    -0.1290    -0.3340 O.2   1 <1>  -0.5700 
  2 C        1.7500    -0.6100    -0.2500 C.2   1 <1>   0.5690 
  3 N        2.8190     0.1760     0.1260 N.am  1 <1>  -0.6600 
  4 C        1.8690    -2.1160    -0.5860 C.3   1 <1>   0.2610 
  5 C        2.6090     1.6370     0.3950 C.3   1 <1>   0.1400 
  6 C        4.2180    -0.3230     0.3400 C.3   1 <1>   0.1400 
  7 O        2.4250    -2.8780     0.4630 O.3   1 <1>  -0.5600 
  8 C        2.6780    -2.3840    -1.8700 C.3   1 <1>  -0.1600 
  9 C        3.9000     2.4610     0.2670 C.3   1 <1>   0.2090 
 10 C        4.9580     0.4690     1.4310 C.3   1 <1>   0.2090 
 11 C        1.6110    -2.9860     1.5900 C.3   1 <1>   0.0400 
 12 C        2.6750    -3.8620    -2.2870 C.3   1 <1>  -0.2400 
 13 N        5.0080     1.9340     1.1300 N.pl3 1 <1>  -0.7880 
 14 C        6.0550     2.7380     1.4840 C.2   1 <1>   0.4860 
 15 N        6.2240     3.8550     0.7900 N.2   1 <1>  -0.6210 
 16 C        6.9200     2.3920     2.5420 C.2   1 <1>  -0.1360 
 17 C        7.2490     4.6570     1.0860 C.2   1 <1>   0.2710 
 18 C        7.9600     3.2040     2.8470 C.2   1 <1>  -0.0380 
 19 N        8.0940     4.3170     2.1000 N.pl3 1 <1>  -0.6000 
 20 C        7.4580     5.8610     0.3430 C.2   1 <1>   0.0140 
 21 C        8.9620     2.9580     3.9530 C.3   1 <1>  -0.1020 
 22 C        8.5200     6.7760     0.6100 C.2   1 <1>   0.5410 
 23 C        6.5950     6.2060    -0.7200 C.2   1 <1>  -0.1500 
 24 O        9.3680     6.6080     1.5170 O.2   1 <1>  -0.5700 
 25 C        8.6520     7.9440    -0.1710 C.2   1 <1>  -0.1360 
 26 C        6.7450     7.3480    -1.4670 C.2   1 <1>  -0.1500 
 27 C        7.7880     8.2320    -1.1900 C.2   1 <1>  -0.1500 
 28 H        0.8730    -2.4870    -0.7520 H     1 <1>   0.0800 
 29 H        2.2180     1.7550     1.3900 H     1 <1>   0.0800 
 30 H        1.8790     2.0280    -0.2920 H     1 <1>   0.0800 
 31 H        4.7670    -0.2330    -0.5800 H     1 <1>   0.0800 
 32 H        4.2150    -1.3570     0.6240 H     1 <1>   0.0800 
 33 H        3.6910    -2.0530    -1.7380 H     1 <1>   0.0800 
 34 H        2.2490    -1.8000    -2.6660 H     1 <1>   0.0800 
 35 H        3.6880     3.4810     0.5410 H     1 <1>   0.0800 
 36 H        4.2230     2.4580    -0.7590 H     1 <1>   0.0800 
 37 H        5.9590     0.0830     1.5100 H     1 <1>   0.0800 
 38 H        4.4610     0.3180     2.3730 H     1 <1>   0.0800 
 39 H        2.1170    -3.6050     2.3100 H     1 <1>   0.0800 
 40 H        0.6770    -3.4440     1.3130 H     1 <1>   0.0800 
 41 H        1.4420    -2.0080     2.0090 H     1 <1>   0.0800 
 42 H        3.1360    -4.4680    -1.5260 H     1 <1>   0.0800 
 43 H        3.2240    -3.9900    -3.2030 H     1 <1>   0.0800 
 44 H        1.6680    -4.2080    -2.4390 H     1 <1>   0.0800 
 45 H        6.7400     1.4980     3.1000 H     1 <1>   0.1500 
 46 H        8.8640     4.9830     2.2780 H     1 <1>   0.4000 
 47 H        8.9330     3.7690     4.6580 H     1 <1>   0.0800 
 48 H        9.9520     2.8910     3.5390 H     1 <1>   0.0800 
 49 H        8.7400     2.0420     4.4700 H     1 <1>   0.0800 
 50 H        5.7810     5.5440    -0.9600 H     1 <1>   0.1500 
 51 H        9.4670     8.6000     0.0710 H     1 <1>   0.1500 
 52 H        6.0630     7.5720    -2.2700 H     1 <1>   0.1500 
 53 H        7.8980     9.1260    -1.7810 H     1 <1>   0.1500 
@<TRIPOS>BOND
  1   1   2  2   
  2   2   3  am  
  3   2   4  1   
  4   3   5  1   
  5   3   6  1   
  6   4   7  1   
  7   4   8  1   
  8   4  28  1   
  9   5   9  1   
 10   5  29  1   
 11   5  30  1   
 12   6  10  1   
 13   6  31  1   
 14   6  32  1   
 15   7  11  1   
 16   8  12  1   
 17   8  33  1   
 18   8  34  1   
 19   9  13  1   
 20   9  35  1   
 21   9  36  1   
 22  10  13  1   
 23  10  37  1   
 24  10  38  1   
 25  11  39  1   
 26  11  40  1   
 27  11  41  1   
 28  12  42  1   
 29  12  43  1   
 30  12  44  1   
 31  13  14  1   
 32  14  15  2   
 33  14  16  1   
 34  15  17  1   
 35  16  18  2   
 36  16  45  1   
 37  17  19  1   
 38  17  20  2   
 39  18  19  1   
 40  18  21  1   
 41  19  46  1   
 42  20  22  1   
 43  20  23  1   
 44  21  47  1   
 45  21  48  1   
 46  21  49  1   
 47  22  24  2   
 48  22  25  1   
 49  23  26  2   
 50  23  50  1   
 51  25  27  2   
 52  25  51  1   
 53  26  27  1   
 54  26  52  1   
 55  27  53  1   
@<TRIPOS>SUBSTRUCTURE
  1 ****  13 GROUP 4 **** **** 0

# MOE 2024.06 (io_trps.svl 2023.06)
