@<TRIPOS>MOLECULE
NONAME
43 46 1 0 0 
SMALL
USER_CHARGES


@<TRIPOS>ATOM
  1 F        1.7740     2.2730    -0.0360 F     1 <1>  -0.1900 
  2 C        0.7520     2.8870     0.4980 C.ar  1 <1>   0.1900 
  3 C       -0.2170     3.4120    -0.3360 C.ar  1 <1>  -0.1500 
  4 C        0.6830     2.9910     1.8730 C.ar  1 <1>  -0.1500 
  5 C       -1.3020     4.0720     0.2260 C.ar  1 <1>  -0.1440 
  6 C       -0.4020     3.6430     2.4320 C.ar  1 <1>  -0.1500 
  7 C       -1.3850     4.1770     1.6110 C.ar  1 <1>  -0.1500 
  8 C       -2.3870     4.6830    -0.6630 C.3   1 <1>   0.3940 
  9 N       -2.4560     6.1510    -0.3470 N.3   1 <1>  -0.8100 
 10 C       -3.7320     3.9210    -0.5100 C.2   1 <1>   0.5690 
 11 C       -3.7350     6.7500    -0.7860 C.3   1 <1>   0.1100 
 12 C       -1.2890     6.8950    -0.8970 C.3   1 <1>   0.1710 
 13 O       -3.7850     2.7260    -0.6780 O.2   1 <1>  -0.5700 
 14 N       -4.8730     4.6050    -0.2320 N.am  1 <1>  -0.7300 
 15 C       -4.9400     6.0800    -0.0970 C.3   1 <1>   0.1400 
 16 C       -1.0600     8.2180    -0.1700 C.2   1 <1>   0.4490 
 17 N       -0.7920     9.2970    -0.8200 N.2   1 <1>  -0.5760 
 18 N       -1.1730     8.1650     1.1980 N.am  1 <1>  -0.4900 
 19 C       -0.6130    10.4400    -0.0640 C.2   1 <1>  -0.0260 
 20 C       -1.0210     9.2630     1.9810 C.2   1 <1>   0.7160 
 21 N       -0.3190    11.7010    -0.4560 N.pl3 1 <1>   0.3140 
 22 C       -0.7150    10.4630     1.2920 C.2   1 <1>  -0.0860 
 23 O       -1.1620     9.1650     3.1870 O.2   1 <1>  -0.5700 
 24 N       -0.2290    12.5370     0.6050 N.2   1 <1>  -0.7070 
 25 C       -0.1030    12.1710    -1.8290 C.3   1 <1>   0.0160 
 26 C       -0.4660    11.7900     1.6390 C.2   1 <1>   0.1390 
 27 H       -0.1160     3.2960    -1.4000 H     1 <1>   0.1500 
 28 H        1.4580     2.5680     2.4870 H     1 <1>   0.1500 
 29 H       -0.4840     3.7340     3.5010 H     1 <1>   0.1500 
 30 H       -2.2280     4.6800     2.0560 H     1 <1>   0.1500 
 31 H       -2.1010     4.5690    -1.6930 H     1 <1>   0.0800 
 32 H       -3.8390     6.6530    -1.8540 H     1 <1>   0.0800 
 33 H       -3.7470     7.8010    -0.5480 H     1 <1>   0.0800 
 34 H       -1.4230     7.0780    -1.9490 H     1 <1>   0.0800 
 35 H       -0.3930     6.3120    -0.7750 H     1 <1>   0.0800 
 36 H       -5.7270     4.0580    -0.0990 H     1 <1>   0.3700 
 37 H       -5.8510     6.4400    -0.5410 H     1 <1>   0.0800 
 38 H       -4.9460     6.3400     0.9480 H     1 <1>   0.0800 
 39 H       -1.4520     7.2910     1.6370 H     1 <1>   0.3700 
 40 H       -0.5480    11.4780    -2.5180 H     1 <1>   0.0800 
 41 H        0.9520    12.2410    -2.0100 H     1 <1>   0.0800 
 42 H       -0.5550    13.1380    -1.9420 H     1 <1>   0.0800 
 43 H       -0.4710    12.1530     2.6540 H     1 <1>   0.1500 
@<TRIPOS>BOND
  1   1   2  1   
  2   2   3  ar  
  3   2   4  ar  
  4   3   5  ar  
  5   3  27  1   
  6   4   6  ar  
  7   4  28  1   
  8   5   7  ar  
  9   5   8  1   
 10   6   7  ar  
 11   6  29  1   
 12   7  30  1   
 13   8   9  1   
 14   8  10  1   
 15   8  31  1   
 16   9  11  1   
 17   9  12  1   
 18  10  13  2   
 19  10  14  am  
 20  11  15  1   
 21  11  32  1   
 22  11  33  1   
 23  12  16  1   
 24  12  34  1   
 25  12  35  1   
 26  14  15  1   
 27  14  36  1   
 28  15  37  1   
 29  15  38  1   
 30  16  17  2   
 31  16  18  1   
 32  17  19  1   
 33  18  20  am  
 34  18  39  1   
 35  19  21  1   
 36  19  22  2   
 37  20  22  1   
 38  20  23  2   
 39  21  24  1   
 40  21  25  1   
 41  22  26  1   
 42  24  26  2   
 43  25  40  1   
 44  25  41  1   
 45  25  42  1   
 46  26  43  1   
@<TRIPOS>SUBSTRUCTURE
  1 ****  12 GROUP 4 **** **** 0

# MOE 2024.06 (io_trps.svl 2023.06)
