@<TRIPOS>MOLECULE
NONAME
46 48 1 0 0 
SMALL
USER_CHARGES


@<TRIPOS>ATOM
  1 F        2.2270     0.5500    -1.9070 F     1 <1>  -0.1900 
  2 C        2.4120    -0.1810    -0.8410 C.ar  1 <1>   0.1900 
  3 C        2.9850     0.3940     0.2920 C.ar  1 <1>   0.0860 
  4 C        2.0260    -1.5070    -0.9010 C.ar  1 <1>  -0.1500 
  5 C        3.3900     1.7800     0.3430 C.2   1 <1>   0.5440 
  6 C        3.1430    -0.4400     1.3990 C.ar  1 <1>  -0.1500 
  7 C        2.2070    -2.3090     0.2110 C.ar  1 <1>  -0.1500 
  8 O        2.8250     2.5270     1.1190 O.2   1 <1>  -0.5700 
  9 N        4.4320     2.2760    -0.4140 N.am  1 <1>  -0.6600 
 10 C        2.7640    -1.7710     1.3610 C.ar  1 <1>  -0.1500 
 11 C        5.3640     1.4390    -1.2350 C.3   1 <1>   0.1400 
 12 C        4.7470     3.7300    -0.4340 C.3   1 <1>   0.1400 
 13 C        6.7220     1.2300    -0.5450 C.3   1 <1>   0.1400 
 14 C        5.6470     4.1260     0.7440 C.3   1 <1>  -0.1600 
 15 N        7.3610     2.5210    -0.1350 N.am  1 <1>  -0.6600 
 16 C        6.7630     3.1300     1.0880 C.3   1 <1>   0.1400 
 17 C        8.3760     3.0690    -0.8750 C.2   1 <1>   0.5690 
 18 O        8.7490     2.5590    -1.9050 O.2   1 <1>  -0.5700 
 19 C        9.0520     4.3510    -0.4100 C.3   1 <1>  -0.0990 
 20 C       10.1780     4.8290    -1.3360 C.3   1 <1>   0.0210 
 21 C       10.7940     6.1070    -0.8000 C.2   1 <1>  -0.1810 
 22 C       10.2320     7.3800    -0.8330 C.2   1 <1>   0.1390 
 23 C       11.9860     6.2770    -0.1900 C.2   1 <1>  -0.3020 
 24 N       10.9990     8.2720    -0.2870 N.2   1 <1>  -0.7070 
 25 N       12.0890     7.5870     0.1080 N.pl3 1 <1>   0.3000 
 26 H        1.5900    -1.9000    -1.8030 H     1 <1>   0.1500 
 27 H        3.5660    -0.0270     2.3000 H     1 <1>   0.1500 
 28 H        1.9120    -3.3450     0.1870 H     1 <1>   0.1500 
 29 H        2.8990    -2.3930     2.2300 H     1 <1>   0.1500 
 30 H        5.5270     1.9150    -2.1860 H     1 <1>   0.0800 
 31 H        4.9310     0.4770    -1.4350 H     1 <1>   0.0800 
 32 H        3.8320     4.2980    -0.3950 H     1 <1>   0.0800 
 33 H        5.2410     3.9730    -1.3590 H     1 <1>   0.0800 
 34 H        7.3710     0.6980    -1.2170 H     1 <1>   0.0800 
 35 H        6.5870     0.6070     0.3210 H     1 <1>   0.0800 
 36 H        5.0290     4.2500     1.6150 H     1 <1>   0.0800 
 37 H        6.0770     5.0880     0.5350 H     1 <1>   0.0800 
 38 H        6.3460     2.3460     1.6980 H     1 <1>   0.0800 
 39 H        7.5200     3.6170     1.6770 H     1 <1>   0.0800 
 40 H        9.4630     4.1860     0.5680 H     1 <1>   0.0800 
 41 H        8.3110     5.1240    -0.3420 H     1 <1>   0.0800 
 42 H        9.7930     5.0050    -2.3260 H     1 <1>   0.0800 
 43 H       10.9360     4.0680    -1.4060 H     1 <1>   0.0800 
 44 H        9.2700     7.6110    -1.2600 H     1 <1>   0.1500 
 45 H       12.7500     5.5570     0.0430 H     1 <1>   0.1500 
 46 H       12.8820     8.0430     0.5760 H     1 <1>   0.2700 
@<TRIPOS>BOND
  1   1   2  1   
  2   2   3  ar  
  3   2   4  ar  
  4   3   5  1   
  5   3   6  ar  
  6   4   7  ar  
  7   4  26  1   
  8   5   8  2   
  9   5   9  am  
 10   6  10  ar  
 11   6  27  1   
 12   7  10  ar  
 13   7  28  1   
 14   9  11  1   
 15   9  12  1   
 16  10  29  1   
 17  11  13  1   
 18  11  30  1   
 19  11  31  1   
 20  12  14  1   
 21  12  32  1   
 22  12  33  1   
 23  13  15  1   
 24  13  34  1   
 25  13  35  1   
 26  14  16  1   
 27  14  36  1   
 28  14  37  1   
 29  15  16  1   
 30  15  17  am  
 31  16  38  1   
 32  16  39  1   
 33  17  18  2   
 34  17  19  1   
 35  19  20  1   
 36  19  40  1   
 37  19  41  1   
 38  20  21  1   
 39  20  42  1   
 40  20  43  1   
 41  21  22  1   
 42  21  23  2   
 43  22  24  2   
 44  22  44  1   
 45  23  25  1   
 46  23  45  1   
 47  24  25  1   
 48  25  46  1   
@<TRIPOS>SUBSTRUCTURE
  1 ****  15 GROUP 4 **** **** 0

# MOE 2024.06 (io_trps.svl 2023.06)
