@<TRIPOS>MOLECULE
NONAME
37 39 1 0 0 
SMALL
USER_CHARGES


@<TRIPOS>ATOM
  1 CL      -2.3460    -0.3820     2.4570 Cl    1 <1>  -0.1770 
  2 C       -2.6560    -1.1210     0.9070 C.ar  1 <1>   0.1770 
  3 C       -2.6510    -2.4990     0.8000 C.ar  1 <1>  -0.1500 
  4 C       -2.9030    -0.3160    -0.1890 C.ar  1 <1>  -0.1500 
  5 C       -2.8970    -3.0910    -0.4290 C.ar  1 <1>  -0.1440 
  6 C       -3.1500    -0.9060    -1.4170 C.ar  1 <1>  -0.1500 
  7 C       -3.1470    -2.2880    -1.5330 C.ar  1 <1>  -0.1500 
  8 C       -2.8970    -4.6060    -0.5640 C.3   1 <1>  -0.0160 
  9 C       -4.2820    -5.1770    -0.2270 C.3   1 <1>  -0.0990 
 10 C       -4.3490    -6.6950    -0.3080 C.2   1 <1>   0.5690 
 11 O       -3.4630    -7.2870    -0.8830 O.2   1 <1>  -0.5700 
 12 N       -5.3990    -7.3420     0.2650 N.am  1 <1>  -0.6600 
 13 C       -6.5860    -6.7090     0.9070 C.3   1 <1>   0.2350 
 14 C       -5.5660    -8.8220     0.2440 C.3   1 <1>   0.2350 
 15 C       -7.6890    -7.7470     0.8350 C.3   1 <1>  -0.2420 
 16 C       -7.0540    -9.0590     0.4380 C.3   1 <1>  -0.2420 
 17 C       -8.8160    -7.3930     1.8110 C.2   1 <1>   0.9470 
 18 C       -8.0520    -8.3980    -0.4780 C.3   1 <1>  -0.2000 
 19 C       -7.3160   -10.4850     0.9270 C.2   1 <1>   0.9470 
 20 O       -9.9790    -7.2940     1.3970 O.co2 1 <1>  -0.9000 
 21 O       -8.5160    -7.0310     2.9580 O.co2 1 <1>  -0.9000 
 22 O       -7.9850   -11.2560     0.2250 O.co2 1 <1>  -0.9000 
 23 O       -6.7230   -10.8900     1.9360 O.co2 1 <1>  -0.9000 
 24 H       -2.4560    -3.0960     1.6730 H     1 <1>   0.1500 
 25 H       -2.9010     0.7530    -0.0790 H     1 <1>   0.1500 
 26 H       -3.3440    -0.2940    -2.2800 H     1 <1>   0.1500 
 27 H       -3.3400    -2.7370    -2.4920 H     1 <1>   0.1500 
 28 H       -2.6260    -4.8840    -1.5680 H     1 <1>   0.0800 
 29 H       -2.1630    -5.0310     0.0990 H     1 <1>   0.0800 
 30 H       -5.0090    -4.7730    -0.9050 H     1 <1>   0.0800 
 31 H       -4.5440    -4.8750     0.7700 H     1 <1>   0.0800 
 32 H       -6.3540    -6.4870     1.9350 H     1 <1>   0.0800 
 33 H       -6.8870    -5.8120     0.3960 H     1 <1>   0.0800 
 34 H       -5.2270    -9.2400    -0.6880 H     1 <1>   0.0800 
 35 H       -5.0100    -9.2530     1.0590 H     1 <1>   0.0800 
 36 H       -7.7160    -7.9620    -1.3990 H     1 <1>   0.1000 
 37 H       -9.0250    -8.8520    -0.5650 H     1 <1>   0.1000 
@<TRIPOS>BOND
  1   1   2  1   
  2   2   3  ar  
  3   2   4  ar  
  4   3   5  ar  
  5   3  24  1   
  6   4   6  ar  
  7   4  25  1   
  8   5   7  ar  
  9   5   8  1   
 10   6   7  ar  
 11   6  26  1   
 12   7  27  1   
 13   8   9  1   
 14   8  28  1   
 15   8  29  1   
 16   9  10  1   
 17   9  30  1   
 18   9  31  1   
 19  10  11  2   
 20  10  12  am  
 21  12  13  1   
 22  12  14  1   
 23  13  15  1   
 24  13  32  1   
 25  13  33  1   
 26  14  16  1   
 27  14  34  1   
 28  14  35  1   
 29  15  16  1   
 30  15  17  1   
 31  15  18  1   
 32  16  18  1   
 33  16  19  1   
 34  17  20  ar  
 35  17  21  ar  
 36  18  36  1   
 37  18  37  1   
 38  19  22  ar  
 39  19  23  ar  
@<TRIPOS>SUBSTRUCTURE
  1 ****  12 GROUP 4 **** **** 0

# MOE 2024.06 (io_trps.svl 2023.06)
