@<TRIPOS>MOLECULE
NONAME
42 43 1 0 0 
SMALL
USER_CHARGES


@<TRIPOS>ATOM
  1 O       -1.0750    -0.1580    -0.0210 O.2   1 <1>  -0.5700 
  2 C       -1.8530     0.7670     0.1280 C.2   1 <1>   0.5440 
  3 N       -3.0120     0.5430     0.8380 N.am  1 <1>  -0.6600 
  4 C       -1.5390     2.0580    -0.4520 C.ar  1 <1>   0.0860 
  5 C       -3.2540    -0.7750     1.5000 C.3   1 <1>   0.3200 
  6 C       -4.1180     1.5390     0.9700 C.3   1 <1>   0.1400 
  7 C       -0.5410     2.8590     0.0980 C.ar  1 <1>  -0.1500 
  8 C       -2.2190     2.5400    -1.5690 C.ar  1 <1>  -0.1500 
  9 C       -3.8000    -1.7780     0.5000 C.2   1 <1>   0.0070 
 10 C       -5.2840     1.1910     0.0370 C.3   1 <1>   0.1200 
 11 C       -0.2310     4.1050    -0.4250 C.ar  1 <1>  -0.1440 
 12 C       -1.9230     3.7800    -2.1020 C.ar  1 <1>  -0.1500 
 13 N       -4.9660    -2.3420     0.5620 N.2   1 <1>  -0.5650 
 14 N       -3.0710    -2.1580    -0.5690 N.pl3 1 <1>   0.0330 
 15 O       -6.2460     2.1880     0.1170 O.3   1 <1>  -0.6800 
 16 C       -0.9350     4.5610    -1.5310 C.ar  1 <1>  -0.1500 
 17 C        0.8700     4.9480     0.2160 C.3   1 <1>   0.0630 
 18 C       -4.9940    -3.1340    -0.5290 C.2   1 <1>   0.0770 
 19 C       -3.8450    -3.0340    -1.2330 C.2   1 <1>  -0.3020 
 20 C        0.3050     6.2670     0.7520 C.3   1 <1>  -0.2400 
 21 C        2.0090     5.2060    -0.7760 C.3   1 <1>  -0.2400 
 22 H       -3.9530    -0.6610     2.3090 H     1 <1>   0.0800 
 23 H       -2.3330    -1.1500     1.9120 H     1 <1>   0.0800 
 24 H       -3.7590     2.5250     0.7300 H     1 <1>   0.0800 
 25 H       -4.4620     1.5510     1.9900 H     1 <1>   0.0800 
 26 H       -0.0040     2.4840     0.9510 H     1 <1>   0.1500 
 27 H       -2.9840     1.9350    -2.0220 H     1 <1>   0.1500 
 28 H       -5.7430     0.2560     0.3090 H     1 <1>   0.0800 
 29 H       -4.9470     1.1420    -0.9830 H     1 <1>   0.0800 
 30 H       -2.4610     4.1400    -2.9620 H     1 <1>   0.1500 
 31 H       -2.1300    -1.7990    -0.7900 H     1 <1>   0.2700 
 32 H       -6.7870     2.0850     0.9240 H     1 <1>   0.4000 
 33 H       -0.7140     5.5240    -1.9550 H     1 <1>   0.1500 
 34 H        1.2810     4.4050     1.0500 H     1 <1>   0.0800 
 35 H       -5.8530    -3.7440    -0.7530 H     1 <1>   0.1500 
 36 H       -3.5440    -3.5220    -2.1420 H     1 <1>   0.1500 
 37 H       -0.0730     6.8770    -0.0480 H     1 <1>   0.0800 
 38 H        1.0720     6.8170     1.2690 H     1 <1>   0.0800 
 39 H       -0.4970     6.0690     1.4410 H     1 <1>   0.0800 
 40 H        1.6670     5.7920    -1.6090 H     1 <1>   0.0800 
 41 H        2.3870     4.2700    -1.1470 H     1 <1>   0.0800 
 42 H        2.8120     5.7320    -0.2920 H     1 <1>   0.0800 
@<TRIPOS>BOND
  1   1   2  2   
  2   2   3  am  
  3   2   4  1   
  4   3   5  1   
  5   3   6  1   
  6   4   7  ar  
  7   4   8  ar  
  8   5   9  1   
  9   5  22  1   
 10   5  23  1   
 11   6  10  1   
 12   6  24  1   
 13   6  25  1   
 14   7  11  ar  
 15   7  26  1   
 16   8  12  ar  
 17   8  27  1   
 18   9  13  2   
 19   9  14  1   
 20  10  15  1   
 21  10  28  1   
 22  10  29  1   
 23  11  16  ar  
 24  11  17  1   
 25  12  16  ar  
 26  12  30  1   
 27  13  18  1   
 28  14  19  1   
 29  14  31  1   
 30  15  32  1   
 31  16  33  1   
 32  17  20  1   
 33  17  21  1   
 34  17  34  1   
 35  18  19  2   
 36  18  35  1   
 37  19  36  1   
 38  20  37  1   
 39  20  38  1   
 40  20  39  1   
 41  21  40  1   
 42  21  41  1   
 43  21  42  1   
@<TRIPOS>SUBSTRUCTURE
  1 ****   2 GROUP 4 **** **** 0

# MOE 2024.06 (io_trps.svl 2023.06)
