@<TRIPOS>MOLECULE
NONAME
47 49 1 0 0 
SMALL
USER_CHARGES


@<TRIPOS>ATOM
  1 O       -0.4210     0.1260     0.1330 O.2   1 <1>  -0.5700 
  2 C       -1.4620     0.7570     0.2090 C.2   1 <1>   0.5440 
  3 N       -2.6380     0.0460     0.0410 N.am  1 <1>  -0.6600 
  4 C       -1.4020     2.2050     0.4430 C.ar  1 <1>   0.3960 
  5 C       -4.0090     0.6120    -0.0340 C.3   1 <1>   0.1400 
  6 C       -2.6650    -1.4170    -0.1980 C.3   1 <1>   0.1400 
  7 N       -2.3920     2.8570     1.0500 N.ar  1 <1>  -0.6200 
  8 C       -0.2830     2.9070     0.0250 C.ar  1 <1>  -0.1500 
  9 C       -4.9010    -0.5620    -0.4400 C.3   1 <1>   0.2000 
 10 C       -4.1320    -1.8180    -0.0390 C.3   1 <1>  -0.0800 
 11 C       -2.2280     4.1530     1.1880 C.ar  1 <1>   0.7200 
 12 C       -0.2200     4.2620     0.2360 C.ar  1 <1>   0.1660 
 13 O       -6.1230    -0.5290     0.2140 O.3   1 <1>  -0.6800 
 14 C       -4.5400    -3.0520    -0.8620 C.3   1 <1>  -0.0160 
 15 N       -1.2050     4.8980     0.8260 N.ar  1 <1>  -0.6200 
 16 N       -3.2200     4.8020     1.7950 N.pl3 1 <1>  -0.9000 
 17 C        1.0070     5.0590    -0.2160 C.3   1 <1>   0.0630 
 18 C       -3.7720    -4.2900    -0.4320 C.ar  1 <1>   0.1670 
 19 C        1.7080     5.7230     0.9770 C.3   1 <1>  -0.2400 
 20 C        0.6260     6.1130    -1.2650 C.3   1 <1>  -0.2400 
 21 N       -2.5750    -4.4590    -0.9700 N.ar  1 <1>  -0.6200 
 22 C       -4.3330    -5.1730     0.4890 C.ar  1 <1>   0.1600 
 23 C       -1.9810    -5.5540    -0.5270 C.ar  1 <1>   0.1600 
 24 N       -3.7410    -6.2700     0.9330 N.ar  1 <1>  -0.6200 
 25 C       -2.5450    -6.4300     0.3930 C.ar  1 <1>   0.1600 
 26 H       -4.2890     0.9880     0.9340 H     1 <1>   0.0800 
 27 H       -4.0530     1.4000    -0.7660 H     1 <1>   0.0800 
 28 H       -2.3150    -1.6150    -1.1980 H     1 <1>   0.0800 
 29 H       -2.0330    -1.9340     0.5040 H     1 <1>   0.0800 
 30 H        0.5220     2.3850    -0.4580 H     1 <1>   0.1500 
 31 H       -5.0810    -0.5330    -1.5020 H     1 <1>   0.0800 
 32 H       -4.2920    -2.0170     1.0060 H     1 <1>   0.0800 
 33 H       -5.9880    -0.4990     1.1810 H     1 <1>   0.4000 
 34 H       -4.3600    -2.8730    -1.9080 H     1 <1>   0.0800 
 35 H       -5.5950    -3.2230    -0.7410 H     1 <1>   0.0800 
 36 H       -3.8150     4.2430     2.3980 H     1 <1>   0.4000 
 37 H       -2.9770     5.7300     2.1310 H     1 <1>   0.4000 
 38 H        1.7080     4.3820    -0.6720 H     1 <1>   0.0800 
 39 H        1.0520     6.4340     1.4480 H     1 <1>   0.0800 
 40 H        2.5970     6.2330     0.6550 H     1 <1>   0.0800 
 41 H        1.9810     4.9790     1.7040 H     1 <1>   0.0800 
 42 H       -0.0540     6.8320    -0.8430 H     1 <1>   0.0800 
 43 H        0.1450     5.6420    -2.1030 H     1 <1>   0.0800 
 44 H        1.5020     6.6290    -1.6150 H     1 <1>   0.0800 
 45 H       -5.3130    -4.9620     0.8780 H     1 <1>   0.1500 
 46 H       -0.9990    -5.7700    -0.9110 H     1 <1>   0.1500 
 47 H       -1.9820    -7.2960     0.6930 H     1 <1>   0.1500 
@<TRIPOS>BOND
  1   1   2  2   
  2   2   3  am  
  3   2   4  1   
  4   3   5  1   
  5   3   6  1   
  6   4   7  ar  
  7   4   8  ar  
  8   5   9  1   
  9   5  26  1   
 10   5  27  1   
 11   6  10  1   
 12   6  28  1   
 13   6  29  1   
 14   7  11  ar  
 15   8  12  ar  
 16   8  30  1   
 17   9  10  1   
 18   9  13  1   
 19   9  31  1   
 20  10  14  1   
 21  10  32  1   
 22  11  15  ar  
 23  11  16  1   
 24  12  15  ar  
 25  12  17  1   
 26  13  33  1   
 27  14  18  1   
 28  14  34  1   
 29  14  35  1   
 30  16  36  1   
 31  16  37  1   
 32  17  19  1   
 33  17  20  1   
 34  17  38  1   
 35  18  21  ar  
 36  18  22  ar  
 37  19  39  1   
 38  19  40  1   
 39  19  41  1   
 40  20  42  1   
 41  20  43  1   
 42  20  44  1   
 43  21  23  ar  
 44  22  24  ar  
 45  22  45  1   
 46  23  25  ar  
 47  23  46  1   
 48  24  25  ar  
 49  25  47  1   
@<TRIPOS>SUBSTRUCTURE
  1 ****   3 GROUP 4 **** **** 0

# MOE 2024.06 (io_trps.svl 2023.06)
