@<TRIPOS>MOLECULE
NONAME
47 50 1 0 0 
SMALL
USER_CHARGES


@<TRIPOS>ATOM
  1 O       -2.2540     0.2340    -1.8870 O.2   1 <1>  -0.5700 
  2 C       -2.1170     0.7900    -0.8130 C.2   1 <1>   0.5440 
  3 N       -2.4500     0.0640     0.3090 N.am  1 <1>  -0.6600 
  4 C       -1.7130     2.1830    -0.7340 C.ar  1 <1>   0.0860 
  5 C       -3.4800     0.5870     1.2540 C.3   1 <1>   0.1400 
  6 C       -2.3970    -1.4250     0.2550 C.3   1 <1>   0.1400 
  7 C       -1.0140     2.6820     0.3660 C.ar  1 <1>  -0.1500 
  8 C       -2.0190     3.0800    -1.7570 C.ar  1 <1>  -0.1500 
  9 C       -4.8820     0.0120     0.9270 C.3   1 <1>   0.4230 
 10 C       -3.7770    -1.9800    -0.1340 C.3   1 <1>   0.3430 
 11 C       -0.6590     4.0160     0.4510 C.ar  1 <1>  -0.1500 
 12 C       -1.6660     4.4140    -1.6760 C.ar  1 <1>  -0.1500 
 13 N       -4.8680    -1.5050     0.8030 N.4   1 <1>  -0.9590 
 14 C       -5.4620     0.6670    -0.3500 C.3   1 <1>   0.1200 
 15 C       -0.9880     4.8920    -0.5680 C.ar  1 <1>  -0.1440 
 16 C       -6.2320    -1.9910     0.4000 C.3   1 <1>   0.5180 
 17 O       -6.7320     0.1480    -0.6220 O.3   1 <1>  -0.5600 
 18 C       -0.5990     6.3570    -0.4800 C.3   1 <1>  -0.0970 
 19 C       -6.2080    -3.5270     0.2540 C.3   1 <1>  -0.1950 
 20 C       -6.7580    -1.2340    -0.8450 C.3   1 <1>   0.1200 
 21 C       -5.8520    -4.2620    -1.0070 C.3   1 <1>  -0.2000 
 22 C       -7.2620    -4.2900    -0.4900 C.3   1 <1>  -0.2000 
 23 H       -3.2040     0.3170     2.2590 H     1 <1>   0.0800 
 24 H       -3.5150     1.6620     1.2100 H     1 <1>   0.0800 
 25 H       -1.6670    -1.7380    -0.4740 H     1 <1>   0.0800 
 26 H       -2.0900    -1.8140     1.2100 H     1 <1>   0.0800 
 27 H       -0.7370     2.0160     1.1640 H     1 <1>   0.1500 
 28 H       -2.5390     2.7230    -2.6300 H     1 <1>   0.1500 
 29 H       -5.5380     0.2890     1.7350 H     1 <1>   0.0800 
 30 H       -3.7300    -3.0560    -0.1330 H     1 <1>   0.0800 
 31 H       -3.9930    -1.6600    -1.1410 H     1 <1>   0.0800 
 32 H       -0.1200     4.3720     1.3130 H     1 <1>   0.1500 
 33 H       -1.9180     5.0810    -2.4830 H     1 <1>   0.1500 
 34 H       -4.6700    -1.8970     1.7280 H     1 <1>   0.4500 
 35 H       -4.8320     0.5010    -1.2070 H     1 <1>   0.0800 
 36 H       -5.5690     1.7290    -0.2100 H     1 <1>   0.0800 
 37 H       -6.9200    -1.7660     1.1980 H     1 <1>   0.0800 
 38 H       -0.5450     6.6730     0.5460 H     1 <1>   0.0800 
 39 H       -1.3230     6.9700    -0.9860 H     1 <1>   0.0800 
 40 H        0.3620     6.5060    -0.9400 H     1 <1>   0.0800 
 41 H       -5.9150    -3.9850     1.1830 H     1 <1>   0.1000 
 42 H       -7.7800    -1.5050    -1.0400 H     1 <1>   0.0800 
 43 H       -6.1730    -1.4530    -1.7210 H     1 <1>   0.0800 
 44 H       -5.6820    -3.7460    -1.9360 H     1 <1>   0.1000 
 45 H       -5.2800    -5.1740    -0.9440 H     1 <1>   0.1000 
 46 H       -7.6310    -5.2130    -0.0710 H     1 <1>   0.1000 
 47 H       -8.0170    -3.7920    -1.0750 H     1 <1>   0.1000 
@<TRIPOS>BOND
  1   1   2  2   
  2   2   3  am  
  3   2   4  1   
  4   3   5  1   
  5   3   6  1   
  6   4   7  ar  
  7   4   8  ar  
  8   5   9  1   
  9   5  23  1   
 10   5  24  1   
 11   6  10  1   
 12   6  25  1   
 13   6  26  1   
 14   7  11  ar  
 15   7  27  1   
 16   8  12  ar  
 17   8  28  1   
 18   9  13  1   
 19   9  14  1   
 20   9  29  1   
 21  10  13  1   
 22  10  30  1   
 23  10  31  1   
 24  11  15  ar  
 25  11  32  1   
 26  12  15  ar  
 27  12  33  1   
 28  13  16  1   
 29  13  34  1   
 30  14  17  1   
 31  14  35  1   
 32  14  36  1   
 33  15  18  1   
 34  16  19  1   
 35  16  20  1   
 36  16  37  1   
 37  17  20  1   
 38  18  38  1   
 39  18  39  1   
 40  18  40  1   
 41  19  21  1   
 42  19  22  1   
 43  19  41  1   
 44  20  42  1   
 45  20  43  1   
 46  21  22  1   
 47  21  44  1   
 48  21  45  1   
 49  22  46  1   
 50  22  47  1   
@<TRIPOS>SUBSTRUCTURE
  1 ****   3 GROUP 4 **** **** 0

# MOE 2024.06 (io_trps.svl 2023.06)
