@<TRIPOS>MOLECULE
NONAME
46 48 1 0 0 
SMALL
USER_CHARGES


@<TRIPOS>ATOM
  1 O       -0.7610    -1.1840    -2.7940 O.co2 1 <1>  -0.9000 
  2 C        0.1680    -2.0170    -2.8350 C.2   1 <1>   0.9790 
  3 O        1.0070    -1.8850    -3.7520 O.co2 1 <1>  -0.9000 
  4 C        0.3270    -3.1040    -1.8510 C.ar  1 <1>   0.1310 
  5 N       -0.6510    -3.5040    -1.0300 N.ar  1 <1>  -0.6200 
  6 C        1.5480    -3.7550    -1.7680 C.ar  1 <1>  -0.1500 
  7 C       -0.3880    -4.4910    -0.1850 C.ar  1 <1>   0.7200 
  8 C        1.7180    -4.7700    -0.8610 C.ar  1 <1>   0.1660 
  9 N        0.7580    -5.1530    -0.0610 N.ar  1 <1>  -0.6200 
 10 N       -1.4220    -4.9050     0.6130 N.pl3 1 <1>  -0.8380 
 11 C        3.0360    -5.5020    -0.7460 C.3   1 <1>  -0.0970 
 12 C       -1.9440    -6.2920     0.4370 C.3   1 <1>   0.2090 
 13 C       -2.4530    -3.9440     1.0980 C.3   1 <1>   0.2090 
 14 C       -3.1150    -6.2940    -0.5660 C.3   1 <1>   0.2000 
 15 C       -3.6870    -3.9460     0.1810 C.3   1 <1>  -0.1600 
 16 O       -2.6250    -5.8500    -1.7950 O.3   1 <1>  -0.6800 
 17 C       -4.2610    -5.3700    -0.0840 C.3   1 <1>  -0.1060 
 18 C       -4.8160    -6.0250     1.1900 C.2   1 <1>   0.9060 
 19 C       -5.3900    -5.3140    -1.1490 C.3   1 <1>  -0.0170 
 20 O       -4.9390    -5.3830     2.2410 O.co2 1 <1>  -0.9000 
 21 O       -5.1130    -7.2270     1.1480 O.co2 1 <1>  -0.9000 
 22 C       -6.5010    -4.3100    -0.8520 C.ar  1 <1>  -0.1440 
 23 C       -7.4820    -4.6010     0.0830 C.ar  1 <1>  -0.1500 
 24 C       -6.5420    -3.0950    -1.5200 C.ar  1 <1>  -0.1500 
 25 C       -8.4940    -3.6930     0.3430 C.ar  1 <1>  -0.1500 
 26 C       -7.5530    -2.1850    -1.2620 C.ar  1 <1>  -0.1500 
 27 C       -8.5320    -2.4850    -0.3300 C.ar  1 <1>  -0.1500 
 28 H        2.3480    -3.4540    -2.4200 H     1 <1>   0.1500 
 29 H        3.7540    -5.1130    -1.4440 H     1 <1>   0.0800 
 30 H        2.8820    -6.5460    -0.9470 H     1 <1>   0.0800 
 31 H        3.4190    -5.3930     0.2510 H     1 <1>   0.0800 
 32 H       -1.1670    -6.9430     0.0780 H     1 <1>   0.0800 
 33 H       -2.2730    -6.6690     1.3900 H     1 <1>   0.0800 
 34 H       -2.7420    -4.2210     2.0980 H     1 <1>   0.0800 
 35 H       -2.0370    -2.9520     1.1400 H     1 <1>   0.0800 
 36 H       -3.4770    -7.2980    -0.7070 H     1 <1>   0.0800 
 37 H       -4.4430    -3.3350     0.6420 H     1 <1>   0.0800 
 38 H       -3.4220    -3.4740    -0.7480 H     1 <1>   0.0800 
 39 H       -2.1330    -5.0110    -1.6180 H     1 <1>   0.4000 
 40 H       -4.9710    -5.0670    -2.1070 H     1 <1>   0.0800 
 41 H       -5.8250    -6.2930    -1.2480 H     1 <1>   0.0800 
 42 H       -7.4490    -5.5360     0.6190 H     1 <1>   0.1500 
 43 H       -5.7770    -2.8540    -2.2380 H     1 <1>   0.1500 
 44 H       -9.2430    -3.9320     1.0770 H     1 <1>   0.1500 
 45 H       -7.5720    -1.2460    -1.7840 H     1 <1>   0.1500 
 46 H       -9.3160    -1.7790    -0.1250 H     1 <1>   0.1500 
@<TRIPOS>BOND
  1   1   2  ar  
  2   2   3  ar  
  3   2   4  1   
  4   4   5  ar  
  5   4   6  ar  
  6   5   7  ar  
  7   6   8  ar  
  8   6  28  1   
  9   7   9  ar  
 10   7  10  1   
 11   8   9  ar  
 12   8  11  1   
 13  10  12  1   
 14  10  13  1   
 15  11  29  1   
 16  11  30  1   
 17  11  31  1   
 18  12  14  1   
 19  12  32  1   
 20  12  33  1   
 21  13  15  1   
 22  13  34  1   
 23  13  35  1   
 24  14  16  1   
 25  14  17  1   
 26  14  36  1   
 27  15  17  1   
 28  15  37  1   
 29  15  38  1   
 30  16  39  1   
 31  17  18  1   
 32  17  19  1   
 33  18  20  ar  
 34  18  21  ar  
 35  19  22  1   
 36  19  40  1   
 37  19  41  1   
 38  22  23  ar  
 39  22  24  ar  
 40  23  25  ar  
 41  23  42  1   
 42  24  26  ar  
 43  24  43  1   
 44  25  27  ar  
 45  25  44  1   
 46  26  27  ar  
 47  26  45  1   
 48  27  46  1   
@<TRIPOS>SUBSTRUCTURE
  1 ****  15 GROUP 4 **** **** 0

# MOE 2024.06 (io_trps.svl 2023.06)
