@<TRIPOS>MOLECULE
NONAME
55 57 1 0 0 
SMALL
USER_CHARGES


@<TRIPOS>ATOM
  1 O       -1.1750    -0.1620    -1.3690 O.2   1 <1>  -0.5700 
  2 C       -1.9020     0.4670    -0.6220 C.2   1 <1>   0.5440 
  3 N       -1.4420     1.6610    -0.0950 N.am  1 <1>  -0.6600 
  4 C       -3.2180    -0.0480    -0.3280 C.ar  1 <1>   0.0860 
  5 C       -2.3360     2.7420     0.4050 C.3   1 <1>   0.0600 
  6 C       -0.0060     2.0430    -0.1900 C.3   1 <1>   0.0600 
  7 C       -4.0190    -0.5540    -1.3470 C.ar  1 <1>   0.1600 
  8 C       -3.7500    -0.0740     0.9570 C.ar  1 <1>  -0.1500 
  9 N       -5.2430    -1.0340    -1.2080 N.ar  1 <1>  -0.6200 
 10 C       -5.0170    -0.5760     1.1210 C.ar  1 <1>  -0.1500 
 11 C       -5.7370    -1.0530     0.0260 C.ar  1 <1>   0.4100 
 12 N       -7.0060    -1.5650     0.1920 N.pl3 1 <1>  -0.8380 
 13 C       -7.3070    -2.5210     1.3170 C.3   1 <1>   0.2090 
 14 C       -7.9300    -1.6680    -0.9880 C.3   1 <1>   0.2090 
 15 C       -7.9710    -3.8660     0.8870 C.3   1 <1>   0.3690 
 16 C       -9.2950    -2.2800    -0.6240 C.3   1 <1>   0.2090 
 17 N       -9.1720    -3.6310     0.0120 N.pl3 1 <1>  -0.8380 
 18 C       -8.3780    -4.6350     2.1520 C.3   1 <1>  -0.2400 
 19 C       -6.9790    -4.7200     0.0910 C.3   1 <1>  -0.2400 
 20 C      -10.3290    -4.4060     0.0890 C.ar  1 <1>   0.1000 
 21 C      -10.4030    -5.6240    -0.5710 C.ar  1 <1>  -0.1500 
 22 C      -11.4310    -3.9760     0.8190 C.ar  1 <1>  -0.1500 
 23 C      -11.5410    -6.4080    -0.5040 C.ar  1 <1>   0.0820 
 24 C      -12.5760    -4.7480     0.8930 C.ar  1 <1>  -0.1500 
 25 O      -11.5160    -7.5860    -1.1800 O.3   1 <1>  -0.3630 
 26 C      -12.6360    -5.9640     0.2350 C.ar  1 <1>  -0.1500 
 27 C      -12.6260    -8.4540    -1.1780 C.3   1 <1>   0.0400 
 28 H       -3.3630     2.5370     0.1610 H     1 <1>   0.0800 
 29 H       -2.0630     3.6780    -0.0510 H     1 <1>   0.0800 
 30 H       -2.2360     2.8300     1.4720 H     1 <1>   0.0800 
 31 H        0.6060     1.1750    -0.3660 H     1 <1>   0.0800 
 32 H        0.3130     2.5040     0.7280 H     1 <1>   0.0800 
 33 H        0.1310     2.7340    -1.0040 H     1 <1>   0.0800 
 34 H       -3.6090    -0.5550    -2.3420 H     1 <1>   0.1500 
 35 H       -3.1750     0.2890     1.7910 H     1 <1>   0.1500 
 36 H       -5.4710    -0.6000     2.0930 H     1 <1>   0.1500 
 37 H       -7.9650    -2.0260     2.0080 H     1 <1>   0.0800 
 38 H       -6.3990    -2.7510     1.8450 H     1 <1>   0.0800 
 39 H       -7.4740    -2.2760    -1.7490 H     1 <1>   0.0800 
 40 H       -8.0780    -0.6860    -1.3990 H     1 <1>   0.0800 
 41 H       -9.8890    -2.3680    -1.5160 H     1 <1>   0.0800 
 42 H       -9.8040    -1.6140     0.0500 H     1 <1>   0.0800 
 43 H       -9.1230    -4.0860     2.6980 H     1 <1>   0.0800 
 44 H       -7.5260    -4.7830     2.7890 H     1 <1>   0.0800 
 45 H       -8.7720    -5.6030     1.8980 H     1 <1>   0.0800 
 46 H       -6.6780    -4.2130    -0.8060 H     1 <1>   0.0800 
 47 H       -7.4230    -5.6610    -0.1740 H     1 <1>   0.0800 
 48 H       -6.0990    -4.9120     0.6760 H     1 <1>   0.0800 
 49 H       -9.5630    -5.9590    -1.1470 H     1 <1>   0.1500 
 50 H      -11.3790    -3.0350     1.3330 H     1 <1>   0.1500 
 51 H      -13.4200    -4.4030     1.4640 H     1 <1>   0.1500 
 52 H      -13.5340    -6.5460     0.3080 H     1 <1>   0.1500 
 53 H      -12.3790    -9.3140    -1.7740 H     1 <1>   0.0800 
 54 H      -13.4700    -7.9420    -1.6060 H     1 <1>   0.0800 
 55 H      -12.8300    -8.7570    -0.1660 H     1 <1>   0.0800 
@<TRIPOS>BOND
  1   1   2  2   
  2   2   3  am  
  3   2   4  1   
  4   3   5  1   
  5   3   6  1   
  6   4   7  ar  
  7   4   8  ar  
  8   5  28  1   
  9   5  29  1   
 10   5  30  1   
 11   6  31  1   
 12   6  32  1   
 13   6  33  1   
 14   7   9  ar  
 15   7  34  1   
 16   8  10  ar  
 17   8  35  1   
 18   9  11  ar  
 19  10  11  ar  
 20  10  36  1   
 21  11  12  1   
 22  12  13  1   
 23  12  14  1   
 24  13  15  1   
 25  13  37  1   
 26  13  38  1   
 27  14  16  1   
 28  14  39  1   
 29  14  40  1   
 30  15  17  1   
 31  15  18  1   
 32  15  19  1   
 33  16  17  1   
 34  16  41  1   
 35  16  42  1   
 36  17  20  1   
 37  18  43  1   
 38  18  44  1   
 39  18  45  1   
 40  19  46  1   
 41  19  47  1   
 42  19  48  1   
 43  20  21  ar  
 44  20  22  ar  
 45  21  23  ar  
 46  21  49  1   
 47  22  24  ar  
 48  22  50  1   
 49  23  25  1   
 50  23  26  ar  
 51  24  26  ar  
 52  24  51  1   
 53  25  27  1   
 54  26  52  1   
 55  27  53  1   
 56  27  54  1   
 57  27  55  1   
@<TRIPOS>SUBSTRUCTURE
  1 ****  12 GROUP 4 **** **** 0

# MOE 2024.06 (io_trps.svl 2023.06)
