@<TRIPOS>MOLECULE
NONAME
51 53 1 0 0 
SMALL
USER_CHARGES


@<TRIPOS>ATOM
  1 O        0.4090     0.0000    -1.0130 O.3   1 <1>  -0.5600 
  2 C        1.6940    -0.5760    -1.0050 C.3   1 <1>   0.2000 
  3 C        0.3750     1.3960    -1.0290 C.3   1 <1>   0.1200 
  4 C        2.5400    -0.0460     0.1860 C.3   1 <1>   0.5660 
  5 C        1.5450    -2.1040    -0.9170 C.3   1 <1>   0.1200 
  6 C        1.0690     1.9550     0.2250 C.3   1 <1>   0.3430 
  7 N        2.4720     1.4410     0.3490 N.4   1 <1>  -0.9590 
  8 C        4.0060    -0.4270     0.0350 C.ar  1 <1>  -0.1440 
  9 O        1.1870    -2.4790     0.3760 O.3   1 <1>  -0.6800 
 10 C        3.1200     1.8740     1.6130 C.3   1 <1>   0.4870 
 11 C        4.7940     0.0870    -0.9900 C.ar  1 <1>  -0.1500 
 12 C        4.5730    -1.3010     0.9520 C.ar  1 <1>  -0.1500 
 13 C        3.3750     3.3630     1.5100 C.ar  1 <1>  -0.1440 
 14 C        6.1300    -0.2600    -1.0840 C.ar  1 <1>  -0.1500 
 15 C        5.9090    -1.6460     0.8560 C.ar  1 <1>  -0.1500 
 16 C        4.4360     3.8250     0.7460 C.ar  1 <1>  -0.1500 
 17 C        2.5610     4.2730     2.1680 C.ar  1 <1>  -0.1500 
 18 C        6.6880    -1.1240    -0.1600 C.ar  1 <1>  -0.1500 
 19 C        4.6820     5.1820     0.6240 C.ar  1 <1>   0.0820 
 20 C        2.8010     5.6320     2.0500 C.ar  1 <1>  -0.1500 
 21 O        5.7400     5.5410    -0.1420 O.3   1 <1>  -0.3630 
 22 C        3.8550     6.0900     1.2800 C.ar  1 <1>  -0.1500 
 23 C        6.1960     6.8780    -0.1770 C.3   1 <1>   0.1200 
 24 C        7.4820     6.9340    -1.0000 C.3   1 <1>   0.1200 
 25 O        7.9150     8.2510    -1.0900 O.3   1 <1>  -0.6800 
 26 H        2.1640    -0.3280    -1.9400 H     1 <1>   0.0800 
 27 H        0.8460     1.7490    -1.9300 H     1 <1>   0.0800 
 28 H       -0.6590     1.6960    -1.0430 H     1 <1>   0.0800 
 29 H        2.1560    -0.5090     1.0800 H     1 <1>   0.0800 
 30 H        2.4760    -2.5900    -1.1550 H     1 <1>   0.0800 
 31 H        0.7850    -2.4420    -1.6020 H     1 <1>   0.0800 
 32 H        0.4930     1.6630     1.0880 H     1 <1>   0.0800 
 33 H        1.0760     3.0320     0.1790 H     1 <1>   0.0800 
 34 H        3.0340     1.8470    -0.4030 H     1 <1>   0.4500 
 35 H        0.8560    -3.4030     0.3870 H     1 <1>   0.4000 
 36 H        2.4900     1.6550     2.4590 H     1 <1>   0.0800 
 37 H        4.0640     1.3680     1.7460 H     1 <1>   0.0800 
 38 H        4.3910     0.7570    -1.7310 H     1 <1>   0.1500 
 39 H        3.9830    -1.7270     1.7470 H     1 <1>   0.1500 
 40 H        6.7410     0.1390    -1.8770 H     1 <1>   0.1500 
 41 H        6.3460    -2.3240     1.5700 H     1 <1>   0.1500 
 42 H        5.1000     3.1450     0.2390 H     1 <1>   0.1500 
 43 H        1.7380     3.9430     2.7800 H     1 <1>   0.1500 
 44 H        7.7280    -1.3940    -0.2340 H     1 <1>   0.1500 
 45 H        2.1680     6.3380     2.5620 H     1 <1>   0.1500 
 46 H        4.0170     7.1490     1.2060 H     1 <1>   0.1500 
 47 H        5.4300     7.4820    -0.6300 H     1 <1>   0.0800 
 48 H        6.3900     7.1970     0.8320 H     1 <1>   0.0800 
 49 H        7.3230     6.5610    -1.9970 H     1 <1>   0.0800 
 50 H        8.2580     6.3660    -0.5160 H     1 <1>   0.0800 
 51 H        7.3390     8.7720    -1.6830 H     1 <1>   0.4000 
@<TRIPOS>BOND
  1   1   2  1   
  2   1   3  1   
  3   2   4  1   
  4   2   5  1   
  5   2  26  1   
  6   3   6  1   
  7   3  27  1   
  8   3  28  1   
  9   4   7  1   
 10   4   8  1   
 11   4  29  1   
 12   5   9  1   
 13   5  30  1   
 14   5  31  1   
 15   6   7  1   
 16   6  32  1   
 17   6  33  1   
 18   7  10  1   
 19   7  34  1   
 20   8  11  ar  
 21   8  12  ar  
 22   9  35  1   
 23  10  13  1   
 24  10  36  1   
 25  10  37  1   
 26  11  14  ar  
 27  11  38  1   
 28  12  15  ar  
 29  12  39  1   
 30  13  16  ar  
 31  13  17  ar  
 32  14  18  ar  
 33  14  40  1   
 34  15  18  ar  
 35  15  41  1   
 36  16  19  ar  
 37  16  42  1   
 38  17  20  ar  
 39  17  43  1   
 40  18  44  1   
 41  19  21  1   
 42  19  22  ar  
 43  20  22  ar  
 44  20  45  1   
 45  21  23  1   
 46  22  46  1   
 47  23  24  1   
 48  23  47  1   
 49  23  48  1   
 50  24  25  1   
 51  24  49  1   
 52  24  50  1   
 53  25  51  1   
@<TRIPOS>SUBSTRUCTURE
  1 ****   7 GROUP 4 **** **** 0

# MOE 2024.06 (io_trps.svl 2023.06)
