@<TRIPOS>MOLECULE
NONAME
34 34 1 0 0 
SMALL
USER_CHARGES


@<TRIPOS>ATOM
  1 O       -3.0960    -1.5060    -0.5350 O.3   1 <1>  -0.6800 
  2 C       -1.7120    -1.4400    -0.3580 C.3   1 <1>   0.1200 
  3 C       -1.1390    -2.7910     0.1320 C.3   1 <1>   0.0000 
  4 C       -1.4870    -3.9170    -0.8920 C.3   1 <1>   0.2090 
  5 C       -1.6180    -3.0580     1.5790 C.3   1 <1>  -0.2400 
  6 C        0.3940    -2.6490     0.1940 C.3   1 <1>  -0.2400 
  7 N       -2.2590    -5.0730    -0.3270 N.pl3 1 <1>  -0.8380 
  8 C       -3.6140    -5.1270    -0.2260 C.ar  1 <1>   0.7710 
  9 C       -1.3990    -6.2590    -0.0040 C.3   1 <1>   0.1290 
 10 N       -4.2080    -6.2940     0.0000 N.ar  1 <1>  -0.6200 
 11 N       -4.3200    -3.9890    -0.3550 N.ar  1 <1>  -0.1790 
 12 C       -5.5170    -6.3070     0.0770 C.ar  1 <1>   0.4100 
 13 C       -5.6710    -3.9700    -0.2770 C.ar  1 <1>   0.2110 
 14 N       -6.0780    -7.4970     0.2970 N.pl3 1 <1>  -0.9000 
 15 C       -6.2990    -5.1500    -0.0600 C.ar  1 <1>  -0.1500 
 16 H       -3.4250    -0.5970    -0.7300 H     1 <1>   0.4000 
 17 H       -1.5030    -0.6650     0.3620 H     1 <1>   0.0800 
 18 H       -1.2690    -1.1600    -1.3000 H     1 <1>   0.0800 
 19 H       -0.5760    -4.3000    -1.3230 H     1 <1>   0.0800 
 20 H       -2.0340    -3.5050    -1.7240 H     1 <1>   0.0800 
 21 H       -2.6880    -3.1060     1.6470 H     1 <1>   0.0800 
 22 H       -1.2890    -2.2700     2.2350 H     1 <1>   0.0800 
 23 H       -1.2120    -3.9820     1.9500 H     1 <1>   0.0800 
 24 H        0.8020    -2.4250    -0.7760 H     1 <1>   0.0800 
 25 H        0.8430    -3.5620     0.5460 H     1 <1>   0.0800 
 26 H        0.6800    -1.8580     0.8670 H     1 <1>   0.0800 
 27 H       -0.4810    -5.9370     0.4580 H     1 <1>   0.0800 
 28 H       -1.1670    -6.7980    -0.9070 H     1 <1>   0.0800 
 29 H       -1.8950    -6.9280     0.6790 H     1 <1>   0.0800 
 30 H       -3.7620    -3.1320    -0.4550 H     1 <1>   0.4570 
 31 H       -6.1910    -3.0310    -0.3850 H     1 <1>   0.1500 
 32 H       -7.0800    -7.6760     0.3830 H     1 <1>   0.4000 
 33 H       -5.4850    -8.3270     0.3910 H     1 <1>   0.4000 
 34 H       -7.3680    -5.2300     0.0150 H     1 <1>   0.1500 
@<TRIPOS>BOND
  1   1   2  1   
  2   1  16  1   
  3   2   3  1   
  4   2  17  1   
  5   2  18  1   
  6   3   4  1   
  7   3   5  1   
  8   3   6  1   
  9   4   7  1   
 10   4  19  1   
 11   4  20  1   
 12   5  21  1   
 13   5  22  1   
 14   5  23  1   
 15   6  24  1   
 16   6  25  1   
 17   6  26  1   
 18   7   8  1   
 19   7   9  1   
 20   8  10  ar  
 21   8  11  ar  
 22   9  27  1   
 23   9  28  1   
 24   9  29  1   
 25  10  12  ar  
 26  11  13  ar  
 27  11  30  1   
 28  12  14  1   
 29  12  15  ar  
 30  13  15  ar  
 31  13  31  1   
 32  14  32  1   
 33  14  33  1   
 34  15  34  1   
@<TRIPOS>SUBSTRUCTURE
  1 ****   8 GROUP 4 **** **** 0

# MOE 2024.06 (io_trps.svl 2023.06)
