@<TRIPOS>MOLECULE
NONAME
58 61 1 0 0 
SMALL
USER_CHARGES


@<TRIPOS>ATOM
  1 O       -1.6800     0.2600    -1.3900 O.2   1 <1>  -0.5700 
  2 C       -1.7420     0.7350    -0.2720 C.2   1 <1>   0.7160 
  3 N       -2.0680    -0.0650     0.7820 N.am  1 <1>  -0.7300 
  4 C       -1.4850     2.1160    -0.0450 C.2   1 <1>  -0.0860 
  5 C       -2.5290    -1.4690     0.6940 C.3   1 <1>   0.1400 
  6 C       -2.4690     3.0900     0.1280 C.2   1 <1>   0.3720 
  7 C       -0.3230     2.8020     0.1070 C.2   1 <1>   0.0870 
  8 C       -3.9030    -1.6300     1.3660 C.3   1 <1>  -0.0800 
  9 N       -1.9440     4.2380     0.3830 N.2   1 <1>  -0.4100 
 10 N       -3.8440     2.8510     0.0380 N.pl3 1 <1>  -0.8210 
 11 O       -0.6510     4.0440     0.3610 O.3   1 <1>  -0.0190 
 12 C        1.0620     2.4040     0.0590 C.ar  1 <1>   0.0530 
 13 C       -4.3500    -3.1000     1.2920 C.3   1 <1>  -0.1600 
 14 C       -4.9680    -0.7180     0.7260 C.3   1 <1>  -0.1600 
 15 C       -4.3200     2.6350    -1.3640 C.3   1 <1>   0.2090 
 16 C       -4.7190     3.8470     0.7300 C.3   1 <1>   0.2090 
 17 C        1.5000     1.3450    -0.7360 C.ar  1 <1>  -0.1500 
 18 C        2.0230     3.0750     0.8170 C.ar  1 <1>  -0.1500 
 19 C       -5.7340    -3.3070     1.9230 C.3   1 <1>  -0.1600 
 20 C       -6.3520    -0.9290     1.3540 C.3   1 <1>  -0.1600 
 21 C       -5.8250     2.3080    -1.4000 C.3   1 <1>   0.1200 
 22 C       -6.1990     3.4410     0.6210 C.3   1 <1>   0.1200 
 23 C        2.8290     0.9650    -0.7650 C.ar  1 <1>  -0.1500 
 24 C        3.3540     2.7020     0.7920 C.ar  1 <1>  -0.1500 
 25 C       -6.7950    -2.4000     1.2710 C.3   1 <1>  -0.0800 
 26 O       -6.5740     3.2760    -0.7190 O.3   1 <1>  -0.5600 
 27 C        3.7600     1.6430     0.0010 C.ar  1 <1>  -0.1500 
 28 C       -8.1760    -2.5670     1.9250 C.3   1 <1>   0.1200 
 29 O       -8.6120    -3.8740     1.7830 O.3   1 <1>  -0.6800 
 30 H       -2.2080     0.3880     1.6850 H     1 <1>   0.3700 
 31 H       -1.8080    -2.1030     1.1830 H     1 <1>   0.0800 
 32 H       -2.5920    -1.7710    -0.3380 H     1 <1>   0.0800 
 33 H       -3.8020    -1.3670     2.4050 H     1 <1>   0.0800 
 34 H       -3.6350    -3.7230     1.8020 H     1 <1>   0.0800 
 35 H       -4.3850    -3.4150     0.2630 H     1 <1>   0.0800 
 36 H       -5.0200    -0.9170    -0.3300 H     1 <1>   0.0800 
 37 H       -4.6890     0.3130     0.8520 H     1 <1>   0.0800 
 38 H       -3.7760     1.8240    -1.8150 H     1 <1>   0.0800 
 39 H       -4.1370     3.5220    -1.9460 H     1 <1>   0.0800 
 40 H       -4.5850     4.8210     0.2900 H     1 <1>   0.0800 
 41 H       -4.4380     3.9070     1.7670 H     1 <1>   0.0800 
 42 H        0.7980     0.8110    -1.3510 H     1 <1>   0.1500 
 43 H        1.7210     3.9010     1.4380 H     1 <1>   0.1500 
 44 H       -5.6800    -3.0950     2.9780 H     1 <1>   0.0800 
 45 H       -6.0170    -4.3390     1.8140 H     1 <1>   0.0800 
 46 H       -7.0680    -0.3050     0.8470 H     1 <1>   0.0800 
 47 H       -6.3200    -0.6210     2.3860 H     1 <1>   0.0800 
 48 H       -6.0120     1.3500    -0.9490 H     1 <1>   0.0800 
 49 H       -6.1710     2.2820    -2.4180 H     1 <1>   0.0800 
 50 H       -6.8250     4.2060     1.0440 H     1 <1>   0.0800 
 51 H       -6.3740     2.5180     1.1440 H     1 <1>   0.0800 
 52 H        3.1400     0.1430    -1.3860 H     1 <1>   0.1500 
 53 H        4.0750     3.2340     1.3880 H     1 <1>   0.1500 
 54 H       -6.8820    -2.6580     0.2300 H     1 <1>   0.0800 
 55 H        4.7950     1.3480    -0.0200 H     1 <1>   0.1500 
 56 H       -8.9020    -1.9220     1.4600 H     1 <1>   0.0800 
 57 H       -8.1320    -2.3460     2.9780 H     1 <1>   0.0800 
 58 H       -8.6200    -4.1290     0.8410 H     1 <1>   0.4000 
@<TRIPOS>BOND
  1   1   2  2   
  2   2   3  am  
  3   2   4  1   
  4   3   5  1   
  5   3  30  1   
  6   4   6  1   
  7   4   7  2   
  8   5   8  1   
  9   5  31  1   
 10   5  32  1   
 11   6   9  2   
 12   6  10  1   
 13   7  11  1   
 14   7  12  1   
 15   8  13  1   
 16   8  14  1   
 17   8  33  1   
 18   9  11  1   
 19  10  15  1   
 20  10  16  1   
 21  12  17  ar  
 22  12  18  ar  
 23  13  19  1   
 24  13  34  1   
 25  13  35  1   
 26  14  20  1   
 27  14  36  1   
 28  14  37  1   
 29  15  21  1   
 30  15  38  1   
 31  15  39  1   
 32  16  22  1   
 33  16  40  1   
 34  16  41  1   
 35  17  23  ar  
 36  17  42  1   
 37  18  24  ar  
 38  18  43  1   
 39  19  25  1   
 40  19  44  1   
 41  19  45  1   
 42  20  25  1   
 43  20  46  1   
 44  20  47  1   
 45  21  26  1   
 46  21  48  1   
 47  21  49  1   
 48  22  26  1   
 49  22  50  1   
 50  22  51  1   
 51  23  27  ar  
 52  23  52  1   
 53  24  27  ar  
 54  24  53  1   
 55  25  28  1   
 56  25  54  1   
 57  27  55  1   
 58  28  29  1   
 59  28  56  1   
 60  28  57  1   
 61  29  58  1   
@<TRIPOS>SUBSTRUCTURE
  1 ****   2 GROUP 4 **** **** 0

# MOE 2024.06 (io_trps.svl 2023.06)
