@<TRIPOS>MOLECULE
NONAME
48 51 1 0 0 
SMALL
USER_CHARGES


@<TRIPOS>ATOM
  1 O       -0.2930    -1.2060    -2.5420 O.3   1 <1>  -0.6800 
  2 C        0.7460    -1.9690    -2.0310 C.3   1 <1>   0.1200 
  3 C        1.2300    -1.3970    -0.6640 C.3   1 <1>   0.0000 
  4 C        2.4580    -2.1970    -0.1360 C.3   1 <1>   0.4230 
  5 C        1.6610     0.0870    -0.8300 C.3   1 <1>  -0.1600 
  6 C        0.0890    -1.4580     0.3970 C.3   1 <1>  -0.1600 
  7 N        2.1510    -3.6580     0.1900 N.4   1 <1>  -0.9590 
  8 C        3.7110    -1.9890    -1.0210 C.3   1 <1>   0.2090 
  9 C        2.8980     0.2820    -1.7130 C.3   1 <1>   0.2090 
 10 C        0.1790    -2.6660     1.3470 C.3   1 <1>  -0.1600 
 11 C        0.7420    -3.8980     0.6450 C.3   1 <1>   0.3430 
 12 C        2.5140    -4.6510    -0.8740 C.3   1 <1>   0.2630 
 13 N        4.0190    -0.5320    -1.1550 N.pl3 1 <1>  -0.8380 
 14 C        5.1180     0.0350    -0.5670 C.2   1 <1>   0.2710 
 15 N        5.5500    -0.5260     0.5730 N.2   1 <1>  -0.6210 
 16 C        5.7530     1.1240    -1.1160 C.2   1 <1>  -0.1410 
 17 C        6.5860    -0.0090     1.1620 C.2   1 <1>   0.9190 
 18 C        6.8470     1.6220    -0.4520 C.cat 1 <1>   0.7910 
 19 N        7.2570     1.0600     0.6810 N.pl3 1 <1>  -0.6690 
 20 N        7.0060    -0.5630     2.2970 N.pl3 1 <1>  -0.8500 
 21 N        7.6880     2.6410    -0.6970 N.pl3 1 <1>  -0.3930 
 22 C        8.3560     1.7810     1.0780 C.2   1 <1>   0.5030 
 23 N        8.6370     2.7350     0.2720 N.2   1 <1>  -0.2600 
 24 H       -0.6210    -1.5520    -3.3980 H     1 <1>   0.4000 
 25 H        0.3790    -2.9720    -1.9240 H     1 <1>   0.0800 
 26 H        1.5330    -1.9640    -2.7630 H     1 <1>   0.0800 
 27 H        2.7090    -1.7280     0.8010 H     1 <1>   0.0800 
 28 H        1.8880     0.5130     0.1320 H     1 <1>   0.0800 
 29 H        0.8500     0.6660    -1.2390 H     1 <1>   0.0800 
 30 H        0.0880    -0.5700     1.0070 H     1 <1>   0.0800 
 31 H       -0.8690    -1.4730    -0.0960 H     1 <1>   0.0800 
 32 H        2.7430    -3.8690     1.0070 H     1 <1>   0.4500 
 33 H        3.5550    -2.3910    -2.0050 H     1 <1>   0.0800 
 34 H        4.5500    -2.5000    -0.5830 H     1 <1>   0.0800 
 35 H        3.1550     1.3270    -1.7260 H     1 <1>   0.0800 
 36 H        2.6950    -0.0210    -2.7270 H     1 <1>   0.0800 
 37 H       -0.8050    -2.8890     1.7230 H     1 <1>   0.0800 
 38 H        0.7960    -2.4280     2.1970 H     1 <1>   0.0800 
 39 H        0.1150    -4.1210    -0.2030 H     1 <1>   0.0800 
 40 H        0.7100    -4.7450     1.3120 H     1 <1>   0.0800 
 41 H        1.9510    -4.4640    -1.7730 H     1 <1>   0.0800 
 42 H        2.2960    -5.6530    -0.5380 H     1 <1>   0.0800 
 43 H        3.5650    -4.5950    -1.1040 H     1 <1>   0.0800 
 44 H        5.4200     1.5630    -2.0350 H     1 <1>   0.1500 
 45 H        6.4920    -1.3630     2.6660 H     1 <1>   0.4000 
 46 H        7.7900    -0.2500     2.8620 H     1 <1>   0.4000 
 47 H        7.6470     3.2760    -1.5030 H     1 <1>   0.4500 
 48 H        8.9100     1.5530     1.9760 H     1 <1>   0.1500 
@<TRIPOS>BOND
  1   1   2  1   
  2   1  24  1   
  3   2   3  1   
  4   2  25  1   
  5   2  26  1   
  6   3   4  1   
  7   3   5  1   
  8   3   6  1   
  9   4   7  1   
 10   4   8  1   
 11   4  27  1   
 12   5   9  1   
 13   5  28  1   
 14   5  29  1   
 15   6  10  1   
 16   6  30  1   
 17   6  31  1   
 18   7  11  1   
 19   7  12  1   
 20   7  32  1   
 21   8  13  1   
 22   8  33  1   
 23   8  34  1   
 24   9  13  1   
 25   9  35  1   
 26   9  36  1   
 27  10  11  1   
 28  10  37  1   
 29  10  38  1   
 30  11  39  1   
 31  11  40  1   
 32  12  41  1   
 33  12  42  1   
 34  12  43  1   
 35  13  14  1   
 36  14  15  1   
 37  14  16  2   
 38  15  17  2   
 39  16  18  1   
 40  16  44  1   
 41  17  19  1   
 42  17  20  1   
 43  18  19  ar  
 44  18  21  ar  
 45  19  22  1   
 46  20  45  1   
 47  20  46  1   
 48  21  23  1   
 49  21  47  1   
 50  22  23  2   
 51  22  48  1   
@<TRIPOS>SUBSTRUCTURE
  1 ****  13 GROUP 4 **** **** 0

# MOE 2024.06 (io_trps.svl 2023.06)
