@<TRIPOS>MOLECULE
NONAME
36 37 1 0 0 
SMALL
USER_CHARGES


@<TRIPOS>ATOM
  1 O        0.0690     0.8630     0.3410 O.3   1 <1>  -0.3630 
  2 C       -1.1620     1.2020    -0.1370 C.ar  1 <1>   0.3920 
  3 C        0.5660    -0.4530     0.1940 C.3   1 <1>   0.0400 
  4 N       -1.8720     0.2670    -0.7540 N.ar  1 <1>  -0.6200 
  5 C       -1.5990     2.5430     0.0510 C.ar  1 <1>   0.4100 
  6 C       -3.0410     0.7340    -1.1720 C.ar  1 <1>   0.1600 
  7 N       -2.7700     2.9850    -0.3860 N.ar  1 <1>  -0.6200 
  8 N       -0.8080     3.4640     0.7190 N.pl3 1 <1>  -0.8690 
  9 C       -3.4700     2.0390    -0.9940 C.ar  1 <1>   0.1600 
 10 C       -0.6850     4.8350     0.2300 C.3   1 <1>   0.4270 
 11 C        0.8020     5.1680     0.1250 C.2   1 <1>  -0.2760 
 12 C       -1.3760     5.7620     1.2180 C.3   1 <1>  -0.2400 
 13 C        1.7570     4.7070     0.9470 C.2   1 <1>  -0.2880 
 14 C        1.1190     6.1040    -1.0390 C.3   1 <1>  -0.0220 
 15 C        3.2390     5.0160     0.8110 C.3   1 <1>  -0.0220 
 16 C        2.5310     6.7010    -0.9350 C.3   1 <1>  -0.1600 
 17 C        3.5590     5.6270    -0.5600 C.3   1 <1>  -0.1600 
 18 H        1.5420    -0.4980     0.6420 H     1 <1>   0.0800 
 19 H        0.6280    -0.6870    -0.8540 H     1 <1>   0.0800 
 20 H       -0.1020    -1.1340     0.6930 H     1 <1>   0.0800 
 21 H       -3.6870     0.0410    -1.6810 H     1 <1>   0.1500 
 22 H        0.1310     3.1020     0.8980 H     1 <1>   0.4000 
 23 H       -4.4370     2.3210    -1.3710 H     1 <1>   0.1500 
 24 H       -1.1480     4.9160    -0.7410 H     1 <1>   0.0800 
 25 H       -0.9170     5.6770     2.1860 H     1 <1>   0.0800 
 26 H       -2.4160     5.5000     1.2910 H     1 <1>   0.0800 
 27 H       -1.2970     6.7790     0.8840 H     1 <1>   0.0800 
 28 H        1.5510     4.0750     1.7950 H     1 <1>   0.1500 
 29 H        0.4090     6.9120    -1.0670 H     1 <1>   0.0800 
 30 H        1.0310     5.5510    -1.9580 H     1 <1>   0.0800 
 31 H        3.8100     4.1130     0.9350 H     1 <1>   0.0800 
 32 H        3.5220     5.7020     1.5900 H     1 <1>   0.0800 
 33 H        2.5340     7.4670    -0.1780 H     1 <1>   0.0800 
 34 H        2.7990     7.1570    -1.8720 H     1 <1>   0.0800 
 35 H        3.5400     4.8490    -1.3040 H     1 <1>   0.0800 
 36 H        4.5480     6.0500    -0.5440 H     1 <1>   0.0800 
@<TRIPOS>BOND
  1   1   2  1   
  2   1   3  1   
  3   2   4  ar  
  4   2   5  ar  
  5   3  18  1   
  6   3  19  1   
  7   3  20  1   
  8   4   6  ar  
  9   5   7  ar  
 10   5   8  1   
 11   6   9  ar  
 12   6  21  1   
 13   7   9  ar  
 14   8  10  1   
 15   8  22  1   
 16   9  23  1   
 17  10  11  1   
 18  10  12  1   
 19  10  24  1   
 20  11  13  2   
 21  11  14  1   
 22  12  25  1   
 23  12  26  1   
 24  12  27  1   
 25  13  15  1   
 26  13  28  1   
 27  14  16  1   
 28  14  29  1   
 29  14  30  1   
 30  15  17  1   
 31  15  31  1   
 32  15  32  1   
 33  16  17  1   
 34  16  33  1   
 35  16  34  1   
 36  17  35  1   
 37  17  36  1   
@<TRIPOS>SUBSTRUCTURE
  1 ****   8 GROUP 4 **** **** 0

# MOE 2024.06 (io_trps.svl 2023.06)
