@<TRIPOS>MOLECULE
NONAME
41 42 1 0 0 
SMALL
USER_CHARGES


@<TRIPOS>ATOM
  1 S        0.3680    -1.3560     2.3830 S.3   1 <1>  -0.0800 
  2 C        0.9520    -1.6180     0.7480 C.2   1 <1>  -0.1400 
  3 C        1.1810     0.1950     2.4660 C.2   1 <1>  -0.1100 
  4 C        1.7040    -0.5760     0.3450 C.2   1 <1>  -0.1500 
  5 C        0.5390    -2.9050     0.0680 C.3   1 <1>   0.5230 
  6 C        1.8390     0.4670     1.3210 C.2   1 <1>   0.0190 
  7 N       -0.9390    -2.9330    -0.0510 N.4   1 <1>  -0.9590 
  8 C        2.6040     1.6440     1.0470 C.1   1 <1>  -0.0190 
  9 C       -1.4200    -4.2690    -0.4870 C.3   1 <1>   0.5240 
 10 C       -1.5120    -1.7900    -0.8250 C.3   1 <1>   0.3430 
 11 C        3.2400     2.6250     0.8210 C.1   1 <1>  -0.2000 
 12 C       -1.3270    -5.1800     0.7260 C.2   1 <1>   0.0460 
 13 C       -2.9880    -1.5440    -0.4810 C.3   1 <1>   0.1200 
 14 C        4.0370     3.8500     0.5470 C.3   1 <1>   0.3200 
 15 N       -1.6750    -4.6920     1.9360 N.2   1 <1>  -0.5650 
 16 C       -0.9150    -6.4660     0.8220 C.2   1 <1>  -0.3320 
 17 O       -3.5010    -0.6690    -1.4220 O.3   1 <1>  -0.6800 
 18 O        3.2050     4.9320     0.7350 O.3   1 <1>  -0.6800 
 19 C       -1.4800    -5.6880     2.7390 C.2   1 <1>   0.0360 
 20 N       -1.0190    -6.7970     2.1250 N.pl3 1 <1>   0.0330 
 21 C       -0.4240    -7.4510    -0.2280 C.3   1 <1>  -0.0600 
 22 H        1.0870     0.7610     3.3770 H     1 <1>   0.1500 
 23 H        2.1900    -0.4720    -0.6100 H     1 <1>   0.1500 
 24 H        0.8760    -3.7400     0.6620 H     1 <1>   0.0800 
 25 H        0.9940    -2.9650    -0.9070 H     1 <1>   0.0800 
 26 H       -1.2700    -2.8890     0.9320 H     1 <1>   0.4500 
 27 H       -0.8320    -4.6520    -1.3040 H     1 <1>   0.0800 
 28 H       -2.4520    -4.2130    -0.7910 H     1 <1>   0.0800 
 29 H       -1.4240    -1.9850    -1.8810 H     1 <1>   0.0800 
 30 H       -0.9690    -0.8860    -0.6010 H     1 <1>   0.0800 
 31 H       -3.0830    -1.0910     0.4910 H     1 <1>   0.0800 
 32 H       -3.5680    -2.4490    -0.5280 H     1 <1>   0.0800 
 33 H        4.3880     3.8620    -0.4700 H     1 <1>   0.0800 
 34 H        4.8690     3.9390     1.2240 H     1 <1>   0.0800 
 35 H       -4.4300    -0.4260    -1.2200 H     1 <1>   0.4000 
 36 H        2.3260     4.7230     0.3690 H     1 <1>   0.4000 
 37 H       -1.6630    -5.6600     3.8010 H     1 <1>   0.1500 
 38 H       -0.8030    -7.6980     2.5660 H     1 <1>   0.2700 
 39 H       -0.4260    -7.0070    -1.2070 H     1 <1>   0.0800 
 40 H       -1.0620    -8.3170    -0.2500 H     1 <1>   0.0800 
 41 H        0.5780    -7.7700     0.0000 H     1 <1>   0.0800 
@<TRIPOS>BOND
  1   1   2  1   
  2   1   3  1   
  3   2   4  2   
  4   2   5  1   
  5   3   6  2   
  6   3  22  1   
  7   4   6  1   
  8   4  23  1   
  9   5   7  1   
 10   5  24  1   
 11   5  25  1   
 12   6   8  1   
 13   7   9  1   
 14   7  10  1   
 15   7  26  1   
 16   8  11  3   
 17   9  12  1   
 18   9  27  1   
 19   9  28  1   
 20  10  13  1   
 21  10  29  1   
 22  10  30  1   
 23  11  14  1   
 24  12  15  1   
 25  12  16  2   
 26  13  17  1   
 27  13  31  1   
 28  13  32  1   
 29  14  18  1   
 30  14  33  1   
 31  14  34  1   
 32  15  19  2   
 33  16  20  1   
 34  16  21  1   
 35  17  35  1   
 36  18  36  1   
 37  19  20  1   
 38  19  37  1   
 39  20  38  1   
 40  21  39  1   
 41  21  40  1   
 42  21  41  1   
@<TRIPOS>SUBSTRUCTURE
  1 ****   2 GROUP 4 **** **** 0

# MOE 2024.06 (io_trps.svl 2023.06)
