@<TRIPOS>MOLECULE
NONAME
52 55 1 0 0 
SMALL
USER_CHARGES


@<TRIPOS>ATOM
  1 O        0.1850    -0.4980    -0.8060 O.3   1 <1>  -0.5600 
  2 C       -0.7120    -1.3200    -1.4970 C.3   1 <1>   0.1200 
  3 C        1.1920    -1.2050    -0.1370 C.3   1 <1>   0.1200 
  4 C       -1.4310    -2.2880    -0.5380 C.3   1 <1>   0.2090 
  5 C        0.5880    -2.1550     0.9110 C.3   1 <1>   0.2090 
  6 N       -0.4440    -3.0540     0.2920 N.pl3 1 <1>  -0.8380 
  7 C       -0.3920    -4.4150     0.3650 C.ar  1 <1>   0.4100 
  8 N        0.8110    -4.9700     0.5110 N.ar  1 <1>  -0.6200 
  9 C       -1.5420    -5.1910     0.2940 C.ar  1 <1>  -0.1500 
 10 C        0.8670    -6.2690     0.5690 C.ar  1 <1>   0.7710 
 11 C       -1.4540    -6.5600     0.3630 C.ar  1 <1>   0.4610 
 12 N       -0.2160    -7.0640     0.4940 N.ar  1 <1>  -0.1790 
 13 N        2.0800    -6.8120     0.7110 N.pl3 1 <1>  -0.9000 
 14 N       -2.5130    -7.4250     0.3120 N.pl3 1 <1>  -0.8380 
 15 C       -3.9510    -7.0130     0.2390 C.3   1 <1>   0.2090 
 16 C       -2.4440    -8.9190     0.3320 C.3   1 <1>   0.2090 
 17 C       -4.7400    -8.2400     0.7000 C.3   1 <1>   0.2000 
 18 C       -3.8870    -9.4180     0.2230 C.3   1 <1>  -0.0800 
 19 O       -4.7970    -8.2300     2.0860 O.3   1 <1>  -0.6800 
 20 C       -4.1200   -10.7530     0.9560 C.3   1 <1>   0.0210 
 21 C       -3.2570   -11.8630     0.3810 C.2   1 <1>   0.1080 
 22 N       -1.9570   -11.8700     0.4390 N.2   1 <1>  -0.7070 
 23 C       -3.7610   -12.9890    -0.2590 C.2   1 <1>  -0.1500 
 24 N       -1.6010   -13.0270    -0.1590 N.pl3 1 <1>   0.3000 
 25 C       -2.6750   -13.7160    -0.5950 C.2   1 <1>  -0.3320 
 26 C       -2.5990   -15.0520    -1.3110 C.3   1 <1>  -0.0600 
 27 H       -1.4270    -0.6830    -1.9870 H     1 <1>   0.0800 
 28 H       -0.1670    -1.8670    -2.2470 H     1 <1>   0.0800 
 29 H        1.7660    -1.7590    -0.8600 H     1 <1>   0.0800 
 30 H        1.8360    -0.4880     0.3400 H     1 <1>   0.0800 
 31 H       -2.0380    -2.9570    -1.1200 H     1 <1>   0.0800 
 32 H       -2.0780    -1.7220     0.1110 H     1 <1>   0.0800 
 33 H        0.1220    -1.5660     1.6830 H     1 <1>   0.0800 
 34 H        1.3760    -2.7240     1.3710 H     1 <1>   0.0800 
 35 H       -2.4930    -4.7100     0.2000 H     1 <1>   0.1500 
 36 H       -0.1000    -8.0630     0.5460 H     1 <1>   0.4570 
 37 H        2.3330    -7.7990     0.7790 H     1 <1>   0.4000 
 38 H        2.8780    -6.1700     0.7580 H     1 <1>   0.4000 
 39 H       -4.1680    -6.1600     0.8600 H     1 <1>   0.0800 
 40 H       -4.2020    -6.7880    -0.7840 H     1 <1>   0.0800 
 41 H       -1.8590    -9.2970    -0.4910 H     1 <1>   0.0800 
 42 H       -2.0140    -9.2500     1.2630 H     1 <1>   0.0800 
 43 H       -5.7470    -8.2610     0.3190 H     1 <1>   0.0800 
 44 H       -4.0940    -9.5730    -0.8220 H     1 <1>   0.0800 
 45 H       -3.9010    -8.1050     2.4550 H     1 <1>   0.4000 
 46 H       -5.1560   -11.0290     0.8750 H     1 <1>   0.0800 
 47 H       -3.8900   -10.6590     2.0020 H     1 <1>   0.0800 
 48 H       -4.7980   -13.2130    -0.4330 H     1 <1>   0.1500 
 49 H       -0.6230   -13.3270    -0.2510 H     1 <1>   0.2700 
 50 H       -3.5880   -15.3990    -1.5520 H     1 <1>   0.0800 
 51 H       -2.1240   -15.7840    -0.6830 H     1 <1>   0.0800 
 52 H       -2.0390   -14.9550    -2.2250 H     1 <1>   0.0800 
@<TRIPOS>BOND
  1   1   2  1   
  2   1   3  1   
  3   2   4  1   
  4   2  27  1   
  5   2  28  1   
  6   3   5  1   
  7   3  29  1   
  8   3  30  1   
  9   4   6  1   
 10   4  31  1   
 11   4  32  1   
 12   5   6  1   
 13   5  33  1   
 14   5  34  1   
 15   6   7  1   
 16   7   8  ar  
 17   7   9  ar  
 18   8  10  ar  
 19   9  11  ar  
 20   9  35  1   
 21  10  12  ar  
 22  10  13  1   
 23  11  12  ar  
 24  11  14  1   
 25  12  36  1   
 26  13  37  1   
 27  13  38  1   
 28  14  15  1   
 29  14  16  1   
 30  15  17  1   
 31  15  39  1   
 32  15  40  1   
 33  16  18  1   
 34  16  41  1   
 35  16  42  1   
 36  17  18  1   
 37  17  19  1   
 38  17  43  1   
 39  18  20  1   
 40  18  44  1   
 41  19  45  1   
 42  20  21  1   
 43  20  46  1   
 44  20  47  1   
 45  21  22  2   
 46  21  23  1   
 47  22  24  1   
 48  23  25  2   
 49  23  48  1   
 50  24  25  1   
 51  24  49  1   
 52  25  26  1   
 53  26  50  1   
 54  26  51  1   
 55  26  52  1   
@<TRIPOS>SUBSTRUCTURE
  1 ****  11 GROUP 4 **** **** 0

# MOE 2024.06 (io_trps.svl 2023.06)
