@<TRIPOS>MOLECULE
NONAME
42 43 1 0 0 
SMALL
USER_CHARGES


@<TRIPOS>ATOM
  1 S        0.2310     0.5630     0.2720 S.3   1 <1>  -0.4600 
  2 C       -0.3640    -1.1450     0.1920 C.3   1 <1>   0.1500 
  3 C        1.7080     0.5630    -0.8150 C.3   1 <1>   0.1310 
  4 C       -1.8100    -1.1310     0.6780 C.3   1 <1>  -0.2400 
  5 C        0.5370    -1.9980     1.0830 C.3   1 <1>  -0.2400 
  6 C        2.3030     1.9560    -0.9680 C.2   1 <1>   0.5690 
  7 O        3.1840     2.1100    -1.7790 O.2   1 <1>  -0.5700 
  8 N        1.8140     2.9660    -0.1860 N.am  1 <1>  -0.4940 
  9 C        2.0690     4.3580    -0.2050 C.2   1 <1>  -0.0880 
 10 N        3.2790     4.9880    -0.2780 N.pl3 1 <1>   0.3140 
 11 C        1.1300     5.3320    -0.1350 C.2   1 <1>  -0.1810 
 12 N        3.1180     6.3400    -0.2660 N.2   1 <1>  -0.7070 
 13 C        4.6340     4.3590    -0.2720 C.3   1 <1>   0.1760 
 14 C        1.8400     6.5250    -0.1820 C.2   1 <1>   0.1390 
 15 C       -0.3790     5.2070    -0.0380 C.3   1 <1>  -0.0590 
 16 C        5.5430     4.8830     0.8470 C.3   1 <1>  -0.1600 
 17 C        5.4090     4.5960    -1.5790 C.3   1 <1>  -0.1600 
 18 C        6.9560     4.6750     0.3110 C.3   1 <1>  -0.1600 
 19 C        6.8390     4.9830    -1.1800 C.3   1 <1>  -0.1600 
 20 H       -0.3110    -1.4600    -0.8370 H     1 <1>   0.0800 
 21 H        1.4010     0.1900    -1.7740 H     1 <1>   0.0800 
 22 H        2.4330    -0.0990    -0.3790 H     1 <1>   0.0800 
 23 H       -1.8640    -0.7660     1.6880 H     1 <1>   0.0800 
 24 H       -2.2210    -2.1240     0.6470 H     1 <1>   0.0800 
 25 H       -2.4050    -0.4960     0.0460 H     1 <1>   0.0800 
 26 H        0.5320    -1.6210     2.0900 H     1 <1>   0.0800 
 27 H        1.5460    -1.9970     0.7140 H     1 <1>   0.0800 
 28 H        0.1840    -3.0140     1.0950 H     1 <1>   0.0800 
 29 H        1.0080     2.6800     0.3780 H     1 <1>   0.3700 
 30 H        4.5250     3.3020    -0.1260 H     1 <1>   0.0800 
 31 H        1.3890     7.5020    -0.1530 H     1 <1>   0.1500 
 32 H       -0.6830     4.1800    -0.1200 H     1 <1>   0.0800 
 33 H       -0.8420     5.7650    -0.8320 H     1 <1>   0.0800 
 34 H       -0.7180     5.5960     0.9050 H     1 <1>   0.0800 
 35 H        5.3820     4.3560     1.7710 H     1 <1>   0.0800 
 36 H        5.3810     5.9360     0.9980 H     1 <1>   0.0800 
 37 H        4.9620     5.3860    -2.1590 H     1 <1>   0.0800 
 38 H        5.4120     3.6920    -2.1610 H     1 <1>   0.0800 
 39 H        7.2460     3.6470     0.4450 H     1 <1>   0.0800 
 40 H        7.6720     5.3130     0.8000 H     1 <1>   0.0800 
 41 H        6.9720     6.0410    -1.3340 H     1 <1>   0.0800 
 42 H        7.5760     4.4510    -1.7580 H     1 <1>   0.0800 
@<TRIPOS>BOND
  1   1   2  1   
  2   1   3  1   
  3   2   4  1   
  4   2   5  1   
  5   2  20  1   
  6   3   6  1   
  7   3  21  1   
  8   3  22  1   
  9   4  23  1   
 10   4  24  1   
 11   4  25  1   
 12   5  26  1   
 13   5  27  1   
 14   5  28  1   
 15   6   7  2   
 16   6   8  am  
 17   8   9  1   
 18   8  29  1   
 19   9  10  1   
 20   9  11  2   
 21  10  12  1   
 22  10  13  1   
 23  11  14  1   
 24  11  15  1   
 25  12  14  2   
 26  13  16  1   
 27  13  17  1   
 28  13  30  1   
 29  14  31  1   
 30  15  32  1   
 31  15  33  1   
 32  15  34  1   
 33  16  18  1   
 34  16  35  1   
 35  16  36  1   
 36  17  19  1   
 37  17  37  1   
 38  17  38  1   
 39  18  19  1   
 40  18  39  1   
 41  18  40  1   
 42  19  41  1   
 43  19  42  1   
@<TRIPOS>SUBSTRUCTURE
  1 ****   8 GROUP 4 **** **** 0

# MOE 2024.06 (io_trps.svl 2023.06)
