@<TRIPOS>MOLECULE
NONAME
34 34 1 0 0 
SMALL
USER_CHARGES


@<TRIPOS>ATOM
  1 S        0.7140    -0.1830    -0.6730 S.o2  1 <1>   1.3330 
  2 O        1.9680    -0.8330    -0.9570 O.2   1 <1>  -0.6500 
  3 O       -0.1310     0.3240    -1.7270 O.2   1 <1>  -0.6500 
  4 N        1.1170     1.0760     0.3520 N.am  1 <1>  -0.9140 
  5 C       -0.2610    -1.2310     0.3830 C.3   1 <1>  -0.1350 
  6 C        1.2880     2.3530    -0.3480 C.3   1 <1>   0.1960 
  7 C        1.6290     3.4710     0.6460 C.3   1 <1>   0.2090 
  8 N        1.8940     4.7430    -0.0740 N.pl3 1 <1>  -0.8690 
  9 C        3.1960     5.1120    -0.3900 C.ar  1 <1>   0.4100 
 10 N        4.0280     4.1350    -0.7020 N.ar  1 <1>  -0.6200 
 11 C        3.5720     6.4960    -0.3580 C.ar  1 <1>   0.4100 
 12 C        5.2430     4.5860    -0.9880 C.ar  1 <1>   0.1600 
 13 N        4.7940     6.9170    -0.6410 N.ar  1 <1>  -0.6200 
 14 N        2.6330     7.4870    -0.0300 N.pl3 1 <1>  -0.8380 
 15 C        5.6100     5.9190    -0.9580 C.ar  1 <1>   0.1600 
 16 C        3.1100     8.6290     0.7980 C.3   1 <1>   0.1290 
 17 C        1.7580     7.9070    -1.1540 C.3   1 <1>   0.1290 
 18 H        2.0470     0.8110     0.6780 H     1 <1>   0.4200 
 19 H       -0.5710    -2.1060    -0.1540 H     1 <1>   0.0800 
 20 H       -1.1340    -0.7050     0.7180 H     1 <1>   0.0800 
 21 H        0.3110    -1.5350     1.2370 H     1 <1>   0.0800 
 22 H        0.3770     2.6160    -0.8580 H     1 <1>   0.0800 
 23 H        2.0780     2.2640    -1.0760 H     1 <1>   0.0800 
 24 H        2.4990     3.1950     1.2180 H     1 <1>   0.0800 
 25 H        0.8020     3.6120     1.3190 H     1 <1>   0.0800 
 26 H        1.4170     5.5580     0.3330 H     1 <1>   0.4000 
 27 H        5.9790     3.8510    -1.2590 H     1 <1>   0.1500 
 28 H        6.6220     6.1850    -1.2050 H     1 <1>   0.1500 
 29 H        3.7760     8.2710     1.5640 H     1 <1>   0.0800 
 30 H        2.2750     9.1200     1.2640 H     1 <1>   0.0800 
 31 H        3.6420     9.3340     0.1810 H     1 <1>   0.0800 
 32 H        1.4570     7.0480    -1.7310 H     1 <1>   0.0800 
 33 H        2.2910     8.5860    -1.7980 H     1 <1>   0.0800 
 34 H        0.8780     8.3950    -0.7730 H     1 <1>   0.0800 
@<TRIPOS>BOND
  1   1   2  2   
  2   1   3  2   
  3   1   4  am  
  4   1   5  1   
  5   4   6  1   
  6   4  18  1   
  7   5  19  1   
  8   5  20  1   
  9   5  21  1   
 10   6   7  1   
 11   6  22  1   
 12   6  23  1   
 13   7   8  1   
 14   7  24  1   
 15   7  25  1   
 16   8   9  1   
 17   8  26  1   
 18   9  10  ar  
 19   9  11  ar  
 20  10  12  ar  
 21  11  13  ar  
 22  11  14  1   
 23  12  15  ar  
 24  12  27  1   
 25  13  15  ar  
 26  14  16  1   
 27  14  17  1   
 28  15  28  1   
 29  16  29  1   
 30  16  30  1   
 31  16  31  1   
 32  17  32  1   
 33  17  33  1   
 34  17  34  1   
@<TRIPOS>SUBSTRUCTURE
  1 ****   8 GROUP 4 **** **** 0

# MOE 2024.06 (io_trps.svl 2023.06)
