@<TRIPOS>MOLECULE
NONAME
51 52 1 0 0 
SMALL
USER_CHARGES


@<TRIPOS>ATOM
  1 O       -1.8260     2.3280    -0.1980 O.2   1 <1>  -0.5700 
  2 C       -1.9050     1.1380    -0.0040 C.2   1 <1>   0.5690 
  3 N       -2.7190     0.3430    -0.7820 N.am  1 <1>  -0.6600 
  4 C       -1.0300     0.5920     1.1470 C.3   1 <1>   0.4040 
  5 C       -2.8020    -1.1630    -0.6580 C.3   1 <1>   0.3640 
  6 C       -3.6930     1.0130    -1.7060 C.3   1 <1>   0.1400 
  7 N        0.4150     0.3060     0.7770 N.4   1 <1>  -0.9590 
  8 C       -1.3790    -1.7130    -0.7750 C.ar  1 <1>  -0.1430 
  9 C       -3.7310    -1.9000    -1.6740 C.3   1 <1>   0.2000 
 10 C       -4.2050     0.0900    -2.8120 C.3   1 <1>   0.1200 
 11 C        1.1770    -0.2930     1.9150 C.3   1 <1>   0.2630 
 12 C        1.0970     1.5230     0.2390 C.3   1 <1>   0.2630 
 13 C       -0.8610    -2.5160     0.2300 C.ar  1 <1>  -0.1500 
 14 C       -0.5730    -1.3850    -1.8570 C.ar  1 <1>  -0.1500 
 15 O       -4.7070    -1.0680    -2.2320 O.3   1 <1>  -0.5600 
 16 C       -4.4870    -3.0670    -1.0200 C.3   1 <1>   0.1200 
 17 C        0.4560    -2.9340     0.1890 C.ar  1 <1>   0.0830 
 18 C        0.7410    -1.8170    -1.9180 C.ar  1 <1>  -0.1500 
 19 O       -3.6080    -3.9380    -0.3850 O.3   1 <1>  -0.6800 
 20 O        0.9110    -3.6290     1.2570 O.3   1 <1>  -0.3630 
 21 C        1.2770    -2.5790    -0.8850 C.ar  1 <1>   0.0830 
 22 C        1.2660    -4.9770     1.0370 C.3   1 <1>   0.0400 
 23 O        2.5840    -2.9570    -0.8670 O.3   1 <1>  -0.3630 
 24 C        3.3480    -3.0080    -2.0540 C.3   1 <1>   0.0400 
 25 H       -1.4880    -0.3060     1.5220 H     1 <1>   0.0800 
 26 H       -1.0520     1.3220     1.9370 H     1 <1>   0.0800 
 27 H       -3.1780    -1.3790     0.3280 H     1 <1>   0.0800 
 28 H       -4.5350     1.3620    -1.1320 H     1 <1>   0.0800 
 29 H       -3.2340     1.8730    -2.1630 H     1 <1>   0.0800 
 30 H        0.3850    -0.4070     0.0220 H     1 <1>   0.4500 
 31 H       -3.1470    -2.2860    -2.4910 H     1 <1>   0.0800 
 32 H       -3.4250    -0.1640    -3.5090 H     1 <1>   0.0800 
 33 H       -5.0090     0.5650    -3.3470 H     1 <1>   0.0800 
 34 H        1.2450     0.4050     2.7340 H     1 <1>   0.0800 
 35 H        2.1740    -0.5550     1.5970 H     1 <1>   0.0800 
 36 H        0.6910    -1.1910     2.2610 H     1 <1>   0.0800 
 37 H        1.1250     2.2990     0.9870 H     1 <1>   0.0800 
 38 H        0.5680     1.9000    -0.6220 H     1 <1>   0.0800 
 39 H        2.1060     1.2870    -0.0550 H     1 <1>   0.0800 
 40 H       -1.4710    -2.8200     1.0640 H     1 <1>   0.1500 
 41 H       -0.9650    -0.7790    -2.6590 H     1 <1>   0.1500 
 42 H       -5.0440    -3.6210    -1.7550 H     1 <1>   0.0800 
 43 H       -5.1640    -2.6890    -0.2730 H     1 <1>   0.0800 
 44 H        1.3340    -1.5400    -2.7700 H     1 <1>   0.1500 
 45 H       -3.2370    -4.5840    -1.0210 H     1 <1>   0.4000 
 46 H        1.4570    -5.4360     1.9910 H     1 <1>   0.0800 
 47 H        2.1530    -5.0200     0.4310 H     1 <1>   0.0800 
 48 H        0.4510    -5.4790     0.5450 H     1 <1>   0.0800 
 49 H        4.2830    -3.4890    -1.8280 H     1 <1>   0.0800 
 50 H        3.5310    -2.0070    -2.4010 H     1 <1>   0.0800 
 51 H        2.8140    -3.5810    -2.7920 H     1 <1>   0.0800 
@<TRIPOS>BOND
  1   1   2  2   
  2   2   3  am  
  3   2   4  1   
  4   3   5  1   
  5   3   6  1   
  6   4   7  1   
  7   4  25  1   
  8   4  26  1   
  9   5   8  1   
 10   5   9  1   
 11   5  27  1   
 12   6  10  1   
 13   6  28  1   
 14   6  29  1   
 15   7  11  1   
 16   7  12  1   
 17   7  30  1   
 18   8  13  ar  
 19   8  14  ar  
 20   9  15  1   
 21   9  16  1   
 22   9  31  1   
 23  10  15  1   
 24  10  32  1   
 25  10  33  1   
 26  11  34  1   
 27  11  35  1   
 28  11  36  1   
 29  12  37  1   
 30  12  38  1   
 31  12  39  1   
 32  13  17  ar  
 33  13  40  1   
 34  14  18  ar  
 35  14  41  1   
 36  16  19  1   
 37  16  42  1   
 38  16  43  1   
 39  17  20  1   
 40  17  21  ar  
 41  18  21  ar  
 42  18  44  1   
 43  19  45  1   
 44  20  22  1   
 45  21  23  1   
 46  22  46  1   
 47  22  47  1   
 48  22  48  1   
 49  23  24  1   
 50  24  49  1   
 51  24  50  1   
 52  24  51  1   
@<TRIPOS>SUBSTRUCTURE
  1 ****   8 GROUP 4 **** **** 0

# MOE 2024.06 (io_trps.svl 2023.06)
