@<TRIPOS>MOLECULE
NONAME
45 46 1 0 0 
SMALL
USER_CHARGES


@<TRIPOS>ATOM
  1 S       -1.1190     1.3440     1.7730 S.3   1 <1>  -0.3320 
  2 C       -0.2510     2.1720     0.4690 C.ar  1 <1>   0.7720 
  3 C       -1.2130    -0.4300     1.2420 C.3   1 <1>  -0.0100 
  4 N       -0.0790     3.4920     0.6700 N.ar  1 <1>  -0.1790 
  5 N        0.1550     1.5070    -0.5590 N.ar  1 <1>  -0.6200 
  6 C        0.5630     4.2450    -0.2440 C.ar  1 <1>   0.4610 
  7 C        0.7980     2.2140    -1.4930 C.ar  1 <1>   0.4100 
  8 N        0.7290     5.5820    -0.0220 N.pl3 1 <1>  -0.8690 
  9 C        1.0170     3.5710    -1.3660 C.ar  1 <1>  -0.1500 
 10 N        1.2070     1.5040    -2.5460 N.pl3 1 <1>  -0.9000 
 11 C        1.2530     6.5680    -1.0450 C.3   1 <1>   0.2890 
 12 C        2.7680     6.7390    -0.9180 C.3   1 <1>   0.2000 
 13 C        0.7300     8.0030    -0.8160 C.3   1 <1>   0.3430 
 14 O        3.2160     7.2810    -2.1270 O.3   1 <1>  -0.5600 
 15 C        2.8950     7.7970     0.1810 C.3   1 <1>   0.3430 
 16 N        1.7950     8.7770    -0.0840 N.4   1 <1>  -0.9590 
 17 C        4.5780     7.1130    -2.3950 C.3   1 <1>   0.0400 
 18 C        1.3440     9.5790     1.0800 C.3   1 <1>   0.4230 
 19 C        0.2860    10.5800     0.6200 C.3   1 <1>  -0.2400 
 20 C        2.5360    10.3280     1.6720 C.3   1 <1>  -0.2400 
 21 H       -1.7350    -0.9760     2.0070 H     1 <1>   0.0800 
 22 H       -0.2100    -0.8000     1.1260 H     1 <1>   0.0800 
 23 H       -1.7480    -0.4740     0.3100 H     1 <1>   0.0800 
 24 H       -0.4650     3.8680     1.5290 H     1 <1>   0.4570 
 25 H        0.4280     6.0170     0.8590 H     1 <1>   0.4000 
 26 H        1.5450     4.0780    -2.1500 H     1 <1>   0.1500 
 27 H        1.0170     0.4970    -2.5910 H     1 <1>   0.4000 
 28 H        1.7000     1.8700    -3.3650 H     1 <1>   0.4000 
 29 H        0.9880     6.2370    -2.0360 H     1 <1>   0.0800 
 30 H        3.2840     5.8170    -0.7130 H     1 <1>   0.0800 
 31 H       -0.1970     7.9830    -0.2670 H     1 <1>   0.0800 
 32 H        0.5560     8.4700    -1.7720 H     1 <1>   0.0800 
 33 H        3.8650     8.2660     0.1630 H     1 <1>   0.0800 
 34 H        2.7450     7.3310     1.1400 H     1 <1>   0.0800 
 35 H        2.1830     9.4450    -0.7700 H     1 <1>   0.4500 
 36 H        4.7940     7.5770    -3.3430 H     1 <1>   0.0800 
 37 H        4.8070     6.0620    -2.4570 H     1 <1>   0.0800 
 38 H        5.1660     7.5830    -1.6260 H     1 <1>   0.0800 
 39 H        0.9200     8.9340     1.8340 H     1 <1>   0.0800 
 40 H        0.6650    11.2140    -0.1630 H     1 <1>   0.0800 
 41 H        0.0050    11.2110     1.4450 H     1 <1>   0.0800 
 42 H       -0.6080    10.0880     0.2830 H     1 <1>   0.0800 
 43 H        3.0140    10.9450     0.9320 H     1 <1>   0.0800 
 44 H        3.2560     9.6530     2.0990 H     1 <1>   0.0800 
 45 H        2.1990    10.9700     2.4670 H     1 <1>   0.0800 
@<TRIPOS>BOND
  1   1   2  1   
  2   1   3  1   
  3   2   4  ar  
  4   2   5  ar  
  5   3  21  1   
  6   3  22  1   
  7   3  23  1   
  8   4   6  ar  
  9   4  24  1   
 10   5   7  ar  
 11   6   8  1   
 12   6   9  ar  
 13   7   9  ar  
 14   7  10  1   
 15   8  11  1   
 16   8  25  1   
 17   9  26  1   
 18  10  27  1   
 19  10  28  1   
 20  11  12  1   
 21  11  13  1   
 22  11  29  1   
 23  12  14  1   
 24  12  15  1   
 25  12  30  1   
 26  13  16  1   
 27  13  31  1   
 28  13  32  1   
 29  14  17  1   
 30  15  16  1   
 31  15  33  1   
 32  15  34  1   
 33  16  18  1   
 34  16  35  1   
 35  17  36  1   
 36  17  37  1   
 37  17  38  1   
 38  18  19  1   
 39  18  20  1   
 40  18  39  1   
 41  19  40  1   
 42  19  41  1   
 43  19  42  1   
 44  20  43  1   
 45  20  44  1   
 46  20  45  1   
@<TRIPOS>SUBSTRUCTURE
  1 ****   8 GROUP 4 **** **** 0

# MOE 2024.06 (io_trps.svl 2023.06)
