@<TRIPOS>MOLECULE
NONAME
53 56 1 0 0 
SMALL
USER_CHARGES


@<TRIPOS>ATOM
  1 O       -0.5100     1.1080    -1.1040 O.2   1 <1>  -0.5700 
  2 C       -0.4780     2.2790    -0.8110 C.2   1 <1>   0.5690 
  3 N       -1.4860     2.9250    -0.1380 N.am  1 <1>  -0.6600 
  4 C        0.7560     3.0730    -1.2290 C.3   1 <1>   0.1810 
  5 C       -1.3790     4.3910     0.1770 C.3   1 <1>   0.3640 
  6 C       -2.6950     2.2550     0.4190 C.3   1 <1>   0.2200 
  7 O        1.0360     4.1140    -0.3300 O.3   1 <1>  -0.5600 
  8 C       -2.5110     5.1400    -0.5300 C.ar  1 <1>  -0.1440 
  9 C       -0.0190     5.0500    -0.1890 C.3   1 <1>   0.2610 
 10 C       -2.2920     1.2530     1.4990 C.3   1 <1>  -0.2400 
 11 C       -3.5310     1.6040    -0.6840 C.3   1 <1>  -0.2400 
 12 C       -2.7690     4.9410    -1.8810 C.ar  1 <1>  -0.1500 
 13 C       -3.2970     6.0400     0.1770 C.ar  1 <1>  -0.1500 
 14 C        0.3550     6.1090     0.8590 C.2   1 <1>   0.5690 
 15 C       -3.7910     5.6280    -2.5120 C.ar  1 <1>  -0.1500 
 16 C       -4.3190     6.7280    -0.4530 C.ar  1 <1>  -0.1500 
 17 O       -0.4590     6.9320     1.2090 O.2   1 <1>  -0.5700 
 18 N        1.6120     6.1210     1.3650 N.am  1 <1>  -0.7300 
 19 C       -4.5670     6.5230    -1.7980 C.ar  1 <1>  -0.1500 
 20 C        2.1590     7.1210     2.3050 C.3   1 <1>   0.3200 
 21 C        2.9030     8.1930     1.5360 C.2   1 <1>   0.0060 
 22 N        4.1880     8.3410     1.5070 N.2   1 <1>  -0.3380 
 23 N        2.3010     9.1210     0.7940 N.pl3 1 <1>   0.0480 
 24 N        4.4450     9.3980     0.7240 N.2   1 <1>  -0.3380 
 25 C        3.3010     9.8290     0.3240 C.2   1 <1>   0.0060 
 26 C        0.9870     9.5920     0.3550 C.3   1 <1>   0.0960 
 27 C        2.8450    10.9600    -0.5540 C.3   1 <1>   0.0200 
 28 C        1.3110    10.9160    -0.3720 C.3   1 <1>  -0.1600 
 29 H        0.6120     3.4860    -2.2100 H     1 <1>   0.0800 
 30 H        1.6090     2.4180    -1.2470 H     1 <1>   0.0800 
 31 H       -1.5140     4.4940     1.2410 H     1 <1>   0.0800 
 32 H       -3.3170     3.0010     0.8870 H     1 <1>   0.0800 
 33 H       -0.1170     5.5560    -1.1320 H     1 <1>   0.0800 
 34 H       -1.7300     0.4390     1.0770 H     1 <1>   0.0800 
 35 H       -3.1710     0.8460     1.9640 H     1 <1>   0.0800 
 36 H       -1.7010     1.7380     2.2540 H     1 <1>   0.0800 
 37 H       -3.0050     0.7870    -1.1420 H     1 <1>   0.0800 
 38 H       -3.7860     2.3280    -1.4350 H     1 <1>   0.0800 
 39 H       -4.4430     1.2190    -0.2660 H     1 <1>   0.0800 
 40 H       -2.1800     4.2430    -2.4500 H     1 <1>   0.1500 
 41 H       -3.1130     6.2190     1.2230 H     1 <1>   0.1500 
 42 H       -3.9850     5.4650    -3.5580 H     1 <1>   0.1500 
 43 H       -4.9220     7.4240     0.1050 H     1 <1>   0.1500 
 44 H        2.2900     5.4550     0.9780 H     1 <1>   0.3700 
 45 H       -5.3640     7.0570    -2.2870 H     1 <1>   0.1500 
 46 H        1.3630     7.5700     2.8730 H     1 <1>   0.0800 
 47 H        2.8330     6.6360     2.9890 H     1 <1>   0.0800 
 48 H        0.5630     8.8700    -0.3190 H     1 <1>   0.0800 
 49 H        0.3410     9.7370     1.2020 H     1 <1>   0.0800 
 50 H        3.2650    11.8950    -0.2280 H     1 <1>   0.0800 
 51 H        3.1260    10.7620    -1.5730 H     1 <1>   0.0800 
 52 H        0.7970    10.9770    -1.3150 H     1 <1>   0.0800 
 53 H        0.9960    11.7410     0.2430 H     1 <1>   0.0800 
@<TRIPOS>BOND
  1   1   2  2   
  2   2   3  am  
  3   2   4  1   
  4   3   5  1   
  5   3   6  1   
  6   4   7  1   
  7   4  29  1   
  8   4  30  1   
  9   5   8  1   
 10   5   9  1   
 11   5  31  1   
 12   6  10  1   
 13   6  11  1   
 14   6  32  1   
 15   7   9  1   
 16   8  12  ar  
 17   8  13  ar  
 18   9  14  1   
 19   9  33  1   
 20  10  34  1   
 21  10  35  1   
 22  10  36  1   
 23  11  37  1   
 24  11  38  1   
 25  11  39  1   
 26  12  15  ar  
 27  12  40  1   
 28  13  16  ar  
 29  13  41  1   
 30  14  17  2   
 31  14  18  am  
 32  15  19  ar  
 33  15  42  1   
 34  16  19  ar  
 35  16  43  1   
 36  18  20  1   
 37  18  44  1   
 38  19  45  1   
 39  20  21  1   
 40  20  46  1   
 41  20  47  1   
 42  21  22  2   
 43  21  23  1   
 44  22  24  1   
 45  23  25  1   
 46  23  26  1   
 47  24  25  2   
 48  25  27  1   
 49  26  28  1   
 50  26  48  1   
 51  26  49  1   
 52  27  28  1   
 53  27  50  1   
 54  27  51  1   
 55  28  52  1   
 56  28  53  1   
@<TRIPOS>SUBSTRUCTURE
  1 ****   9 GROUP 4 **** **** 0

# MOE 2024.06 (io_trps.svl 2023.06)
