@<TRIPOS>MOLECULE
NONAME
48 49 1 0 0 
SMALL
USER_CHARGES


@<TRIPOS>ATOM
  1 S        0.1930     0.1080     1.0050 S.o2  1 <1>   1.3330 
  2 O        1.1900     0.4010     2.0100 O.2   1 <1>  -0.6500 
  3 O       -1.2060     0.1090     1.3670 O.2   1 <1>  -0.6500 
  4 N        0.5690    -1.4000     0.3230 N.am  1 <1>  -0.8490 
  5 C        0.4000     1.2350    -0.3710 C.3   1 <1>  -0.0550 
  6 C        2.0090    -1.6750     0.2720 C.3   1 <1>   0.1160 
  7 C       -0.1260    -2.5020     0.9960 C.3   1 <1>   0.1160 
  8 C        0.0570     2.6910    -0.0160 C.3   1 <1>  -0.0800 
  9 C        0.1650     3.6130    -1.2220 C.3   1 <1>   0.2000 
 10 C        0.9950     3.3200     1.0180 C.3   1 <1>   0.2090 
 11 O       -1.0000     3.5510    -1.9750 O.3   1 <1>  -0.6800 
 12 C        0.4060     4.9990    -0.6340 C.3   1 <1>   0.2090 
 13 N        1.1290     4.7560     0.6460 N.pl3 1 <1>  -0.8380 
 14 C        2.3950     5.2990     0.7500 C.ar  1 <1>   0.4100 
 15 N        3.2760     4.8480    -0.1380 N.ar  1 <1>  -0.6200 
 16 C        2.6940     6.2530     1.7300 C.ar  1 <1>   0.0730 
 17 C        4.4990     5.3470    -0.0760 C.ar  1 <1>   0.1670 
 18 C        1.6970     6.6930     2.6560 C.1   1 <1>   0.4840 
 19 C        3.9770     6.7640     1.7780 C.ar  1 <1>  -0.1500 
 20 C        4.8890     6.2980     0.8550 C.ar  1 <1>  -0.1500 
 21 C        5.4990     4.8190    -1.1080 C.3   1 <1>   0.0630 
 22 N        0.9430     7.0870     3.4180 N.1   1 <1>  -0.5570 
 23 C        6.7030     4.1430    -0.4370 C.3   1 <1>  -0.2400 
 24 C        5.9620     5.9310    -2.0580 C.3   1 <1>  -0.2400 
 25 H        1.4110     1.1880    -0.7260 H     1 <1>   0.0800 
 26 H       -0.2410     0.9190    -1.1710 H     1 <1>   0.0800 
 27 H        2.1900    -2.6000    -0.2490 H     1 <1>   0.0800 
 28 H        2.4140    -1.7490     1.2680 H     1 <1>   0.0800 
 29 H        2.5200    -0.8860    -0.2510 H     1 <1>   0.0800 
 30 H        0.1200    -3.4400     0.5290 H     1 <1>   0.0800 
 31 H       -1.1920    -2.3620     0.9260 H     1 <1>   0.0800 
 32 H        0.1500    -2.5390     2.0370 H     1 <1>   0.0800 
 33 H       -0.9420     2.7400     0.3850 H     1 <1>   0.0800 
 34 H        0.9960     3.3440    -1.8520 H     1 <1>   0.0800 
 35 H        1.9620     2.8450     0.9940 H     1 <1>   0.0800 
 36 H        0.5900     3.2280     2.0130 H     1 <1>   0.0800 
 37 H       -1.7760     3.7630    -1.4200 H     1 <1>   0.4000 
 38 H       -0.5260     5.4910    -0.4170 H     1 <1>   0.0800 
 39 H        0.9910     5.6020    -1.3070 H     1 <1>   0.0800 
 40 H        4.2580     7.5010     2.5110 H     1 <1>   0.1500 
 41 H        5.8960     6.6740     0.8600 H     1 <1>   0.1500 
 42 H        4.9980     4.0720    -1.7010 H     1 <1>   0.0800 
 43 H        7.2820     4.8530     0.1250 H     1 <1>   0.0800 
 44 H        7.3380     3.6950    -1.1810 H     1 <1>   0.0800 
 45 H        6.3620     3.3710     0.2290 H     1 <1>   0.0800 
 46 H        6.5070     6.6900    -1.5270 H     1 <1>   0.0800 
 47 H        5.1080     6.3870    -2.5280 H     1 <1>   0.0800 
 48 H        6.5960     5.5240    -2.8260 H     1 <1>   0.0800 
@<TRIPOS>BOND
  1   1   2  2   
  2   1   3  2   
  3   1   4  am  
  4   1   5  1   
  5   4   6  1   
  6   4   7  1   
  7   5   8  1   
  8   5  25  1   
  9   5  26  1   
 10   6  27  1   
 11   6  28  1   
 12   6  29  1   
 13   7  30  1   
 14   7  31  1   
 15   7  32  1   
 16   8   9  1   
 17   8  10  1   
 18   8  33  1   
 19   9  11  1   
 20   9  12  1   
 21   9  34  1   
 22  10  13  1   
 23  10  35  1   
 24  10  36  1   
 25  11  37  1   
 26  12  13  1   
 27  12  38  1   
 28  12  39  1   
 29  13  14  1   
 30  14  15  ar  
 31  14  16  ar  
 32  15  17  ar  
 33  16  18  1   
 34  16  19  ar  
 35  17  20  ar  
 36  17  21  1   
 37  18  22  3   
 38  19  20  ar  
 39  19  40  1   
 40  20  41  1   
 41  21  23  1   
 42  21  24  1   
 43  21  42  1   
 44  23  43  1   
 45  23  44  1   
 46  23  45  1   
 47  24  46  1   
 48  24  47  1   
 49  24  48  1   
@<TRIPOS>SUBSTRUCTURE
  1 ****  10 GROUP 4 **** **** 0

# MOE 2024.06 (io_trps.svl 2023.06)
