@<TRIPOS>MOLECULE
NONAME
49 51 1 0 0 
SMALL
USER_CHARGES


@<TRIPOS>ATOM
  1 O       -0.6550     0.2050     0.2520 O.2   1 <1>  -0.5700 
  2 C       -1.4730     1.0840     0.4750 C.2   1 <1>   0.6300 
  3 N       -2.7630     0.7020     0.8100 N.am  1 <1>  -0.6600 
  4 C       -1.0830     2.4730     0.3690 C.2   1 <1>   0.4500 
  5 C       -3.1850    -0.7330     0.8050 C.3   1 <1>   0.1400 
  6 C       -3.8710     1.6720     1.0330 C.3   1 <1>   0.1400 
  7 N       -0.8630     3.2310     1.4260 N.2   1 <1>  -0.6210 
  8 C       -0.9800     2.9720    -0.9830 C.2   1 <1>   0.6300 
  9 C       -3.8660    -1.1290    -0.5160 C.3   1 <1>   0.1400 
 10 C       -4.4810     2.1560    -0.2910 C.3   1 <1>  -0.1600 
 11 C       -0.4700     4.5150     1.1890 C.2   1 <1>   0.0210 
 12 O       -1.2850     2.3540    -1.9950 O.2   1 <1>  -0.5700 
 13 N       -0.5650     4.2640    -1.1580 N.am  1 <1>  -0.5390 
 14 N       -5.0020    -0.2160    -0.8600 N.am  1 <1>  -0.6600 
 15 C       -4.5720     1.1010    -1.4030 C.3   1 <1>   0.1400 
 16 C       -0.3130     5.0410    -0.0570 C.2   1 <1>  -0.0410 
 17 C       -6.3380    -0.5300    -0.7500 C.2   1 <1>   0.5690 
 18 O       -7.1930     0.2840    -1.0190 O.2   1 <1>  -0.5700 
 19 C       -6.8100    -1.8890    -0.2220 C.3   1 <1>   0.1810 
 20 O       -6.4070    -2.9610    -1.0460 O.3   1 <1>  -0.5600 
 21 C       -6.7920    -4.2280    -0.6020 C.3   1 <1>   0.2640 
 22 C       -8.3090    -4.3680    -0.5910 C.ar  1 <1>  -0.1440 
 23 C       -8.9630    -4.8440     0.5360 C.ar  1 <1>  -0.1500 
 24 C       -9.0520    -4.0200    -1.7090 C.ar  1 <1>  -0.1500 
 25 C      -10.3420    -4.9680     0.5450 C.ar  1 <1>  -0.1500 
 26 C      -10.4300    -4.1430    -1.7020 C.ar  1 <1>  -0.1500 
 27 C      -11.0760    -4.6170    -0.5740 C.ar  1 <1>  -0.1500 
 28 H       -3.8610    -0.9120     1.6220 H     1 <1>   0.0800 
 29 H       -2.3300    -1.3690     0.9580 H     1 <1>   0.0800 
 30 H       -3.5210     2.5130     1.6080 H     1 <1>   0.0800 
 31 H       -4.6420     1.1910     1.6120 H     1 <1>   0.0800 
 32 H       -4.2020    -2.1450    -0.4410 H     1 <1>   0.0800 
 33 H       -3.1350    -1.1010    -1.3060 H     1 <1>   0.0800 
 34 H       -3.9180     2.9920    -0.6620 H     1 <1>   0.0800 
 35 H       -5.4730     2.5210    -0.0910 H     1 <1>   0.0800 
 36 H       -0.2780     5.1150     2.0650 H     1 <1>   0.1500 
 37 H       -0.4780     4.5860    -2.1240 H     1 <1>   0.3700 
 38 H       -3.6120     0.9950    -1.8800 H     1 <1>   0.0800 
 39 H       -5.2690     1.4300    -2.1560 H     1 <1>   0.0800 
 40 H        0.0050     6.0590    -0.2150 H     1 <1>   0.1500 
 41 H       -7.8840    -1.8770    -0.1730 H     1 <1>   0.0800 
 42 H       -6.4140    -2.0420     0.7640 H     1 <1>   0.0800 
 43 H       -6.3760    -4.3890     0.3770 H     1 <1>   0.0800 
 44 H       -6.3690    -4.9480    -1.2800 H     1 <1>   0.0800 
 45 H       -8.4050    -5.1210     1.4140 H     1 <1>   0.1500 
 46 H       -8.5540    -3.6450    -2.5870 H     1 <1>   0.1500 
 47 H      -10.8440    -5.3370     1.4220 H     1 <1>   0.1500 
 48 H      -10.9980    -3.8670    -2.5730 H     1 <1>   0.1500 
 49 H      -12.1480    -4.7110    -0.5670 H     1 <1>   0.1500 
@<TRIPOS>BOND
  1   1   2  2   
  2   2   3  am  
  3   2   4  1   
  4   3   5  1   
  5   3   6  1   
  6   4   7  2   
  7   4   8  1   
  8   5   9  1   
  9   5  28  1   
 10   5  29  1   
 11   6  10  1   
 12   6  30  1   
 13   6  31  1   
 14   7  11  1   
 15   8  12  2   
 16   8  13  am  
 17   9  14  1   
 18   9  32  1   
 19   9  33  1   
 20  10  15  1   
 21  10  34  1   
 22  10  35  1   
 23  11  16  2   
 24  11  36  1   
 25  13  16  1   
 26  13  37  1   
 27  14  15  1   
 28  14  17  am  
 29  15  38  1   
 30  15  39  1   
 31  16  40  1   
 32  17  18  2   
 33  17  19  1   
 34  19  20  1   
 35  19  41  1   
 36  19  42  1   
 37  20  21  1   
 38  21  22  1   
 39  21  43  1   
 40  21  44  1   
 41  22  23  ar  
 42  22  24  ar  
 43  23  25  ar  
 44  23  45  1   
 45  24  26  ar  
 46  24  46  1   
 47  25  27  ar  
 48  25  47  1   
 49  26  27  ar  
 50  26  48  1   
 51  27  49  1   
@<TRIPOS>SUBSTRUCTURE
  1 ****  14 GROUP 4 **** **** 0

# MOE 2024.06 (io_trps.svl 2023.06)
