@<TRIPOS>MOLECULE
NONAME
44 45 1 0 0 
SMALL
USER_CHARGES


@<TRIPOS>ATOM
  1 CL      -1.9230    -0.9740     1.7850 Cl    1 <1>  -0.1770 
  2 C       -2.2660     0.2230     0.5520 C.ar  1 <1>   0.1770 
  3 C       -1.5200     1.3910     0.5590 C.ar  1 <1>   0.1770 
  4 C       -3.2490     0.0010    -0.4190 C.ar  1 <1>   0.0860 
  5 CL      -0.3060     1.6660     1.7860 Cl    1 <1>  -0.1770 
  6 C       -1.7100     2.3660    -0.4000 C.ar  1 <1>  -0.1500 
  7 C       -4.0890    -1.1840    -0.4730 C.2   1 <1>   0.5440 
  8 C       -3.4110     0.9980    -1.3880 C.ar  1 <1>  -0.1500 
  9 C       -2.6620     2.1620    -1.3820 C.ar  1 <1>  -0.1500 
 10 O       -4.4890    -1.6100    -1.5380 O.2   1 <1>  -0.5700 
 11 N       -4.5820    -1.8090     0.6360 N.am  1 <1>  -0.6600 
 12 C       -4.2010    -3.2280     0.9160 C.3   1 <1>   0.3210 
 13 C       -5.5740    -1.1550     1.5420 C.3   1 <1>   0.1400 
 14 C       -5.2890    -4.2330     0.5400 C.2   1 <1>   0.0460 
 15 C       -7.0260    -1.4890     1.1360 C.3   1 <1>   0.3430 
 16 N       -6.3040    -4.5180     1.3850 N.2   1 <1>  -0.5650 
 17 C       -5.3750    -4.9870    -0.5810 C.2   1 <1>  -0.3320 
 18 N       -7.1780    -1.5440    -0.3540 N.4   1 <1>  -0.9590 
 19 C       -6.9510    -5.4660     0.7860 C.2   1 <1>   0.0360 
 20 N       -6.4410    -5.7930    -0.4180 N.pl3 1 <1>   0.0330 
 21 C       -4.4940    -5.0360    -1.8200 C.3   1 <1>  -0.0600 
 22 C       -7.3780    -0.2110    -0.9860 C.3   1 <1>   0.2630 
 23 C       -8.2270    -2.5200    -0.7530 C.3   1 <1>   0.2630 
 24 H       -1.1190     3.2660    -0.3780 H     1 <1>   0.1500 
 25 H       -4.1360     0.8540    -2.1710 H     1 <1>   0.1500 
 26 H       -2.8130     2.9090    -2.1450 H     1 <1>   0.1500 
 27 H       -3.9670    -3.3390     1.9610 H     1 <1>   0.0800 
 28 H       -3.3090    -3.4650     0.3640 H     1 <1>   0.0800 
 29 H       -5.4390    -0.0890     1.5070 H     1 <1>   0.0800 
 30 H       -5.4040    -1.4710     2.5570 H     1 <1>   0.0800 
 31 H       -7.7050    -0.7700     1.5610 H     1 <1>   0.0800 
 32 H       -7.2740    -2.4480     1.5550 H     1 <1>   0.0800 
 33 H       -6.2610    -1.9230    -0.6930 H     1 <1>   0.4500 
 34 H       -7.8140    -5.9650     1.1940 H     1 <1>   0.1500 
 35 H       -6.7720    -6.5270    -1.0540 H     1 <1>   0.2700 
 36 H       -3.7150    -4.2970    -1.7660 H     1 <1>   0.0800 
 37 H       -5.0790    -4.8400    -2.7010 H     1 <1>   0.0800 
 38 H       -4.0370    -6.0050    -1.9130 H     1 <1>   0.0800 
 39 H       -8.3090     0.2240    -0.6620 H     1 <1>   0.0800 
 40 H       -7.3950    -0.3120    -2.0590 H     1 <1>   0.0800 
 41 H       -6.5700     0.4500    -0.7200 H     1 <1>   0.0800 
 42 H       -9.1950    -2.1930    -0.4120 H     1 <1>   0.0800 
 43 H       -8.0130    -3.4830    -0.3220 H     1 <1>   0.0800 
 44 H       -8.2480    -2.6230    -1.8260 H     1 <1>   0.0800 
@<TRIPOS>BOND
  1   1   2  1   
  2   2   3  ar  
  3   2   4  ar  
  4   3   5  1   
  5   3   6  ar  
  6   4   7  1   
  7   4   8  ar  
  8   6   9  ar  
  9   6  24  1   
 10   7  10  2   
 11   7  11  am  
 12   8   9  ar  
 13   8  25  1   
 14   9  26  1   
 15  11  12  1   
 16  11  13  1   
 17  12  14  1   
 18  12  27  1   
 19  12  28  1   
 20  13  15  1   
 21  13  29  1   
 22  13  30  1   
 23  14  16  1   
 24  14  17  2   
 25  15  18  1   
 26  15  31  1   
 27  15  32  1   
 28  16  19  2   
 29  17  20  1   
 30  17  21  1   
 31  18  22  1   
 32  18  23  1   
 33  18  33  1   
 34  19  20  1   
 35  19  34  1   
 36  20  35  1   
 37  21  36  1   
 38  21  37  1   
 39  21  38  1   
 40  22  39  1   
 41  22  40  1   
 42  22  41  1   
 43  23  42  1   
 44  23  43  1   
 45  23  44  1   
@<TRIPOS>SUBSTRUCTURE
  1 ****  11 GROUP 4 **** **** 0

# MOE 2024.06 (io_trps.svl 2023.06)
