@<TRIPOS>MOLECULE
NONAME
46 49 1 0 0 
SMALL
USER_CHARGES


@<TRIPOS>ATOM
  1 O       -0.0920    -0.0780    -0.8390 O.3   1 <1>  -0.0190 
  2 N        0.3190     0.9660    -0.1950 N.2   1 <1>  -0.4100 
  3 C        0.8700    -0.9250    -1.0680 C.2   1 <1>  -0.0400 
  4 C        1.5950     0.8170    -0.0020 C.2   1 <1>   0.2350 
  5 C        1.9950    -0.4090    -0.5530 C.2   1 <1>  -0.1500 
  6 C        0.5640    -2.2160    -1.7980 C.3   1 <1>   0.5230 
  7 C        2.4450     1.7750     0.6810 C.ar  1 <1>   0.0540 
  8 N       -0.4190    -3.0080    -1.0030 N.4   1 <1>  -0.9590 
  9 C        3.8320     1.7060     0.6850 C.ar  1 <1>  -0.1500 
 10 C        1.9210     2.8480     1.3880 C.ar  1 <1>  -0.1500 
 11 C       -0.1790    -4.4830    -1.0380 C.3   1 <1>   0.5660 
 12 C       -1.8240    -2.6070    -1.3460 C.3   1 <1>   0.2630 
 13 C        4.5800     2.6520     1.3610 C.ar  1 <1>   0.1600 
 14 C        2.7540     3.7430     2.0310 C.ar  1 <1>   0.1600 
 15 C       -1.3010    -5.1790    -0.2790 C.ar  1 <1>  -0.1430 
 16 C        1.1560    -4.8140    -0.3510 C.3   1 <1>  -0.1600 
 17 N        4.0750     3.6690     2.0360 N.ar  1 <1>  -0.6200 
 18 C       -1.2190    -5.3790     1.0970 C.ar  1 <1>  -0.1430 
 19 C       -2.4240    -5.6180    -0.9710 C.ar  1 <1>  -0.1500 
 20 C        1.1640    -4.3730     1.1240 C.3   1 <1>  -0.1600 
 21 C       -2.2820    -5.9710     1.7610 C.ar  1 <1>  -0.1500 
 22 C        0.0200    -5.0240     1.9190 C.3   1 <1>  -0.0170 
 23 C       -3.4760    -6.2110    -0.2980 C.ar  1 <1>  -0.1500 
 24 C       -3.4070    -6.3810     1.0710 C.ar  1 <1>  -0.1500 
 25 H        2.9930    -0.8060    -0.5400 H     1 <1>   0.1500 
 26 H        1.4820    -2.7630    -1.9250 H     1 <1>   0.0800 
 27 H        0.1660    -1.9980    -2.7760 H     1 <1>   0.0800 
 28 H       -0.2830    -2.7550    -0.0160 H     1 <1>   0.4500 
 29 H        4.3460     0.9230     0.1620 H     1 <1>   0.1500 
 30 H        0.8570     2.9900     1.4390 H     1 <1>   0.1500 
 31 H       -0.1670    -4.8360    -2.0560 H     1 <1>   0.0800 
 32 H       -2.0720    -2.9150    -2.3490 H     1 <1>   0.0800 
 33 H       -1.9420    -1.5380    -1.2720 H     1 <1>   0.0800 
 34 H       -2.5220    -3.0660    -0.6630 H     1 <1>   0.0800 
 35 H        5.6540     2.5710     1.3460 H     1 <1>   0.1500 
 36 H        2.3140     4.5640     2.5710 H     1 <1>   0.1500 
 37 H        1.9890    -4.3870    -0.8770 H     1 <1>   0.0800 
 38 H        1.2890    -5.8830    -0.3860 H     1 <1>   0.0800 
 39 H       -2.4980    -5.5030    -2.0390 H     1 <1>   0.1500 
 40 H        1.0860    -3.3030     1.2000 H     1 <1>   0.0800 
 41 H        2.1020    -4.6480     1.5780 H     1 <1>   0.0800 
 42 H       -2.2370    -6.1270     2.8260 H     1 <1>   0.1500 
 43 H        0.3900    -5.9410     2.3470 H     1 <1>   0.0800 
 44 H       -0.2590    -4.3850     2.7400 H     1 <1>   0.0800 
 45 H       -4.3470    -6.5460    -0.8350 H     1 <1>   0.1500 
 46 H       -4.2250    -6.8400     1.5990 H     1 <1>   0.1500 
@<TRIPOS>BOND
  1   1   2  1   
  2   1   3  1   
  3   2   4  2   
  4   3   5  2   
  5   3   6  1   
  6   4   5  1   
  7   4   7  1   
  8   5  25  1   
  9   6   8  1   
 10   6  26  1   
 11   6  27  1   
 12   7   9  ar  
 13   7  10  ar  
 14   8  11  1   
 15   8  12  1   
 16   8  28  1   
 17   9  13  ar  
 18   9  29  1   
 19  10  14  ar  
 20  10  30  1   
 21  11  15  1   
 22  11  16  1   
 23  11  31  1   
 24  12  32  1   
 25  12  33  1   
 26  12  34  1   
 27  13  17  ar  
 28  13  35  1   
 29  14  17  ar  
 30  14  36  1   
 31  15  18  ar  
 32  15  19  ar  
 33  16  20  1   
 34  16  37  1   
 35  16  38  1   
 36  18  21  ar  
 37  18  22  1   
 38  19  23  ar  
 39  19  39  1   
 40  20  22  1   
 41  20  40  1   
 42  20  41  1   
 43  21  24  ar  
 44  21  42  1   
 45  22  43  1   
 46  22  44  1   
 47  23  24  ar  
 48  23  45  1   
 49  24  46  1   
@<TRIPOS>SUBSTRUCTURE
  1 ****   3 GROUP 4 **** **** 0

# MOE 2024.06 (io_trps.svl 2023.06)
