@<TRIPOS>MOLECULE
NONAME
52 54 1 0 0 
SMALL
USER_CHARGES


@<TRIPOS>ATOM
  1 S       -0.8400    -0.7210    -1.4240 S.o2  1 <1>   1.4470 
  2 O       -0.7340     0.2920    -2.4530 O.2   1 <1>  -0.6500 
  3 O       -1.4270    -2.0010    -1.7580 O.2   1 <1>  -0.6500 
  4 N       -1.8000    -0.0560    -0.1930 N.am  1 <1>  -0.8490 
  5 C        0.7620    -0.9810    -0.6140 C.ar  1 <1>  -0.0090 
  6 C       -3.2310    -0.2090    -0.4890 C.3   1 <1>   0.1960 
  7 C       -1.3870     1.2990     0.2180 C.3   1 <1>   0.1960 
  8 C        1.9390    -0.4960    -1.1700 C.ar  1 <1>  -0.1500 
  9 C        0.8510    -1.6730     0.5860 C.ar  1 <1>  -0.1500 
 10 C       -4.0790     0.7080     0.3940 C.3   1 <1>  -0.1600 
 11 C       -2.3130     2.3650    -0.3690 C.3   1 <1>  -0.1600 
 12 C        3.1690    -0.6830    -0.5570 C.ar  1 <1>  -0.1430 
 13 C        2.0700    -1.8680     1.2090 C.ar  1 <1>  -0.1500 
 14 C       -3.7490     2.2000     0.1610 C.3   1 <1>   0.2800 
 15 C        3.2360    -1.3760     0.6450 C.ar  1 <1>  -0.1430 
 16 C        4.4190    -0.1230    -1.2230 C.3   1 <1>  -0.0970 
 17 O       -3.7530     2.7960     1.4370 O.3   1 <1>  -0.5600 
 18 C       -4.7410     2.8700    -0.8280 C.3   1 <1>  -0.1600 
 19 C        4.5600    -1.6100     1.3590 C.3   1 <1>  -0.0970 
 20 C       -4.6170     3.8770     1.6880 C.3   1 <1>   0.1200 
 21 C       -6.1070     3.2910    -0.2320 C.3   1 <1>   0.2800 
 22 C       -6.0440     3.4790     1.3070 C.3   1 <1>   0.2000 
 23 O       -6.3850     4.5340    -0.7700 O.3   1 <1>  -0.6800 
 24 C       -7.2660     2.4000    -0.6990 C.3   1 <1>  -0.2400 
 25 O       -6.3290     2.2980     1.9920 O.3   1 <1>  -0.6800 
 26 H       -3.4160     0.0270    -1.5250 H     1 <1>   0.0800 
 27 H       -3.5140    -1.2370    -0.3290 H     1 <1>   0.0800 
 28 H       -1.4290     1.3600     1.2930 H     1 <1>   0.0800 
 29 H       -0.3690     1.4940    -0.0760 H     1 <1>   0.0800 
 30 H        1.8850     0.0390    -2.1030 H     1 <1>   0.1500 
 31 H       -0.0460    -2.0630     1.0350 H     1 <1>   0.1500 
 32 H       -3.8880     0.4370     1.4180 H     1 <1>   0.0800 
 33 H       -5.1140     0.5110     0.1940 H     1 <1>   0.0800 
 34 H       -2.2890     2.2760    -1.4410 H     1 <1>   0.0800 
 35 H       -1.9460     3.3450    -0.1220 H     1 <1>   0.0800 
 36 H        2.1030    -2.4090     2.1390 H     1 <1>   0.1500 
 37 H        4.1760     0.3810    -2.1400 H     1 <1>   0.0800 
 38 H        5.1040    -0.9210    -1.4490 H     1 <1>   0.0800 
 39 H        4.9020     0.5800    -0.5690 H     1 <1>   0.0800 
 40 H       -4.2490     3.7460    -1.2140 H     1 <1>   0.0800 
 41 H       -4.8890     2.2160    -1.6680 H     1 <1>   0.0800 
 42 H        4.4150    -2.1610     2.2700 H     1 <1>   0.0800 
 43 H        5.0180    -0.6690     1.6030 H     1 <1>   0.0800 
 44 H        5.2240    -2.1710     0.7270 H     1 <1>   0.0800 
 45 H       -4.5610     4.1180     2.7350 H     1 <1>   0.0800 
 46 H       -4.2870     4.7300     1.1190 H     1 <1>   0.0800 
 47 H       -6.7620     4.2170     1.6210 H     1 <1>   0.0800 
 48 H       -6.5940     4.4400    -1.7180 H     1 <1>   0.4000 
 49 H       -7.1380     1.3950    -0.3420 H     1 <1>   0.0800 
 50 H       -7.3250     2.3670    -1.7710 H     1 <1>   0.0800 
 51 H       -8.1950     2.7690    -0.3010 H     1 <1>   0.0800 
 52 H       -5.4740     1.8300     2.1090 H     1 <1>   0.4000 
@<TRIPOS>BOND
  1   1   2  2   
  2   1   3  2   
  3   1   4  am  
  4   1   5  1   
  5   4   6  1   
  6   4   7  1   
  7   5   8  ar  
  8   5   9  ar  
  9   6  10  1   
 10   6  26  1   
 11   6  27  1   
 12   7  11  1   
 13   7  28  1   
 14   7  29  1   
 15   8  12  ar  
 16   8  30  1   
 17   9  13  ar  
 18   9  31  1   
 19  10  14  1   
 20  10  32  1   
 21  10  33  1   
 22  11  14  1   
 23  11  34  1   
 24  11  35  1   
 25  12  15  ar  
 26  12  16  1   
 27  13  15  ar  
 28  13  36  1   
 29  14  17  1   
 30  14  18  1   
 31  15  19  1   
 32  16  37  1   
 33  16  38  1   
 34  16  39  1   
 35  17  20  1   
 36  18  21  1   
 37  18  40  1   
 38  18  41  1   
 39  19  42  1   
 40  19  43  1   
 41  19  44  1   
 42  20  22  1   
 43  20  45  1   
 44  20  46  1   
 45  21  22  1   
 46  21  23  1   
 47  21  24  1   
 48  22  25  1   
 49  22  47  1   
 50  23  48  1   
 51  24  49  1   
 52  24  50  1   
 53  24  51  1   
 54  25  52  1   
@<TRIPOS>SUBSTRUCTURE
  1 ****   7 GROUP 4 **** **** 0

# MOE 2024.06 (io_trps.svl 2023.06)
