@<TRIPOS>MOLECULE
NONAME
53 55 1 0 0 
SMALL
USER_CHARGES


@<TRIPOS>ATOM
  1 O        1.0620    -3.1710    -2.2690 O.2   1 <1>  -0.5700 
  2 C        1.4640    -2.8300    -1.1730 C.2   1 <1>   0.5440 
  3 N        2.2310    -1.6920    -1.0710 N.am  1 <1>  -0.6600 
  4 C        1.1190    -3.6200    -0.0090 C.ar  1 <1>   0.0860 
  5 C        2.4520    -0.9270     0.1770 C.3   1 <1>   0.1400 
  6 C        2.5950    -0.8830    -2.2560 C.3   1 <1>   0.1400 
  7 C       -0.1790    -4.0190     0.2470 C.ar  1 <1>  -0.1500 
  8 C        2.0570    -4.0400     0.9240 C.ar  1 <1>  -0.1500 
  9 C        2.6840     0.5070    -0.2850 C.3   1 <1>  -0.1600 
 10 C        3.2580     0.3680    -1.6920 C.3   1 <1>  -0.1600 
 11 C       -0.4870    -4.7680     1.3740 C.ar  1 <1>   0.4100 
 12 C        1.6610    -4.7840     2.0170 C.ar  1 <1>   0.1600 
 13 N        0.4170    -5.1510     2.2650 N.ar  1 <1>  -0.6200 
 14 N       -1.7900    -5.1350     1.6000 N.pl3 1 <1>  -0.8690 
 15 C       -2.1370    -6.2420     2.5100 C.3   1 <1>   0.3530 
 16 C       -3.4660    -6.8180     2.0540 C.ar  1 <1>  -0.1430 
 17 C       -3.4990    -7.8500     1.1290 C.ar  1 <1>  -0.1500 
 18 C       -4.6550    -6.3090     2.5550 C.ar  1 <1>  -0.1500 
 19 C       -4.7160    -8.3810     0.7080 C.ar  1 <1>   0.0820 
 20 C       -5.8670    -6.8330     2.1410 C.ar  1 <1>  -0.1500 
 21 O       -4.8420    -9.3900    -0.1930 O.3   1 <1>  -0.3620 
 22 C       -5.8940    -7.8660     1.2220 C.ar  1 <1>  -0.1500 
 23 C       -3.7430   -10.0190    -0.8170 C.3   1 <1>   0.2000 
 24 C       -4.2690   -10.6360    -2.1210 C.3   1 <1>  -0.1600 
 25 C       -3.1770   -11.0690     0.1470 C.3   1 <1>  -0.2400 
 26 C       -3.1660   -11.2470    -2.9970 C.3   1 <1>  -0.2400 
 27 H        3.3310    -1.3040     0.6700 H     1 <1>   0.0800 
 28 H        1.6020    -0.9960     0.8350 H     1 <1>   0.0800 
 29 H        1.6980    -0.6270    -2.7960 H     1 <1>   0.0800 
 30 H        3.2580    -1.4330    -2.9030 H     1 <1>   0.0800 
 31 H       -0.9600    -3.7440    -0.4350 H     1 <1>   0.1500 
 32 H        3.0930    -3.7880     0.7880 H     1 <1>   0.1500 
 33 H        3.3420     1.0400     0.3780 H     1 <1>   0.0800 
 34 H        1.7370     1.0180    -0.3260 H     1 <1>   0.0800 
 35 H        3.0640     1.2320    -2.3020 H     1 <1>   0.0800 
 36 H        4.3200     0.2060    -1.6400 H     1 <1>   0.0800 
 37 H        2.4060    -5.0960     2.7290 H     1 <1>   0.1500 
 38 H       -2.4240    -5.0940     0.8010 H     1 <1>   0.4000 
 39 H       -2.2080    -5.8680     3.5170 H     1 <1>   0.0800 
 40 H       -1.3750    -7.0020     2.4810 H     1 <1>   0.0800 
 41 H       -2.5690    -8.2270     0.7480 H     1 <1>   0.1500 
 42 H       -4.6390    -5.5010     3.2660 H     1 <1>   0.1500 
 43 H       -6.7880    -6.4370     2.5330 H     1 <1>   0.1500 
 44 H       -6.8310    -8.2790     0.8950 H     1 <1>   0.1500 
 45 H       -3.0100    -9.2700    -1.0590 H     1 <1>   0.0800 
 46 H       -4.7590    -9.8620    -2.6860 H     1 <1>   0.0800 
 47 H       -4.9990   -11.3920    -1.8900 H     1 <1>   0.0800 
 48 H       -3.9100   -11.8330     0.3330 H     1 <1>   0.0800 
 49 H       -2.9000   -10.6160     1.0810 H     1 <1>   0.0800 
 50 H       -2.3010   -11.5270    -0.2720 H     1 <1>   0.0800 
 51 H       -2.4070   -10.5150    -3.2120 H     1 <1>   0.0800 
 52 H       -3.5870   -11.5850    -3.9280 H     1 <1>   0.0800 
 53 H       -2.7110   -12.0910    -2.5110 H     1 <1>   0.0800 
@<TRIPOS>BOND
  1   1   2  2   
  2   2   3  am  
  3   2   4  1   
  4   3   5  1   
  5   3   6  1   
  6   4   7  ar  
  7   4   8  ar  
  8   5   9  1   
  9   5  27  1   
 10   5  28  1   
 11   6  10  1   
 12   6  29  1   
 13   6  30  1   
 14   7  11  ar  
 15   7  31  1   
 16   8  12  ar  
 17   8  32  1   
 18   9  10  1   
 19   9  33  1   
 20   9  34  1   
 21  10  35  1   
 22  10  36  1   
 23  11  13  ar  
 24  11  14  1   
 25  12  13  ar  
 26  12  37  1   
 27  14  15  1   
 28  14  38  1   
 29  15  16  1   
 30  15  39  1   
 31  15  40  1   
 32  16  17  ar  
 33  16  18  ar  
 34  17  19  ar  
 35  17  41  1   
 36  18  20  ar  
 37  18  42  1   
 38  19  21  1   
 39  19  22  ar  
 40  20  22  ar  
 41  20  43  1   
 42  21  23  1   
 43  22  44  1   
 44  23  24  1   
 45  23  25  1   
 46  23  45  1   
 47  24  26  1   
 48  24  46  1   
 49  24  47  1   
 50  25  48  1   
 51  25  49  1   
 52  25  50  1   
 53  26  51  1   
 54  26  52  1   
 55  26  53  1   
@<TRIPOS>SUBSTRUCTURE
  1 ****  11 GROUP 4 **** **** 0

# MOE 2024.06 (io_trps.svl 2023.06)
