@<TRIPOS>MOLECULE
NONAME
59 62 1 0 0 
SMALL
USER_CHARGES


@<TRIPOS>ATOM
  1 O       -0.6370     0.0970    -0.8040 O.2   1 <1>  -0.5700 
  2 C       -1.4850     0.6910    -0.1760 C.2   1 <1>   0.5690 
  3 N       -2.5650    -0.0040     0.3120 N.am  1 <1>  -0.6600 
  4 C       -1.2520     2.2100     0.0740 C.3   1 <1>   0.2040 
  5 C       -3.6560     0.4670     1.2100 C.3   1 <1>   0.1400 
  6 C       -2.7830    -1.4430    -0.0080 C.3   1 <1>   0.1400 
  7 C       -2.5820     3.0060    -0.0060 C.ar  1 <1>  -0.1440 
  8 C       -0.2960     2.7880    -1.0060 C.3   1 <1>  -0.1600 
  9 C       -0.5090     2.3620     1.4250 C.3   1 <1>  -0.1600 
 10 C       -4.1910    -0.8060     1.8580 C.3   1 <1>   0.2000 
 11 C       -4.0550    -1.8480     0.7460 C.3   1 <1>  -0.0800 
 12 C       -3.1330     3.7230     1.0560 C.ar  1 <1>  -0.1500 
 13 C       -3.2890     2.9890    -1.2050 C.ar  1 <1>  -0.1500 
 14 C        0.0660     4.2370    -0.7180 C.3   1 <1>   0.3430 
 15 C       -0.0020     3.7840     1.7010 C.3   1 <1>   0.3430 
 16 O       -3.3470    -1.1320     2.9100 O.3   1 <1>  -0.6800 
 17 C       -4.0670    -3.3180     1.2060 C.3   1 <1>   0.0210 
 18 C       -4.3160     4.4250     0.9090 C.ar  1 <1>  -0.1500 
 19 C       -4.4730     3.6890    -1.3550 C.ar  1 <1>  -0.1500 
 20 N        0.8210     4.2850     0.5650 N.4   1 <1>  -0.9590 
 21 C       -3.9160    -4.2540     0.0240 C.2   1 <1>   0.1080 
 22 C       -4.9850     4.4150    -0.2980 C.ar  1 <1>  -0.1500 
 23 C        1.3130     5.6690     0.8340 C.3   1 <1>   0.2630 
 24 N       -4.8060    -4.3530    -0.9140 N.2   1 <1>  -0.7070 
 25 C       -2.8270    -5.0910    -0.1950 C.2   1 <1>  -0.1500 
 26 N       -4.3030    -5.2670    -1.7660 N.pl3 1 <1>   0.3000 
 27 C       -3.1030    -5.7270    -1.3520 C.2   1 <1>  -0.3320 
 28 C       -2.2830    -6.7620    -2.1000 C.3   1 <1>  -0.0600 
 29 H       -3.3090     1.1600     1.9540 H     1 <1>   0.0800 
 30 H       -4.4280     0.9260     0.6160 H     1 <1>   0.0800 
 31 H       -2.9000    -1.5850    -1.0700 H     1 <1>   0.0800 
 32 H       -1.9340    -2.0130     0.3300 H     1 <1>   0.0800 
 33 H       -0.7440     2.7240    -1.9800 H     1 <1>   0.0800 
 34 H        0.6140     2.2140    -1.0560 H     1 <1>   0.0800 
 35 H        0.3360     1.6960     1.4350 H     1 <1>   0.0800 
 36 H       -1.1480     2.0480     2.2310 H     1 <1>   0.0800 
 37 H       -5.1940    -0.7040     2.2350 H     1 <1>   0.0800 
 38 H       -4.8800    -1.7110     0.0680 H     1 <1>   0.0800 
 39 H       -2.6820     3.7480     2.0290 H     1 <1>   0.1500 
 40 H       -2.9370     2.4170    -2.0470 H     1 <1>   0.1500 
 41 H       -0.8310     4.8330    -0.6510 H     1 <1>   0.0800 
 42 H        0.6750     4.6210    -1.5210 H     1 <1>   0.0800 
 43 H        0.5860     3.7820     2.6050 H     1 <1>   0.0800 
 44 H       -0.8350     4.4490     1.8490 H     1 <1>   0.0800 
 45 H       -2.4350    -1.2010     2.5650 H     1 <1>   0.4000 
 46 H       -4.9990    -3.5320     1.6980 H     1 <1>   0.0800 
 47 H       -3.2730    -3.5060     1.9050 H     1 <1>   0.0800 
 48 H       -4.7260     4.9790     1.7380 H     1 <1>   0.1500 
 49 H       -4.9990     3.6650    -2.2940 H     1 <1>   0.1500 
 50 H        1.6360     3.6600     0.4650 H     1 <1>   0.4500 
 51 H       -5.9060     4.9620    -0.4140 H     1 <1>   0.1500 
 52 H        0.4820     6.3490     0.9350 H     1 <1>   0.0800 
 53 H        1.9380     6.0090     0.0230 H     1 <1>   0.0800 
 54 H        1.8900     5.6920     1.7440 H     1 <1>   0.0800 
 55 H       -1.9630    -5.1880     0.4380 H     1 <1>   0.1500 
 56 H       -4.8010    -5.5540    -2.6160 H     1 <1>   0.2700 
 57 H       -1.3680    -6.9610    -1.5700 H     1 <1>   0.0800 
 58 H       -2.0380    -6.4030    -3.0840 H     1 <1>   0.0800 
 59 H       -2.8340    -7.6810    -2.1880 H     1 <1>   0.0800 
@<TRIPOS>BOND
  1   1   2  2   
  2   2   3  am  
  3   2   4  1   
  4   3   5  1   
  5   3   6  1   
  6   4   7  1   
  7   4   8  1   
  8   4   9  1   
  9   5  10  1   
 10   5  29  1   
 11   5  30  1   
 12   6  11  1   
 13   6  31  1   
 14   6  32  1   
 15   7  12  ar  
 16   7  13  ar  
 17   8  14  1   
 18   8  33  1   
 19   8  34  1   
 20   9  15  1   
 21   9  35  1   
 22   9  36  1   
 23  10  11  1   
 24  10  16  1   
 25  10  37  1   
 26  11  17  1   
 27  11  38  1   
 28  12  18  ar  
 29  12  39  1   
 30  13  19  ar  
 31  13  40  1   
 32  14  20  1   
 33  14  41  1   
 34  14  42  1   
 35  15  20  1   
 36  15  43  1   
 37  15  44  1   
 38  16  45  1   
 39  17  21  1   
 40  17  46  1   
 41  17  47  1   
 42  18  22  ar  
 43  18  48  1   
 44  19  22  ar  
 45  19  49  1   
 46  20  23  1   
 47  20  50  1   
 48  21  24  2   
 49  21  25  1   
 50  22  51  1   
 51  23  52  1   
 52  23  53  1   
 53  23  54  1   
 54  24  26  1   
 55  25  27  2   
 56  25  55  1   
 57  26  27  1   
 58  26  56  1   
 59  27  28  1   
 60  28  57  1   
 61  28  58  1   
 62  28  59  1   
@<TRIPOS>SUBSTRUCTURE
  1 ****   3 GROUP 4 **** **** 0

# MOE 2024.06 (io_trps.svl 2023.06)
