@<TRIPOS>MOLECULE
Untitled Document
44 46 1 0 0 
SMALL
USER_CHARGES


@<TRIPOS>ATOM
  1 CL       1.2140    -0.2030     2.8630 Cl    1 <1>  -0.1230 
  2 C        2.6040    -0.1880     1.7910 C.2   1 <1>   0.1230 
  3 C        3.1750    -1.2960     1.1860 C.2   1 <1>   0.1390 
  4 C        3.3220     0.8770     1.3930 C.2   1 <1>  -0.3020 
  5 N        4.1940    -0.9550     0.4510 N.2   1 <1>  -0.7070 
  6 N        4.2820     0.3890     0.5790 N.pl3 1 <1>   0.3140 
  7 C        5.3370     1.1580    -0.1110 C.3   1 <1>   0.0960 
  8 C        6.7250     0.7660     0.4250 C.3   1 <1>  -0.1600 
  9 C        7.8630     1.4550    -0.3420 C.3   1 <1>  -0.1600 
 10 C        9.2180     0.9610     0.1740 C.3   1 <1>   0.3430 
 11 N       10.3290     1.4940    -0.6580 N.4   1 <1>  -0.9590 
 12 C       11.6090     0.7410    -0.3560 C.3   1 <1>   0.3430 
 13 C       10.5230     2.9870    -0.4640 C.3   1 <1>   0.3430 
 14 C       12.8350     1.2950    -1.1130 C.3   1 <1>   0.2090 
 15 C       11.7410     3.5330    -1.2370 C.3   1 <1>   0.2090 
 16 N       12.9580     2.7580    -0.8610 N.pl3 1 <1>  -0.8380 
 17 C       13.7540     3.1790     0.1790 C.ar  1 <1>   0.7200 
 18 N       13.2040     4.0200     1.0530 N.ar  1 <1>  -0.6200 
 19 N       14.9780     2.6680     0.2310 N.ar  1 <1>  -0.6200 
 20 C       13.9840     4.4160     2.0320 C.ar  1 <1>   0.1600 
 21 C       15.7330     3.0810     1.2200 C.ar  1 <1>   0.1600 
 22 C       15.2770     3.9720     2.1610 C.ar  1 <1>  -0.1500 
 23 H        2.8250    -2.3070     1.3060 H     1 <1>   0.1500 
 24 H        3.2020     1.9150     1.6390 H     1 <1>   0.1500 
 25 H        5.1540     2.2070     0.0370 H     1 <1>   0.0800 
 26 H        5.2660     0.9370    -1.1600 H     1 <1>   0.0800 
 27 H        6.8360    -0.3030     0.3340 H     1 <1>   0.0800 
 28 H        6.7800     1.0210     1.4710 H     1 <1>   0.0800 
 29 H        7.7770     2.5190    -0.2130 H     1 <1>   0.0800 
 30 H        7.7690     1.2170    -1.3880 H     1 <1>   0.0800 
 31 H        9.2270    -0.1170     0.1340 H     1 <1>   0.0800 
 32 H        9.3500     1.2570     1.2030 H     1 <1>   0.0800 
 33 H       10.1070     1.3330    -1.6490 H     1 <1>   0.4500 
 34 H       11.4880    -0.3010    -0.6020 H     1 <1>   0.0800 
 35 H       11.8200     0.8070     0.6990 H     1 <1>   0.0800 
 36 H       10.6780     3.1980     0.5820 H     1 <1>   0.0800 
 37 H        9.6430     3.5190    -0.7820 H     1 <1>   0.0800 
 38 H       12.7330     1.1210    -2.1700 H     1 <1>   0.0800 
 39 H       13.7200     0.7760    -0.7850 H     1 <1>   0.0800 
 40 H       11.8790     4.5780    -1.0120 H     1 <1>   0.0800 
 41 H       11.5770     3.4510    -2.2970 H     1 <1>   0.0800 
 42 H       13.5840     5.1120     2.7510 H     1 <1>   0.1500 
 43 H       16.7400     2.7020     1.2820 H     1 <1>   0.1500 
 44 H       15.9070     4.3050     2.9650 H     1 <1>   0.1500 
@<TRIPOS>BOND
  1   1   2  1   
  2   2   3  1   
  3   2   4  2   
  4   3   5  2   
  5   3  23  1   
  6   4   6  1   
  7   4  24  1   
  8   5   6  1   
  9   6   7  1   
 10   7   8  1   
 11   7  25  1   
 12   7  26  1   
 13   8   9  1   
 14   8  27  1   
 15   8  28  1   
 16   9  10  1   
 17   9  29  1   
 18   9  30  1   
 19  10  11  1   
 20  10  31  1   
 21  10  32  1   
 22  11  12  1   
 23  11  13  1   
 24  11  33  1   
 25  12  14  1   
 26  12  34  1   
 27  12  35  1   
 28  13  15  1   
 29  13  36  1   
 30  13  37  1   
 31  14  16  1   
 32  14  38  1   
 33  14  39  1   
 34  15  16  1   
 35  15  40  1   
 36  15  41  1   
 37  16  17  1   
 38  17  18  ar  
 39  17  19  ar  
 40  18  20  ar  
 41  19  21  ar  
 42  20  22  ar  
 43  20  42  1   
 44  21  22  ar  
 45  21  43  1   
 46  22  44  1   
@<TRIPOS>SUBSTRUCTURE
  1 ****  10 GROUP 4 **** **** 0

# MOE 2024.06 (io_trps.svl 2023.06)
