@<TRIPOS>MOLECULE
NONAME
34 35 1 0 0 
SMALL
USER_CHARGES


@<TRIPOS>ATOM
  1 S       -0.5580     1.2470    -0.1110 S.3   1 <1>  -0.0800 
  2 C        0.9570     1.4270    -0.9760 C.2   1 <1>  -0.1100 
  3 C        0.0860     2.0980     1.2790 C.2   1 <1>  -0.1100 
  4 C        1.8630     2.0890    -0.2290 C.2   1 <1>  -0.1810 
  5 C        1.3600     2.4720     1.0600 C.2   1 <1>  -0.1500 
  6 C        3.2750     2.4200    -0.6580 C.3   1 <1>   0.3900 
  7 N        3.4140     3.8890    -0.6530 N.pl3 1 <1>  -0.8690 
  8 C        4.3620     4.7350    -0.2450 C.ar  1 <1>   0.7710 
  9 N        4.0520     6.0110    -0.3100 N.ar  1 <1>  -0.6200 
 10 N        5.5520     4.2920     0.1990 N.ar  1 <1>  -0.1790 
 11 C        4.9470     6.8980     0.0900 C.ar  1 <1>   0.4100 
 12 C        6.5050     5.1650     0.6080 C.ar  1 <1>   0.2110 
 13 N        4.6040     8.2150     0.0330 N.pl3 1 <1>  -0.8380 
 14 C        6.2130     6.4850     0.5570 C.ar  1 <1>  -0.1500 
 15 C        5.2720     9.2970     0.8070 C.3   1 <1>   0.2090 
 16 C        3.3920     8.6840    -0.7120 C.3   1 <1>   0.1290 
 17 C        6.2930     9.9990    -0.0830 C.3   1 <1>  -0.2400 
 18 H        1.0000     1.0090    -1.9670 H     1 <1>   0.1500 
 19 H       -0.5690     2.2300     2.1230 H     1 <1>   0.1500 
 20 H        1.9670     3.0130     1.7650 H     1 <1>   0.1500 
 21 H        3.4480     2.0440    -1.6540 H     1 <1>   0.0800 
 22 H        3.9720     1.9580     0.0190 H     1 <1>   0.0800 
 23 H        2.5450     4.3510    -0.9470 H     1 <1>   0.4000 
 24 H        5.6980     3.2900     0.2010 H     1 <1>   0.4570 
 25 H        7.4550     4.7890     0.9530 H     1 <1>   0.1500 
 26 H        6.9320     7.2230     0.8560 H     1 <1>   0.1500 
 27 H        5.7530     8.8930     1.6810 H     1 <1>   0.0800 
 28 H        4.5350    10.0060     1.1470 H     1 <1>   0.0800 
 29 H        3.1700     8.0270    -1.5350 H     1 <1>   0.0800 
 30 H        3.5540     9.6710    -1.1090 H     1 <1>   0.0800 
 31 H        2.5450     8.7080    -0.0470 H     1 <1>   0.0800 
 32 H        7.0280     9.3020    -0.4410 H     1 <1>   0.0800 
 33 H        6.7940    10.7670     0.4780 H     1 <1>   0.0800 
 34 H        5.8050    10.4580    -0.9230 H     1 <1>   0.0800 
@<TRIPOS>BOND
  1   1   2  1   
  2   1   3  1   
  3   2   4  2   
  4   2  18  1   
  5   3   5  2   
  6   3  19  1   
  7   4   5  1   
  8   4   6  1   
  9   5  20  1   
 10   6   7  1   
 11   6  21  1   
 12   6  22  1   
 13   7   8  1   
 14   7  23  1   
 15   8   9  ar  
 16   8  10  ar  
 17   9  11  ar  
 18  10  12  ar  
 19  10  24  1   
 20  11  13  1   
 21  11  14  ar  
 22  12  14  ar  
 23  12  25  1   
 24  13  15  1   
 25  13  16  1   
 26  14  26  1   
 27  15  17  1   
 28  15  27  1   
 29  15  28  1   
 30  16  29  1   
 31  16  30  1   
 32  16  31  1   
 33  17  32  1   
 34  17  33  1   
 35  17  34  1   
@<TRIPOS>SUBSTRUCTURE
  1 ****   8 GROUP 4 **** **** 0

# MOE 2024.06 (io_trps.svl 2023.06)
