@<TRIPOS>MOLECULE
NONAME
54 56 1 0 0 
SMALL
USER_CHARGES


@<TRIPOS>ATOM
  1 O       -2.7770     1.1070     3.2050 O.2   1 <1>  -0.5700 
  2 C       -2.4520     1.5660     2.1210 C.2   1 <1>   0.7150 
  3 N       -3.2900     1.3090     1.0470 N.am  1 <1>  -0.6600 
  4 C       -1.2070     2.3110     2.0490 C.2   1 <1>   0.0550 
  5 C       -4.5710     0.5600     1.2360 C.3   1 <1>   0.1400 
  6 C       -2.9170     1.4540    -0.3870 C.3   1 <1>   0.1400 
  7 O       -0.8150     2.9900     0.9740 O.3   1 <1>  -0.2800 
  8 C       -0.2520     2.4650     3.0080 C.2   1 <1>  -0.1500 
  9 C       -4.3810    -0.9600     1.0730 C.3   1 <1>   0.1400 
 10 C       -1.9480     0.3440    -0.8220 C.3   1 <1>  -0.1600 
 11 C        0.3470     3.5650     1.2060 C.2   1 <1>   0.1600 
 12 C        0.7470     3.2690     2.4640 C.2   1 <1>  -0.1500 
 13 N       -3.6980    -1.3340    -0.2130 N.am  1 <1>  -0.6600 
 14 C       -2.2370    -1.0440    -0.2290 C.3   1 <1>   0.1400 
 15 C        0.9660     4.3490     0.1860 C.1   1 <1>  -0.0200 
 16 C       -4.3160    -1.8540    -1.3250 C.2   1 <1>   0.5690 
 17 C        1.4710     5.0040    -0.6720 C.1   1 <1>  -0.2000 
 18 O       -3.6910    -2.1310    -2.3220 O.2   1 <1>  -0.5700 
 19 C       -5.8220    -2.0750    -1.3730 C.3   1 <1>   0.0440 
 20 C        2.0860     5.8230    -1.7510 C.3   1 <1>   0.4800 
 21 C       -6.5960    -0.7630    -1.2940 C.ar  1 <1>  -0.1430 
 22 O        1.5370     5.3960    -2.9270 O.3   1 <1>  -0.6800 
 23 C        1.7310     7.2970    -1.5930 C.3   1 <1>  -0.2400 
 24 C        3.5890     5.5990    -1.8420 C.3   1 <1>  -0.2400 
 25 C       -6.2160     0.3220    -2.0740 C.ar  1 <1>   0.1600 
 26 C       -7.6750    -0.6240    -0.4430 C.ar  1 <1>  -0.1500 
 27 N       -6.7960     1.5100    -2.0510 N.ar  1 <1>  -0.6200 
 28 C       -8.2970     0.6050    -0.4170 C.ar  1 <1>  -0.1500 
 29 C       -7.8240     1.6230    -1.2270 C.ar  1 <1>   0.1600 
 30 H       -5.3020     0.9140     0.5310 H     1 <1>   0.0800 
 31 H       -4.9670     0.7580     2.2180 H     1 <1>   0.0800 
 32 H       -2.4970     2.4240    -0.5800 H     1 <1>   0.0800 
 33 H       -3.8060     1.3860    -0.9900 H     1 <1>   0.0800 
 34 H       -0.2600     2.0500     4.0010 H     1 <1>   0.1500 
 35 H       -5.3400    -1.4370     1.1430 H     1 <1>   0.0800 
 36 H       -3.7930    -1.3200     1.9000 H     1 <1>   0.0800 
 37 H       -0.9460     0.6280    -0.5570 H     1 <1>   0.0800 
 38 H       -1.9760     0.2720    -1.8940 H     1 <1>   0.0800 
 39 H        1.6470     3.5820     2.9620 H     1 <1>   0.1500 
 40 H       -1.8540    -1.0910     0.7760 H     1 <1>   0.0800 
 41 H       -1.7220    -1.7940    -0.8050 H     1 <1>   0.0800 
 42 H       -6.1010    -2.7360    -0.5750 H     1 <1>   0.0800 
 43 H       -6.0690    -2.5650    -2.2980 H     1 <1>   0.0800 
 44 H        0.5890     5.2390    -2.7720 H     1 <1>   0.4000 
 45 H        0.6650     7.4270    -1.5570 H     1 <1>   0.0800 
 46 H        2.1340     7.8650    -2.4120 H     1 <1>   0.0800 
 47 H        2.1490     7.6750    -0.6780 H     1 <1>   0.0800 
 48 H        3.7990     4.5540    -1.9880 H     1 <1>   0.0800 
 49 H        4.0640     5.9180    -0.9320 H     1 <1>   0.0800 
 50 H        4.0010     6.1610    -2.6610 H     1 <1>   0.0800 
 51 H       -5.3820     0.2100    -2.7490 H     1 <1>   0.1500 
 52 H       -8.0220    -1.4330     0.1760 H     1 <1>   0.1500 
 53 H       -9.1430     0.7770     0.2240 H     1 <1>   0.1500 
 54 H       -8.3180     2.5800    -1.1960 H     1 <1>   0.1500 
@<TRIPOS>BOND
  1   1   2  2   
  2   2   3  am  
  3   2   4  1   
  4   3   5  1   
  5   3   6  1   
  6   4   7  1   
  7   4   8  2   
  8   5   9  1   
  9   5  30  1   
 10   5  31  1   
 11   6  10  1   
 12   6  32  1   
 13   6  33  1   
 14   7  11  1   
 15   8  12  1   
 16   8  34  1   
 17   9  13  1   
 18   9  35  1   
 19   9  36  1   
 20  10  14  1   
 21  10  37  1   
 22  10  38  1   
 23  11  12  2   
 24  11  15  1   
 25  12  39  1   
 26  13  14  1   
 27  13  16  am  
 28  14  40  1   
 29  14  41  1   
 30  15  17  3   
 31  16  18  2   
 32  16  19  1   
 33  17  20  1   
 34  19  21  1   
 35  19  42  1   
 36  19  43  1   
 37  20  22  1   
 38  20  23  1   
 39  20  24  1   
 40  21  25  ar  
 41  21  26  ar  
 42  22  44  1   
 43  23  45  1   
 44  23  46  1   
 45  23  47  1   
 46  24  48  1   
 47  24  49  1   
 48  24  50  1   
 49  25  27  ar  
 50  25  51  1   
 51  26  28  ar  
 52  26  52  1   
 53  27  29  ar  
 54  28  29  ar  
 55  28  53  1   
 56  29  54  1   
@<TRIPOS>SUBSTRUCTURE
  1 ****   6 GROUP 4 **** **** 0

# MOE 2024.06 (io_trps.svl 2023.06)
