@<TRIPOS>MOLECULE
NONAME
52 55 1 0 0 
SMALL
USER_CHARGES


@<TRIPOS>ATOM
  1 O        3.3890    -1.1850    -1.0330 O.3   1 <1>  -0.0190 
  2 N        4.5320    -0.6520    -0.7100 N.2   1 <1>  -0.4100 
  3 C        2.5930    -1.3600     0.0000 C.2   1 <1>   0.0870 
  4 C        4.4890    -0.4760     0.5650 C.2   1 <1>   0.1080 
  5 C        1.2760    -1.9320    -0.1520 C.ar  1 <1>   0.0530 
  6 C        3.2720    -0.9070     1.0770 C.2   1 <1>  -0.1500 
  7 C        5.6230     0.1440     1.3730 C.3   1 <1>   0.3900 
  8 C        0.8770    -2.5370    -1.3450 C.ar  1 <1>  -0.1500 
  9 C        0.3510    -1.9000     0.8920 C.ar  1 <1>  -0.1500 
 10 N        5.6020     1.6380     1.3240 N.pl3 1 <1>  -0.8690 
 11 C       -0.3850    -3.0820    -1.4950 C.ar  1 <1>  -0.1500 
 12 C       -0.9120    -2.4430     0.7490 C.ar  1 <1>  -0.1500 
 13 C        5.3410     2.5270     0.3560 C.ar  1 <1>   0.7710 
 14 C       -1.2930    -3.0370    -0.4420 C.ar  1 <1>   0.0830 
 15 N        5.4980     3.7880     0.7000 N.ar  1 <1>  -0.6200 
 16 N        4.9520     2.1530    -0.8770 N.ar  1 <1>  -0.1790 
 17 O       -2.5470    -3.5440    -0.5010 O.3   1 <1>  -0.3630 
 18 C        5.2760     4.7160    -0.2140 C.ar  1 <1>   0.4100 
 19 C        4.6900     3.0690    -1.8360 C.ar  1 <1>   0.2110 
 20 C       -3.0350    -4.1690    -1.6670 C.3   1 <1>   0.0400 
 21 N        5.4730     6.0130     0.1420 N.pl3 1 <1>  -0.8380 
 22 C        4.8480     4.3740    -1.5130 C.ar  1 <1>  -0.1500 
 23 C        5.9090     7.0980    -0.7980 C.3   1 <1>   0.2090 
 24 C        5.3560     6.4890     1.5560 C.3   1 <1>   0.2090 
 25 C        4.9140     8.2700    -0.7570 C.3   1 <1>   0.2000 
 26 C        4.3560     7.6520     1.6240 C.3   1 <1>  -0.1600 
 27 O        5.3780     9.3040    -1.5510 O.3   1 <1>  -0.6800 
 28 C        4.7250     8.8000     0.6680 C.3   1 <1>  -0.1600 
 29 H        2.9590    -0.8800     2.1050 H     1 <1>   0.1500 
 30 H        6.5680    -0.2140     1.0000 H     1 <1>   0.0800 
 31 H        5.5330    -0.1740     2.3980 H     1 <1>   0.0800 
 32 H        1.5640    -2.5870    -2.1720 H     1 <1>   0.1500 
 33 H        0.6150    -1.4450     1.8290 H     1 <1>   0.1500 
 34 H        5.9130     2.0800     2.1960 H     1 <1>   0.4000 
 35 H       -0.6450    -3.5360    -2.4320 H     1 <1>   0.1500 
 36 H       -1.6160    -2.4120     1.5610 H     1 <1>   0.1500 
 37 H        4.8340     1.1480    -1.0340 H     1 <1>   0.4570 
 38 H        4.3630     2.7350    -2.8080 H     1 <1>   0.1500 
 39 H       -4.0440    -4.4880    -1.4780 H     1 <1>   0.0800 
 40 H       -2.4170    -5.0210    -1.8910 H     1 <1>   0.0800 
 41 H       -3.0210    -3.4590    -2.4750 H     1 <1>   0.0800 
 42 H        4.6370     5.1510    -2.2230 H     1 <1>   0.1500 
 43 H        5.9970     6.7330    -1.8040 H     1 <1>   0.0800 
 44 H        6.8780     7.4460    -0.4860 H     1 <1>   0.0800 
 45 H        6.3230     6.8120     1.9030 H     1 <1>   0.0800 
 46 H        5.0170     5.6980     2.2030 H     1 <1>   0.0800 
 47 H        3.9710     7.9480    -1.1660 H     1 <1>   0.0800 
 48 H        4.3160     8.0230     2.6320 H     1 <1>   0.0800 
 49 H        3.3780     7.2760     1.3770 H     1 <1>   0.0800 
 50 H        6.1000     9.7830    -1.1020 H     1 <1>   0.4000 
 51 H        3.9420     9.5390     0.6770 H     1 <1>   0.0800 
 52 H        5.6370     9.2550     1.0120 H     1 <1>   0.0800 
@<TRIPOS>BOND
  1   1   2  1   
  2   1   3  1   
  3   2   4  2   
  4   3   5  1   
  5   3   6  2   
  6   4   6  1   
  7   4   7  1   
  8   5   8  ar  
  9   5   9  ar  
 10   6  29  1   
 11   7  10  1   
 12   7  30  1   
 13   7  31  1   
 14   8  11  ar  
 15   8  32  1   
 16   9  12  ar  
 17   9  33  1   
 18  10  13  1   
 19  10  34  1   
 20  11  14  ar  
 21  11  35  1   
 22  12  14  ar  
 23  12  36  1   
 24  13  15  ar  
 25  13  16  ar  
 26  14  17  1   
 27  15  18  ar  
 28  16  19  ar  
 29  16  37  1   
 30  17  20  1   
 31  18  21  1   
 32  18  22  ar  
 33  19  22  ar  
 34  19  38  1   
 35  20  39  1   
 36  20  40  1   
 37  20  41  1   
 38  21  23  1   
 39  21  24  1   
 40  22  42  1   
 41  23  25  1   
 42  23  43  1   
 43  23  44  1   
 44  24  26  1   
 45  24  45  1   
 46  24  46  1   
 47  25  27  1   
 48  25  28  1   
 49  25  47  1   
 50  26  28  1   
 51  26  48  1   
 52  26  49  1   
 53  27  50  1   
 54  28  51  1   
 55  28  52  1   
@<TRIPOS>SUBSTRUCTURE
  1 ****  16 GROUP 4 **** **** 0

# MOE 2024.06 (io_trps.svl 2023.06)
