@<TRIPOS>MOLECULE
NONAME
50 53 1 0 0 
SMALL
USER_CHARGES


@<TRIPOS>ATOM
  1 O       -0.8540    -0.7970     0.4040 O.co2 1 <1>  -0.9000 
  2 C       -1.4450    -0.1820    -0.5050 C.2   1 <1>   0.9790 
  3 O       -1.0330    -0.3040    -1.6730 O.co2 1 <1>  -0.9000 
  4 C       -2.6090     0.5980    -0.2190 C.ar  1 <1>  -0.1790 
  5 C       -2.5750     1.9360     0.1570 C.ar  1 <1>   0.1000 
  6 C       -3.8480    -0.0460    -0.3440 C.ar  1 <1>   0.1600 
  7 N       -1.4100     2.6780     0.2690 N.pl3 1 <1>  -0.8380 
  8 C       -3.8250     2.5310     0.4020 C.ar  1 <1>   0.0000 
  9 N       -5.0270     0.4900    -0.1350 N.ar  1 <1>  -0.5670 
 10 C       -0.9740     3.5090    -0.8970 C.3   1 <1>   0.2090 
 11 C       -0.3100     2.2480     1.2000 C.3   1 <1>   0.2090 
 12 C       -4.9690     1.7850     0.2380 C.ar  1 <1>   0.1050 
 13 C       -4.3020     3.7920     0.8120 C.2   1 <1>   0.1080 
 14 C        0.3310     3.0110    -1.5500 C.3   1 <1>   0.2090 
 15 C        1.0100     1.8500     0.4990 C.3   1 <1>   0.2090 
 16 N       -6.0080     2.6130     0.5320 N.pl3 1 <1>   0.3140 
 17 N       -5.5910     3.8520     0.8860 N.2   1 <1>  -0.7070 
 18 C       -3.4210     4.9730     1.1500 C.3   1 <1>  -0.0590 
 19 N        1.4230     2.8370    -0.5460 N.pl3 1 <1>  -0.8380 
 20 C       -7.4270     2.2460     0.4980 C.3   1 <1>   0.0160 
 21 C        2.2830     3.8640    -0.2240 C.ar  1 <1>   0.4100 
 22 N        1.7660     5.0760    -0.1750 N.ar  1 <1>  -0.6200 
 23 C        3.6320     3.6410     0.0500 C.ar  1 <1>  -0.1440 
 24 C        2.5920     6.0340     0.1810 C.ar  1 <1>   0.4700 
 25 C        4.3840     4.7330     0.4260 C.ar  1 <1>   0.1670 
 26 C        4.2420     2.2420    -0.0830 C.3   1 <1>  -0.0970 
 27 N        3.8700     5.9450     0.4940 N.ar  1 <1>  -0.6200 
 28 C        5.8560     4.6420     0.7850 C.3   1 <1>  -0.0970 
 29 H       -3.8190    -1.0800    -0.6440 H     1 <1>   0.1500 
 30 H       -0.8270     4.5200    -0.5650 H     1 <1>   0.0800 
 31 H       -1.7520     3.5140    -1.6400 H     1 <1>   0.0800 
 32 H       -0.6500     1.4180     1.7940 H     1 <1>   0.0800 
 33 H       -0.1010     3.0630     1.8680 H     1 <1>   0.0800 
 34 H        0.6440     3.7100    -2.3040 H     1 <1>   0.0800 
 35 H        0.1400     2.0650    -2.0300 H     1 <1>   0.0800 
 36 H        0.8980     0.8860     0.0350 H     1 <1>   0.0800 
 37 H        1.7780     1.7580     1.2430 H     1 <1>   0.0800 
 38 H       -2.6110     4.6530     1.7780 H     1 <1>   0.0800 
 39 H       -3.9920     5.7220     1.6680 H     1 <1>   0.0800 
 40 H       -3.0240     5.3950     0.2470 H     1 <1>   0.0800 
 41 H       -7.6120     1.5030     1.2500 H     1 <1>   0.0800 
 42 H       -7.6610     1.8480    -0.4710 H     1 <1>   0.0800 
 43 H       -8.0230     3.1180     0.6900 H     1 <1>   0.0800 
 44 H        2.1680     7.0220     0.2260 H     1 <1>   0.1500 
 45 H        3.6850     1.6460    -0.7850 H     1 <1>   0.0800 
 46 H        4.2340     1.7460     0.8690 H     1 <1>   0.0800 
 47 H        5.2520     2.2940    -0.4470 H     1 <1>   0.0800 
 48 H        6.0750     3.7180     1.2860 H     1 <1>   0.0800 
 49 H        6.1260     5.4480     1.4430 H     1 <1>   0.0800 
 50 H        6.4490     4.7150    -0.1080 H     1 <1>   0.0800 
@<TRIPOS>BOND
  1   1   2  ar  
  2   2   3  ar  
  3   2   4  1   
  4   4   5  ar  
  5   4   6  ar  
  6   5   7  1   
  7   5   8  ar  
  8   6   9  ar  
  9   6  29  1   
 10   7  10  1   
 11   7  11  1   
 12   8  12  ar  
 13   8  13  1   
 14   9  12  ar  
 15  10  14  1   
 16  10  30  1   
 17  10  31  1   
 18  11  15  1   
 19  11  32  1   
 20  11  33  1   
 21  12  16  1   
 22  13  17  2   
 23  13  18  1   
 24  14  19  1   
 25  14  34  1   
 26  14  35  1   
 27  15  19  1   
 28  15  36  1   
 29  15  37  1   
 30  16  17  1   
 31  16  20  1   
 32  18  38  1   
 33  18  39  1   
 34  18  40  1   
 35  19  21  1   
 36  20  41  1   
 37  20  42  1   
 38  20  43  1   
 39  21  22  ar  
 40  21  23  ar  
 41  22  24  ar  
 42  23  25  ar  
 43  23  26  1   
 44  24  27  ar  
 45  24  44  1   
 46  25  27  ar  
 47  25  28  1   
 48  26  45  1   
 49  26  46  1   
 50  26  47  1   
 51  28  48  1   
 52  28  49  1   
 53  28  50  1   
@<TRIPOS>SUBSTRUCTURE
  1 ****   7 GROUP 4 **** **** 0

# MOE 2024.06 (io_trps.svl 2023.06)
