@<TRIPOS>MOLECULE
NONAME
59 62 1 0 0 
SMALL
USER_CHARGES


@<TRIPOS>ATOM
  1 O       -0.2990     0.5290    -0.2150 O.2   1 <1>  -0.5700 
  2 C       -0.2670     1.7440    -0.2850 C.2   1 <1>   0.5440 
  3 N       -1.4530     2.4260    -0.4640 N.am  1 <1>  -0.6600 
  4 C        1.0070     2.4290    -0.1680 C.ar  1 <1>   0.0860 
  5 C       -2.6850     1.6810    -0.8550 C.3   1 <1>   0.1400 
  6 C       -1.6160     3.8730    -0.1350 C.3   1 <1>   0.1400 
  7 C        1.8940     2.1200     0.8620 C.ar  1 <1>  -0.1500 
  8 C        1.4040     3.4090    -1.0780 C.ar  1 <1>  -0.1500 
  9 C       -3.7410     2.6450    -1.3980 C.3   1 <1>  -0.1600 
 10 C       -2.9610     4.0800     0.5590 C.3   1 <1>  -0.1600 
 11 C        3.1090     2.7670     0.9860 C.ar  1 <1>  -0.1500 
 12 C        2.6190     4.0570    -0.9550 C.ar  1 <1>  -0.1500 
 13 C       -4.1530     3.7180    -0.3640 C.3   1 <1>   0.2800 
 14 C        3.4960     3.7490     0.0800 C.ar  1 <1>   0.0000 
 15 O       -4.4330     4.8440    -1.1450 O.3   1 <1>  -0.5600 
 16 C       -5.4030     3.2430     0.4400 C.3   1 <1>  -0.1600 
 17 C        4.7690     4.4180     0.2050 C.ar  1 <1>   0.0000 
 18 C       -5.1200     5.9660    -0.6350 C.3   1 <1>   0.1200 
 19 C       -6.6060     4.1990     0.4210 C.3   1 <1>   0.2800 
 20 C        5.9570     3.6940     0.1730 C.ar  1 <1>  -0.1500 
 21 C        4.8420     5.8000     0.3600 C.ar  1 <1>  -0.1500 
 22 C       -6.1060     5.6560     0.5060 C.3   1 <1>   0.2000 
 23 O       -7.2840     4.0270    -0.7710 O.3   1 <1>  -0.6800 
 24 C       -7.6180     3.8510     1.5180 C.3   1 <1>  -0.2400 
 25 C        7.1880     4.3300     0.2920 C.ar  1 <1>   0.0830 
 26 C        6.0620     6.4410     0.4800 C.ar  1 <1>  -0.1500 
 27 O       -5.4630     5.8830     1.7270 O.3   1 <1>  -0.6800 
 28 O        8.3790     3.6800     0.2670 O.3   1 <1>  -0.3630 
 29 C        7.2320     5.7050     0.4460 C.ar  1 <1>  -0.1500 
 30 C        8.4490     2.2840     0.0850 C.3   1 <1>   0.0400 
 31 H       -2.4350     0.9530    -1.6090 H     1 <1>   0.0800 
 32 H       -3.0650     1.1550     0.0050 H     1 <1>   0.0800 
 33 H       -0.8230     4.1980     0.5170 H     1 <1>   0.0800 
 34 H       -1.5770     4.4550    -1.0410 H     1 <1>   0.0800 
 35 H        1.6170     1.3560     1.5680 H     1 <1>   0.1500 
 36 H        0.7490     3.6560    -1.8950 H     1 <1>   0.1500 
 37 H       -4.5950     2.0900    -1.7380 H     1 <1>   0.0800 
 38 H       -3.3200     3.1190    -2.2670 H     1 <1>   0.0800 
 39 H       -3.0270     5.0980     0.8920 H     1 <1>   0.0800 
 40 H       -2.9540     3.4550     1.4340 H     1 <1>   0.0800 
 41 H        3.7710     2.5100     1.7950 H     1 <1>   0.1500 
 42 H        2.9020     4.8060    -1.6730 H     1 <1>   0.1500 
 43 H       -5.7250     2.2690     0.1220 H     1 <1>   0.0800 
 44 H       -5.1130     3.1070     1.4650 H     1 <1>   0.0800 
 45 H       -4.3990     6.7040    -0.3300 H     1 <1>   0.0800 
 46 H       -5.6770     6.3670    -1.4630 H     1 <1>   0.0800 
 47 H        5.8940     2.6310     0.0480 H     1 <1>   0.1500 
 48 H        3.9340     6.3740     0.3900 H     1 <1>   0.1500 
 49 H       -6.9380     6.3360     0.4660 H     1 <1>   0.0800 
 50 H       -7.5790     3.1040    -0.8560 H     1 <1>   0.4000 
 51 H       -7.1720     3.9680     2.4890 H     1 <1>   0.0800 
 52 H       -7.9540     2.8340     1.4230 H     1 <1>   0.0800 
 53 H       -8.4650     4.5130     1.4620 H     1 <1>   0.0800 
 54 H        6.1030     7.5100     0.6000 H     1 <1>   0.1500 
 55 H       -4.6800     5.3070     1.7910 H     1 <1>   0.4000 
 56 H        8.1870     6.1920     0.5390 H     1 <1>   0.1500 
 57 H        9.4860     1.9990     0.0870 H     1 <1>   0.0800 
 58 H        8.0030     2.0320    -0.8610 H     1 <1>   0.0800 
 59 H        7.9350     1.7990     0.8960 H     1 <1>   0.0800 
@<TRIPOS>BOND
  1   1   2  2   
  2   2   3  am  
  3   2   4  1   
  4   3   5  1   
  5   3   6  1   
  6   4   7  ar  
  7   4   8  ar  
  8   5   9  1   
  9   5  31  1   
 10   5  32  1   
 11   6  10  1   
 12   6  33  1   
 13   6  34  1   
 14   7  11  ar  
 15   7  35  1   
 16   8  12  ar  
 17   8  36  1   
 18   9  13  1   
 19   9  37  1   
 20   9  38  1   
 21  10  13  1   
 22  10  39  1   
 23  10  40  1   
 24  11  14  ar  
 25  11  41  1   
 26  12  14  ar  
 27  12  42  1   
 28  13  15  1   
 29  13  16  1   
 30  14  17  1   
 31  15  18  1   
 32  16  19  1   
 33  16  43  1   
 34  16  44  1   
 35  17  20  ar  
 36  17  21  ar  
 37  18  22  1   
 38  18  45  1   
 39  18  46  1   
 40  19  22  1   
 41  19  23  1   
 42  19  24  1   
 43  20  25  ar  
 44  20  47  1   
 45  21  26  ar  
 46  21  48  1   
 47  22  27  1   
 48  22  49  1   
 49  23  50  1   
 50  24  51  1   
 51  24  52  1   
 52  24  53  1   
 53  25  28  1   
 54  25  29  ar  
 55  26  29  ar  
 56  26  54  1   
 57  27  55  1   
 58  28  30  1   
 59  29  56  1   
 60  30  57  1   
 61  30  58  1   
 62  30  59  1   
@<TRIPOS>SUBSTRUCTURE
  1 ****   6 GROUP 4 **** **** 0

# MOE 2024.06 (io_trps.svl 2023.06)
