@<TRIPOS>MOLECULE
NONAME
43 45 1 0 0 
SMALL
USER_CHARGES


@<TRIPOS>ATOM
  1 CL      -0.3610     0.6000     0.1130 Cl    1 <1>  -0.1770 
  2 C       -0.3490    -1.1360    -0.0750 C.ar  1 <1>   0.1770 
  3 C       -1.1920    -1.9660     0.6540 C.ar  1 <1>  -0.0090 
  4 C        0.5500    -1.6330    -1.0030 C.ar  1 <1>  -0.1500 
  5 S       -2.3900    -1.3700     1.8810 S.o2  1 <1>   1.4470 
  6 C       -1.1030    -3.3300     0.3900 C.ar  1 <1>  -0.1500 
  7 C        0.6380    -2.9960    -1.2480 C.ar  1 <1>   0.0730 
  8 O       -2.0390    -0.0800     2.4300 O.2   1 <1>  -0.6500 
  9 O       -2.6220    -2.4600     2.8040 O.2   1 <1>  -0.6500 
 10 N       -3.8210    -1.1760     0.9870 N.am  1 <1>  -0.8490 
 11 C       -0.2080    -3.8370    -0.5370 C.ar  1 <1>  -0.1500 
 12 C        1.5720    -3.5180    -2.2060 C.1   1 <1>   0.4840 
 13 C       -4.9960    -1.1740     1.8710 C.3   1 <1>   0.1960 
 14 C       -3.8080     0.0470     0.1750 C.3   1 <1>   0.1960 
 15 N        2.3130    -3.9300    -2.9680 N.1   1 <1>  -0.5570 
 16 C       -6.2810    -1.1610     1.0430 C.3   1 <1>  -0.1600 
 17 C       -5.0460     0.0930    -0.7220 C.3   1 <1>  -0.1600 
 18 C       -6.3280     0.0480     0.1120 C.3   1 <1>   0.4180 
 19 O       -6.3860     1.1800     0.9440 O.3   1 <1>  -0.5600 
 20 C       -7.5670    -0.0250    -0.7770 C.2   1 <1>  -0.2880 
 21 C       -6.8500     2.3750     0.3800 C.3   1 <1>   0.1200 
 22 C       -8.4820     0.9430    -0.8670 C.2   1 <1>  -0.2760 
 23 C       -8.3080     2.2270    -0.0760 C.3   1 <1>  -0.0220 
 24 C       -9.7370     0.8660    -1.7170 C.3   1 <1>  -0.1020 
 25 H        1.1850    -0.9470    -1.5370 H     1 <1>   0.1500 
 26 H       -1.7470    -4.0110     0.9250 H     1 <1>   0.1500 
 27 H       -0.1680    -4.9010    -0.7080 H     1 <1>   0.1500 
 28 H       -4.9650    -0.3160     2.5240 H     1 <1>   0.0800 
 29 H       -4.9990    -2.0600     2.4840 H     1 <1>   0.0800 
 30 H       -2.9360     0.0600    -0.4530 H     1 <1>   0.0800 
 31 H       -3.7800     0.9180     0.8110 H     1 <1>   0.0800 
 32 H       -7.1360    -1.1390     1.6930 H     1 <1>   0.0800 
 33 H       -6.3300    -2.0670     0.4680 H     1 <1>   0.0800 
 34 H       -5.0220    -0.7530    -1.3830 H     1 <1>   0.0800 
 35 H       -5.0300     0.9760    -1.3320 H     1 <1>   0.0800 
 36 H       -7.6330    -0.9480    -1.3240 H     1 <1>   0.1500 
 37 H       -6.2190     2.6310    -0.4530 H     1 <1>   0.0800 
 38 H       -6.7680     3.1450     1.1260 H     1 <1>   0.0800 
 39 H       -8.5640     3.0770    -0.6820 H     1 <1>   0.0800 
 40 H       -8.9570     2.2170     0.7820 H     1 <1>   0.0800 
 41 H       -9.7390     1.6520    -2.4510 H     1 <1>   0.0800 
 42 H      -10.6100     0.9660    -1.0970 H     1 <1>   0.0800 
 43 H       -9.7890    -0.0780    -2.2290 H     1 <1>   0.0800 
@<TRIPOS>BOND
  1   1   2  1   
  2   2   3  ar  
  3   2   4  ar  
  4   3   5  1   
  5   3   6  ar  
  6   4   7  ar  
  7   4  25  1   
  8   5   8  2   
  9   5   9  2   
 10   5  10  am  
 11   6  11  ar  
 12   6  26  1   
 13   7  11  ar  
 14   7  12  1   
 15  10  13  1   
 16  10  14  1   
 17  11  27  1   
 18  12  15  3   
 19  13  16  1   
 20  13  28  1   
 21  13  29  1   
 22  14  17  1   
 23  14  30  1   
 24  14  31  1   
 25  16  18  1   
 26  16  32  1   
 27  16  33  1   
 28  17  18  1   
 29  17  34  1   
 30  17  35  1   
 31  18  19  1   
 32  18  20  1   
 33  19  21  1   
 34  20  22  2   
 35  20  36  1   
 36  21  23  1   
 37  21  37  1   
 38  21  38  1   
 39  22  23  1   
 40  22  24  1   
 41  23  39  1   
 42  23  40  1   
 43  24  41  1   
 44  24  42  1   
 45  24  43  1   
@<TRIPOS>SUBSTRUCTURE
  1 ****  14 GROUP 4 **** **** 0

# MOE 2024.06 (io_trps.svl 2023.06)
