@<TRIPOS>MOLECULE
NONAME
55 58 1 0 0 
SMALL
USER_CHARGES


@<TRIPOS>ATOM
  1 O       -0.4610     0.1940     1.9190 O.2   1 <1>  -0.5700 
  2 C       -1.3630     0.9110     1.5290 C.2   1 <1>   0.5440 
  3 N       -2.5130     0.3320     1.0460 N.am  1 <1>  -0.6600 
  4 C       -1.2090     2.3520     1.5540 C.ar  1 <1>   0.0860 
  5 C       -3.4530     0.9960     0.1070 C.3   1 <1>   0.1400 
  6 C       -2.7460    -1.1300     1.0360 C.3   1 <1>   0.1400 
  7 C       -0.1150     2.9680     0.9520 C.ar  1 <1>  -0.1500 
  8 C       -2.1520     3.1700     2.1760 C.ar  1 <1>  -0.1500 
  9 C       -4.3210    -0.1250    -0.4830 C.3   1 <1>   0.2000 
 10 C       -3.4850    -1.3930    -0.2760 C.3   1 <1>  -0.0800 
 11 C        0.0350     4.3500     0.9370 C.ar  1 <1>  -0.0230 
 12 C       -2.0140     4.5460     2.1850 C.ar  1 <1>  -0.1500 
 13 O       -5.5050    -0.2390     0.2540 O.3   1 <1>  -0.5600 
 14 C       -4.2930    -2.7030    -0.2760 C.3   1 <1>   0.0200 
 15 N        1.1530     4.9430     0.2880 N.pl3 1 <1>   0.5930 
 16 C       -0.9250     5.1340     1.5680 C.ar  1 <1>  -0.1500 
 17 C       -6.5490     0.5830    -0.1660 C.3   1 <1>   0.0400 
 18 C       -3.4170    -3.9450    -0.2440 C.2   1 <1>  -0.0400 
 19 N        2.4310     4.6770     0.6490 N.2   1 <1>  -0.7070 
 20 C        1.1410     5.7960    -0.7760 C.2   1 <1>  -0.3320 
 21 O       -3.9920    -5.1160    -0.1640 O.3   1 <1>  -0.0190 
 22 C       -2.0900    -4.1460    -0.2850 C.2   1 <1>  -0.1500 
 23 C        3.1740     5.3550    -0.1620 C.2   1 <1>   0.1080 
 24 C        2.4240     6.0780    -1.0810 C.2   1 <1>  -0.1500 
 25 C       -0.1150     6.2970    -1.4730 C.3   1 <1>  -0.0600 
 26 N       -3.1240    -6.0860    -0.1470 N.2   1 <1>  -0.4100 
 27 C       -1.9690    -5.5310    -0.2170 C.2   1 <1>   0.1080 
 28 C        4.6820     5.3330    -0.0880 C.3   1 <1>  -0.0590 
 29 C       -0.6600    -6.2870    -0.2240 C.3   1 <1>  -0.0590 
 30 H       -4.0520     1.7280     0.6170 H     1 <1>   0.0800 
 31 H       -2.8860     1.4700    -0.6750 H     1 <1>   0.0800 
 32 H       -1.8210    -1.6780     1.0940 H     1 <1>   0.0800 
 33 H       -3.3660    -1.3860     1.8780 H     1 <1>   0.0800 
 34 H        0.6380     2.3520     0.4900 H     1 <1>   0.1500 
 35 H       -2.9960     2.7130     2.6640 H     1 <1>   0.1500 
 36 H       -4.5590     0.0340    -1.5210 H     1 <1>   0.0800 
 37 H       -2.7530    -1.4350    -1.0630 H     1 <1>   0.0800 
 38 H       -2.7500     5.1590     2.6770 H     1 <1>   0.1500 
 39 H       -4.9040    -2.7440    -1.1600 H     1 <1>   0.0800 
 40 H       -4.9510    -2.7260     0.5750 H     1 <1>   0.0800 
 41 H       -0.8140     6.2040     1.5840 H     1 <1>   0.1500 
 42 H       -7.3870     0.4160     0.4880 H     1 <1>   0.0800 
 43 H       -6.8210     0.3250    -1.1740 H     1 <1>   0.0800 
 44 H       -6.2450     1.6140    -0.1050 H     1 <1>   0.0800 
 45 H       -1.2790    -3.4460    -0.3540 H     1 <1>   0.1500 
 46 H        2.8140     6.7120    -1.8570 H     1 <1>   0.1500 
 47 H        0.1500     6.8900    -2.3310 H     1 <1>   0.0800 
 48 H       -0.6970     6.9050    -0.8050 H     1 <1>   0.0800 
 49 H       -0.7130     5.4670    -1.8030 H     1 <1>   0.0800 
 50 H        5.1070     5.9500    -0.8580 H     1 <1>   0.0800 
 51 H        5.0310     4.3250    -0.2100 H     1 <1>   0.0800 
 52 H        4.9990     5.6970     0.8720 H     1 <1>   0.0800 
 53 H       -0.0410    -5.9520     0.5880 H     1 <1>   0.0800 
 54 H       -0.1480    -6.1210    -1.1530 H     1 <1>   0.0800 
 55 H       -0.8440    -7.3400    -0.1100 H     1 <1>   0.0800 
@<TRIPOS>BOND
  1   1   2  2   
  2   2   3  am  
  3   2   4  1   
  4   3   5  1   
  5   3   6  1   
  6   4   7  ar  
  7   4   8  ar  
  8   5   9  1   
  9   5  30  1   
 10   5  31  1   
 11   6  10  1   
 12   6  32  1   
 13   6  33  1   
 14   7  11  ar  
 15   7  34  1   
 16   8  12  ar  
 17   8  35  1   
 18   9  10  1   
 19   9  13  1   
 20   9  36  1   
 21  10  14  1   
 22  10  37  1   
 23  11  15  1   
 24  11  16  ar  
 25  12  16  ar  
 26  12  38  1   
 27  13  17  1   
 28  14  18  1   
 29  14  39  1   
 30  14  40  1   
 31  15  19  1   
 32  15  20  1   
 33  16  41  1   
 34  17  42  1   
 35  17  43  1   
 36  17  44  1   
 37  18  21  1   
 38  18  22  2   
 39  19  23  2   
 40  20  24  2   
 41  20  25  1   
 42  21  26  1   
 43  22  27  1   
 44  22  45  1   
 45  23  24  1   
 46  23  28  1   
 47  24  46  1   
 48  25  47  1   
 49  25  48  1   
 50  25  49  1   
 51  26  27  2   
 52  27  29  1   
 53  28  50  1   
 54  28  51  1   
 55  28  52  1   
 56  29  53  1   
 57  29  54  1   
 58  29  55  1   
@<TRIPOS>SUBSTRUCTURE
  1 ****   2 GROUP 4 **** **** 0

# MOE 2024.06 (io_trps.svl 2023.06)
