@<TRIPOS>MOLECULE
NONAME
52 54 1 0 0 
SMALL
USER_CHARGES


@<TRIPOS>ATOM
  1 O        0.9080     0.0880     0.1260 O.2   1 <1>  -0.5700 
  2 C        1.1420    -0.9640     0.6850 C.2   1 <1>   0.7800 
  3 O        0.3080    -1.3780     1.6440 O.3   1 <1>  -0.4300 
  4 N        2.2270    -1.7580     0.4020 N.am  1 <1>  -0.6600 
  5 C       -0.8430    -0.6330     1.9880 C.3   1 <1>   0.0400 
  6 C        3.1940    -1.5100    -0.7340 C.3   1 <1>   0.2810 
  7 C        2.4090    -3.0930     1.0390 C.3   1 <1>   0.1400 
  8 C        3.2930    -0.0750    -1.3290 C.2   1 <1>   0.5690 
  9 C        2.9350    -2.5890    -1.8070 C.3   1 <1>  -0.1600 
 10 C        2.1490    -4.1830    -0.0050 C.3   1 <1>  -0.1600 
 11 O        2.9430     0.0930    -2.4780 O.2   1 <1>  -0.5700 
 12 N        3.8420     0.9660    -0.6040 N.am  1 <1>  -0.6600 
 13 C        3.0450    -4.0130    -1.2390 C.3   1 <1>  -0.1600 
 14 C        4.2650     0.8570     0.8250 C.3   1 <1>   0.1400 
 15 C        3.9020     2.3370    -1.1880 C.3   1 <1>   0.1400 
 16 C        5.7560     0.5080     0.9430 C.3   1 <1>   0.1400 
 17 C        5.2150     3.0720    -0.8790 C.3   1 <1>  -0.1600 
 18 N        6.6630     1.6210     0.5180 N.am  1 <1>  -0.6600 
 19 C        6.4480     2.1610    -0.8560 C.3   1 <1>   0.1400 
 20 C        7.7990     1.9120     1.2530 C.2   1 <1>   0.7160 
 21 O        8.1630     1.1090     2.0950 O.2   1 <1>  -0.5700 
 22 C        8.5740     3.1210     1.0530 C.2   1 <1>  -0.0860 
 23 C        8.1910     4.3870     0.6740 C.2   1 <1>  -0.3020 
 24 C        9.9660     3.2140     1.2510 C.2   1 <1>  -0.1500 
 25 N        9.2620     5.2120     0.6250 N.pl3 1 <1>   0.0330 
 26 C       10.3510     4.4850     0.9800 C.2   1 <1>  -0.3020 
 27 H       -1.3650    -1.1540     2.7700 H     1 <1>   0.0800 
 28 H       -1.4700    -0.5410     1.1180 H     1 <1>   0.0800 
 29 H       -0.5380     0.3410     2.3290 H     1 <1>   0.0800 
 30 H        4.1760    -1.7080    -0.3480 H     1 <1>   0.0800 
 31 H        1.7420    -3.2260     1.8730 H     1 <1>   0.0800 
 32 H        3.4160    -3.1730     1.4090 H     1 <1>   0.0800 
 33 H        3.6440    -2.4730    -2.6070 H     1 <1>   0.0800 
 34 H        1.9530    -2.4330    -2.2220 H     1 <1>   0.0800 
 35 H        1.1140    -4.1400    -0.3000 H     1 <1>   0.0800 
 36 H        2.3220    -5.1490     0.4370 H     1 <1>   0.0800 
 37 H        4.0680    -4.2090    -0.9650 H     1 <1>   0.0800 
 38 H        2.7630    -4.7270    -1.9940 H     1 <1>   0.0800 
 39 H        3.6910     0.1000     1.3220 H     1 <1>   0.0800 
 40 H        4.0670     1.7810     1.3400 H     1 <1>   0.0800 
 41 H        3.0670     2.9100    -0.8200 H     1 <1>   0.0800 
 42 H        3.7990     2.2750    -2.2580 H     1 <1>   0.0800 
 43 H        5.9730    -0.3670     0.3580 H     1 <1>   0.0800 
 44 H        5.9480     0.2640     1.9730 H     1 <1>   0.0800 
 45 H        5.1280     3.5970     0.0550 H     1 <1>   0.0800 
 46 H        5.3520     3.8150    -1.6440 H     1 <1>   0.0800 
 47 H        7.3120     2.7200    -1.1690 H     1 <1>   0.0800 
 48 H        6.3280     1.3490    -1.5530 H     1 <1>   0.0800 
 49 H        7.1980     4.7290     0.4480 H     1 <1>   0.1500 
 50 H       10.5830     2.3890     1.5680 H     1 <1>   0.1500 
 51 H        9.2590     6.2090     0.3790 H     1 <1>   0.2700 
 52 H       11.3390     4.9100     1.0270 H     1 <1>   0.1500 
@<TRIPOS>BOND
  1   1   2  2   
  2   2   3  1   
  3   2   4  am  
  4   3   5  1   
  5   4   6  1   
  6   4   7  1   
  7   5  27  1   
  8   5  28  1   
  9   5  29  1   
 10   6   8  1   
 11   6   9  1   
 12   6  30  1   
 13   7  10  1   
 14   7  31  1   
 15   7  32  1   
 16   8  11  2   
 17   8  12  am  
 18   9  13  1   
 19   9  33  1   
 20   9  34  1   
 21  10  13  1   
 22  10  35  1   
 23  10  36  1   
 24  12  14  1   
 25  12  15  1   
 26  13  37  1   
 27  13  38  1   
 28  14  16  1   
 29  14  39  1   
 30  14  40  1   
 31  15  17  1   
 32  15  41  1   
 33  15  42  1   
 34  16  18  1   
 35  16  43  1   
 36  16  44  1   
 37  17  19  1   
 38  17  45  1   
 39  17  46  1   
 40  18  19  1   
 41  18  20  am  
 42  19  47  1   
 43  19  48  1   
 44  20  21  2   
 45  20  22  1   
 46  22  23  2   
 47  22  24  1   
 48  23  25  1   
 49  23  49  1   
 50  24  26  2   
 51  24  50  1   
 52  25  26  1   
 53  25  51  1   
 54  26  52  1   
@<TRIPOS>SUBSTRUCTURE
  1 ****  14 GROUP 4 **** **** 0

# MOE 2024.06 (io_trps.svl 2023.06)
