@<TRIPOS>MOLECULE
NONAME
44 46 1 0 0 
SMALL
USER_CHARGES


@<TRIPOS>ATOM
  1 CL       1.1250    -1.4130    -2.9720 Cl    1 <1>  -0.1770 
  2 C        1.0990    -2.5600    -1.6550 C.ar  1 <1>   0.1770 
  3 C       -0.0460    -3.3020    -1.4270 C.ar  1 <1>  -0.1500 
  4 C        2.2210    -2.7000    -0.8590 C.ar  1 <1>  -0.1500 
  5 C       -0.0800    -4.2130    -0.3800 C.ar  1 <1>  -0.1440 
  6 C        2.1960    -3.6130     0.1800 C.ar  1 <1>  -0.1500 
  7 C        1.0570    -4.3730     0.4060 C.ar  1 <1>   0.0830 
  8 C       -1.3550    -4.9870    -0.0850 C.3   1 <1>   0.2540 
  9 O        1.0860    -5.2810     1.4000 O.3   1 <1>  -0.3630 
 10 N       -1.1760    -6.4330    -0.2870 N.3   1 <1>  -0.8100 
 11 C        0.9830    -6.6320     0.9960 C.3   1 <1>   0.1200 
 12 C       -0.4790    -7.0720     0.8500 C.3   1 <1>   0.1100 
 13 C       -2.4790    -7.0790    -0.5990 C.3   1 <1>   0.2530 
 14 C       -2.4100    -8.5950    -0.8500 C.ar  1 <1>   0.1670 
 15 N       -1.8970    -8.9390    -2.0260 N.ar  1 <1>  -0.6200 
 16 C       -2.8740    -9.5160     0.0920 C.ar  1 <1>  -0.1430 
 17 C       -1.8080   -10.2320    -2.2770 C.ar  1 <1>   0.1600 
 18 C       -2.7960   -10.8680    -0.2200 C.ar  1 <1>   0.0830 
 19 C       -3.4600    -9.0820     1.4380 C.3   1 <1>  -0.0970 
 20 C       -2.2290   -11.2360    -1.4270 C.ar  1 <1>  -0.1430 
 21 O       -3.2480   -11.8140     0.6280 O.3   1 <1>  -0.3630 
 22 C       -2.0620   -12.6980    -1.8190 C.3   1 <1>  -0.0970 
 23 C       -4.6010   -12.1850     0.4930 C.3   1 <1>   0.0400 
 24 H       -0.8980    -3.1600    -2.0660 H     1 <1>   0.1500 
 25 H        3.0950    -2.1060    -1.0530 H     1 <1>   0.1500 
 26 H        3.0530    -3.7490     0.8140 H     1 <1>   0.1500 
 27 H       -2.1270    -4.6270    -0.7430 H     1 <1>   0.0800 
 28 H       -1.6690    -4.7920     0.9270 H     1 <1>   0.0800 
 29 H        1.4610    -7.2240     1.7550 H     1 <1>   0.0800 
 30 H        1.5120    -6.7660     0.0680 H     1 <1>   0.0800 
 31 H       -0.4600    -8.1370     0.6930 H     1 <1>   0.0800 
 32 H       -1.0030    -6.8830     1.7700 H     1 <1>   0.0800 
 33 H       -2.8650    -6.6350    -1.5000 H     1 <1>   0.0800 
 34 H       -3.1820    -6.8590     0.1810 H     1 <1>   0.0800 
 35 H       -1.3720   -10.5020    -3.2230 H     1 <1>   0.1500 
 36 H       -2.8800    -8.2920     1.8750 H     1 <1>   0.0800 
 37 H       -3.4640    -9.8910     2.1450 H     1 <1>   0.0800 
 38 H       -4.4710    -8.7440     1.3030 H     1 <1>   0.0800 
 39 H       -1.3600   -12.8010    -2.6270 H     1 <1>   0.0800 
 40 H       -3.0080   -13.1050    -2.1300 H     1 <1>   0.0800 
 41 H       -1.6980   -13.2660    -0.9810 H     1 <1>   0.0800 
 42 H       -4.8170   -12.9420     1.2250 H     1 <1>   0.0800 
 43 H       -4.7610   -12.5710    -0.4970 H     1 <1>   0.0800 
 44 H       -5.2180   -11.3200     0.6600 H     1 <1>   0.0800 
@<TRIPOS>BOND
  1   1   2  1   
  2   2   3  ar  
  3   2   4  ar  
  4   3   5  ar  
  5   3  24  1   
  6   4   6  ar  
  7   4  25  1   
  8   5   7  ar  
  9   5   8  1   
 10   6   7  ar  
 11   6  26  1   
 12   7   9  1   
 13   8  10  1   
 14   8  27  1   
 15   8  28  1   
 16   9  11  1   
 17  10  12  1   
 18  10  13  1   
 19  11  12  1   
 20  11  29  1   
 21  11  30  1   
 22  12  31  1   
 23  12  32  1   
 24  13  14  1   
 25  13  33  1   
 26  13  34  1   
 27  14  15  ar  
 28  14  16  ar  
 29  15  17  ar  
 30  16  18  ar  
 31  16  19  1   
 32  17  20  ar  
 33  17  35  1   
 34  18  20  ar  
 35  18  21  1   
 36  19  36  1   
 37  19  37  1   
 38  19  38  1   
 39  20  22  1   
 40  21  23  1   
 41  22  39  1   
 42  22  40  1   
 43  22  41  1   
 44  23  42  1   
 45  23  43  1   
 46  23  44  1   
@<TRIPOS>SUBSTRUCTURE
  1 ****  10 GROUP 4 **** **** 0

# MOE 2024.06 (io_trps.svl 2023.06)
