@<TRIPOS>MOLECULE
NONAME
53 57 1 0 0 
SMALL
USER_CHARGES


@<TRIPOS>ATOM
  1 O       -0.6270    -0.6910     2.6540 O.2   1 <1>  -0.5700 
  2 C       -0.4650    -0.3270     1.5150 C.2   1 <1>   0.5690 
  3 N       -1.1370    -0.9490     0.4860 N.am  1 <1>  -0.6600 
  4 C        0.4350     0.8870     1.2970 C.3   1 <1>   0.0440 
  5 C       -1.0020    -0.6300    -0.9690 C.3   1 <1>   0.1400 
  6 C       -2.3580    -1.7720     0.7690 C.3   1 <1>   0.1400 
  7 C       -0.2080     1.9850     0.4380 C.ar  1 <1>  -0.1440 
  8 C       -2.2050     0.2160    -1.4680 C.3   1 <1>   0.4230 
  9 C       -3.6110    -1.1810     0.0770 C.3   1 <1>   0.3430 
 10 C       -1.4700     2.5470     0.7750 C.ar  1 <1>   0.0000 
 11 C        0.4530     2.3990    -0.6900 C.ar  1 <1>  -0.1500 
 12 N       -3.3610     0.1990    -0.4840 N.4   1 <1>  -0.9590 
 13 C       -2.6480    -0.2440    -2.8750 C.3   1 <1>   0.1200 
 14 C       -2.0610     3.4640    -0.1280 C.ar  1 <1>   0.0000 
 15 C       -2.1890     2.2500     1.9580 C.ar  1 <1>  -0.1500 
 16 C       -0.1180     3.3350    -1.5550 C.ar  1 <1>  -0.1500 
 17 C       -4.5600     0.8970    -1.0480 C.3   1 <1>   0.5180 
 18 O       -3.7610     0.4820    -3.3060 O.3   1 <1>  -0.5600 
 19 C       -1.3530     3.8460    -1.2830 C.ar  1 <1>  -0.1500 
 20 C       -3.3400     3.9860     0.1490 C.ar  1 <1>  -0.1500 
 21 C       -3.4280     2.7720     2.2040 C.ar  1 <1>  -0.1500 
 22 C       -5.7370     0.7880    -0.0570 C.3   1 <1>  -0.1950 
 23 C       -4.8840     0.3870    -2.4740 C.3   1 <1>   0.1200 
 24 C       -4.0160     3.6460     1.2860 C.ar  1 <1>  -0.1500 
 25 C       -6.7370    -0.3310    -0.0290 C.3   1 <1>  -0.2000 
 26 C       -7.1600     1.0490    -0.4470 C.3   1 <1>  -0.2000 
 27 H        0.6880     1.3060     2.2540 H     1 <1>   0.0800 
 28 H        1.3520     0.5440     0.8550 H     1 <1>   0.0800 
 29 H       -0.0770    -0.1230    -1.1740 H     1 <1>   0.0800 
 30 H       -0.9610    -1.5590    -1.5120 H     1 <1>   0.0800 
 31 H       -2.1970    -2.7810     0.4300 H     1 <1>   0.0800 
 32 H       -2.5430    -1.8230     1.8290 H     1 <1>   0.0800 
 33 H       -1.8620     1.2320    -1.5690 H     1 <1>   0.0800 
 34 H       -4.4100    -1.1490     0.7990 H     1 <1>   0.0800 
 35 H       -3.9180    -1.8420    -0.7150 H     1 <1>   0.0800 
 36 H        1.4270     2.0140    -0.9430 H     1 <1>   0.1500 
 37 H       -3.0400     0.7750     0.3110 H     1 <1>   0.4500 
 38 H       -2.8970    -1.2910    -2.8850 H     1 <1>   0.0800 
 39 H       -1.8570    -0.0730    -3.5850 H     1 <1>   0.0800 
 40 H       -1.7490     1.6150     2.7060 H     1 <1>   0.1500 
 41 H        0.4290     3.6460    -2.4300 H     1 <1>   0.1500 
 42 H       -4.3230     1.9430    -1.1460 H     1 <1>   0.0800 
 43 H       -1.7980     4.5670    -1.9480 H     1 <1>   0.1500 
 44 H       -3.7760     4.6790    -0.5500 H     1 <1>   0.1500 
 45 H       -3.9560     2.5370     3.1140 H     1 <1>   0.1500 
 46 H       -5.4600     1.2080     0.8940 H     1 <1>   0.1000 
 47 H       -5.6580     0.9910    -2.9130 H     1 <1>   0.0800 
 48 H       -5.2160    -0.6360    -2.4600 H     1 <1>   0.0800 
 49 H       -4.9890     4.0560     1.5000 H     1 <1>   0.1500 
 50 H       -6.7560    -1.0970    -0.7850 H     1 <1>   0.1000 
 51 H       -7.0930    -0.6950     0.9210 H     1 <1>   0.1000 
 52 H       -7.7870     1.6140     0.2240 H     1 <1>   0.1000 
 53 H       -7.4450     1.1960    -1.4750 H     1 <1>   0.1000 
@<TRIPOS>BOND
  1   1   2  2   
  2   2   3  am  
  3   2   4  1   
  4   3   5  1   
  5   3   6  1   
  6   4   7  1   
  7   4  27  1   
  8   4  28  1   
  9   5   8  1   
 10   5  29  1   
 11   5  30  1   
 12   6   9  1   
 13   6  31  1   
 14   6  32  1   
 15   7  10  ar  
 16   7  11  ar  
 17   8  12  1   
 18   8  13  1   
 19   8  33  1   
 20   9  12  1   
 21   9  34  1   
 22   9  35  1   
 23  10  14  ar  
 24  10  15  ar  
 25  11  16  ar  
 26  11  36  1   
 27  12  17  1   
 28  12  37  1   
 29  13  18  1   
 30  13  38  1   
 31  13  39  1   
 32  14  19  ar  
 33  14  20  ar  
 34  15  21  ar  
 35  15  40  1   
 36  16  19  ar  
 37  16  41  1   
 38  17  22  1   
 39  17  23  1   
 40  17  42  1   
 41  18  23  1   
 42  19  43  1   
 43  20  24  ar  
 44  20  44  1   
 45  21  24  ar  
 46  21  45  1   
 47  22  25  1   
 48  22  26  1   
 49  22  46  1   
 50  23  47  1   
 51  23  48  1   
 52  24  49  1   
 53  25  26  1   
 54  25  50  1   
 55  25  51  1   
 56  26  52  1   
 57  26  53  1   
@<TRIPOS>SUBSTRUCTURE
  1 ****  12 GROUP 4 **** **** 0

# MOE 2024.06 (io_trps.svl 2023.06)
