@<TRIPOS>MOLECULE
NONAME
48 50 1 0 0 
SMALL
USER_CHARGES


@<TRIPOS>ATOM
  1 O        0.3920    -0.6780    -0.3250 O.2   1 <1>  -0.5700 
  2 C        1.1130    -1.5840     0.0010 C.2   1 <1>   0.5690 
  3 N        0.7220    -2.5120     0.8980 N.am  1 <1>  -0.7300 
  4 C        2.5030    -1.7140    -0.5790 C.3   1 <1>  -0.0990 
  5 C        1.5920    -3.5930     1.3970 C.3   1 <1>   0.1400 
  6 C        2.8080    -3.1900    -0.9010 C.3   1 <1>  -0.0800 
  7 C        2.4630    -4.1640     0.2530 C.3   1 <1>  -0.0800 
  8 C        4.2850    -3.4220    -1.2600 C.3   1 <1>  -0.1600 
  9 C        3.8060    -4.7170     0.7420 C.3   1 <1>  -0.1600 
 10 C        4.6960    -4.6780    -0.4990 C.3   1 <1>   0.4230 
 11 N        6.1690    -4.7660    -0.2560 N.4   1 <1>  -0.9590 
 12 C        6.7460    -4.0640     0.9380 C.3   1 <1>   0.4860 
 13 C        6.6030    -6.1940    -0.2590 C.3   1 <1>   0.2630 
 14 C        6.8310    -2.5700     0.6860 C.ar  1 <1>  -0.1440 
 15 C        7.7770    -2.0170    -0.1770 C.ar  1 <1>  -0.1440 
 16 C        5.9370    -1.7370     1.3480 C.ar  1 <1>  -0.1500 
 17 C        7.7780    -0.6450    -0.3850 C.ar  1 <1>  -0.1500 
 18 C        8.8510    -2.8330    -0.8950 C.3   1 <1>  -0.0170 
 19 C        5.9500    -0.3730     1.1310 C.ar  1 <1>  -0.1500 
 20 C        6.8680     0.1730     0.2580 C.ar  1 <1>  -0.1500 
 21 C       10.0570    -3.0560     0.0200 C.3   1 <1>  -0.2400 
 22 H       -0.2060    -2.3930     1.3140 H     1 <1>   0.3700 
 23 H        2.5720    -1.1160    -1.4700 H     1 <1>   0.0800 
 24 H        3.1970    -1.3260     0.1420 H     1 <1>   0.0800 
 25 H        2.2120    -3.1840     2.1770 H     1 <1>   0.0800 
 26 H        0.9880    -4.3760     1.8240 H     1 <1>   0.0800 
 27 H        2.1960    -3.4620    -1.7470 H     1 <1>   0.0800 
 28 H        1.9120    -4.9820    -0.1820 H     1 <1>   0.0800 
 29 H        4.8670    -2.5700    -0.9720 H     1 <1>   0.0800 
 30 H        4.3930    -3.5670    -2.3200 H     1 <1>   0.0800 
 31 H        3.6990    -5.7170     1.1250 H     1 <1>   0.0800 
 32 H        4.1780    -4.0710     1.5110 H     1 <1>   0.0800 
 33 H        4.4020    -5.5100    -1.1200 H     1 <1>   0.0800 
 34 H        6.5990    -4.2870    -1.0580 H     1 <1>   0.4500 
 35 H        6.1620    -4.2650     1.8200 H     1 <1>   0.0800 
 36 H        7.7450    -4.4250     1.1210 H     1 <1>   0.0800 
 37 H        6.1680    -6.7200     0.5760 H     1 <1>   0.0800 
 38 H        7.6770    -6.2620    -0.1880 H     1 <1>   0.0800 
 39 H        6.2910    -6.6790    -1.1710 H     1 <1>   0.0800 
 40 H        5.2170    -2.1300     2.0430 H     1 <1>   0.1500 
 41 H        8.4970    -0.1940    -1.0470 H     1 <1>   0.1500 
 42 H        8.4740    -3.7790    -1.2320 H     1 <1>   0.0800 
 43 H        9.1800    -2.3020    -1.7730 H     1 <1>   0.0800 
 44 H        5.2510     0.2680     1.6420 H     1 <1>   0.1500 
 45 H        6.8820     1.2360     0.0840 H     1 <1>   0.1500 
 46 H        9.7800    -3.5980     0.9050 H     1 <1>   0.0800 
 47 H       10.4700    -2.1080     0.3190 H     1 <1>   0.0800 
 48 H       10.8210    -3.6080    -0.5000 H     1 <1>   0.0800 
@<TRIPOS>BOND
  1   1   2  2   
  2   2   3  am  
  3   2   4  1   
  4   3   5  1   
  5   3  22  1   
  6   4   6  1   
  7   4  23  1   
  8   4  24  1   
  9   5   7  1   
 10   5  25  1   
 11   5  26  1   
 12   6   7  1   
 13   6   8  1   
 14   6  27  1   
 15   7   9  1   
 16   7  28  1   
 17   8  10  1   
 18   8  29  1   
 19   8  30  1   
 20   9  10  1   
 21   9  31  1   
 22   9  32  1   
 23  10  11  1   
 24  10  33  1   
 25  11  12  1   
 26  11  13  1   
 27  11  34  1   
 28  12  14  1   
 29  12  35  1   
 30  12  36  1   
 31  13  37  1   
 32  13  38  1   
 33  13  39  1   
 34  14  15  ar  
 35  14  16  ar  
 36  15  17  ar  
 37  15  18  1   
 38  16  19  ar  
 39  16  40  1   
 40  17  20  ar  
 41  17  41  1   
 42  18  21  1   
 43  18  42  1   
 44  18  43  1   
 45  19  20  ar  
 46  19  44  1   
 47  20  45  1   
 48  21  46  1   
 49  21  47  1   
 50  21  48  1   
@<TRIPOS>SUBSTRUCTURE
  1 ****   8 GROUP 4 **** **** 0

# MOE 2024.06 (io_trps.svl 2023.06)
