@<TRIPOS>MOLECULE
NONAME
49 51 1 0 0 
SMALL
USER_CHARGES


@<TRIPOS>ATOM
  1 F       -0.8900    -0.3300     1.2730 F     1 <1>  -0.1900 
  2 C       -2.0890     0.1670     1.1090 C.ar  1 <1>   0.1900 
  3 C       -2.3810     1.5090     1.3740 C.ar  1 <1>   0.0830 
  4 C       -3.0600    -0.7080     0.6610 C.ar  1 <1>  -0.1500 
  5 O       -1.5140     2.4650     1.8170 O.3   1 <1>  -0.3630 
  6 C       -3.6840     1.9350     1.1730 C.ar  1 <1>  -0.1500 
  7 C       -4.3500    -0.2490     0.4730 C.ar  1 <1>  -0.1500 
  8 C       -0.1400     2.2220     2.0240 C.3   1 <1>   0.0400 
  9 C       -4.6950     1.0820     0.7220 C.ar  1 <1>   0.0530 
 10 C       -6.0410     1.5730     0.5320 C.2   1 <1>   0.0870 
 11 O       -6.4380     2.6560     1.1520 O.3   1 <1>  -0.0190 
 12 C       -7.1020     1.1340    -0.1970 C.2   1 <1>  -0.0860 
 13 N       -7.6770     2.9740     0.8910 N.2   1 <1>  -0.4100 
 14 C       -8.1000     2.0780     0.0690 C.2   1 <1>   0.3720 
 15 C       -7.2250     0.0010    -1.0590 C.2   1 <1>   0.7160 
 16 N       -9.3950     2.0650    -0.4760 N.pl3 1 <1>  -0.8210 
 17 O       -6.4760    -0.0880    -2.0140 O.2   1 <1>  -0.5700 
 18 N       -8.1290    -1.0200    -0.8270 N.am  1 <1>  -0.6600 
 19 C       -9.4400     2.3420    -1.9380 C.3   1 <1>   0.1290 
 20 C      -10.4120     2.8610     0.2690 C.3   1 <1>   0.1290 
 21 C       -8.3430    -2.1230    -1.8220 C.3   1 <1>   0.1400 
 22 C       -9.0420    -1.0510     0.3550 C.3   1 <1>   0.1400 
 23 C       -8.2500    -3.4840    -1.1260 C.3   1 <1>   0.2000 
 24 C       -8.9410    -2.4060     1.0630 C.3   1 <1>  -0.1600 
 25 O       -8.5820    -4.4940    -2.0170 O.3   1 <1>  -0.6800 
 26 C       -9.2060    -3.5440     0.0770 C.3   1 <1>   0.2000 
 27 O       -9.0670    -4.7580     0.7390 O.3   1 <1>  -0.6800 
 28 H       -2.8050    -1.7330     0.4630 H     1 <1>   0.1500 
 29 H       -3.9120     2.9670     1.3730 H     1 <1>   0.1500 
 30 H       -5.0930    -0.9430     0.1270 H     1 <1>   0.1500 
 31 H        0.3170     3.1420     2.3420 H     1 <1>   0.0800 
 32 H        0.3020     1.8960     1.1000 H     1 <1>   0.0800 
 33 H       -0.0280     1.4760     2.7910 H     1 <1>   0.0800 
 34 H      -10.4190     2.1160    -2.3230 H     1 <1>   0.0800 
 35 H       -8.7210     1.7370    -2.4620 H     1 <1>   0.0800 
 36 H       -9.2180     3.3800    -2.1220 H     1 <1>   0.0800 
 37 H      -11.3980     2.6300    -0.0940 H     1 <1>   0.0800 
 38 H      -10.2230     3.9140     0.1430 H     1 <1>   0.0800 
 39 H      -10.3660     2.6240     1.3180 H     1 <1>   0.0800 
 40 H       -9.3190    -2.0090    -2.2600 H     1 <1>   0.0800 
 41 H       -7.6100    -2.0820    -2.6090 H     1 <1>   0.0800 
 42 H       -8.7970    -0.2740     1.0570 H     1 <1>   0.0800 
 43 H      -10.0510    -0.8810     0.0180 H     1 <1>   0.0800 
 44 H       -7.2360    -3.6450    -0.8060 H     1 <1>   0.0800 
 45 H       -9.6680    -2.4400     1.8550 H     1 <1>   0.0800 
 46 H       -7.9590    -2.4990     1.4910 H     1 <1>   0.0800 
 47 H       -8.8050    -5.2960    -1.4990 H     1 <1>   0.4000 
 48 H      -10.2220    -3.4800    -0.2760 H     1 <1>   0.0800 
 49 H       -8.2020    -4.8060     1.1880 H     1 <1>   0.4000 
@<TRIPOS>BOND
  1   1   2  1   
  2   2   3  ar  
  3   2   4  ar  
  4   3   5  1   
  5   3   6  ar  
  6   4   7  ar  
  7   4  28  1   
  8   5   8  1   
  9   6   9  ar  
 10   6  29  1   
 11   7   9  ar  
 12   7  30  1   
 13   8  31  1   
 14   8  32  1   
 15   8  33  1   
 16   9  10  1   
 17  10  11  1   
 18  10  12  2   
 19  11  13  1   
 20  12  14  1   
 21  12  15  1   
 22  13  14  2   
 23  14  16  1   
 24  15  17  2   
 25  15  18  am  
 26  16  19  1   
 27  16  20  1   
 28  18  21  1   
 29  18  22  1   
 30  19  34  1   
 31  19  35  1   
 32  19  36  1   
 33  20  37  1   
 34  20  38  1   
 35  20  39  1   
 36  21  23  1   
 37  21  40  1   
 38  21  41  1   
 39  22  24  1   
 40  22  42  1   
 41  22  43  1   
 42  23  25  1   
 43  23  26  1   
 44  23  44  1   
 45  24  26  1   
 46  24  45  1   
 47  24  46  1   
 48  25  47  1   
 49  26  27  1   
 50  26  48  1   
 51  27  49  1   
@<TRIPOS>SUBSTRUCTURE
  1 ****  12 GROUP 4 **** **** 0

# MOE 2024.06 (io_trps.svl 2023.06)
