@<TRIPOS>MOLECULE
NONAME
47 49 1 0 0 
SMALL
USER_CHARGES


@<TRIPOS>ATOM
  1 S        0.0060    -1.0550     0.1290 S.3   1 <1>  -0.3320 
  2 C       -1.6780    -1.6440     0.3560 C.ar  1 <1>   0.1020 
  3 C        0.7770    -2.1270    -1.1620 C.3   1 <1>  -0.0100 
  4 C       -2.2010    -2.6960    -0.3790 C.ar  1 <1>  -0.1500 
  5 C       -2.4480    -1.0010     1.3070 C.ar  1 <1>  -0.1500 
  6 C       -3.5070    -3.0940    -0.1550 C.ar  1 <1>  -0.1500 
  7 C       -3.7520    -1.4090     1.5220 C.ar  1 <1>  -0.1500 
  8 C       -4.3140    -2.4570     0.7890 C.ar  1 <1>   0.0860 
  9 C       -5.6850    -2.8820     0.9950 C.2   1 <1>   0.5440 
 10 O       -5.9060    -4.0490     1.2600 O.2   1 <1>  -0.5700 
 11 N       -6.7420    -2.0010     0.8860 N.am  1 <1>  -0.6600 
 12 C       -8.1450    -2.4260     1.1750 C.3   1 <1>   0.1400 
 13 C       -6.6010    -0.6420     0.2800 C.3   1 <1>   0.1400 
 14 C       -9.0140    -2.4710    -0.1140 C.3   1 <1>   0.0000 
 15 C       -7.9020    -0.1750    -0.3910 C.3   1 <1>  -0.1600 
 16 C      -10.5000    -2.4460     0.3140 C.3   1 <1>   0.2000 
 17 C       -8.5970    -1.3430    -1.1040 C.3   1 <1>  -0.1600 
 18 C       -8.8880    -3.8550    -0.7740 C.3   1 <1>  -0.1600 
 19 O      -11.3220    -2.1790    -0.7880 O.3   1 <1>  -0.5600 
 20 C      -10.7900    -3.8770     0.7810 C.3   1 <1>  -0.1600 
 21 C       -9.8440    -4.7860    -0.0170 C.3   1 <1>  -0.1600 
 22 C      -12.5640    -1.6310    -0.4820 C.3   1 <1>   0.0400 
 23 H        1.7890    -1.7920    -1.2990 H     1 <1>   0.0800 
 24 H        0.2120    -2.0140    -2.0690 H     1 <1>   0.0800 
 25 H        0.7560    -3.1420    -0.8060 H     1 <1>   0.0800 
 26 H       -1.6140    -3.2080    -1.1150 H     1 <1>   0.1500 
 27 H       -2.0230    -0.1910     1.8740 H     1 <1>   0.1500 
 28 H       -3.9230    -3.9140    -0.7150 H     1 <1>   0.1500 
 29 H       -4.3490    -0.9180     2.2700 H     1 <1>   0.1500 
 30 H       -8.1550    -3.3820     1.6690 H     1 <1>   0.0800 
 31 H       -8.5620    -1.7140     1.8650 H     1 <1>   0.0800 
 32 H       -6.3120     0.0630     1.0400 H     1 <1>   0.0800 
 33 H       -5.8250    -0.6730    -0.4660 H     1 <1>   0.0800 
 34 H       -8.5620     0.2450     0.3470 H     1 <1>   0.0800 
 35 H       -7.6740     0.6020    -1.0990 H     1 <1>   0.0800 
 36 H      -10.6830    -1.7090     1.0770 H     1 <1>   0.0800 
 37 H       -7.9000    -1.7470    -1.8180 H     1 <1>   0.0800 
 38 H       -9.4360    -0.9770    -1.6670 H     1 <1>   0.0800 
 39 H       -9.2180    -3.7900    -1.7970 H     1 <1>   0.0800 
 40 H       -7.8760    -4.2210    -0.7610 H     1 <1>   0.0800 
 41 H      -10.5530    -3.9600     1.8270 H     1 <1>   0.0800 
 42 H      -11.8190    -4.1530     0.6410 H     1 <1>   0.0800 
 43 H       -9.2940    -5.4280     0.6500 H     1 <1>   0.0800 
 44 H      -10.3950    -5.3940    -0.7130 H     1 <1>   0.0800 
 45 H      -13.1070    -1.5040    -1.4020 H     1 <1>   0.0800 
 46 H      -12.4220    -0.6740    -0.0110 H     1 <1>   0.0800 
 47 H      -13.1030    -2.2980     0.1670 H     1 <1>   0.0800 
@<TRIPOS>BOND
  1   1   2  1   
  2   1   3  1   
  3   2   4  ar  
  4   2   5  ar  
  5   3  23  1   
  6   3  24  1   
  7   3  25  1   
  8   4   6  ar  
  9   4  26  1   
 10   5   7  ar  
 11   5  27  1   
 12   6   8  ar  
 13   6  28  1   
 14   7   8  ar  
 15   7  29  1   
 16   8   9  1   
 17   9  10  2   
 18   9  11  am  
 19  11  12  1   
 20  11  13  1   
 21  12  14  1   
 22  12  30  1   
 23  12  31  1   
 24  13  15  1   
 25  13  32  1   
 26  13  33  1   
 27  14  16  1   
 28  14  17  1   
 29  14  18  1   
 30  15  17  1   
 31  15  34  1   
 32  15  35  1   
 33  16  19  1   
 34  16  20  1   
 35  16  36  1   
 36  17  37  1   
 37  17  38  1   
 38  18  21  1   
 39  18  39  1   
 40  18  40  1   
 41  19  22  1   
 42  20  21  1   
 43  20  41  1   
 44  20  42  1   
 45  21  43  1   
 46  21  44  1   
 47  22  45  1   
 48  22  46  1   
 49  22  47  1   
@<TRIPOS>SUBSTRUCTURE
  1 ****  11 GROUP 4 **** **** 0

# MOE 2024.06 (io_trps.svl 2023.06)
