@<TRIPOS>MOLECULE
NONAME
58 61 1 0 0 
SMALL
USER_CHARGES


@<TRIPOS>ATOM
  1 O        0.8910     0.1940    -1.7110 O.2   1 <1>  -0.5700 
  2 C        1.6450    -0.0290    -0.7820 C.2   1 <1>   0.5440 
  3 N        1.1630    -0.7210     0.3070 N.am  1 <1>  -0.6600 
  4 C        3.0240     0.4190    -0.8520 C.ar  1 <1>   0.0860 
  5 C       -0.2410    -1.1830     0.3850 C.3   1 <1>   0.1400 
  6 C        2.0000    -1.4020     1.3190 C.3   1 <1>   0.1400 
  7 C        3.7980     0.1690    -1.9830 C.ar  1 <1>  -0.1500 
  8 C        3.6270     1.1160     0.1950 C.ar  1 <1>  -0.1500 
  9 C       -0.3010    -2.0490     1.6380 C.3   1 <1>  -0.1600 
 10 C        1.1290    -2.5410     1.8370 C.3   1 <1>  -0.1600 
 11 C        5.1180     0.5760    -2.0610 C.ar  1 <1>  -0.1500 
 12 C        4.9460     1.5240     0.1250 C.ar  1 <1>  -0.1500 
 13 C        5.7050     1.2530    -1.0030 C.ar  1 <1>  -0.1430 
 14 C        7.1550     1.6990    -1.0760 C.3   1 <1>   0.3530 
 15 N        7.1850     3.1740    -1.0730 N.pl3 1 <1>  -0.8690 
 16 C        8.1310     4.0260    -0.6570 C.ar  1 <1>   0.4100 
 17 N        7.7810     5.2900    -0.6640 N.ar  1 <1>  -0.6200 
 18 C        9.4080     3.6060    -0.2440 C.ar  1 <1>  -0.1500 
 19 C        8.6680     6.1930    -0.2660 C.ar  1 <1>   0.7710 
 20 C       10.3010     4.5380     0.1670 C.ar  1 <1>   0.2180 
 21 N        9.8970     5.8310     0.1470 N.ar  1 <1>  -0.1790 
 22 N        8.3350     7.5130    -0.2630 N.pl3 1 <1>  -0.8380 
 23 C       11.7070     4.2120     0.6400 C.3   1 <1>  -0.0970 
 24 C        6.9310     7.9720    -0.5330 C.3   1 <1>   0.2090 
 25 C        9.2370     8.6760     0.0090 C.3   1 <1>   0.2090 
 26 C        6.3950     8.6960     0.7070 C.3   1 <1>  -0.1600 
 27 C        8.7580     9.3980     1.2710 C.3   1 <1>  -0.1600 
 28 C        7.3020     9.8630     1.1270 C.3   1 <1>  -0.1600 
 29 H       -0.4680    -1.7660    -0.4920 H     1 <1>   0.0800 
 30 H       -0.9140    -0.3440     0.4430 H     1 <1>   0.0800 
 31 H        2.2200    -0.7130     2.1150 H     1 <1>   0.0800 
 32 H        2.9160    -1.7700     0.8880 H     1 <1>   0.0800 
 33 H        3.3460    -0.3510    -2.8100 H     1 <1>   0.1500 
 34 H        3.0450     1.3450     1.0700 H     1 <1>   0.1500 
 35 H       -1.0030    -2.8570     1.5300 H     1 <1>   0.0800 
 36 H       -0.5980    -1.4360     2.4710 H     1 <1>   0.0800 
 37 H        1.3450    -2.7760     2.8640 H     1 <1>   0.0800 
 38 H        1.3020    -3.4150     1.2320 H     1 <1>   0.0800 
 39 H        5.6800     0.3630    -2.9540 H     1 <1>   0.1500 
 40 H        5.3810     2.0610     0.9510 H     1 <1>   0.1500 
 41 H        7.6150     1.3330    -1.9790 H     1 <1>   0.0800 
 42 H        7.6930     1.3120    -0.2280 H     1 <1>   0.0800 
 43 H        6.2930     3.5850    -1.3710 H     1 <1>   0.4000 
 44 H        9.6480     2.5600    -0.2660 H     1 <1>   0.1500 
 45 H       10.4870     6.5880     0.4600 H     1 <1>   0.4570 
 46 H       11.8810     3.1510     0.5980 H     1 <1>   0.0800 
 47 H       11.8470     4.5350     1.6570 H     1 <1>   0.0800 
 48 H       12.4370     4.6950     0.0140 H     1 <1>   0.0800 
 49 H        6.2720     7.1550    -0.7720 H     1 <1>   0.0800 
 50 H        6.9310     8.6440    -1.3750 H     1 <1>   0.0800 
 51 H        9.1940     9.3560    -0.8270 H     1 <1>   0.0800 
 52 H       10.2630     8.3780     0.1270 H     1 <1>   0.0800 
 53 H        6.3130     7.9890     1.5130 H     1 <1>   0.0800 
 54 H        5.4070     9.0670     0.5000 H     1 <1>   0.0800 
 55 H        9.3850    10.2530     1.4550 H     1 <1>   0.0800 
 56 H        8.8440     8.7390     2.1170 H     1 <1>   0.0800 
 57 H        6.9540    10.2780     2.0580 H     1 <1>   0.0800 
 58 H        7.2470    10.6390     0.3810 H     1 <1>   0.0800 
@<TRIPOS>BOND
  1   1   2  2   
  2   2   3  am  
  3   2   4  1   
  4   3   5  1   
  5   3   6  1   
  6   4   7  ar  
  7   4   8  ar  
  8   5   9  1   
  9   5  29  1   
 10   5  30  1   
 11   6  10  1   
 12   6  31  1   
 13   6  32  1   
 14   7  11  ar  
 15   7  33  1   
 16   8  12  ar  
 17   8  34  1   
 18   9  10  1   
 19   9  35  1   
 20   9  36  1   
 21  10  37  1   
 22  10  38  1   
 23  11  13  ar  
 24  11  39  1   
 25  12  13  ar  
 26  12  40  1   
 27  13  14  1   
 28  14  15  1   
 29  14  41  1   
 30  14  42  1   
 31  15  16  1   
 32  15  43  1   
 33  16  17  ar  
 34  16  18  ar  
 35  17  19  ar  
 36  18  20  ar  
 37  18  44  1   
 38  19  21  ar  
 39  19  22  1   
 40  20  21  ar  
 41  20  23  1   
 42  21  45  1   
 43  22  24  1   
 44  22  25  1   
 45  23  46  1   
 46  23  47  1   
 47  23  48  1   
 48  24  26  1   
 49  24  49  1   
 50  24  50  1   
 51  25  27  1   
 52  25  51  1   
 53  25  52  1   
 54  26  28  1   
 55  26  53  1   
 56  26  54  1   
 57  27  28  1   
 58  27  55  1   
 59  27  56  1   
 60  28  57  1   
 61  28  58  1   
@<TRIPOS>SUBSTRUCTURE
  1 ****  15 GROUP 4 **** **** 0

# MOE 2024.06 (io_trps.svl 2023.06)
