@<TRIPOS>MOLECULE
NONAME
39 40 1 0 0 
SMALL
USER_CHARGES


@<TRIPOS>ATOM
  1 N       -0.1490     0.1940     0.4780 N.ar  1 <1>  -0.6200 
  2 C       -1.2510     0.8310     0.1420 C.ar  1 <1>   0.4100 
  3 C        0.9660     0.8880     0.4020 C.ar  1 <1>   0.4760 
  4 N       -2.4210     0.1220     0.2160 N.pl3 1 <1>  -0.8690 
  5 C       -1.2310     2.1600    -0.2670 C.ar  1 <1>  -0.1430 
  6 N        1.1150     2.1430     0.0270 N.ar  1 <1>  -0.6200 
  7 C        2.2340     0.1670     0.7890 C.3   1 <1>  -0.0970 
  8 C       -2.4750    -1.3440     0.3420 C.3   1 <1>   0.3530 
  9 C        0.0020     2.7660    -0.3040 C.ar  1 <1>   0.1600 
 10 C       -2.5360     2.8690    -0.6430 C.3   1 <1>  -0.0170 
 11 C       -3.8490    -1.7950    -0.1280 C.ar  1 <1>  -0.1430 
 12 C       -2.3930     4.3480    -1.0340 C.3   1 <1>  -0.1600 
 13 C       -4.9700    -1.8120     0.6870 C.ar  1 <1>  -0.1430 
 14 C       -4.0320    -2.2060    -1.4340 C.ar  1 <1>  -0.1500 
 15 C       -3.7520     4.9670    -1.3780 C.3   1 <1>  -0.2400 
 16 C       -6.1780    -2.2380     0.1510 C.ar  1 <1>   0.1600 
 17 C       -4.9020    -1.3730     2.1450 C.3   1 <1>  -0.0970 
 18 C       -5.2850    -2.6100    -1.8590 C.ar  1 <1>   0.1600 
 19 N       -6.3630    -2.6350    -1.0970 N.ar  1 <1>  -0.6200 
 20 H       -3.2520     0.5090    -0.2300 H     1 <1>   0.4000 
 21 H        2.0200    -0.8410     1.0910 H     1 <1>   0.0800 
 22 H        2.7040     0.6850     1.6030 H     1 <1>   0.0800 
 23 H        2.9030     0.1480    -0.0510 H     1 <1>   0.0800 
 24 H       -2.3010    -1.6250     1.3660 H     1 <1>   0.0800 
 25 H       -1.7070    -1.7920    -0.2670 H     1 <1>   0.0800 
 26 H        0.1060     3.7910    -0.6090 H     1 <1>   0.1500 
 27 H       -3.2090     2.8010     0.1940 H     1 <1>   0.0800 
 28 H       -2.9840     2.3390    -1.4670 H     1 <1>   0.0800 
 29 H       -1.7450     4.4360    -1.8890 H     1 <1>   0.0800 
 30 H       -1.9570     4.8970    -0.2160 H     1 <1>   0.0800 
 31 H       -3.2090    -2.2140    -2.1260 H     1 <1>   0.1500 
 32 H       -4.2040     4.4510    -2.2070 H     1 <1>   0.0800 
 33 H       -3.6270     6.0010    -1.6480 H     1 <1>   0.0800 
 34 H       -4.4160     4.9140    -0.5320 H     1 <1>   0.0800 
 35 H       -7.0480    -2.2530     0.7850 H     1 <1>   0.1500 
 36 H       -4.4480    -0.4010     2.2200 H     1 <1>   0.0800 
 37 H       -4.3180    -2.0750     2.7130 H     1 <1>   0.0800 
 38 H       -5.8840    -1.3190     2.5780 H     1 <1>   0.0800 
 39 H       -5.4060    -2.9270    -2.8810 H     1 <1>   0.1500 
@<TRIPOS>BOND
  1   1   2  ar  
  2   1   3  ar  
  3   2   4  1   
  4   2   5  ar  
  5   3   6  ar  
  6   3   7  1   
  7   4   8  1   
  8   4  20  1   
  9   5   9  ar  
 10   5  10  1   
 11   6   9  ar  
 12   7  21  1   
 13   7  22  1   
 14   7  23  1   
 15   8  11  1   
 16   8  24  1   
 17   8  25  1   
 18   9  26  1   
 19  10  12  1   
 20  10  27  1   
 21  10  28  1   
 22  11  13  ar  
 23  11  14  ar  
 24  12  15  1   
 25  12  29  1   
 26  12  30  1   
 27  13  16  ar  
 28  13  17  1   
 29  14  18  ar  
 30  14  31  1   
 31  15  32  1   
 32  15  33  1   
 33  15  34  1   
 34  16  19  ar  
 35  16  35  1   
 36  17  36  1   
 37  17  37  1   
 38  17  38  1   
 39  18  19  ar  
 40  18  39  1   
@<TRIPOS>SUBSTRUCTURE
  1 ****   4 GROUP 4 **** **** 0

# MOE 2024.06 (io_trps.svl 2023.06)
