@<TRIPOS>MOLECULE
NONAME
42 43 1 0 0 
SMALL
USER_CHARGES


@<TRIPOS>ATOM
  1 S       -0.7480     1.0600    -1.2170 S.o2  1 <1>   1.4470 
  2 O       -1.2620     2.2350    -0.5450 O.2   1 <1>  -0.6500 
  3 O       -0.8590     0.9740    -2.6570 O.2   1 <1>  -0.6500 
  4 N       -1.5540    -0.2750    -0.5590 N.am  1 <1>  -0.8490 
  5 C        0.9730     0.8000    -0.7000 C.ar  1 <1>  -0.0090 
  6 C       -1.2120    -1.5450    -1.2270 C.3   1 <1>   0.1960 
  7 C       -3.0120    -0.0840    -0.5660 C.3   1 <1>   0.1960 
  8 C        1.3860     1.1330     0.5850 C.ar  1 <1>  -0.1500 
  9 C        1.9110     0.2280    -1.5590 C.ar  1 <1>  -0.1500 
 10 C       -1.6750    -2.7740    -0.4040 C.3   1 <1>  -0.1060 
 11 C       -3.7770    -1.3580    -0.1660 C.3   1 <1>  -0.1600 
 12 C        2.6900     0.8940     0.9690 C.ar  1 <1>   0.1900 
 13 C        3.2190    -0.0070    -1.1610 C.ar  1 <1>  -0.1500 
 14 C       -2.0850    -3.8110    -1.4620 C.2   1 <1>   0.9060 
 15 C       -2.8480    -2.3520     0.5270 C.3   1 <1>   0.2000 
 16 C       -0.5010    -3.3730     0.4300 C.3   1 <1>  -0.1600 
 17 F        3.0570     1.2110     2.1810 F     1 <1>  -0.1900 
 18 C        3.6200     0.3290     0.1200 C.ar  1 <1>  -0.1500 
 19 O       -3.1670    -4.4110    -1.3840 O.co2 1 <1>  -0.9000 
 20 O       -1.3080    -4.0230    -2.4020 O.co2 1 <1>  -0.9000 
 21 O       -3.5890    -3.4390     0.9380 O.3   1 <1>  -0.6800 
 22 C        0.1810    -2.4220     1.4310 C.3   1 <1>  -0.1600 
 23 C        1.3950    -3.0890     2.0820 C.3   1 <1>  -0.2400 
 24 H       -1.6790    -1.5520    -2.2010 H     1 <1>   0.0800 
 25 H       -0.1520    -1.6210    -1.3940 H     1 <1>   0.0800 
 26 H       -3.2550     0.7030     0.1300 H     1 <1>   0.0800 
 27 H       -3.3370     0.2280    -1.5450 H     1 <1>   0.0800 
 28 H        0.6920     1.5710     1.2820 H     1 <1>   0.1500 
 29 H        1.6090    -0.0440    -2.5580 H     1 <1>   0.1500 
 30 H       -4.1890    -1.8130    -1.0500 H     1 <1>   0.0800 
 31 H       -4.5900    -1.0960     0.4860 H     1 <1>   0.0800 
 32 H        3.9190    -0.4530    -1.8480 H     1 <1>   0.1500 
 33 H       -2.4740    -1.8790     1.4160 H     1 <1>   0.0800 
 34 H       -0.8720    -4.2330     0.9620 H     1 <1>   0.0800 
 35 H        0.2450    -3.7330    -0.2580 H     1 <1>   0.0800 
 36 H        4.6270     0.1570     0.4560 H     1 <1>   0.1500 
 37 H       -3.6600    -4.0280     0.1250 H     1 <1>   0.4000 
 38 H        0.5080    -1.5320     0.9290 H     1 <1>   0.0800 
 39 H       -0.5090    -2.1350     2.2040 H     1 <1>   0.0800 
 40 H        2.1190    -3.3590     1.3330 H     1 <1>   0.0800 
 41 H        1.0940    -3.9770     2.6100 H     1 <1>   0.0800 
 42 H        1.8570    -2.4130     2.7780 H     1 <1>   0.0800 
@<TRIPOS>BOND
  1   1   2  2   
  2   1   3  2   
  3   1   4  am  
  4   1   5  1   
  5   4   6  1   
  6   4   7  1   
  7   5   8  ar  
  8   5   9  ar  
  9   6  10  1   
 10   6  24  1   
 11   6  25  1   
 12   7  11  1   
 13   7  26  1   
 14   7  27  1   
 15   8  12  ar  
 16   8  28  1   
 17   9  13  ar  
 18   9  29  1   
 19  10  14  1   
 20  10  15  1   
 21  10  16  1   
 22  11  15  1   
 23  11  30  1   
 24  11  31  1   
 25  12  17  1   
 26  12  18  ar  
 27  13  18  ar  
 28  13  32  1   
 29  14  19  ar  
 30  14  20  ar  
 31  15  21  1   
 32  15  33  1   
 33  16  22  1   
 34  16  34  1   
 35  16  35  1   
 36  18  36  1   
 37  21  37  1   
 38  22  23  1   
 39  22  38  1   
 40  22  39  1   
 41  23  40  1   
 42  23  41  1   
 43  23  42  1   
@<TRIPOS>SUBSTRUCTURE
  1 ****   6 GROUP 4 **** **** 0

# MOE 2024.06 (io_trps.svl 2023.06)
