@<TRIPOS>MOLECULE
NONAME
39 40 1 0 0 
SMALL
USER_CHARGES


@<TRIPOS>ATOM
  1 CL      -0.4910    -0.3040    -0.1670 Cl    1 <1>  -0.1770 
  2 C       -0.2970    -2.0170     0.1080 C.ar  1 <1>   0.1770 
  3 C       -1.3470    -2.8700    -0.1670 C.ar  1 <1>  -0.1500 
  4 C        0.9070    -2.4900     0.5970 C.ar  1 <1>  -0.1500 
  5 C       -1.1960    -4.2300     0.0490 C.ar  1 <1>   0.0830 
  6 C        1.0600    -3.8490     0.8150 C.ar  1 <1>  -0.1500 
  7 O       -2.2620    -5.0150    -0.2410 O.3   1 <1>  -0.3630 
  8 C        0.0150    -4.7170     0.5430 C.ar  1 <1>  -0.1500 
  9 C       -2.2030    -6.4180    -0.0870 C.3   1 <1>   0.1200 
 10 C       -3.5580    -7.0050    -0.4850 C.3   1 <1>   0.1100 
 11 N       -3.5870    -8.4690    -0.2930 N.3   1 <1>  -0.8100 
 12 C       -4.9750    -8.9650    -0.2300 C.3   1 <1>   0.2480 
 13 C       -2.8270    -9.1670    -1.3470 C.3   1 <1>   0.0300 
 14 C       -5.0560   -10.3740     0.3570 C.2   1 <1>  -0.0380 
 15 N       -6.1370   -11.1620     0.0450 N.pl3 1 <1>  -0.5500 
 16 C       -4.1360   -10.9200     1.1860 C.2   1 <1>  -0.1360 
 17 C       -6.2610   -12.4270     0.5430 C.2   1 <1>   0.4390 
 18 C       -4.3070   -12.2390     1.6770 C.2   1 <1>   0.7670 
 19 N       -5.4070   -12.9740     1.3230 N.2   1 <1>  -0.6610 
 20 C       -7.4900   -13.1960     0.1270 C.3   1 <1>  -0.1790 
 21 O       -3.4780   -12.7430     2.4180 O.2   1 <1>  -0.5700 
 22 H       -2.2740    -2.4840    -0.5460 H     1 <1>   0.1500 
 23 H        1.7070    -1.8030     0.8020 H     1 <1>   0.1500 
 24 H        1.9930    -4.2290     1.1960 H     1 <1>   0.1500 
 25 H        0.1620    -5.7660     0.7230 H     1 <1>   0.1500 
 26 H       -1.9960    -6.6380     0.9450 H     1 <1>   0.0800 
 27 H       -1.4200    -6.7890    -0.7220 H     1 <1>   0.0800 
 28 H       -3.7770    -6.7610    -1.5110 H     1 <1>   0.0800 
 29 H       -4.3020    -6.5470     0.1440 H     1 <1>   0.0800 
 30 H       -5.4020    -8.9520    -1.2180 H     1 <1>   0.0800 
 31 H       -5.5640    -8.3170     0.3970 H     1 <1>   0.0800 
 32 H       -1.7920    -8.8730    -1.3210 H     1 <1>   0.0800 
 33 H       -3.2300    -8.9410    -2.3190 H     1 <1>   0.0800 
 34 H       -2.8670   -10.2320    -1.1960 H     1 <1>   0.0800 
 35 H       -6.8770   -10.8190    -0.5710 H     1 <1>   0.4000 
 36 H       -3.2560   -10.3960     1.5040 H     1 <1>   0.1500 
 37 H       -8.3740   -12.6790     0.4500 H     1 <1>   0.0800 
 38 H       -7.4810   -14.1730     0.5770 H     1 <1>   0.0800 
 39 H       -7.5080   -13.3110    -0.9410 H     1 <1>   0.0800 
@<TRIPOS>BOND
  1   1   2  1   
  2   2   3  ar  
  3   2   4  ar  
  4   3   5  ar  
  5   3  22  1   
  6   4   6  ar  
  7   4  23  1   
  8   5   7  1   
  9   5   8  ar  
 10   6   8  ar  
 11   6  24  1   
 12   7   9  1   
 13   8  25  1   
 14   9  10  1   
 15   9  26  1   
 16   9  27  1   
 17  10  11  1   
 18  10  28  1   
 19  10  29  1   
 20  11  12  1   
 21  11  13  1   
 22  12  14  1   
 23  12  30  1   
 24  12  31  1   
 25  13  32  1   
 26  13  33  1   
 27  13  34  1   
 28  14  15  1   
 29  14  16  2   
 30  15  17  1   
 31  15  35  1   
 32  16  18  1   
 33  16  36  1   
 34  17  19  2   
 35  17  20  1   
 36  18  19  1   
 37  18  21  2   
 38  20  37  1   
 39  20  38  1   
 40  20  39  1   
@<TRIPOS>SUBSTRUCTURE
  1 ****  11 GROUP 4 **** **** 0

# MOE 2024.06 (io_trps.svl 2023.06)
