@<TRIPOS>MOLECULE
NONAME
53 56 1 0 0 
SMALL
USER_CHARGES


@<TRIPOS>ATOM
  1 O       -2.0860    -1.0790    -0.6880 O.3   1 <1>  -0.3630 
  2 C       -1.6680    -2.3560    -0.4640 C.ar  1 <1>   0.0820 
  3 C       -3.3820    -0.6490    -0.3360 C.3   1 <1>   0.0400 
  4 C       -0.3000    -2.6700    -0.6440 C.ar  1 <1>   0.0820 
  5 C       -2.5260    -3.3500    -0.0510 C.ar  1 <1>  -0.1500 
  6 O        0.6250    -1.7670    -1.0640 O.3   1 <1>  -0.3630 
  7 C        0.1510    -3.9360    -0.3770 C.ar  1 <1>  -0.1500 
  8 C       -2.0870    -4.6560     0.2100 C.ar  1 <1>   0.3100 
  9 C        0.3650    -1.0200    -2.2320 C.3   1 <1>   0.0400 
 10 C       -0.7140    -4.9610     0.0540 C.ar  1 <1>   0.0000 
 11 N       -3.0140    -5.5610     0.6010 N.ar  1 <1>  -0.6200 
 12 C       -0.3000    -6.2790     0.3430 C.ar  1 <1>  -0.1440 
 13 C       -2.6040    -6.7720     0.8520 C.ar  1 <1>   0.4100 
 14 C       -1.2560    -7.1620     0.7390 C.ar  1 <1>  -0.1500 
 15 C        1.1570    -6.7030     0.2240 C.3   1 <1>  -0.0970 
 16 N       -3.5430    -7.7130     1.2320 N.pl3 1 <1>  -0.8380 
 17 C       -4.6880    -7.2950     2.0870 C.3   1 <1>   0.2090 
 18 C       -3.7760    -8.8720     0.3340 C.3   1 <1>   0.2090 
 19 C       -5.9250    -7.0420     1.2240 C.3   1 <1>  -0.1600 
 20 C       -4.9990    -8.5990    -0.5410 C.3   1 <1>  -0.1600 
 21 C       -6.2340    -8.2070     0.2780 C.3   1 <1>   0.4240 
 22 O       -6.5480    -9.2930     1.0730 O.3   1 <1>  -0.6800 
 23 C       -7.4200    -7.8740    -0.6400 C.ar  1 <1>  -0.1440 
 24 C       -8.6050    -8.6050    -0.6230 C.ar  1 <1>   0.1600 
 25 C       -7.3330    -6.8140    -1.5280 C.ar  1 <1>  -0.1500 
 26 N       -9.6630    -8.3720    -1.3870 N.ar  1 <1>  -0.6200 
 27 C       -8.4220    -6.5580    -2.3310 C.ar  1 <1>  -0.1500 
 28 C       -9.5460    -7.3560    -2.2220 C.ar  1 <1>   0.1600 
 29 H       -3.4480     0.4060    -0.5330 H     1 <1>   0.0800 
 30 H       -3.5410    -0.8360     0.7110 H     1 <1>   0.0800 
 31 H       -4.1010    -1.1780    -0.9370 H     1 <1>   0.0800 
 32 H       -3.5720    -3.1740     0.0920 H     1 <1>   0.1500 
 33 H        1.1960    -4.1420    -0.5050 H     1 <1>   0.1500 
 34 H        1.3070    -0.7170    -2.6520 H     1 <1>   0.0800 
 35 H       -0.2100    -0.1510    -1.9700 H     1 <1>   0.0800 
 36 H       -0.1730    -1.6330    -2.9330 H     1 <1>   0.0800 
 37 H       -1.0170    -8.1770     0.9860 H     1 <1>   0.1500 
 38 H        1.7680    -6.1070     0.8790 H     1 <1>   0.0800 
 39 H        1.4970    -6.5750    -0.7880 H     1 <1>   0.0800 
 40 H        1.2790    -7.7360     0.4950 H     1 <1>   0.0800 
 41 H       -4.4330    -6.3970     2.6260 H     1 <1>   0.0800 
 42 H       -4.8860    -8.0640     2.8130 H     1 <1>   0.0800 
 43 H       -3.9220    -9.7590     0.9260 H     1 <1>   0.0800 
 44 H       -2.9180    -9.0320    -0.2960 H     1 <1>   0.0800 
 45 H       -5.7420    -6.1530     0.6500 H     1 <1>   0.0800 
 46 H       -6.7780    -6.8460     1.8480 H     1 <1>   0.0800 
 47 H       -5.2240    -9.4620    -1.1410 H     1 <1>   0.0800 
 48 H       -4.7460    -7.8000    -1.2120 H     1 <1>   0.0800 
 49 H       -5.7980    -9.4640     1.6690 H     1 <1>   0.4000 
 50 H       -8.7010    -9.4340     0.0580 H     1 <1>   0.1500 
 51 H       -6.4490    -6.2030    -1.6000 H     1 <1>   0.1500 
 52 H       -8.4040    -5.7470    -3.0360 H     1 <1>   0.1500 
 53 H      -10.3930    -7.1470    -2.8540 H     1 <1>   0.1500 
@<TRIPOS>BOND
  1   1   2  1   
  2   1   3  1   
  3   2   4  ar  
  4   2   5  ar  
  5   3  29  1   
  6   3  30  1   
  7   3  31  1   
  8   4   6  1   
  9   4   7  ar  
 10   5   8  ar  
 11   5  32  1   
 12   6   9  1   
 13   7  10  ar  
 14   7  33  1   
 15   8  10  ar  
 16   8  11  ar  
 17   9  34  1   
 18   9  35  1   
 19   9  36  1   
 20  10  12  ar  
 21  11  13  ar  
 22  12  14  ar  
 23  12  15  1   
 24  13  14  ar  
 25  13  16  1   
 26  14  37  1   
 27  15  38  1   
 28  15  39  1   
 29  15  40  1   
 30  16  17  1   
 31  16  18  1   
 32  17  19  1   
 33  17  41  1   
 34  17  42  1   
 35  18  20  1   
 36  18  43  1   
 37  18  44  1   
 38  19  21  1   
 39  19  45  1   
 40  19  46  1   
 41  20  21  1   
 42  20  47  1   
 43  20  48  1   
 44  21  22  1   
 45  21  23  1   
 46  22  49  1   
 47  23  24  ar  
 48  23  25  ar  
 49  24  26  ar  
 50  24  50  1   
 51  25  27  ar  
 52  25  51  1   
 53  26  28  ar  
 54  27  28  ar  
 55  27  52  1   
 56  28  53  1   
@<TRIPOS>SUBSTRUCTURE
  1 ****  11 GROUP 4 **** **** 0

# MOE 2024.06 (io_trps.svl 2023.06)
