@<TRIPOS>MOLECULE
NONAME
51 54 1 0 0 
SMALL
USER_CHARGES


@<TRIPOS>ATOM
  1 S        0.5120     0.0240     2.0610 S.o2  1 <1>   1.4470 
  2 O        0.0160     1.1130     2.8720 O.2   1 <1>  -0.6500 
  3 O        1.2450    -1.0620     2.6710 O.2   1 <1>  -0.6500 
  4 N        1.6010     0.7530     0.9780 N.am  1 <1>  -0.8490 
  5 C       -0.8300    -0.6110     1.0180 C.ar  1 <1>  -0.0090 
  6 C        2.6680     1.4370     1.7540 C.3   1 <1>   0.1960 
  7 C        2.1870    -0.2180     0.0390 C.3   1 <1>   0.1960 
  8 C       -1.0190    -1.9790     0.8530 C.ar  1 <1>  -0.1500 
  9 C       -1.6950     0.2670     0.3550 C.ar  1 <1>  -0.1500 
 10 C        3.6200     2.3730     0.9530 C.3   1 <1>   0.4230 
 11 C        2.9390     0.4700    -1.1220 C.3   1 <1>  -0.0800 
 12 C       -2.0470    -2.4430     0.0450 C.ar  1 <1>   0.1170 
 13 C       -2.7210    -0.1920    -0.4550 C.ar  1 <1>  -0.1500 
 14 N        3.0390     2.9350    -0.3320 N.4   1 <1>  -0.9590 
 15 C        5.0080     1.7350     0.7260 C.3   1 <1>   0.1200 
 16 C        4.4620     0.2790    -1.0680 C.3   1 <1>   0.1200 
 17 C        2.5110     1.9320    -1.3250 C.3   1 <1>   0.3430 
 18 N       -2.4500    -3.7330    -0.2770 N.am  1 <1>  -0.4770 
 19 C       -2.8900    -1.5590    -0.6050 C.ar  1 <1>   0.1170 
 20 C        1.9440     3.9000    -0.0030 C.3   1 <1>   0.2630 
 21 O        4.9330     0.4370     0.2280 O.3   1 <1>  -0.5600 
 22 C       -3.5330    -3.6260    -1.1090 C.2   1 <1>   0.6900 
 23 C       -1.8790    -4.9930     0.2480 C.3   1 <1>   0.0600 
 24 N       -3.8120    -2.3030    -1.3300 N.am  1 <1>  -0.4770 
 25 O       -4.1570    -4.5660    -1.5780 O.2   1 <1>  -0.5700 
 26 C       -4.9350    -1.7750    -2.1340 C.3   1 <1>   0.0600 
 27 H        2.2060     2.0570     2.5040 H     1 <1>   0.0800 
 28 H        3.2510     0.7050     2.2920 H     1 <1>   0.0800 
 29 H        2.8320    -0.9080     0.5630 H     1 <1>   0.0800 
 30 H        1.3930    -0.8040    -0.3940 H     1 <1>   0.0800 
 31 H       -0.3800    -2.6860     1.3520 H     1 <1>   0.1500 
 32 H       -1.5640     1.3270     0.4890 H     1 <1>   0.1500 
 33 H        3.8150     3.2120     1.5990 H     1 <1>   0.0800 
 34 H        2.6270    -0.0420    -2.0150 H     1 <1>   0.0800 
 35 H       -3.3850     0.4890    -0.9570 H     1 <1>   0.1500 
 36 H        3.7940     3.4560    -0.7970 H     1 <1>   0.4500 
 37 H        5.5140     1.6620     1.6730 H     1 <1>   0.0800 
 38 H        5.6190     2.3310     0.0710 H     1 <1>   0.0800 
 39 H        4.9860     0.9510    -1.7280 H     1 <1>   0.0800 
 40 H        4.7050    -0.7300    -1.3570 H     1 <1>   0.0800 
 41 H        1.4330     1.9500    -1.2950 H     1 <1>   0.0800 
 42 H        2.8030     2.2410    -2.3150 H     1 <1>   0.0800 
 43 H        1.1360     3.3860     0.4950 H     1 <1>   0.0800 
 44 H        1.5600     4.3550    -0.9020 H     1 <1>   0.0800 
 45 H        2.3080     4.6790     0.6470 H     1 <1>   0.0800 
 46 H       -0.8400    -5.0570    -0.0180 H     1 <1>   0.0800 
 47 H       -2.4030    -5.8340    -0.1720 H     1 <1>   0.0800 
 48 H       -1.9800    -5.0160     1.3180 H     1 <1>   0.0800 
 49 H       -4.5550    -1.1260    -2.9020 H     1 <1>   0.0800 
 50 H       -5.6070    -1.2270    -1.4980 H     1 <1>   0.0800 
 51 H       -5.4700    -2.5880    -2.5930 H     1 <1>   0.0800 
@<TRIPOS>BOND
  1   1   2  2   
  2   1   3  2   
  3   1   4  am  
  4   1   5  1   
  5   4   6  1   
  6   4   7  1   
  7   5   8  ar  
  8   5   9  ar  
  9   6  10  1   
 10   6  27  1   
 11   6  28  1   
 12   7  11  1   
 13   7  29  1   
 14   7  30  1   
 15   8  12  ar  
 16   8  31  1   
 17   9  13  ar  
 18   9  32  1   
 19  10  14  1   
 20  10  15  1   
 21  10  33  1   
 22  11  16  1   
 23  11  17  1   
 24  11  34  1   
 25  12  18  1   
 26  12  19  ar  
 27  13  19  ar  
 28  13  35  1   
 29  14  17  1   
 30  14  20  1   
 31  14  36  1   
 32  15  21  1   
 33  15  37  1   
 34  15  38  1   
 35  16  21  1   
 36  16  39  1   
 37  16  40  1   
 38  17  41  1   
 39  17  42  1   
 40  18  22  am  
 41  18  23  1   
 42  19  24  1   
 43  20  43  1   
 44  20  44  1   
 45  20  45  1   
 46  22  24  am  
 47  22  25  2   
 48  23  46  1   
 49  23  47  1   
 50  23  48  1   
 51  24  26  1   
 52  26  49  1   
 53  26  50  1   
 54  26  51  1   
@<TRIPOS>SUBSTRUCTURE
  1 ****   5 GROUP 4 **** **** 0

# MOE 2024.06 (io_trps.svl 2023.06)
