@<TRIPOS>MOLECULE
NONAME
43 45 1 0 0 
SMALL
USER_CHARGES


@<TRIPOS>ATOM
  1 O       -0.1370     0.2780    -0.9030 O.2   1 <1>  -0.5700 
  2 C       -0.0570    -0.8070    -0.3600 C.2   1 <1>   0.7800 
  3 O        1.0910    -1.4630    -0.3220 O.3   1 <1>  -0.4300 
  4 N       -1.1000    -1.4220     0.2400 N.am  1 <1>  -0.7300 
  5 C        2.2480    -0.9070    -0.9040 C.3   1 <1>   0.2630 
  6 C       -2.4640    -0.9260     0.4540 C.3   1 <1>   0.3000 
  7 C        3.4030    -1.8720    -0.6970 C.ar  1 <1>  -0.1440 
  8 C       -3.3080    -2.0230     1.1450 C.3   1 <1>  -0.1600 
  9 C       -3.1480    -0.5310    -0.8560 C.3   1 <1>  -0.1600 
 10 C       -2.4740     0.3680     1.2910 C.3   1 <1>  -0.1600 
 11 C        3.5380    -2.9830    -1.5160 C.ar  1 <1>  -0.1500 
 12 C        4.3330    -1.6530     0.3090 C.ar  1 <1>  -0.1500 
 13 C       -4.8200    -1.9710     0.8190 C.3   1 <1>  -0.1600 
 14 C       -4.2930     0.3080    -0.3140 C.3   1 <1>   0.5030 
 15 C       -3.5980     1.2250     0.6960 C.3   1 <1>  -0.1600 
 16 C        4.5920    -3.8620    -1.3350 C.ar  1 <1>  -0.1500 
 17 C        5.3870    -2.5310     0.4910 C.ar  1 <1>  -0.1500 
 18 C       -5.3500    -0.5850     0.3800 C.3   1 <1>  -0.1600 
 19 N       -4.8970     1.0960    -1.3810 N.4   1 <1>  -0.8530 
 20 C        5.5180    -3.6360    -0.3320 C.ar  1 <1>  -0.1500 
 21 H       -0.8680    -2.2970     0.7100 H     1 <1>   0.3700 
 22 H        2.4470     0.0400    -0.4320 H     1 <1>   0.0800 
 23 H        2.0640    -0.7520    -1.9530 H     1 <1>   0.0800 
 24 H       -3.1730    -1.9710     2.2120 H     1 <1>   0.0800 
 25 H       -2.9510    -2.9920     0.8390 H     1 <1>   0.0800 
 26 H       -3.4700    -1.3870    -1.4200 H     1 <1>   0.0800 
 27 H       -2.5010     0.0770    -1.4600 H     1 <1>   0.0800 
 28 H       -1.5420     0.9000     1.2080 H     1 <1>   0.0800 
 29 H       -2.6520     0.1720     2.3340 H     1 <1>   0.0800 
 30 H        2.8210    -3.1680    -2.2960 H     1 <1>   0.1500 
 31 H        4.2390    -0.7990     0.9570 H     1 <1>   0.1500 
 32 H       -5.3880    -2.3350     1.6600 H     1 <1>   0.0800 
 33 H       -5.0000    -2.6630     0.0120 H     1 <1>   0.0800 
 34 H       -3.1470     2.0670     0.1990 H     1 <1>   0.0800 
 35 H       -4.2580     1.5870     1.4660 H     1 <1>   0.0800 
 36 H        4.6910    -4.7220    -1.9750 H     1 <1>   0.1500 
 37 H        6.1050    -2.3560     1.2730 H     1 <1>   0.1500 
 38 H       -5.7360    -0.0830     1.2510 H     1 <1>   0.0800 
 39 H       -6.1860    -0.7570    -0.2760 H     1 <1>   0.0800 
 40 H       -4.1780     1.6710    -1.8300 H     1 <1>   0.4500 
 41 H       -5.6240     1.7090    -1.0030 H     1 <1>   0.4500 
 42 H       -5.3090     0.4790    -2.0860 H     1 <1>   0.4500 
 43 H        6.3370    -4.3190    -0.1910 H     1 <1>   0.1500 
@<TRIPOS>BOND
  1   1   2  2   
  2   2   3  1   
  3   2   4  am  
  4   3   5  1   
  5   4   6  1   
  6   4  21  1   
  7   5   7  1   
  8   5  22  1   
  9   5  23  1   
 10   6   8  1   
 11   6   9  1   
 12   6  10  1   
 13   7  11  ar  
 14   7  12  ar  
 15   8  13  1   
 16   8  24  1   
 17   8  25  1   
 18   9  14  1   
 19   9  26  1   
 20   9  27  1   
 21  10  15  1   
 22  10  28  1   
 23  10  29  1   
 24  11  16  ar  
 25  11  30  1   
 26  12  17  ar  
 27  12  31  1   
 28  13  18  1   
 29  13  32  1   
 30  13  33  1   
 31  14  15  1   
 32  14  18  1   
 33  14  19  1   
 34  15  34  1   
 35  15  35  1   
 36  16  20  ar  
 37  16  36  1   
 38  17  20  ar  
 39  17  37  1   
 40  18  38  1   
 41  18  39  1   
 42  19  40  1   
 43  19  41  1   
 44  19  42  1   
 45  20  43  1   
@<TRIPOS>SUBSTRUCTURE
  1 ****   2 GROUP 4 **** **** 0

# MOE 2024.06 (io_trps.svl 2023.06)
