@<TRIPOS>MOLECULE
NONAME
48 50 1 0 0 
SMALL
USER_CHARGES


@<TRIPOS>ATOM
  1 S        1.1280     1.3340    -0.3800 S.o2  1 <1>   1.3330 
  2 O        0.6510     1.8790    -1.6320 O.2   1 <1>  -0.6500 
  3 O        2.3020     1.9050     0.2420 O.2   1 <1>  -0.6500 
  4 N        1.4230    -0.3190    -0.6270 N.am  1 <1>  -0.8490 
  5 C       -0.2140     1.3090     0.8170 C.3   1 <1>  -0.0550 
  6 C        0.5130    -0.9380    -1.5970 C.3   1 <1>   0.1160 
  7 C        2.8130    -0.5860    -1.0140 C.3   1 <1>   0.1160 
  8 C       -0.7330     2.6720     1.3310 C.3   1 <1>  -0.0800 
  9 C       -1.1730     3.6250     0.2170 C.3   1 <1>   0.2000 
 10 C        0.3150     3.4600     2.1340 C.3   1 <1>   0.1100 
 11 O       -2.2490     4.3480     0.6950 O.3   1 <1>  -0.6800 
 12 C       -0.0020     4.5920     0.0820 C.3   1 <1>   0.1100 
 13 N        0.5120     4.7470     1.4520 N.3   1 <1>  -0.8100 
 14 C        1.9250     5.1660     1.4620 C.3   1 <1>   0.2480 
 15 C        2.1030     6.5810     0.9120 C.2   1 <1>  -0.0380 
 16 N        3.2500     6.8550     0.2040 N.pl3 1 <1>  -0.6000 
 17 C        1.1910     7.5700     1.0980 C.2   1 <1>  -0.1360 
 18 C        3.5140     8.1140    -0.3360 C.ar  1 <1>   0.1000 
 19 C        1.3790     8.8760     0.5800 C.2   1 <1>   0.4690 
 20 C        4.6810     8.3910    -1.0540 C.ar  1 <1>   0.1900 
 21 C        2.5840     9.1510    -0.1600 C.ar  1 <1>   0.0860 
 22 O        0.5310     9.7390     0.7670 O.2   1 <1>  -0.5700 
 23 F        5.5570     7.4310    -1.2230 F     1 <1>  -0.1900 
 24 C        4.9560     9.6260    -1.5940 C.ar  1 <1>  -0.1500 
 25 C        2.8700    10.4090    -0.7120 C.ar  1 <1>  -0.1500 
 26 C        4.0320    10.6490    -1.4170 C.ar  1 <1>  -0.1500 
 27 H       -1.0440     0.7910     0.3790 H     1 <1>   0.0800 
 28 H        0.1010     0.7310     1.6640 H     1 <1>   0.0800 
 29 H        0.6870    -1.9990    -1.6430 H     1 <1>   0.0800 
 30 H        0.6630    -0.5160    -2.5780 H     1 <1>   0.0800 
 31 H       -0.5100    -0.7750    -1.3060 H     1 <1>   0.0800 
 32 H        2.9670    -1.6430    -1.1500 H     1 <1>   0.0800 
 33 H        3.4830    -0.2470    -0.2420 H     1 <1>   0.0800 
 34 H        3.0510    -0.0720    -1.9300 H     1 <1>   0.0800 
 35 H       -1.5700     2.4570     1.9730 H     1 <1>   0.0800 
 36 H       -1.4590     3.1490    -0.7060 H     1 <1>   0.0800 
 37 H        1.2400     2.9140     2.2100 H     1 <1>   0.0800 
 38 H       -0.0440     3.6470     3.1330 H     1 <1>   0.0800 
 39 H       -1.8920     4.9670     1.3680 H     1 <1>   0.4000 
 40 H       -0.3110     5.5350    -0.3360 H     1 <1>   0.0800 
 41 H        0.7540     4.1670    -0.5540 H     1 <1>   0.0800 
 42 H        2.2980     5.1450     2.4720 H     1 <1>   0.0800 
 43 H        2.5070     4.4730     0.8780 H     1 <1>   0.0800 
 44 H        3.9470     6.1170     0.0330 H     1 <1>   0.4000 
 45 H        0.2830     7.4010     1.6460 H     1 <1>   0.1500 
 46 H        5.8670     9.7930    -2.1400 H     1 <1>   0.1500 
 47 H        2.1540    11.2030    -0.5750 H     1 <1>   0.1500 
 48 H        4.2270    11.6240    -1.8310 H     1 <1>   0.1500 
@<TRIPOS>BOND
  1   1   2  2   
  2   1   3  2   
  3   1   4  am  
  4   1   5  1   
  5   4   6  1   
  6   4   7  1   
  7   5   8  1   
  8   5  27  1   
  9   5  28  1   
 10   6  29  1   
 11   6  30  1   
 12   6  31  1   
 13   7  32  1   
 14   7  33  1   
 15   7  34  1   
 16   8   9  1   
 17   8  10  1   
 18   8  35  1   
 19   9  11  1   
 20   9  12  1   
 21   9  36  1   
 22  10  13  1   
 23  10  37  1   
 24  10  38  1   
 25  11  39  1   
 26  12  13  1   
 27  12  40  1   
 28  12  41  1   
 29  13  14  1   
 30  14  15  1   
 31  14  42  1   
 32  14  43  1   
 33  15  16  1   
 34  15  17  2   
 35  16  18  1   
 36  16  44  1   
 37  17  19  1   
 38  17  45  1   
 39  18  20  ar  
 40  18  21  ar  
 41  19  21  1   
 42  19  22  2   
 43  20  23  1   
 44  20  24  ar  
 45  21  25  ar  
 46  24  26  ar  
 47  24  46  1   
 48  25  26  ar  
 49  25  47  1   
 50  26  48  1   
@<TRIPOS>SUBSTRUCTURE
  1 ****  14 GROUP 4 **** **** 0

# MOE 2024.06 (io_trps.svl 2023.06)
