@<TRIPOS>MOLECULE
NONAME
55 59 1 0 0 
SMALL
USER_CHARGES


@<TRIPOS>ATOM
  1 O       -2.2210     0.8500    -0.2500 O.2   1 <1>  -0.5700 
  2 C       -2.6080     1.5650    -1.1630 C.2   1 <1>   0.7150 
  3 N       -3.6350     1.0570    -1.9260 N.am  1 <1>  -0.6600 
  4 C       -2.1070     2.9010    -1.3790 C.2   1 <1>   0.0550 
  5 C       -5.0180     1.4290    -1.4950 C.3   1 <1>   0.1400 
  6 C       -3.5440    -0.3760    -2.3650 C.3   1 <1>   0.1400 
  7 O       -1.3710     3.5120    -0.4600 O.3   1 <1>  -0.2800 
  8 C       -2.2630     3.7520    -2.4310 C.2   1 <1>  -0.1500 
  9 C       -5.4850     0.5590    -0.2920 C.3   1 <1>   0.4230 
 10 C       -4.2830    -1.3350    -1.3980 C.3   1 <1>   0.3430 
 11 C       -1.0400     4.7250    -0.8710 C.2   1 <1>   0.0870 
 12 C       -1.5800     4.9170    -2.1050 C.2   1 <1>  -0.1500 
 13 N       -4.6000    -0.6540    -0.0950 N.4   1 <1>  -0.9590 
 14 C       -6.9680     0.1440    -0.4390 C.3   1 <1>   0.1200 
 15 C       -0.2370     5.5890    -0.0330 C.ar  1 <1>   0.0530 
 16 C       -5.1240    -1.5250     0.9980 C.3   1 <1>   0.5180 
 17 O       -7.3650    -0.6710     0.6280 O.3   1 <1>  -0.5600 
 18 C        0.2090     5.1740     1.2210 C.ar  1 <1>  -0.1500 
 19 C        0.1220     6.8720    -0.4470 C.ar  1 <1>  -0.1500 
 20 C       -4.2630    -2.7880     1.1190 C.3   1 <1>  -0.1950 
 21 C       -6.6200    -1.8490     0.7940 C.3   1 <1>   0.1200 
 22 C        0.9730     5.9930     2.0340 C.ar  1 <1>   0.0830 
 23 C        0.8860     7.7020     0.3540 C.ar  1 <1>  -0.1500 
 24 C       -3.8860    -3.3110     2.4710 C.3   1 <1>  -0.2000 
 25 C       -2.8370    -2.7180     1.5770 C.3   1 <1>  -0.2000 
 26 O        1.3480     5.4850     3.2350 O.3   1 <1>  -0.3630 
 27 C        1.3140     7.2690     1.5950 C.ar  1 <1>  -0.1500 
 28 C        2.1300     6.2330     4.1370 C.3   1 <1>   0.0400 
 29 H       -5.0490     2.4690    -1.2140 H     1 <1>   0.0800 
 30 H       -5.6870     1.3050    -2.3290 H     1 <1>   0.0800 
 31 H       -3.9470    -0.4780    -3.3580 H     1 <1>   0.0800 
 32 H       -2.5070    -0.6660    -2.4130 H     1 <1>   0.0800 
 33 H       -2.8010     3.5790    -3.3470 H     1 <1>   0.1500 
 34 H       -5.4180     1.1730     0.5910 H     1 <1>   0.0800 
 35 H       -3.6580    -2.1960    -1.2280 H     1 <1>   0.0800 
 36 H       -5.1940    -1.6770    -1.8610 H     1 <1>   0.0800 
 37 H       -1.5050     5.7900    -2.7290 H     1 <1>   0.1500 
 38 H       -3.6810    -0.2780     0.2210 H     1 <1>   0.4500 
 39 H       -7.1380    -0.3890    -1.3580 H     1 <1>   0.0800 
 40 H       -7.6000     1.0160    -0.4300 H     1 <1>   0.0800 
 41 H       -5.0390    -0.9850     1.9270 H     1 <1>   0.0800 
 42 H       -0.0410     4.1920     1.5780 H     1 <1>   0.1500 
 43 H       -0.2000     7.2300    -1.4070 H     1 <1>   0.1500 
 44 H       -4.5200    -3.5400     0.3930 H     1 <1>   0.1000 
 45 H       -7.0050    -2.3590     1.6600 H     1 <1>   0.0800 
 46 H       -6.7700    -2.4780    -0.0660 H     1 <1>   0.0800 
 47 H        1.1480     8.6880     0.0110 H     1 <1>   0.1500 
 48 H       -4.1540    -2.7670     3.3620 H     1 <1>   0.1000 
 49 H       -3.8680    -4.3760     2.6380 H     1 <1>   0.1000 
 50 H       -2.1090    -3.3830     1.1430 H     1 <1>   0.1000 
 51 H       -2.4020    -1.7750     1.8660 H     1 <1>   0.1000 
 52 H        1.9060     7.9300     2.1990 H     1 <1>   0.1500 
 53 H        2.3010     5.6300     5.0100 H     1 <1>   0.0800 
 54 H        1.5930     7.1250     4.4080 H     1 <1>   0.0800 
 55 H        3.0690     6.4730     3.6690 H     1 <1>   0.0800 
@<TRIPOS>BOND
  1   1   2  2   
  2   2   3  am  
  3   2   4  1   
  4   3   5  1   
  5   3   6  1   
  6   4   7  1   
  7   4   8  2   
  8   5   9  1   
  9   5  29  1   
 10   5  30  1   
 11   6  10  1   
 12   6  31  1   
 13   6  32  1   
 14   7  11  1   
 15   8  12  1   
 16   8  33  1   
 17   9  13  1   
 18   9  14  1   
 19   9  34  1   
 20  10  13  1   
 21  10  35  1   
 22  10  36  1   
 23  11  12  2   
 24  11  15  1   
 25  12  37  1   
 26  13  16  1   
 27  13  38  1   
 28  14  17  1   
 29  14  39  1   
 30  14  40  1   
 31  15  18  ar  
 32  15  19  ar  
 33  16  20  1   
 34  16  21  1   
 35  16  41  1   
 36  17  21  1   
 37  18  22  ar  
 38  18  42  1   
 39  19  23  ar  
 40  19  43  1   
 41  20  24  1   
 42  20  25  1   
 43  20  44  1   
 44  21  45  1   
 45  21  46  1   
 46  22  26  1   
 47  22  27  ar  
 48  23  27  ar  
 49  23  47  1   
 50  24  25  1   
 51  24  48  1   
 52  24  49  1   
 53  25  50  1   
 54  25  51  1   
 55  26  28  1   
 56  27  52  1   
 57  28  53  1   
 58  28  54  1   
 59  28  55  1   
@<TRIPOS>SUBSTRUCTURE
  1 ****   1 GROUP 4 **** **** 0

# MOE 2024.06 (io_trps.svl 2023.06)
