@<TRIPOS>MOLECULE
NONAME
54 56 1 0 0 
SMALL
USER_CHARGES


@<TRIPOS>ATOM
  1 O        1.8900    -1.0390     1.2210 O.co2 1 <1>  -0.9000 
  2 C        1.9930     0.1970     1.2560 C.2   1 <1>   0.9060 
  3 O        1.9490     0.8030     2.3330 O.co2 1 <1>  -0.9000 
  4 C        2.1930     0.9570    -0.0720 C.3   1 <1>  -0.1060 
  5 C        3.3040     0.2540    -0.8960 C.3   1 <1>   0.2000 
  6 C        2.6620     2.4220     0.1680 C.3   1 <1>  -0.1600 
  7 C        0.8690     0.9330    -0.8850 C.3   1 <1>  -0.0160 
  8 O        2.9720    -1.0740    -1.1150 O.3   1 <1>  -0.6800 
  9 C        4.6740     0.3290    -0.2060 C.3   1 <1>   0.1400 
 10 C        4.0390     2.4950     0.8430 C.3   1 <1>   0.1400 
 11 C       -0.1920     1.9360    -0.4350 C.ar  1 <1>  -0.1440 
 12 N        5.0430     1.7630     0.0160 N.am  1 <1>  -0.6600 
 13 C       -0.8420     1.7780     0.7790 C.ar  1 <1>  -0.1500 
 14 C       -0.5210     3.0170    -1.2400 C.ar  1 <1>  -0.1500 
 15 C        6.1760     2.3080    -0.5310 C.2   1 <1>   0.5690 
 16 C       -1.8040     2.6860     1.1850 C.ar  1 <1>  -0.1500 
 17 C       -1.4850     3.9260    -0.8380 C.ar  1 <1>  -0.1500 
 18 O        6.9540     1.6460    -1.1800 O.2   1 <1>  -0.5700 
 19 C        6.4860     3.7820    -0.3200 C.3   1 <1>  -0.0990 
 20 C       -2.1280     3.7610     0.3760 C.ar  1 <1>  -0.1500 
 21 C        7.7190     4.2740    -1.0890 C.3   1 <1>   0.0210 
 22 C        7.9850     5.7340    -0.7720 C.2   1 <1>   0.1080 
 23 N        7.2910     6.6890    -1.3070 N.2   1 <1>  -0.7070 
 24 C        8.9570     6.2150     0.1050 C.2   1 <1>  -0.1810 
 25 N        7.8100     7.8150    -0.7900 N.pl3 1 <1>   0.3000 
 26 C        8.8180     7.5590     0.0700 C.2   1 <1>  -0.3320 
 27 C        9.9350     5.3710     0.9040 C.3   1 <1>  -0.0590 
 28 C        9.5760     8.6590     0.7940 C.3   1 <1>  -0.0600 
 29 H        3.3960     0.7130    -1.8640 H     1 <1>   0.0800 
 30 H        1.9550     2.9260     0.8040 H     1 <1>   0.0800 
 31 H        2.7000     2.9570    -0.7640 H     1 <1>   0.0800 
 32 H        1.0940     1.1200    -1.9190 H     1 <1>   0.0800 
 33 H        0.4450    -0.0560    -0.8400 H     1 <1>   0.0800 
 34 H        2.5480    -1.3890    -0.2570 H     1 <1>   0.4000 
 35 H        5.4060    -0.1590    -0.8250 H     1 <1>   0.0800 
 36 H        4.6350    -0.1760     0.7440 H     1 <1>   0.0800 
 37 H        3.9970     2.0430     1.8190 H     1 <1>   0.0800 
 38 H        4.3110     3.5250     0.9790 H     1 <1>   0.0800 
 39 H       -0.5930     0.9480     1.4210 H     1 <1>   0.1500 
 40 H       -0.0250     3.1550    -2.1840 H     1 <1>   0.1500 
 41 H       -2.2930     2.5510     2.1330 H     1 <1>   0.1500 
 42 H       -1.7330     4.7600    -1.4690 H     1 <1>   0.1500 
 43 H        5.6400     4.3620    -0.6400 H     1 <1>   0.0800 
 44 H        6.6390     3.9500     0.7290 H     1 <1>   0.0800 
 45 H       -2.8750     4.4660     0.6930 H     1 <1>   0.1500 
 46 H        7.5510     4.1710    -2.1460 H     1 <1>   0.0800 
 47 H        8.5770     3.6810    -0.8310 H     1 <1>   0.0800 
 48 H        7.4560     8.7440    -1.0440 H     1 <1>   0.2700 
 49 H        9.3990     4.6410     1.4830 H     1 <1>   0.0800 
 50 H       10.5120     5.9800     1.5740 H     1 <1>   0.0800 
 51 H       10.6070     4.8640     0.2360 H     1 <1>   0.0800 
 52 H       10.3510     8.2480     1.4130 H     1 <1>   0.0800 
 53 H        8.9040     9.2200     1.4180 H     1 <1>   0.0800 
 54 H       10.0300     9.3240     0.0820 H     1 <1>   0.0800 
@<TRIPOS>BOND
  1   1   2  ar  
  2   2   3  ar  
  3   2   4  1   
  4   4   5  1   
  5   4   6  1   
  6   4   7  1   
  7   5   8  1   
  8   5   9  1   
  9   5  29  1   
 10   6  10  1   
 11   6  30  1   
 12   6  31  1   
 13   7  11  1   
 14   7  32  1   
 15   7  33  1   
 16   8  34  1   
 17   9  12  1   
 18   9  35  1   
 19   9  36  1   
 20  10  12  1   
 21  10  37  1   
 22  10  38  1   
 23  11  13  ar  
 24  11  14  ar  
 25  12  15  am  
 26  13  16  ar  
 27  13  39  1   
 28  14  17  ar  
 29  14  40  1   
 30  15  18  2   
 31  15  19  1   
 32  16  20  ar  
 33  16  41  1   
 34  17  20  ar  
 35  17  42  1   
 36  19  21  1   
 37  19  43  1   
 38  19  44  1   
 39  20  45  1   
 40  21  22  1   
 41  21  46  1   
 42  21  47  1   
 43  22  23  2   
 44  22  24  1   
 45  23  25  1   
 46  24  26  2   
 47  24  27  1   
 48  25  26  1   
 49  25  48  1   
 50  26  28  1   
 51  27  49  1   
 52  27  50  1   
 53  27  51  1   
 54  28  52  1   
 55  28  53  1   
 56  28  54  1   
@<TRIPOS>SUBSTRUCTURE
  1 ****  10 GROUP 4 **** **** 0

# MOE 2024.06 (io_trps.svl 2023.06)
