@<TRIPOS>MOLECULE
NONAME
47 50 1 0 0 
SMALL
USER_CHARGES


@<TRIPOS>ATOM
  1 O       -0.5710    -3.3590    -1.5180 O.2   1 <1>  -0.5700 
  2 C        0.3890    -2.9410    -0.9100 C.2   1 <1>   0.6900 
  3 N        0.5330    -2.9670     0.4470 N.am  1 <1>  -0.4200 
  4 N        1.4740    -2.4070    -1.5050 N.am  1 <1>  -0.7300 
  5 C        1.7660    -2.4970     0.7870 C.2   1 <1>   0.5690 
  6 C       -0.3800    -3.6770     1.3770 C.3   1 <1>   0.2010 
  7 C        2.5110    -2.1150    -0.4830 C.3   1 <1>   0.2010 
  8 O        2.2060    -2.3820     1.9040 O.2   1 <1>  -0.5700 
  9 C       -0.4330    -5.1770     1.0890 C.2   1 <1>   0.5690 
 10 O        0.5700    -5.8230     1.2910 O.2   1 <1>  -0.5700 
 11 N       -1.5740    -5.7790     0.6240 N.am  1 <1>  -0.6600 
 12 C       -2.8140    -5.1010     0.1640 C.3   1 <1>   0.1400 
 13 C       -1.5740    -7.2020     0.2080 C.3   1 <1>   0.1400 
 14 C       -3.4890    -6.1020    -0.7720 C.3   1 <1>   0.2000 
 15 C       -2.9720    -7.4750    -0.3490 C.3   1 <1>  -0.0800 
 16 O       -4.8700    -6.0620    -0.6520 O.3   1 <1>  -0.6800 
 17 C       -2.9790    -8.4920    -1.5020 C.3   1 <1>  -0.0170 
 18 C       -2.4860    -9.8570    -1.0330 C.ar  1 <1>  -0.1440 
 19 C       -3.3070   -10.7520    -0.3070 C.ar  1 <1>   0.0000 
 20 C       -1.2080   -10.2510    -1.3020 C.ar  1 <1>  -0.1500 
 21 C       -2.7380   -11.9830     0.1000 C.ar  1 <1>   0.3100 
 22 C       -4.6560   -10.4990     0.0370 C.ar  1 <1>  -0.1500 
 23 C       -0.7450   -11.4960    -0.8580 C.ar  1 <1>   0.1600 
 24 N       -1.4600   -12.3400    -0.1840 N.ar  1 <1>  -0.6200 
 25 C       -3.5250   -12.8860     0.8320 C.ar  1 <1>  -0.1500 
 26 C       -5.3960   -11.4030     0.7500 C.ar  1 <1>  -0.1500 
 27 C       -4.8260   -12.6120     1.1560 C.ar  1 <1>  -0.1500 
 28 H        1.6590    -2.5250    -2.5020 H     1 <1>   0.3700 
 29 H       -0.0300    -3.5440     2.3850 H     1 <1>   0.0800 
 30 H       -1.3570    -3.2410     1.3060 H     1 <1>   0.0800 
 31 H        3.3780    -2.7380    -0.6170 H     1 <1>   0.0800 
 32 H        2.7720    -1.0720    -0.4780 H     1 <1>   0.0800 
 33 H       -3.4390    -4.8930     1.0150 H     1 <1>   0.0800 
 34 H       -2.5910    -4.1930    -0.3660 H     1 <1>   0.0800 
 35 H       -0.8220    -7.3380    -0.5500 H     1 <1>   0.0800 
 36 H       -1.3500    -7.8430     1.0450 H     1 <1>   0.0800 
 37 H       -3.2270    -5.8770    -1.7930 H     1 <1>   0.0800 
 38 H       -3.5670    -7.8450     0.4670 H     1 <1>   0.0800 
 39 H       -5.1390    -6.2750     0.2620 H     1 <1>   0.4000 
 40 H       -2.3480    -8.1330    -2.2960 H     1 <1>   0.0800 
 41 H       -3.9700    -8.5810    -1.9120 H     1 <1>   0.0800 
 42 H       -0.5260    -9.6270    -1.8510 H     1 <1>   0.1500 
 43 H       -5.1160    -9.5790    -0.2680 H     1 <1>   0.1500 
 44 H        0.2710   -11.7670    -1.0910 H     1 <1>   0.1500 
 45 H       -3.0660   -13.8100     1.1310 H     1 <1>   0.1500 
 46 H       -6.4220   -11.1980     1.0060 H     1 <1>   0.1500 
 47 H       -5.4170   -13.3140     1.7170 H     1 <1>   0.1500 
@<TRIPOS>BOND
  1   1   2  2   
  2   2   3  am  
  3   2   4  am  
  4   3   5  am  
  5   3   6  1   
  6   4   7  1   
  7   4  28  1   
  8   5   7  1   
  9   5   8  2   
 10   6   9  1   
 11   6  29  1   
 12   6  30  1   
 13   7  31  1   
 14   7  32  1   
 15   9  10  2   
 16   9  11  am  
 17  11  12  1   
 18  11  13  1   
 19  12  14  1   
 20  12  33  1   
 21  12  34  1   
 22  13  15  1   
 23  13  35  1   
 24  13  36  1   
 25  14  15  1   
 26  14  16  1   
 27  14  37  1   
 28  15  17  1   
 29  15  38  1   
 30  16  39  1   
 31  17  18  1   
 32  17  40  1   
 33  17  41  1   
 34  18  19  ar  
 35  18  20  ar  
 36  19  21  ar  
 37  19  22  ar  
 38  20  23  ar  
 39  20  42  1   
 40  21  24  ar  
 41  21  25  ar  
 42  22  26  ar  
 43  22  43  1   
 44  23  24  ar  
 45  23  44  1   
 46  25  27  ar  
 47  25  45  1   
 48  26  27  ar  
 49  26  46  1   
 50  27  47  1   
@<TRIPOS>SUBSTRUCTURE
  1 ****  13 GROUP 4 **** **** 0

# MOE 2024.06 (io_trps.svl 2023.06)
