@<TRIPOS>MOLECULE
NONAME
54 57 1 0 0 
SMALL
USER_CHARGES


@<TRIPOS>ATOM
  1 O       -0.5580     0.3590     1.6530 O.2   1 <1>  -0.5700 
  2 C       -1.4510     0.9850     1.1060 C.2   1 <1>   0.5440 
  3 N       -2.4140     0.2800     0.4200 N.am  1 <1>  -0.6600 
  4 C       -1.4540     2.4340     1.1570 C.ar  1 <1>   0.0860 
  5 C       -3.2440     0.8390    -0.6830 C.3   1 <1>   0.1400 
  6 C       -2.4170    -1.2080     0.3420 C.3   1 <1>   0.1400 
  7 C       -0.2970     3.1670     0.8420 C.ar  1 <1>   0.1170 
  8 C       -2.6070     3.1330     1.5210 C.ar  1 <1>  -0.1500 
  9 C       -4.1440    -0.3190    -1.1070 C.3   1 <1>   0.2000 
 10 C       -3.2620    -1.5500    -0.8890 C.3   1 <1>  -0.0800 
 11 N        0.8820     2.4730     0.5400 N.am  1 <1>  -0.5470 
 12 C       -0.3450     4.5590     0.8670 C.ar  1 <1>  -0.1500 
 13 C       -2.6380     4.5130     1.5430 C.ar  1 <1>  -0.1500 
 14 O       -5.2230    -0.3590    -0.2360 O.3   1 <1>  -0.6800 
 15 C       -4.0080    -2.8940    -0.7800 C.3   1 <1>   0.0210 
 16 C        2.0230     2.7870    -0.1580 C.2   1 <1>   0.7150 
 17 C       -1.5030     5.2290     1.2090 C.ar  1 <1>  -0.1500 
 18 C       -3.0450    -4.0380    -0.5320 C.2   1 <1>   0.1080 
 19 O        2.1170     3.8710    -0.7040 O.2   1 <1>  -0.5700 
 20 C        3.0710     1.7930    -0.2320 C.2   1 <1>   0.0550 
 21 N       -2.0210    -4.2790    -1.2910 N.2   1 <1>  -0.7070 
 22 C       -3.1410    -4.9420     0.5220 C.2   1 <1>  -0.1500 
 23 O        4.2120     2.0330    -0.8720 O.3   1 <1>  -0.2800 
 24 C        3.1290     0.5270     0.2750 C.2   1 <1>  -0.1500 
 25 N       -1.4330    -5.3570    -0.7390 N.pl3 1 <1>   0.3000 
 26 C       -2.0920    -5.7760     0.3620 C.2   1 <1>  -0.3320 
 27 C        4.9840     0.9750    -0.7900 C.2   1 <1>  -0.0400 
 28 C        4.3690     0.0010    -0.0880 C.2   1 <1>  -0.1500 
 29 C       -1.6730    -6.9650     1.2060 C.3   1 <1>  -0.0600 
 30 C        6.3450     1.0150    -1.4500 C.3   1 <1>  -0.0600 
 31 H       -3.8240     1.6900    -0.3740 H     1 <1>   0.0800 
 32 H       -2.5990     1.1180    -1.4980 H     1 <1>   0.0800 
 33 H       -1.4170    -1.5960     0.2410 H     1 <1>   0.0800 
 34 H       -2.8600    -1.6050     1.2390 H     1 <1>   0.0800 
 35 H       -3.4890     2.5800     1.7920 H     1 <1>   0.1500 
 36 H       -4.5150    -0.2270    -2.1140 H     1 <1>   0.0800 
 37 H       -2.5860    -1.6170    -1.7250 H     1 <1>   0.0800 
 38 H        0.8660     1.5040     0.8810 H     1 <1>   0.3700 
 39 H        0.5330     5.1320     0.6260 H     1 <1>   0.1500 
 40 H       -3.5390     5.0350     1.8200 H     1 <1>   0.1500 
 41 H       -4.8820    -0.3300     0.6800 H     1 <1>   0.4000 
 42 H       -4.5380    -3.0840    -1.6960 H     1 <1>   0.0800 
 43 H       -4.7270    -2.8650     0.0190 H     1 <1>   0.0800 
 44 H       -1.5190     6.3050     1.2210 H     1 <1>   0.1500 
 45 H       -3.8990    -4.9500     1.2840 H     1 <1>   0.1500 
 46 H        2.3860     0.0000     0.8490 H     1 <1>   0.1500 
 47 H       -0.5880    -5.7830    -1.1370 H     1 <1>   0.2700 
 48 H        4.7300    -0.9820     0.1560 H     1 <1>   0.1500 
 49 H       -2.3570    -7.0970     2.0260 H     1 <1>   0.0800 
 50 H       -0.6870    -6.8100     1.6060 H     1 <1>   0.0800 
 51 H       -1.6750    -7.8620     0.6120 H     1 <1>   0.0800 
 52 H        6.8600     0.0840    -1.3000 H     1 <1>   0.0800 
 53 H        6.9290     1.8120    -1.0270 H     1 <1>   0.0800 
 54 H        6.2310     1.1880    -2.5040 H     1 <1>   0.0800 
@<TRIPOS>BOND
  1   1   2  2   
  2   2   3  am  
  3   2   4  1   
  4   3   5  1   
  5   3   6  1   
  6   4   7  ar  
  7   4   8  ar  
  8   5   9  1   
  9   5  31  1   
 10   5  32  1   
 11   6  10  1   
 12   6  33  1   
 13   6  34  1   
 14   7  11  1   
 15   7  12  ar  
 16   8  13  ar  
 17   8  35  1   
 18   9  10  1   
 19   9  14  1   
 20   9  36  1   
 21  10  15  1   
 22  10  37  1   
 23  11  16  am  
 24  11  38  1   
 25  12  17  ar  
 26  12  39  1   
 27  13  17  ar  
 28  13  40  1   
 29  14  41  1   
 30  15  18  1   
 31  15  42  1   
 32  15  43  1   
 33  16  19  2   
 34  16  20  1   
 35  17  44  1   
 36  18  21  2   
 37  18  22  1   
 38  20  23  1   
 39  20  24  2   
 40  21  25  1   
 41  22  26  2   
 42  22  45  1   
 43  23  27  1   
 44  24  28  1   
 45  24  46  1   
 46  25  26  1   
 47  25  47  1   
 48  26  29  1   
 49  27  28  2   
 50  27  30  1   
 51  28  48  1   
 52  29  49  1   
 53  29  50  1   
 54  29  51  1   
 55  30  52  1   
 56  30  53  1   
 57  30  54  1   
@<TRIPOS>SUBSTRUCTURE
  1 ****   1 GROUP 4 **** **** 0

# MOE 2024.06 (io_trps.svl 2023.06)
