@<TRIPOS>MOLECULE
NONAME
56 59 1 0 0 
SMALL
USER_CHARGES


@<TRIPOS>ATOM
  1 O       -0.6860     0.5400    -0.1850 O.3   1 <1>  -0.3630 
  2 C       -1.7020     1.1900    -0.7980 C.ar  1 <1>   0.0830 
  3 C        0.6540     0.9600    -0.3300 C.3   1 <1>   0.2640 
  4 C       -2.9640     0.6460    -0.6320 C.ar  1 <1>  -0.1500 
  5 C       -1.5460     2.3420    -1.5610 C.ar  1 <1>  -0.1500 
  6 C        1.5490     0.0110     0.4500 C.ar  1 <1>  -0.1440 
  7 C       -4.0750     1.2420    -1.2080 C.ar  1 <1>  -0.1440 
  8 C       -2.6510     2.9350    -2.1470 C.ar  1 <1>  -0.1500 
  9 C        2.0630     0.3810     1.6840 C.ar  1 <1>  -0.1500 
 10 C        1.8620    -1.2360    -0.0700 C.ar  1 <1>  -0.1500 
 11 C       -3.9110     2.3890    -1.9730 C.ar  1 <1>  -0.1500 
 12 C       -5.4510     0.6440    -0.9950 C.3   1 <1>   0.4860 
 13 C        2.8850    -0.4830     2.3870 C.ar  1 <1>  -0.1500 
 14 C        2.6830    -2.1010     0.6320 C.ar  1 <1>  -0.1500 
 15 N       -5.8370     0.8530     0.4260 N.4   1 <1>  -0.9590 
 16 C        3.1960    -1.7250     1.8610 C.ar  1 <1>  -0.1500 
 17 C       -6.9880    -0.0160     0.8400 C.3   1 <1>   0.3430 
 18 C       -6.0660     2.3070     0.7300 C.3   1 <1>   0.3430 
 19 C       -8.3120     0.3300     0.1210 C.3   1 <1>   0.0000 
 20 C       -7.5530     2.6840     0.7890 C.3   1 <1>  -0.1600 
 21 C       -9.4690    -0.2050     0.9840 C.3   1 <1>   0.2000 
 22 C       -8.4220     1.8580    -0.1720 C.3   1 <1>  -0.1600 
 23 C       -8.5470    -0.4620    -1.1780 C.3   1 <1>  -0.1600 
 24 O       -9.7380     0.6240     2.0540 O.3   1 <1>  -0.6800 
 25 C      -10.6710    -0.3250     0.0520 C.3   1 <1>  -0.1600 
 26 C      -10.0720    -0.5150    -1.3490 C.3   1 <1>  -0.1600 
 27 H        0.9070     0.9390    -1.3750 H     1 <1>   0.0800 
 28 H        0.7400     1.9630     0.0490 H     1 <1>   0.0800 
 29 H       -3.0460    -0.2530    -0.0470 H     1 <1>   0.1500 
 30 H       -0.5820     2.7900    -1.7130 H     1 <1>   0.1500 
 31 H       -2.5270     3.8240    -2.7420 H     1 <1>   0.1500 
 32 H        1.8260     1.3420     2.1060 H     1 <1>   0.1500 
 33 H        1.4630    -1.5380    -1.0230 H     1 <1>   0.1500 
 34 H       -4.7550     2.8680    -2.4420 H     1 <1>   0.1500 
 35 H       -5.4160    -0.4090    -1.2200 H     1 <1>   0.0800 
 36 H       -6.1660     1.1120    -1.6510 H     1 <1>   0.0800 
 37 H        3.2810    -0.1910     3.3440 H     1 <1>   0.1500 
 38 H        2.9220    -3.0670     0.2220 H     1 <1>   0.1500 
 39 H       -5.0090     0.5740     0.9680 H     1 <1>   0.4500 
 40 H        3.8340    -2.3970     2.4070 H     1 <1>   0.1500 
 41 H       -6.7500    -1.0550     0.6810 H     1 <1>   0.0800 
 42 H       -7.1480     0.1210     1.8980 H     1 <1>   0.0800 
 43 H       -5.6160     2.5520     1.6790 H     1 <1>   0.0800 
 44 H       -5.5790     2.9110    -0.0180 H     1 <1>   0.0800 
 45 H       -7.9060     2.5480     1.7970 H     1 <1>   0.0800 
 46 H       -7.6570     3.7310     0.5660 H     1 <1>   0.0800 
 47 H       -9.2290    -1.1820     1.3720 H     1 <1>   0.0800 
 48 H       -8.1030     2.0740    -1.1760 H     1 <1>   0.0800 
 49 H       -9.4440     2.1890    -0.0980 H     1 <1>   0.0800 
 50 H       -8.0760    -0.0300    -2.0430 H     1 <1>   0.0800 
 51 H       -8.1850    -1.4700    -1.0620 H     1 <1>   0.0800 
 52 H      -10.5860     0.3720     2.4740 H     1 <1>   0.4000 
 53 H      -11.2850    -1.1660     0.3250 H     1 <1>   0.0800 
 54 H      -11.2640     0.5740     0.0700 H     1 <1>   0.0800 
 55 H      -10.3800    -1.4510    -1.7860 H     1 <1>   0.0800 
 56 H      -10.4000     0.2860    -1.9910 H     1 <1>   0.0800 
@<TRIPOS>BOND
  1   1   2  1   
  2   1   3  1   
  3   2   4  ar  
  4   2   5  ar  
  5   3   6  1   
  6   3  27  1   
  7   3  28  1   
  8   4   7  ar  
  9   4  29  1   
 10   5   8  ar  
 11   5  30  1   
 12   6   9  ar  
 13   6  10  ar  
 14   7  11  ar  
 15   7  12  1   
 16   8  11  ar  
 17   8  31  1   
 18   9  13  ar  
 19   9  32  1   
 20  10  14  ar  
 21  10  33  1   
 22  11  34  1   
 23  12  15  1   
 24  12  35  1   
 25  12  36  1   
 26  13  16  ar  
 27  13  37  1   
 28  14  16  ar  
 29  14  38  1   
 30  15  17  1   
 31  15  18  1   
 32  15  39  1   
 33  16  40  1   
 34  17  19  1   
 35  17  41  1   
 36  17  42  1   
 37  18  20  1   
 38  18  43  1   
 39  18  44  1   
 40  19  21  1   
 41  19  22  1   
 42  19  23  1   
 43  20  22  1   
 44  20  45  1   
 45  20  46  1   
 46  21  24  1   
 47  21  25  1   
 48  21  47  1   
 49  22  48  1   
 50  22  49  1   
 51  23  26  1   
 52  23  50  1   
 53  23  51  1   
 54  24  52  1   
 55  25  26  1   
 56  25  53  1   
 57  25  54  1   
 58  26  55  1   
 59  26  56  1   
@<TRIPOS>SUBSTRUCTURE
  1 ****   4 GROUP 4 **** **** 0

# MOE 2024.06 (io_trps.svl 2023.06)
