@<TRIPOS>MOLECULE
NONAME
43 46 1 0 0 
SMALL
USER_CHARGES


@<TRIPOS>ATOM
  1 O       -0.6300     0.4470     0.0090 O.2   1 <1>  -0.5700 
  2 C       -1.6270     1.1160     0.2190 C.2   1 <1>   0.7150 
  3 N       -2.8460     0.4570     0.3130 N.am  1 <1>  -0.6600 
  4 C       -1.4610     2.5570     0.3280 C.2   1 <1>   0.0550 
  5 C       -4.1490     1.1700     0.1230 C.3   1 <1>   0.2200 
  6 C       -2.8770    -1.0210     0.5490 C.3   1 <1>   0.0600 
  7 O       -2.3390     3.3360     0.9820 O.3   1 <1>  -0.2800 
  8 C       -0.4580     3.3340    -0.1540 C.2   1 <1>  -0.1500 
  9 C       -5.4140     0.3080     0.1850 C.3   1 <1>  -0.1600 
 10 C       -4.2470     1.8110    -1.2610 C.3   1 <1>  -0.1600 
 11 C       -1.9180     4.5960     0.9090 C.ar  1 <1>   0.1400 
 12 C       -0.7330     4.6640     0.2030 C.ar  1 <1>   0.0000 
 13 C       -6.4900     1.1570    -0.5030 C.3   1 <1>  -0.0800 
 14 C       -5.7390     2.1090    -1.4500 C.3   1 <1>  -0.0800 
 15 C       -2.5260     5.7270     1.4360 C.ar  1 <1>  -0.1500 
 16 C       -0.1210     5.9030     0.0080 C.ar  1 <1>  -0.1500 
 17 C       -7.2830     2.0440     0.4670 C.3   1 <1>  -0.1600 
 18 C       -6.1270     3.5350    -1.0310 C.3   1 <1>  -0.1600 
 19 C       -1.9160     6.9500     1.2390 C.ar  1 <1>  -0.1500 
 20 C       -0.7160     7.0350     0.5260 C.ar  1 <1>  -0.1500 
 21 C       -7.4260     3.3730    -0.2580 C.3   1 <1>   0.2000 
 22 O       -7.5680     4.3970     0.6510 O.3   1 <1>  -0.6800 
 23 H       -4.2490     1.9310     0.8770 H     1 <1>   0.0800 
 24 H       -3.5650    -1.2560     1.3410 H     1 <1>   0.0800 
 25 H       -1.9060    -1.3860     0.8390 H     1 <1>   0.0800 
 26 H       -3.1730    -1.5280    -0.3530 H     1 <1>   0.0800 
 27 H        0.4050     3.0150    -0.7110 H     1 <1>   0.1500 
 28 H       -5.2870    -0.5860    -0.3980 H     1 <1>   0.0800 
 29 H       -5.6800     0.0500     1.1950 H     1 <1>   0.0800 
 30 H       -3.6470     2.6980    -1.3520 H     1 <1>   0.0800 
 31 H       -3.9350     1.0960    -2.0020 H     1 <1>   0.0800 
 32 H       -7.1690     0.5340    -1.0620 H     1 <1>   0.0800 
 33 H       -6.0360     1.9330    -2.4710 H     1 <1>   0.0800 
 34 H       -3.4470     5.6340     1.9820 H     1 <1>   0.1500 
 35 H        0.8020     5.9580    -0.5410 H     1 <1>   0.1500 
 36 H       -6.7290     2.1860     1.3790 H     1 <1>   0.0800 
 37 H       -8.2440     1.6190     0.6920 H     1 <1>   0.0800 
 38 H       -6.2610     4.1720    -1.8880 H     1 <1>   0.0800 
 39 H       -5.3710     3.9530    -0.3890 H     1 <1>   0.0800 
 40 H       -2.3610     7.8470     1.6340 H     1 <1>   0.1500 
 41 H       -0.2570     7.9990     0.3850 H     1 <1>   0.1500 
 42 H       -8.2760     3.3660    -0.9200 H     1 <1>   0.0800 
 43 H       -6.7950     4.4190     1.2450 H     1 <1>   0.4000 
@<TRIPOS>BOND
  1   1   2  2   
  2   2   3  am  
  3   2   4  1   
  4   3   5  1   
  5   3   6  1   
  6   4   7  1   
  7   4   8  2   
  8   5   9  1   
  9   5  10  1   
 10   5  23  1   
 11   6  24  1   
 12   6  25  1   
 13   6  26  1   
 14   7  11  1   
 15   8  12  1   
 16   8  27  1   
 17   9  13  1   
 18   9  28  1   
 19   9  29  1   
 20  10  14  1   
 21  10  30  1   
 22  10  31  1   
 23  11  12  ar  
 24  11  15  ar  
 25  12  16  ar  
 26  13  14  1   
 27  13  17  1   
 28  13  32  1   
 29  14  18  1   
 30  14  33  1   
 31  15  19  ar  
 32  15  34  1   
 33  16  20  ar  
 34  16  35  1   
 35  17  21  1   
 36  17  36  1   
 37  17  37  1   
 38  18  21  1   
 39  18  38  1   
 40  18  39  1   
 41  19  20  ar  
 42  19  40  1   
 43  20  41  1   
 44  21  22  1   
 45  21  42  1   
 46  22  43  1   
@<TRIPOS>SUBSTRUCTURE
  1 ****   7 GROUP 4 **** **** 0

# MOE 2024.06 (io_trps.svl 2023.06)
