@<TRIPOS>MOLECULE
NONAME
43 46 1 0 0 
SMALL
USER_CHARGES


@<TRIPOS>ATOM
  1 N       -0.8610     0.0230    -0.5780 N.ar  1 <1>  -0.6200 
  2 C       -1.4440    -1.1560    -0.4560 C.ar  1 <1>   0.4100 
  3 C        0.4520     0.0220    -0.6820 C.ar  1 <1>   0.4760 
  4 N       -2.8220    -1.1930    -0.3340 N.pl3 1 <1>  -0.8380 
  5 C       -0.6800    -2.3100    -0.4530 C.ar  1 <1>  -0.1500 
  6 N        1.2680    -1.0170    -0.6800 N.ar  1 <1>  -0.6200 
  7 C        1.1050     1.3760    -0.8150 C.3   1 <1>  -0.0970 
  8 C       -3.6840    -0.0220    -0.7060 C.3   1 <1>   0.2090 
  9 C       -3.5290    -2.3070     0.3680 C.3   1 <1>   0.2090 
 10 C        0.6770    -2.1880    -0.5660 C.ar  1 <1>   0.1600 
 11 C       -4.3560     0.6080     0.5360 C.3   1 <1>   0.1440 
 12 C       -4.8820    -1.8610     0.9480 C.3   1 <1>  -0.1600 
 13 C       -5.5230     1.4430     0.0350 C.ar  1 <1>   0.1670 
 14 C       -4.7850    -0.4620     1.5760 C.3   1 <1>  -0.1600 
 15 C       -3.4540     1.6870     1.1900 C.3   1 <1>  -0.1600 
 16 N       -6.6820     0.9750    -0.3780 N.ar  1 <1>  -0.6200 
 17 C       -5.2260     2.7740     0.0410 C.ar  1 <1>  -0.1430 
 18 C       -3.8290     3.0320     0.5470 C.3   1 <1>  -0.0170 
 19 C       -7.5380     1.9040    -0.7770 C.ar  1 <1>   0.4770 
 20 C       -6.1870     3.6490    -0.3980 C.ar  1 <1>   0.1600 
 21 N       -7.3610     3.2180    -0.8140 N.ar  1 <1>  -0.6200 
 22 C       -8.8780     1.4020    -1.2570 C.3   1 <1>  -0.0970 
 23 H       -1.1400    -3.2720    -0.3720 H     1 <1>   0.1500 
 24 H        0.4510     2.0510    -1.3340 H     1 <1>   0.0800 
 25 H        2.0240     1.2910    -1.3640 H     1 <1>   0.0800 
 26 H        1.3120     1.7650     0.1630 H     1 <1>   0.0800 
 27 H       -4.4480    -0.3770    -1.3760 H     1 <1>   0.0800 
 28 H       -3.1240     0.7220    -1.2440 H     1 <1>   0.0800 
 29 H       -2.9060    -2.6530     1.1750 H     1 <1>   0.0800 
 30 H       -3.6800    -3.1220    -0.3190 H     1 <1>   0.0800 
 31 H        1.3020    -3.0650    -0.5660 H     1 <1>   0.1500 
 32 H       -5.2010    -2.5740     1.6870 H     1 <1>   0.0800 
 33 H       -5.6230    -1.8550     0.1670 H     1 <1>   0.0800 
 34 H       -5.7250    -0.1880     2.0210 H     1 <1>   0.0800 
 35 H       -4.0510    -0.5120     2.3610 H     1 <1>   0.0800 
 36 H       -2.4080     1.4640     1.0820 H     1 <1>   0.0800 
 37 H       -3.6790     1.7530     2.2400 H     1 <1>   0.0800 
 38 H       -3.1760     3.2510    -0.2800 H     1 <1>   0.0800 
 39 H       -3.8020     3.8360     1.2630 H     1 <1>   0.0800 
 40 H       -5.9980     4.7080    -0.4110 H     1 <1>   0.1500 
 41 H       -9.1560     0.5190    -0.7130 H     1 <1>   0.0800 
 42 H       -8.8140     1.1680    -2.3020 H     1 <1>   0.0800 
 43 H       -9.6300     2.1550    -1.1080 H     1 <1>   0.0800 
@<TRIPOS>BOND
  1   1   2  ar  
  2   1   3  ar  
  3   2   4  1   
  4   2   5  ar  
  5   3   6  ar  
  6   3   7  1   
  7   4   8  1   
  8   4   9  1   
  9   5  10  ar  
 10   5  23  1   
 11   6  10  ar  
 12   7  24  1   
 13   7  25  1   
 14   7  26  1   
 15   8  11  1   
 16   8  27  1   
 17   8  28  1   
 18   9  12  1   
 19   9  29  1   
 20   9  30  1   
 21  10  31  1   
 22  11  13  1   
 23  11  14  1   
 24  11  15  1   
 25  12  14  1   
 26  12  32  1   
 27  12  33  1   
 28  13  16  ar  
 29  13  17  ar  
 30  14  34  1   
 31  14  35  1   
 32  15  18  1   
 33  15  36  1   
 34  15  37  1   
 35  16  19  ar  
 36  17  18  1   
 37  17  20  ar  
 38  18  38  1   
 39  18  39  1   
 40  19  21  ar  
 41  19  22  1   
 42  20  21  ar  
 43  20  40  1   
 44  22  41  1   
 45  22  42  1   
 46  22  43  1   
@<TRIPOS>SUBSTRUCTURE
  1 ****   8 GROUP 4 **** **** 0

# MOE 2024.06 (io_trps.svl 2023.06)
