@<TRIPOS>MOLECULE
NONAME
39 40 1 0 0 
SMALL
USER_CHARGES


@<TRIPOS>ATOM
  1 O        0.6570     1.9020    -1.1870 O.3   1 <1>  -0.6800 
  2 C        0.4130     1.7010     0.1700 C.3   1 <1>   0.2000 
  3 C       -0.9760     2.2560     0.5450 C.3   1 <1>  -0.0800 
  4 C        1.5180     2.4100     0.9910 C.3   1 <1>   0.3430 
  5 C       -0.9930     3.7990     0.4390 C.3   1 <1>  -0.1600 
  6 C       -2.0940     1.6150    -0.2960 C.3   1 <1>   0.1200 
  7 N        1.4700     3.9110     0.8900 N.4   1 <1>  -0.9590 
  8 C        0.1280     4.4640     1.2490 C.3   1 <1>   0.3430 
  9 O       -3.3200     2.0820     0.1420 O.3   1 <1>  -0.6800 
 10 C        1.9230     4.3920    -0.4440 C.3   1 <1>   0.5240 
 11 C        2.2000     5.8710    -0.3020 C.2   1 <1>  -0.1810 
 12 C        1.4170     6.9000    -0.8200 C.2   1 <1>   0.1080 
 13 C        3.2130     6.4930     0.3460 C.2   1 <1>  -0.3320 
 14 N        1.8810     8.0630    -0.5040 N.2   1 <1>  -0.7070 
 15 C        0.1630     6.7660    -1.6580 C.3   1 <1>  -0.0590 
 16 N        2.9960     7.8190     0.2050 N.pl3 1 <1>   0.3000 
 17 C        4.4130     5.9390     1.0990 C.3   1 <1>  -0.0600 
 18 H        0.0820     1.3310    -1.7400 H     1 <1>   0.4000 
 19 H        0.4570     0.6400     0.3540 H     1 <1>   0.0800 
 20 H       -1.1550     1.9880     1.5720 H     1 <1>   0.0800 
 21 H        2.4800     2.0460     0.6690 H     1 <1>   0.0800 
 22 H        1.3950     2.1300     2.0240 H     1 <1>   0.0800 
 23 H       -1.9320     4.1750     0.8070 H     1 <1>   0.0800 
 24 H       -0.9250     4.0980    -0.5910 H     1 <1>   0.0800 
 25 H       -2.0930     0.5410    -0.2120 H     1 <1>   0.0800 
 26 H       -2.0010     1.8900    -1.3330 H     1 <1>   0.0800 
 27 H        2.1500     4.3280     1.5380 H     1 <1>   0.4500 
 28 H       -0.0570     4.2930     2.2970 H     1 <1>   0.0800 
 29 H        0.1110     5.5300     1.0850 H     1 <1>   0.0800 
 30 H       -3.6160     1.6220     0.9530 H     1 <1>   0.4000 
 31 H        2.8270     3.8860    -0.7380 H     1 <1>   0.0800 
 32 H        1.1710     4.2140    -1.1930 H     1 <1>   0.0800 
 33 H        0.1840     5.8700    -2.2490 H     1 <1>   0.0800 
 34 H        0.0910     7.6070    -2.3240 H     1 <1>   0.0800 
 35 H       -0.7030     6.7630    -1.0230 H     1 <1>   0.0800 
 36 H        3.5850     8.5810     0.5670 H     1 <1>   0.2700 
 37 H        4.4430     4.8660     1.0450 H     1 <1>   0.0800 
 38 H        4.3750     6.2350     2.1330 H     1 <1>   0.0800 
 39 H        5.3230     6.3200     0.6680 H     1 <1>   0.0800 
@<TRIPOS>BOND
  1   1   2  1   
  2   1  18  1   
  3   2   3  1   
  4   2   4  1   
  5   2  19  1   
  6   3   5  1   
  7   3   6  1   
  8   3  20  1   
  9   4   7  1   
 10   4  21  1   
 11   4  22  1   
 12   5   8  1   
 13   5  23  1   
 14   5  24  1   
 15   6   9  1   
 16   6  25  1   
 17   6  26  1   
 18   7   8  1   
 19   7  10  1   
 20   7  27  1   
 21   8  28  1   
 22   8  29  1   
 23   9  30  1   
 24  10  11  1   
 25  10  31  1   
 26  10  32  1   
 27  11  12  1   
 28  11  13  2   
 29  12  14  2   
 30  12  15  1   
 31  13  16  1   
 32  13  17  1   
 33  14  16  1   
 34  15  33  1   
 35  15  34  1   
 36  15  35  1   
 37  16  36  1   
 38  17  37  1   
 39  17  38  1   
 40  17  39  1   
@<TRIPOS>SUBSTRUCTURE
  1 ****  10 GROUP 4 **** **** 0

# MOE 2024.06 (io_trps.svl 2023.06)
