@<TRIPOS>MOLECULE
NONAME
48 51 1 0 0 
SMALL
USER_CHARGES


@<TRIPOS>ATOM
  1 S       -2.5800    -3.7070     2.8520 S.3   1 <1>  -0.0800 
  2 C       -2.9950    -3.7920     1.1520 C.2   1 <1>  -0.1100 
  3 C       -2.5680    -1.9540     2.8050 C.2   1 <1>  -0.1100 
  4 C       -3.1170    -2.5570     0.6250 C.2   1 <1>  -0.1810 
  5 C       -2.8670    -1.5070     1.5720 C.2   1 <1>  -0.1500 
  6 C       -3.4960    -2.2710    -0.8120 C.3   1 <1>   0.5240 
  7 N       -4.9540    -2.4830    -0.9210 N.4   1 <1>  -0.9590 
  8 C       -5.4310    -2.7680    -2.3060 C.3   1 <1>   0.3430 
  9 C       -5.7930    -1.5040    -0.1760 C.3   1 <1>   0.3430 
 10 C       -6.7620    -3.5550    -2.2850 C.3   1 <1>   0.1400 
 11 C       -6.8080    -2.2360     0.7120 C.3   1 <1>  -0.1600 
 12 N       -7.1110    -4.0650    -0.9180 N.am  1 <1>  -0.6600 
 13 C       -7.8260    -3.1080    -0.0400 C.3   1 <1>   0.1400 
 14 C       -6.4900    -5.1770    -0.3930 C.2   1 <1>   0.5440 
 15 O       -5.3360    -5.3570    -0.7410 O.2   1 <1>  -0.5700 
 16 C       -7.0910    -6.0100     0.6290 C.ar  1 <1>   0.0860 
 17 C       -8.4120    -6.4660     0.5520 C.ar  1 <1>   0.0830 
 18 C       -6.3400    -6.3870     1.7460 C.ar  1 <1>  -0.1500 
 19 O       -9.1660    -6.1660    -0.5360 O.3   1 <1>  -0.3620 
 20 C       -8.9570    -7.2380     1.5830 C.ar  1 <1>   0.0830 
 21 C       -6.8750    -7.1620     2.7570 C.ar  1 <1>  -0.1500 
 22 C      -10.3530    -6.9070    -0.7460 C.3   1 <1>   0.1200 
 23 O      -10.2440    -7.6660     1.5440 O.3   1 <1>  -0.3630 
 24 C       -8.1890    -7.5870     2.6770 C.ar  1 <1>  -0.1500 
 25 C      -11.0990    -7.0850     0.5800 C.3   1 <1>   0.1200 
 26 H       -3.1100    -4.7760     0.7270 H     1 <1>   0.1500 
 27 H       -2.3310    -1.4390     3.7210 H     1 <1>   0.1500 
 28 H       -2.9120    -0.4670     1.2960 H     1 <1>   0.1500 
 29 H       -2.9780    -2.9650    -1.4530 H     1 <1>   0.0800 
 30 H       -3.2260    -1.2660    -1.0900 H     1 <1>   0.0800 
 31 H       -5.1110    -3.3990    -0.4540 H     1 <1>   0.4500 
 32 H       -4.7020    -3.3800    -2.8120 H     1 <1>   0.0800 
 33 H       -5.5460    -1.8570    -2.8690 H     1 <1>   0.0800 
 34 H       -6.3060    -0.8540    -0.8650 H     1 <1>   0.0800 
 35 H       -5.1670    -0.8950     0.4560 H     1 <1>   0.0800 
 36 H       -6.6800    -4.3920    -2.9590 H     1 <1>   0.0800 
 37 H       -7.5580    -2.9320    -2.6540 H     1 <1>   0.0800 
 38 H       -7.3560    -1.4990     1.2710 H     1 <1>   0.0800 
 39 H       -6.2820    -2.8370     1.4330 H     1 <1>   0.0800 
 40 H       -8.4850    -2.4940    -0.6310 H     1 <1>   0.0800 
 41 H       -8.4350    -3.6470     0.6680 H     1 <1>   0.0800 
 42 H       -5.3150    -6.0670     1.8200 H     1 <1>   0.1500 
 43 H       -6.2740    -7.4390     3.6070 H     1 <1>   0.1500 
 44 H      -10.0830    -7.8650    -1.1550 H     1 <1>   0.0800 
 45 H      -10.9580    -6.3760    -1.4590 H     1 <1>   0.0800 
 46 H       -8.6210    -8.1880     3.4580 H     1 <1>   0.1500 
 47 H      -11.9490    -7.7320     0.4580 H     1 <1>   0.0800 
 48 H      -11.4310    -6.1330     0.9560 H     1 <1>   0.0800 
@<TRIPOS>BOND
  1   1   2  1   
  2   1   3  1   
  3   2   4  2   
  4   2  26  1   
  5   3   5  2   
  6   3  27  1   
  7   4   5  1   
  8   4   6  1   
  9   5  28  1   
 10   6   7  1   
 11   6  29  1   
 12   6  30  1   
 13   7   8  1   
 14   7   9  1   
 15   7  31  1   
 16   8  10  1   
 17   8  32  1   
 18   8  33  1   
 19   9  11  1   
 20   9  34  1   
 21   9  35  1   
 22  10  12  1   
 23  10  36  1   
 24  10  37  1   
 25  11  13  1   
 26  11  38  1   
 27  11  39  1   
 28  12  13  1   
 29  12  14  am  
 30  13  40  1   
 31  13  41  1   
 32  14  15  2   
 33  14  16  1   
 34  16  17  ar  
 35  16  18  ar  
 36  17  19  1   
 37  17  20  ar  
 38  18  21  ar  
 39  18  42  1   
 40  19  22  1   
 41  20  23  1   
 42  20  24  ar  
 43  21  24  ar  
 44  21  43  1   
 45  22  25  1   
 46  22  44  1   
 47  22  45  1   
 48  23  25  1   
 49  24  46  1   
 50  25  47  1   
 51  25  48  1   
@<TRIPOS>SUBSTRUCTURE
  1 ****  14 GROUP 4 **** **** 0

# MOE 2024.06 (io_trps.svl 2023.06)
