@<TRIPOS>MOLECULE
NONAME
57 59 1 0 0 
SMALL
USER_CHARGES


@<TRIPOS>ATOM
  1 O       -0.0550    -0.5980    -0.0200 O.2   1 <1>  -0.5700 
  2 C       -0.5260     0.4420     0.3850 C.2   1 <1>   0.5690 
  3 N       -1.8650     0.7270     0.2430 N.am  1 <1>  -0.6600 
  4 C        0.4330     1.4130     1.0970 C.3   1 <1>   0.1710 
  5 C       -2.4890     2.0400     0.6040 C.3   1 <1>   0.1400 
  6 C       -2.8230    -0.2690    -0.3160 C.3   1 <1>   0.1400 
  7 N        0.7870     2.6610     0.3530 N.3   1 <1>  -0.8100 
  8 C       -3.2120     2.6650    -0.6040 C.3   1 <1>   0.1430 
  9 C       -3.5630     0.3200    -1.5240 C.3   1 <1>  -0.1600 
 10 C        1.6080     3.5360     1.2170 C.3   1 <1>   0.1100 
 11 C        1.5040     2.3130    -0.8870 C.3   1 <1>   0.0300 
 12 C       -3.8550     3.9620    -0.1500 C.ar  1 <1>   0.1670 
 13 C       -4.2330     1.6620    -1.1820 C.3   1 <1>  -0.1600 
 14 C       -2.2100     3.1560    -1.6820 C.3   1 <1>  -0.1600 
 15 C        1.6500     4.9750     0.6990 C.3   1 <1>   0.1200 
 16 N       -4.9320     4.0580     0.5900 N.ar  1 <1>  -0.6200 
 17 C       -3.1580     5.0450    -0.5900 C.ar  1 <1>  -0.1430 
 18 C       -1.9520     4.6450    -1.4030 C.3   1 <1>  -0.0170 
 19 O        2.4450     5.7280     1.5600 O.3   1 <1>  -0.5600 
 20 C       -5.3150     5.3040     0.8780 C.ar  1 <1>   0.7200 
 21 C       -3.6240     6.2870    -0.2430 C.ar  1 <1>   0.1600 
 22 C        2.5330     7.0720     1.2160 C.3   1 <1>   0.0400 
 23 N       -4.7030     6.4290     0.4910 N.ar  1 <1>  -0.6200 
 24 N       -6.4510     5.4440     1.6530 N.pl3 1 <1>  -0.8380 
 25 C       -6.8200     6.7380     2.2890 C.3   1 <1>   0.1290 
 26 C       -7.4000     4.3180     1.8740 C.3   1 <1>   0.1290 
 27 H        1.3350     0.8740     1.3270 H     1 <1>   0.0800 
 28 H       -0.0230     1.6790     2.0330 H     1 <1>   0.0800 
 29 H       -1.7560     2.7350     0.9690 H     1 <1>   0.0800 
 30 H       -3.2030     1.8770     1.3930 H     1 <1>   0.0800 
 31 H       -3.5310    -0.5340     0.4500 H     1 <1>   0.0800 
 32 H       -2.3070    -1.1670    -0.6140 H     1 <1>   0.0800 
 33 H       -4.3090    -0.3810    -1.8540 H     1 <1>   0.0800 
 34 H       -2.8610     0.4490    -2.3290 H     1 <1>   0.0800 
 35 H        2.6100     3.1480     1.2900 H     1 <1>   0.0800 
 36 H        1.1810     3.5640     2.2040 H     1 <1>   0.0800 
 37 H        0.9010     1.6620    -1.4960 H     1 <1>   0.0800 
 38 H        2.4290     1.8100    -0.6600 H     1 <1>   0.0800 
 39 H        1.7170     3.1980    -1.4590 H     1 <1>   0.0800 
 40 H       -4.7060     2.0760    -2.0540 H     1 <1>   0.0800 
 41 H       -5.0030     1.4900    -0.4490 H     1 <1>   0.0800 
 42 H       -2.6610     3.0730    -2.6550 H     1 <1>   0.0800 
 43 H       -1.2990     2.5870    -1.6840 H     1 <1>   0.0800 
 44 H        0.6580     5.3920     0.6940 H     1 <1>   0.0800 
 45 H        2.0830     5.0180    -0.2840 H     1 <1>   0.0800 
 46 H       -1.8720     5.2120    -2.3140 H     1 <1>   0.0800 
 47 H       -1.0600     4.7640    -0.8130 H     1 <1>   0.0800 
 48 H       -3.1090     7.1740    -0.5680 H     1 <1>   0.1500 
 49 H        3.1650     7.5610     1.9370 H     1 <1>   0.0800 
 50 H        1.5500     7.5100     1.2400 H     1 <1>   0.0800 
 51 H        2.9660     7.1610     0.2350 H     1 <1>   0.0800 
 52 H       -5.9380     7.3160     2.5070 H     1 <1>   0.0800 
 53 H       -7.3450     6.5610     3.2110 H     1 <1>   0.0800 
 54 H       -7.4490     7.3000     1.6210 H     1 <1>   0.0800 
 55 H       -7.3770     3.6360     1.0410 H     1 <1>   0.0800 
 56 H       -8.4030     4.6930     1.9750 H     1 <1>   0.0800 
 57 H       -7.1250     3.7880     2.7680 H     1 <1>   0.0800 
@<TRIPOS>BOND
  1   1   2  2   
  2   2   3  am  
  3   2   4  1   
  4   3   5  1   
  5   3   6  1   
  6   4   7  1   
  7   4  27  1   
  8   4  28  1   
  9   5   8  1   
 10   5  29  1   
 11   5  30  1   
 12   6   9  1   
 13   6  31  1   
 14   6  32  1   
 15   7  10  1   
 16   7  11  1   
 17   8  12  1   
 18   8  13  1   
 19   8  14  1   
 20   9  13  1   
 21   9  33  1   
 22   9  34  1   
 23  10  15  1   
 24  10  35  1   
 25  10  36  1   
 26  11  37  1   
 27  11  38  1   
 28  11  39  1   
 29  12  16  ar  
 30  12  17  ar  
 31  13  40  1   
 32  13  41  1   
 33  14  18  1   
 34  14  42  1   
 35  14  43  1   
 36  15  19  1   
 37  15  44  1   
 38  15  45  1   
 39  16  20  ar  
 40  17  18  1   
 41  17  21  ar  
 42  18  46  1   
 43  18  47  1   
 44  19  22  1   
 45  20  23  ar  
 46  20  24  1   
 47  21  23  ar  
 48  21  48  1   
 49  22  49  1   
 50  22  50  1   
 51  22  51  1   
 52  24  25  1   
 53  24  26  1   
 54  25  52  1   
 55  25  53  1   
 56  25  54  1   
 57  26  55  1   
 58  26  56  1   
 59  26  57  1   
@<TRIPOS>SUBSTRUCTURE
  1 ****   5 GROUP 4 **** **** 0

# MOE 2024.06 (io_trps.svl 2023.06)
