@<TRIPOS>MOLECULE
NONAME
43 45 1 0 0 
SMALL
USER_CHARGES


@<TRIPOS>ATOM
  1 S        1.4920     1.6390     0.1920 S.3   1 <1>  -0.4600 
  2 C        0.1160     2.4110    -0.7440 C.3   1 <1>   0.1310 
  3 C        0.6680     0.4000     1.2300 C.3   1 <1>   0.1650 
  4 C        0.5570     3.6590    -1.4990 C.2   1 <1>   0.5690 
  5 C        0.0130    -0.6460     0.3250 C.3   1 <1>  -0.1950 
  6 O       -0.2830     4.3290    -2.0510 O.2   1 <1>  -0.5700 
  7 N        1.8680     3.9960    -1.5390 N.am  1 <1>  -0.7300 
  8 C       -1.4090    -0.5190    -0.1270 C.3   1 <1>  -0.2000 
  9 C       -1.0270    -1.5720     0.8740 C.3   1 <1>  -0.2000 
 10 C        2.3810     5.2830    -2.0270 C.3   1 <1>   0.2840 
 11 C        3.6610     5.6190    -1.2730 C.ar  1 <1>  -0.1430 
 12 C        3.6450     5.9640     0.0810 C.ar  1 <1>  -0.0230 
 13 C        4.8690     5.5760    -1.9530 C.ar  1 <1>  -0.1500 
 14 N        2.4400     6.0170     0.8310 N.pl3 1 <1>   0.3260 
 15 C        4.8440     6.2610     0.7200 C.ar  1 <1>  -0.1500 
 16 C        6.0550     5.8750    -1.3050 C.ar  1 <1>  -0.1500 
 17 C        1.5720     7.0560     0.9940 C.2   1 <1>   0.0070 
 18 C        1.9300     5.0490     1.6220 C.2   1 <1>  -0.3020 
 19 C        6.0420     6.2190     0.0330 C.ar  1 <1>  -0.1500 
 20 N        0.5890     6.8090     1.7960 N.2   1 <1>  -0.5650 
 21 C        1.7540     8.3900     0.2970 C.3   1 <1>  -0.0600 
 22 C        0.8120     5.5420     2.1920 C.2   1 <1>   0.0770 
 23 H       -0.6490     2.6680    -0.0360 H     1 <1>   0.0800 
 24 H       -0.2530     1.6790    -1.4370 H     1 <1>   0.0800 
 25 H       -0.0510     0.9110     1.8460 H     1 <1>   0.0800 
 26 H        1.4280    -0.0460     1.8470 H     1 <1>   0.0800 
 27 H        0.7200    -1.0790    -0.3640 H     1 <1>   0.1000 
 28 H        2.5380     3.4080    -1.0350 H     1 <1>   0.3700 
 29 H       -1.6620    -0.8260    -1.1270 H     1 <1>   0.1000 
 30 H       -2.0070     0.3090     0.2130 H     1 <1>   0.1000 
 31 H       -1.3570    -1.4540     1.8910 H     1 <1>   0.1000 
 32 H       -1.0190    -2.6020     0.5610 H     1 <1>   0.1000 
 33 H        1.6420     6.0510    -1.8740 H     1 <1>   0.0800 
 34 H        2.5710     5.2060    -3.0830 H     1 <1>   0.0800 
 35 H        4.8980     5.3060    -2.9950 H     1 <1>   0.1500 
 36 H        4.8380     6.5270     1.7640 H     1 <1>   0.1500 
 37 H        6.9870     5.8390    -1.8430 H     1 <1>   0.1500 
 38 H        2.3920     4.0850     1.7230 H     1 <1>   0.1500 
 39 H        6.9640     6.4510     0.5390 H     1 <1>   0.1500 
 40 H        2.7070     8.8140     0.5530 H     1 <1>   0.0800 
 41 H        0.9790     9.0700     0.6030 H     1 <1>   0.0800 
 42 H        1.6970     8.2620    -0.7680 H     1 <1>   0.0800 
 43 H        0.1440     5.0490     2.8790 H     1 <1>   0.1500 
@<TRIPOS>BOND
  1   1   2  1   
  2   1   3  1   
  3   2   4  1   
  4   2  23  1   
  5   2  24  1   
  6   3   5  1   
  7   3  25  1   
  8   3  26  1   
  9   4   6  2   
 10   4   7  am  
 11   5   8  1   
 12   5   9  1   
 13   5  27  1   
 14   7  10  1   
 15   7  28  1   
 16   8   9  1   
 17   8  29  1   
 18   8  30  1   
 19   9  31  1   
 20   9  32  1   
 21  10  11  1   
 22  10  33  1   
 23  10  34  1   
 24  11  12  ar  
 25  11  13  ar  
 26  12  14  1   
 27  12  15  ar  
 28  13  16  ar  
 29  13  35  1   
 30  14  17  1   
 31  14  18  1   
 32  15  19  ar  
 33  15  36  1   
 34  16  19  ar  
 35  16  37  1   
 36  17  20  2   
 37  17  21  1   
 38  18  22  2   
 39  18  38  1   
 40  19  39  1   
 41  20  22  1   
 42  21  40  1   
 43  21  41  1   
 44  21  42  1   
 45  22  43  1   
@<TRIPOS>SUBSTRUCTURE
  1 ****   7 GROUP 4 **** **** 0

# MOE 2024.06 (io_trps.svl 2023.06)
