@<TRIPOS>MOLECULE
NONAME
45 46 1 0 0 
SMALL
USER_CHARGES


@<TRIPOS>ATOM
  1 O       -0.9010    -0.1760    -3.0310 O.2   1 <1>  -0.5700 
  2 C       -1.5170     0.6030    -2.3410 C.2   1 <1>   0.5690 
  3 N       -2.6680     0.2220    -1.6930 N.am  1 <1>  -0.6600 
  4 C       -0.9310     2.0040    -2.2030 C.3   1 <1>   0.0450 
  5 C       -3.0180    -1.2290    -1.6250 C.3   1 <1>   0.3200 
  6 C       -3.5750     1.1570    -0.9460 C.3   1 <1>   0.1400 
  7 C       -0.2940     2.1930    -0.8310 C.ar  1 <1>  -0.1440 
  8 C       -3.3180    -1.6340    -0.1920 C.2   1 <1>  -0.3320 
  9 C       -5.0060     1.1110    -1.4900 C.3   1 <1>   0.1200 
 10 C        0.8380     1.4630    -0.5040 C.ar  1 <1>  -0.1500 
 11 C       -0.8290     3.0700     0.1000 C.ar  1 <1>  -0.1500 
 12 N       -2.4520    -1.5310     0.8370 N.pl3 1 <1>   0.0480 
 13 C       -4.4600    -2.1480     0.3170 C.2   1 <1>   0.0770 
 14 O       -5.7920     2.0040    -0.7780 O.3   1 <1>  -0.6800 
 15 C        1.4250     1.5910     0.7440 C.ar  1 <1>  -0.1430 
 16 C       -0.2530     3.2040     1.3520 C.ar  1 <1>  -0.1430 
 17 C       -3.1410    -1.9830     1.9080 C.2   1 <1>   0.0360 
 18 C       -1.0740    -1.0020     0.8340 C.3   1 <1>   0.0160 
 19 N       -4.3490    -2.3620     1.6400 N.2   1 <1>  -0.5650 
 20 C        0.8730     2.4630     1.6680 C.ar  1 <1>  -0.1500 
 21 C        2.6650     0.7900     1.0930 C.3   1 <1>  -0.0970 
 22 C       -0.8480     4.1640     2.3660 C.3   1 <1>  -0.0970 
 23 H       -1.6840     2.7430    -2.3930 H     1 <1>   0.0800 
 24 H       -0.1720     2.1330    -2.9530 H     1 <1>   0.0800 
 25 H       -2.2100    -1.8380    -1.9920 H     1 <1>   0.0800 
 26 H       -3.8740    -1.4170    -2.2490 H     1 <1>   0.0800 
 27 H       -3.2290     2.1680    -1.0270 H     1 <1>   0.0800 
 28 H       -3.5770     0.8970     0.0980 H     1 <1>   0.0800 
 29 H       -5.4390     0.1320    -1.3850 H     1 <1>   0.0800 
 30 H       -5.0230     1.4110    -2.5240 H     1 <1>   0.0800 
 31 H        1.2630     0.7880    -1.2280 H     1 <1>   0.1500 
 32 H       -1.6970     3.6550    -0.1450 H     1 <1>   0.1500 
 33 H       -5.3750    -2.3790    -0.2030 H     1 <1>   0.1500 
 34 H       -5.9510     1.6750     0.1300 H     1 <1>   0.4000 
 35 H       -2.7060    -2.0150     2.8910 H     1 <1>   0.1500 
 36 H       -0.6020    -1.2250    -0.1050 H     1 <1>   0.0800 
 37 H       -0.5110    -1.4490     1.6320 H     1 <1>   0.0800 
 38 H       -1.1070     0.0640     0.9710 H     1 <1>   0.0800 
 39 H        1.3280     2.5700     2.6360 H     1 <1>   0.1500 
 40 H        2.7010    -0.1210     0.5220 H     1 <1>   0.0800 
 41 H        2.6670     0.5360     2.1380 H     1 <1>   0.0800 
 42 H        3.5440     1.3700     0.8750 H     1 <1>   0.0800 
 43 H       -1.9160     4.2140     2.2540 H     1 <1>   0.0800 
 44 H       -0.4360     5.1460     2.2200 H     1 <1>   0.0800 
 45 H       -0.6270     3.8400     3.3670 H     1 <1>   0.0800 
@<TRIPOS>BOND
  1   1   2  2   
  2   2   3  am  
  3   2   4  1   
  4   3   5  1   
  5   3   6  1   
  6   4   7  1   
  7   4  23  1   
  8   4  24  1   
  9   5   8  1   
 10   5  25  1   
 11   5  26  1   
 12   6   9  1   
 13   6  27  1   
 14   6  28  1   
 15   7  10  ar  
 16   7  11  ar  
 17   8  12  1   
 18   8  13  2   
 19   9  14  1   
 20   9  29  1   
 21   9  30  1   
 22  10  15  ar  
 23  10  31  1   
 24  11  16  ar  
 25  11  32  1   
 26  12  17  1   
 27  12  18  1   
 28  13  19  1   
 29  13  33  1   
 30  14  34  1   
 31  15  20  ar  
 32  15  21  1   
 33  16  20  ar  
 34  16  22  1   
 35  17  19  2   
 36  17  35  1   
 37  18  36  1   
 38  18  37  1   
 39  18  38  1   
 40  20  39  1   
 41  21  40  1   
 42  21  41  1   
 43  21  42  1   
 44  22  43  1   
 45  22  44  1   
 46  22  45  1   
@<TRIPOS>SUBSTRUCTURE
  1 ****   3 GROUP 4 **** **** 0

# MOE 2024.06 (io_trps.svl 2023.06)
