@<TRIPOS>MOLECULE
NONAME
49 52 1 0 0 
SMALL
USER_CHARGES


@<TRIPOS>ATOM
  1 O       -0.0500     1.0480    -0.5160 O.2   1 <1>  -0.5700 
  2 C       -0.2390     2.2430    -0.5100 C.2   1 <1>   0.5690 
  3 N       -1.2440     2.8490     0.1960 N.am  1 <1>  -0.5090 
  4 C        0.7000     3.1220    -1.3260 C.3   1 <1>   0.1810 
  5 C       -1.4380     4.3360     0.1380 C.3   1 <1>   0.3640 
  6 C       -2.0060     2.1300     1.2480 C.3   1 <1>   0.0490 
  7 O        0.9210     4.3500    -0.6820 O.3   1 <1>  -0.5600 
  8 C       -2.7100     4.6630    -0.6440 C.ar  1 <1>  -0.1440 
  9 C       -0.2500     5.1280    -0.4860 C.3   1 <1>   0.2610 
 10 C       -2.7720     0.9010     0.8720 C.3   1 <1>  -0.2000 
 11 C       -3.5050     2.1440     1.2590 C.3   1 <1>  -0.2000 
 12 C       -3.5550     5.6680    -0.1900 C.ar  1 <1>   0.1600 
 13 C       -3.0520     3.9910    -1.8050 C.ar  1 <1>  -0.1500 
 14 C        0.0580     6.3570     0.3770 C.2   1 <1>   0.5690 
 15 N       -4.6800     6.0390    -0.7810 N.ar  1 <1>  -0.6200 
 16 C       -4.2200     4.3670    -2.4320 C.ar  1 <1>  -0.1500 
 17 O       -0.8520     7.0620     0.7470 O.2   1 <1>  -0.5700 
 18 N        1.3410     6.6400     0.7080 N.am  1 <1>  -0.7300 
 19 C       -4.9860     5.3810    -1.8860 C.ar  1 <1>   0.1600 
 20 C        1.8120     7.8410     1.4380 C.3   1 <1>   0.2840 
 21 C        2.7740     8.6430     0.5640 C.ar  1 <1>   0.1670 
 22 N        4.0370     8.2360     0.6050 N.ar  1 <1>  -0.6200 
 23 C        2.3230     9.7130    -0.2110 C.ar  1 <1>  -0.1440 
 24 C        4.8900     8.9180    -0.1410 C.ar  1 <1>   0.1600 
 25 C        3.2360    10.4080    -0.9800 C.ar  1 <1>  -0.1500 
 26 C        0.8600    10.1410    -0.2480 C.3   1 <1>  -0.0970 
 27 C        4.5480     9.9940    -0.9370 C.ar  1 <1>  -0.1500 
 28 H        0.2890     3.3050    -2.3020 H     1 <1>   0.0800 
 29 H        1.6510     2.6310    -1.4300 H     1 <1>   0.0800 
 30 H       -1.5700     4.6720     1.1530 H     1 <1>   0.0800 
 31 H       -1.4860     2.1220     2.1930 H     1 <1>   0.1000 
 32 H       -0.5430     5.4920    -1.4540 H     1 <1>   0.0800 
 33 H       -2.7700     0.5920    -0.1590 H     1 <1>   0.1000 
 34 H       -2.7720     0.0680     1.5520 H     1 <1>   0.1000 
 35 H       -4.0170     2.1510     2.2040 H     1 <1>   0.1000 
 36 H       -4.0670     2.6390     0.4870 H     1 <1>   0.1000 
 37 H       -3.2960     6.2030     0.7090 H     1 <1>   0.1500 
 38 H       -2.4470     3.1980    -2.2080 H     1 <1>   0.1500 
 39 H       -4.5380     3.8780    -3.3340 H     1 <1>   0.1500 
 40 H        2.0900     6.0520     0.3270 H     1 <1>   0.3700 
 41 H       -5.8980     5.6650    -2.3830 H     1 <1>   0.1500 
 42 H        0.9770     8.4440     1.7420 H     1 <1>   0.0800 
 43 H        2.3280     7.5270     2.3280 H     1 <1>   0.0800 
 44 H        5.9190     8.6010    -0.1150 H     1 <1>   0.1500 
 45 H        2.9430    11.2420    -1.5940 H     1 <1>   0.1500 
 46 H        0.6990    10.8990    -0.9940 H     1 <1>   0.0800 
 47 H        0.5650    10.5400     0.7060 H     1 <1>   0.0800 
 48 H        0.2310     9.3030    -0.4870 H     1 <1>   0.0800 
 49 H        5.3000    10.4980    -1.5150 H     1 <1>   0.1500 
@<TRIPOS>BOND
  1   1   2  2   
  2   2   3  am  
  3   2   4  1   
  4   3   5  1   
  5   3   6  1   
  6   4   7  1   
  7   4  28  1   
  8   4  29  1   
  9   5   8  1   
 10   5   9  1   
 11   5  30  1   
 12   6  10  1   
 13   6  11  1   
 14   6  31  1   
 15   7   9  1   
 16   8  12  ar  
 17   8  13  ar  
 18   9  14  1   
 19   9  32  1   
 20  10  11  1   
 21  10  33  1   
 22  10  34  1   
 23  11  35  1   
 24  11  36  1   
 25  12  15  ar  
 26  12  37  1   
 27  13  16  ar  
 28  13  38  1   
 29  14  17  2   
 30  14  18  am  
 31  15  19  ar  
 32  16  19  ar  
 33  16  39  1   
 34  18  20  1   
 35  18  40  1   
 36  19  41  1   
 37  20  21  1   
 38  20  42  1   
 39  20  43  1   
 40  21  22  ar  
 41  21  23  ar  
 42  22  24  ar  
 43  23  25  ar  
 44  23  26  1   
 45  24  27  ar  
 46  24  44  1   
 47  25  27  ar  
 48  25  45  1   
 49  26  46  1   
 50  26  47  1   
 51  26  48  1   
 52  27  49  1   
@<TRIPOS>SUBSTRUCTURE
  1 ****   9 GROUP 4 **** **** 0

# MOE 2024.06 (io_trps.svl 2023.06)
