@<TRIPOS>MOLECULE
NONAME
58 62 1 0 0 
SMALL
USER_CHARGES


@<TRIPOS>ATOM
  1 O       -1.8910     2.0780    -1.8870 O.2   1 <1>  -0.5700 
  2 C       -2.3150     1.6770    -0.8260 C.2   1 <1>   0.5690 
  3 N       -3.1920     0.6150    -0.7840 N.am  1 <1>  -0.6600 
  4 C       -1.8710     2.3900     0.4780 C.3   1 <1>   0.2610 
  5 C       -3.9890     0.2640     0.4320 C.3   1 <1>   0.1400 
  6 C       -3.4860    -0.1520    -2.0330 C.3   1 <1>   0.1400 
  7 O       -2.7020     3.4800     0.7440 O.3   1 <1>  -0.6800 
  8 C       -0.3930     2.8560     0.5610 C.3   1 <1>  -0.0800 
  9 C       -5.3270    -0.3690     0.0490 C.3   1 <1>  -0.1600 
 10 C       -3.8730    -1.5830    -1.6750 C.3   1 <1>  -0.1600 
 11 C       -0.0380     4.0720    -0.3270 C.3   1 <1>  -0.1600 
 12 C        0.5770     1.6890     0.2850 C.3   1 <1>  -0.1600 
 13 C       -5.1650    -1.6100    -0.8480 C.3   1 <1>   0.4600 
 14 C        1.4270     4.4920    -0.1400 C.3   1 <1>  -0.1600 
 15 C        2.0400     2.1160     0.4730 C.3   1 <1>  -0.1600 
 16 O       -6.2180    -1.5980    -1.7840 O.3   1 <1>  -0.5600 
 17 C       -5.2430    -2.8980    -0.0320 C.2   1 <1>  -0.3320 
 18 C        2.3800     3.3210    -0.4110 C.3   1 <1>  -0.1600 
 19 C       -7.4880    -2.0180    -1.3460 C.3   1 <1>   0.1200 
 20 N       -4.3080    -3.3660     0.8510 N.pl3 1 <1>   0.0330 
 21 C       -6.2790    -3.7600    -0.0770 C.2   1 <1>  -0.1810 
 22 C       -7.4740    -3.5080    -0.9620 C.3   1 <1>   0.0210 
 23 C       -4.7680    -4.5530     1.3680 C.ar  1 <1>  -0.1520 
 24 C       -6.0090    -4.8300     0.8010 C.ar  1 <1>   0.0000 
 25 C       -4.1950    -5.4230     2.2990 C.ar  1 <1>  -0.1500 
 26 C       -6.6910    -5.9950     1.1640 C.ar  1 <1>  -0.1500 
 27 C       -4.8780    -6.5660     2.6480 C.ar  1 <1>  -0.1500 
 28 C       -6.1260    -6.8520     2.0810 C.ar  1 <1>  -0.1500 
 29 H       -2.0120     1.7030     1.2910 H     1 <1>   0.0800 
 30 H       -3.4220    -0.4230     1.0370 H     1 <1>   0.0800 
 31 H       -4.1830     1.1500     1.0130 H     1 <1>   0.0800 
 32 H       -4.2900     0.3270    -2.5670 H     1 <1>   0.0800 
 33 H       -2.6170    -0.1620    -2.6700 H     1 <1>   0.0800 
 34 H       -2.6770     4.0780    -0.0300 H     1 <1>   0.4000 
 35 H       -0.2350     3.1570     1.5830 H     1 <1>   0.0800 
 36 H       -5.9020     0.3780    -0.4700 H     1 <1>   0.0800 
 37 H       -5.8620    -0.6350     0.9420 H     1 <1>   0.0800 
 38 H       -3.0590    -2.0160    -1.1260 H     1 <1>   0.0800 
 39 H       -4.0070    -2.1690    -2.5650 H     1 <1>   0.0800 
 40 H       -0.1950     3.8330    -1.3640 H     1 <1>   0.0800 
 41 H       -0.6670     4.9090    -0.0810 H     1 <1>   0.0800 
 42 H        0.3630     0.8690     0.9470 H     1 <1>   0.0800 
 43 H        0.4490     1.3410    -0.7260 H     1 <1>   0.0800 
 44 H        1.6560     5.3030    -0.8090 H     1 <1>   0.0800 
 45 H        1.5710     4.8440     0.8670 H     1 <1>   0.0800 
 46 H        2.2100     2.3710     1.5050 H     1 <1>   0.0800 
 47 H        2.6900     1.2950     0.2250 H     1 <1>   0.0800 
 48 H        3.3940     3.6310    -0.2250 H     1 <1>   0.0800 
 49 H        2.3070     3.0360    -1.4470 H     1 <1>   0.0800 
 50 H       -7.7750    -1.4170    -0.5010 H     1 <1>   0.0800 
 51 H       -8.1850    -1.8470    -2.1470 H     1 <1>   0.0800 
 52 H       -3.4050    -2.9400     1.0750 H     1 <1>   0.2700 
 53 H       -8.3810    -3.7570    -0.4430 H     1 <1>   0.0800 
 54 H       -7.4040    -4.1140    -1.8470 H     1 <1>   0.0800 
 55 H       -3.2360    -5.1980     2.7290 H     1 <1>   0.1500 
 56 H       -7.6470    -6.2020     0.7200 H     1 <1>   0.1500 
 57 H       -4.4590    -7.2520     3.3620 H     1 <1>   0.1500 
 58 H       -6.6390    -7.7520     2.3710 H     1 <1>   0.1500 
@<TRIPOS>BOND
  1   1   2  2   
  2   2   3  am  
  3   2   4  1   
  4   3   5  1   
  5   3   6  1   
  6   4   7  1   
  7   4   8  1   
  8   4  29  1   
  9   5   9  1   
 10   5  30  1   
 11   5  31  1   
 12   6  10  1   
 13   6  32  1   
 14   6  33  1   
 15   7  34  1   
 16   8  11  1   
 17   8  12  1   
 18   8  35  1   
 19   9  13  1   
 20   9  36  1   
 21   9  37  1   
 22  10  13  1   
 23  10  38  1   
 24  10  39  1   
 25  11  14  1   
 26  11  40  1   
 27  11  41  1   
 28  12  15  1   
 29  12  42  1   
 30  12  43  1   
 31  13  16  1   
 32  13  17  1   
 33  14  18  1   
 34  14  44  1   
 35  14  45  1   
 36  15  18  1   
 37  15  46  1   
 38  15  47  1   
 39  16  19  1   
 40  17  20  1   
 41  17  21  2   
 42  18  48  1   
 43  18  49  1   
 44  19  22  1   
 45  19  50  1   
 46  19  51  1   
 47  20  23  1   
 48  20  52  1   
 49  21  22  1   
 50  21  24  1   
 51  22  53  1   
 52  22  54  1   
 53  23  24  ar  
 54  23  25  ar  
 55  24  26  ar  
 56  25  27  ar  
 57  25  55  1   
 58  26  28  ar  
 59  26  56  1   
 60  27  28  ar  
 61  27  57  1   
 62  28  58  1   
@<TRIPOS>SUBSTRUCTURE
  1 ****   5 GROUP 4 **** **** 0

# MOE 2024.06 (io_trps.svl 2023.06)
