@<TRIPOS>MOLECULE
NONAME
51 52 1 0 0 
SMALL
USER_CHARGES


@<TRIPOS>ATOM
  1 S        1.0860     0.4050    -1.5500 S.o2  1 <1>   1.3330 
  2 O        0.1960     0.6610    -2.6590 O.2   1 <1>  -0.6500 
  3 O        2.4930     0.1890    -1.8030 O.2   1 <1>  -0.6500 
  4 N        0.4810    -0.9610    -0.7380 N.am  1 <1>  -0.8490 
  5 C        0.9010     1.7310    -0.3450 C.3   1 <1>  -0.0550 
  6 C       -0.9790    -1.0880    -0.8140 C.3   1 <1>   0.1160 
  7 C        1.1090    -2.2040    -1.1970 C.3   1 <1>   0.1160 
  8 C        1.9470     1.8400     0.7900 C.3   1 <1>  -0.0800 
  9 C        3.3540     2.1940     0.3010 C.3   1 <1>   0.2200 
 10 C        2.1620     0.5940     1.6600 C.3   1 <1>   0.1200 
 11 N        3.7970     3.4360     0.9720 N.am  1 <1>  -0.7300 
 12 C        4.1930     1.0190     0.7940 C.3   1 <1>   0.1200 
 13 O        3.5270     0.5630     1.9250 O.3   1 <1>  -0.5600 
 14 C        3.7040     4.6820     0.4400 C.2   1 <1>   0.5690 
 15 O        3.2040     4.8650    -0.6460 O.2   1 <1>  -0.5700 
 16 C        4.2270     5.8840     1.2400 C.3   1 <1>   0.1710 
 17 N        5.6620     6.2300     1.0410 N.3   1 <1>  -0.8100 
 18 C        5.9240     6.5970    -0.3650 C.3   1 <1>   0.2530 
 19 C        6.5650     5.1650     1.5070 C.3   1 <1>   0.0300 
 20 C        7.3080     7.2070    -0.5280 C.ar  1 <1>  -0.1440 
 21 C        7.7470     8.1960     0.3400 C.ar  1 <1>   0.1600 
 22 C        8.1500     6.7950    -1.5430 C.ar  1 <1>  -0.1500 
 23 N        8.9280     8.7940     0.2790 N.ar  1 <1>  -0.6200 
 24 C        9.3830     7.4050    -1.6220 C.ar  1 <1>  -0.1500 
 25 C        9.7160     8.3830    -0.7000 C.ar  1 <1>   0.1600 
 26 H        0.9240     2.6620    -0.8790 H     1 <1>   0.0800 
 27 H       -0.0720     1.6560     0.0960 H     1 <1>   0.0800 
 28 H       -1.3110    -1.9100    -0.2040 H     1 <1>   0.0800 
 29 H       -1.2900    -1.2590    -1.8320 H     1 <1>   0.0800 
 30 H       -1.4510    -0.1890    -0.4570 H     1 <1>   0.0800 
 31 H        0.7110    -3.0460    -0.6580 H     1 <1>   0.0800 
 32 H        2.1720    -2.1680    -1.0230 H     1 <1>   0.0800 
 33 H        0.9370    -2.3430    -2.2520 H     1 <1>   0.0800 
 34 H        1.5980     2.6200     1.4450 H     1 <1>   0.0800 
 35 H        3.4270     2.3060    -0.7680 H     1 <1>   0.0800 
 36 H        1.9180    -0.3210     1.1560 H     1 <1>   0.0800 
 37 H        1.6270     0.6460     2.5930 H     1 <1>   0.0800 
 38 H        4.1710     3.2950     1.9130 H     1 <1>   0.3700 
 39 H        5.2000     1.2970     1.0480 H     1 <1>   0.0800 
 40 H        4.2050     0.2220     0.0700 H     1 <1>   0.0800 
 41 H        4.0590     5.6970     2.2850 H     1 <1>   0.0800 
 42 H        3.6290     6.7380     0.9770 H     1 <1>   0.0800 
 43 H        5.8260     5.7280    -0.9950 H     1 <1>   0.0800 
 44 H        5.1950     7.3220    -0.6870 H     1 <1>   0.0800 
 45 H        7.5860     5.5060     1.4740 H     1 <1>   0.0800 
 46 H        6.4730     4.2890     0.8880 H     1 <1>   0.0800 
 47 H        6.3340     4.9070     2.5260 H     1 <1>   0.0800 
 48 H        7.0860     8.5060     1.1320 H     1 <1>   0.1500 
 49 H        7.8600     6.0320    -2.2450 H     1 <1>   0.1500 
 50 H       10.0830     7.1280    -2.3890 H     1 <1>   0.1500 
 51 H       10.6820     8.8520    -0.7730 H     1 <1>   0.1500 
@<TRIPOS>BOND
  1   1   2  2   
  2   1   3  2   
  3   1   4  am  
  4   1   5  1   
  5   4   6  1   
  6   4   7  1   
  7   5   8  1   
  8   5  26  1   
  9   5  27  1   
 10   6  28  1   
 11   6  29  1   
 12   6  30  1   
 13   7  31  1   
 14   7  32  1   
 15   7  33  1   
 16   8   9  1   
 17   8  10  1   
 18   8  34  1   
 19   9  11  1   
 20   9  12  1   
 21   9  35  1   
 22  10  13  1   
 23  10  36  1   
 24  10  37  1   
 25  11  14  am  
 26  11  38  1   
 27  12  13  1   
 28  12  39  1   
 29  12  40  1   
 30  14  15  2   
 31  14  16  1   
 32  16  17  1   
 33  16  41  1   
 34  16  42  1   
 35  17  18  1   
 36  17  19  1   
 37  18  20  1   
 38  18  43  1   
 39  18  44  1   
 40  19  45  1   
 41  19  46  1   
 42  19  47  1   
 43  20  21  ar  
 44  20  22  ar  
 45  21  23  ar  
 46  21  48  1   
 47  22  24  ar  
 48  22  49  1   
 49  23  25  ar  
 50  24  25  ar  
 51  24  50  1   
 52  25  51  1   
@<TRIPOS>SUBSTRUCTURE
  1 ****  11 GROUP 4 **** **** 0

# MOE 2024.06 (io_trps.svl 2023.06)
