@<TRIPOS>MOLECULE
NONAME
48 50 1 0 0 
SMALL
USER_CHARGES


@<TRIPOS>ATOM
  1 O        3.3340    -0.5800    -0.6330 O.3   1 <1>  -0.5320 
  2 C        2.3910    -1.2380     0.0530 C.ar  1 <1>   0.0830 
  3 C        2.3540    -2.6180    -0.0260 C.ar  1 <1>  -0.1500 
  4 C        1.4720    -0.5500     0.8260 C.ar  1 <1>  -0.1500 
  5 C        1.3810    -3.3260     0.6630 C.ar  1 <1>  -0.1430 
  6 C        0.5070    -1.2550     1.5230 C.ar  1 <1>  -0.1500 
  7 C        0.4610    -2.6380     1.4430 C.ar  1 <1>  -0.1500 
  8 C        1.3240    -4.8360     0.5550 C.3   1 <1>   0.4860 
  9 N        0.2410    -5.1940    -0.3980 N.4   1 <1>  -0.9590 
 10 C       -0.0580    -6.6660    -0.3340 C.3   1 <1>   0.3430 
 11 C        0.5470    -4.7390    -1.7860 C.3   1 <1>   0.3430 
 12 C       -1.2090    -7.0840    -1.2780 C.3   1 <1>   0.2890 
 13 C       -0.6200    -5.0860    -2.7160 C.3   1 <1>  -0.1600 
 14 N       -1.3310    -8.5570    -1.3060 N.pl3 1 <1>  -0.8690 
 15 C       -0.9500    -6.5900    -2.7040 C.3   1 <1>  -0.1600 
 16 C       -1.8880    -9.2630    -0.2480 C.ar  1 <1>   0.4100 
 17 N       -1.9790    -8.6040     0.9020 N.ar  1 <1>  -0.6200 
 18 C       -2.3310   -10.5980    -0.3970 C.ar  1 <1>   0.1670 
 19 C       -2.5370    -9.3190     1.8630 C.ar  1 <1>   0.1670 
 20 N       -2.8870   -11.3030     0.5650 N.ar  1 <1>  -0.6200 
 21 C       -2.1860   -11.3190    -1.7270 C.3   1 <1>  -0.0970 
 22 C       -2.9780   -10.6260     1.6980 C.ar  1 <1>   0.1600 
 23 C       -2.6840    -8.6290     3.2050 C.3   1 <1>  -0.0970 
 24 H        3.3190     0.3850    -0.4900 H     1 <1>   0.4500 
 25 H        3.0950    -3.1120    -0.6300 H     1 <1>   0.1500 
 26 H        1.5040     0.5230     0.8900 H     1 <1>   0.1500 
 27 H       -0.2080    -0.7250     2.1300 H     1 <1>   0.1500 
 28 H       -0.2970    -3.1620     2.0010 H     1 <1>   0.1500 
 29 H        1.1170    -5.2530     1.5280 H     1 <1>   0.0800 
 30 H        2.2710    -5.2200     0.2120 H     1 <1>   0.0800 
 31 H       -0.5920    -4.6790    -0.0870 H     1 <1>   0.4500 
 32 H       -0.3230    -6.9390     0.6730 H     1 <1>   0.0800 
 33 H        0.8190    -7.2230    -0.6140 H     1 <1>   0.0800 
 34 H        1.4440    -5.2230    -2.1400 H     1 <1>   0.0800 
 35 H        0.7100    -3.6730    -1.8000 H     1 <1>   0.0800 
 36 H       -2.1330    -6.6650    -0.9120 H     1 <1>   0.0800 
 37 H       -0.3620    -4.7900    -3.7190 H     1 <1>   0.0800 
 38 H       -1.4860    -4.5150    -2.4290 H     1 <1>   0.0800 
 39 H       -1.5850    -8.9270    -2.2250 H     1 <1>   0.4000 
 40 H       -1.8200    -6.7690    -3.3120 H     1 <1>   0.0800 
 41 H       -0.1210    -7.1330    -3.1260 H     1 <1>   0.0800 
 42 H       -1.2070   -11.1570    -2.1390 H     1 <1>   0.0800 
 43 H       -2.9320   -10.9660    -2.4150 H     1 <1>   0.0800 
 44 H       -2.3200   -12.3780    -1.5920 H     1 <1>   0.0800 
 45 H       -3.4240   -11.1400     2.5310 H     1 <1>   0.1500 
 46 H       -3.2830    -7.7430     3.0910 H     1 <1>   0.0800 
 47 H       -1.7160    -8.3500     3.5770 H     1 <1>   0.0800 
 48 H       -3.1570    -9.2730     3.9230 H     1 <1>   0.0800 
@<TRIPOS>BOND
  1   1   2  1   
  2   1  24  1   
  3   2   3  ar  
  4   2   4  ar  
  5   3   5  ar  
  6   3  25  1   
  7   4   6  ar  
  8   4  26  1   
  9   5   7  ar  
 10   5   8  1   
 11   6   7  ar  
 12   6  27  1   
 13   7  28  1   
 14   8   9  1   
 15   8  29  1   
 16   8  30  1   
 17   9  10  1   
 18   9  11  1   
 19   9  31  1   
 20  10  12  1   
 21  10  32  1   
 22  10  33  1   
 23  11  13  1   
 24  11  34  1   
 25  11  35  1   
 26  12  14  1   
 27  12  15  1   
 28  12  36  1   
 29  13  15  1   
 30  13  37  1   
 31  13  38  1   
 32  14  16  1   
 33  14  39  1   
 34  15  40  1   
 35  15  41  1   
 36  16  17  ar  
 37  16  18  ar  
 38  17  19  ar  
 39  18  20  ar  
 40  18  21  1   
 41  19  22  ar  
 42  19  23  1   
 43  20  22  ar  
 44  21  42  1   
 45  21  43  1   
 46  21  44  1   
 47  22  45  1   
 48  23  46  1   
 49  23  47  1   
 50  23  48  1   
@<TRIPOS>SUBSTRUCTURE
  1 ****  10 GROUP 4 **** **** 0

# MOE 2024.06 (io_trps.svl 2023.06)
