@<TRIPOS>MOLECULE
NONAME
53 57 1 0 0 
SMALL
USER_CHARGES


@<TRIPOS>ATOM
  1 N       -0.9650     0.9660     1.0800 N.ar  1 <1>  -0.6200 
  2 C       -0.6350     1.9910     0.3040 C.ar  1 <1>   0.4100 
  3 C       -0.0070     0.6290     1.9210 C.ar  1 <1>   0.1660 
  4 N       -1.6180     2.4020    -0.5810 N.pl3 1 <1>  -0.8380 
  5 C        0.6220     2.6330     0.3810 C.ar  1 <1>   0.1660 
  6 C        1.2220     1.2740     1.9920 C.ar  1 <1>   0.1600 
  7 C       -0.3210    -0.5340     2.8390 C.3   1 <1>  -0.0960 
  8 C       -2.8180     3.0260     0.0530 C.3   1 <1>   0.2090 
  9 C       -1.9810     1.4280    -1.6410 C.3   1 <1>   0.2090 
 10 N        1.5760     2.2950     1.2270 N.ar  1 <1>  -0.6200 
 11 C        0.9470     3.7970    -0.5390 C.3   1 <1>  -0.0970 
 12 C       -3.6610     3.7840    -0.9890 C.3   1 <1>   0.1430 
 13 C       -2.8030     2.1310    -2.7290 C.3   1 <1>  -0.1600 
 14 C       -4.8730     4.3700    -0.2890 C.ar  1 <1>   0.1670 
 15 C       -4.0440     2.8290    -2.1420 C.3   1 <1>  -0.1600 
 16 C       -2.9270     5.0520    -1.5040 C.3   1 <1>  -0.1600 
 17 N       -5.9090     3.6890     0.1360 N.ar  1 <1>  -0.6200 
 18 C       -4.7560     5.7160    -0.1270 C.ar  1 <1>  -0.1440 
 19 C       -3.4590     6.2430    -0.6870 C.3   1 <1>  -0.0160 
 20 C       -6.8700     4.4010     0.7400 C.ar  1 <1>   0.6200 
 21 C       -5.7820     6.3740     0.5000 C.ar  1 <1>   0.1600 
 22 N       -6.8400     5.7280     0.9340 N.ar  1 <1>  -0.6200 
 23 C       -8.0370     3.6750     1.2240 C.ar  1 <1>   0.0000 
 24 C       -7.9580     2.3330     1.6100 C.ar  1 <1>  -0.1500 
 25 C       -9.2910     4.2850     1.3270 C.ar  1 <1>  -0.1500 
 26 C       -9.0630     1.6400     2.0700 C.ar  1 <1>  -0.1500 
 27 C      -10.4000     3.5990     1.7860 C.ar  1 <1>  -0.1500 
 28 C      -10.2890     2.2720     2.1590 C.ar  1 <1>  -0.1500 
 29 H        1.9490     0.9370     2.7090 H     1 <1>   0.1500 
 30 H       -1.1940    -0.3050     3.4220 H     1 <1>   0.0800 
 31 H        0.4980    -0.7390     3.5040 H     1 <1>   0.0800 
 32 H       -0.5200    -1.4110     2.2500 H     1 <1>   0.0800 
 33 H       -2.5060     3.6990     0.8320 H     1 <1>   0.0800 
 34 H       -3.4180     2.2540     0.5050 H     1 <1>   0.0800 
 35 H       -2.5540     0.6260    -1.2040 H     1 <1>   0.0800 
 36 H       -1.0850     1.0090    -2.0670 H     1 <1>   0.0800 
 37 H        0.5140     3.6440    -1.5100 H     1 <1>   0.0800 
 38 H        2.0110     3.8930    -0.6540 H     1 <1>   0.0800 
 39 H        0.5580     4.7040    -0.1170 H     1 <1>   0.0800 
 40 H       -3.1110     1.4050    -3.4600 H     1 <1>   0.0800 
 41 H       -2.1740     2.8490    -3.2260 H     1 <1>   0.0800 
 42 H       -4.5720     3.3640    -2.9110 H     1 <1>   0.0800 
 43 H       -4.7110     2.0760    -1.7590 H     1 <1>   0.0800 
 44 H       -3.1760     5.2170    -2.5370 H     1 <1>   0.0800 
 45 H       -1.8570     4.9640    -1.4270 H     1 <1>   0.0800 
 46 H       -3.6130     7.1090    -1.3060 H     1 <1>   0.0800 
 47 H       -2.7870     6.4810     0.1190 H     1 <1>   0.0800 
 48 H       -5.7350     7.4390     0.6510 H     1 <1>   0.1500 
 49 H       -7.0120     1.8230     1.5490 H     1 <1>   0.1500 
 50 H       -9.3970     5.3170     1.0400 H     1 <1>   0.1500 
 51 H       -8.9680     0.6080     2.3590 H     1 <1>   0.1500 
 52 H      -11.3510     4.0980     1.8530 H     1 <1>   0.1500 
 53 H      -11.1510     1.7360     2.5170 H     1 <1>   0.1500 
@<TRIPOS>BOND
  1   1   2  ar  
  2   1   3  ar  
  3   2   4  1   
  4   2   5  ar  
  5   3   6  ar  
  6   3   7  1   
  7   4   8  1   
  8   4   9  1   
  9   5  10  ar  
 10   5  11  1   
 11   6  10  ar  
 12   6  29  1   
 13   7  30  1   
 14   7  31  1   
 15   7  32  1   
 16   8  12  1   
 17   8  33  1   
 18   8  34  1   
 19   9  13  1   
 20   9  35  1   
 21   9  36  1   
 22  11  37  1   
 23  11  38  1   
 24  11  39  1   
 25  12  14  1   
 26  12  15  1   
 27  12  16  1   
 28  13  15  1   
 29  13  40  1   
 30  13  41  1   
 31  14  17  ar  
 32  14  18  ar  
 33  15  42  1   
 34  15  43  1   
 35  16  19  1   
 36  16  44  1   
 37  16  45  1   
 38  17  20  ar  
 39  18  19  1   
 40  18  21  ar  
 41  19  46  1   
 42  19  47  1   
 43  20  22  ar  
 44  20  23  1   
 45  21  22  ar  
 46  21  48  1   
 47  23  24  ar  
 48  23  25  ar  
 49  24  26  ar  
 50  24  49  1   
 51  25  27  ar  
 52  25  50  1   
 53  26  28  ar  
 54  26  51  1   
 55  27  28  ar  
 56  27  52  1   
 57  28  53  1   
@<TRIPOS>SUBSTRUCTURE
  1 ****   8 GROUP 4 **** **** 0

# MOE 2024.06 (io_trps.svl 2023.06)
