@<TRIPOS>MOLECULE
NONAME
32 32 1 0 0 
SMALL
USER_CHARGES


@<TRIPOS>ATOM
  1 O       -0.0270    -0.2940     0.0320 O.3   1 <1>  -0.3630 
  2 C        0.0920    -1.6440     0.0480 C.ar  1 <1>   0.0830 
  3 C        1.1130     0.5250     0.0790 C.3   1 <1>   0.4000 
  4 C       -1.0770    -2.3730    -0.0680 C.ar  1 <1>  -0.1500 
  5 C        1.3070    -2.3140     0.1690 C.ar  1 <1>  -0.1500 
  6 O        0.6660     1.8380     0.0180 O.3   1 <1>  -0.5600 
  7 C       -1.0520    -3.7560    -0.0670 C.ar  1 <1>   0.0830 
  8 C        1.3470    -3.7000     0.1710 C.ar  1 <1>  -0.1440 
  9 C        1.6870     2.7790     0.0470 C.3   1 <1>   0.0400 
 10 O       -2.2470    -4.3850    -0.1850 O.3   1 <1>  -0.3630 
 11 C        0.1680    -4.4200     0.0520 C.ar  1 <1>  -0.1500 
 12 C        2.6810    -4.4160     0.3010 C.3   1 <1>   0.2630 
 13 C       -2.3340    -5.7850    -0.1420 C.3   1 <1>   0.4000 
 14 O        3.4460    -4.0900    -0.8010 O.3   1 <1>  -0.6800 
 15 O       -3.6790    -6.1060    -0.2700 O.3   1 <1>  -0.5600 
 16 C       -3.9370    -7.4700    -0.2380 C.3   1 <1>   0.0400 
 17 H        1.7360     0.3140    -0.7730 H     1 <1>   0.0800 
 18 H        1.6310     0.3610     1.0080 H     1 <1>   0.0800 
 19 H       -2.0160    -1.8590    -0.1610 H     1 <1>   0.1500 
 20 H        2.2340    -1.7790     0.2610 H     1 <1>   0.1500 
 21 H        1.2410     3.7560    -0.0040 H     1 <1>   0.0800 
 22 H        2.3320     2.6310    -0.8020 H     1 <1>   0.0800 
 23 H        2.2370     2.6800     0.9670 H     1 <1>   0.0800 
 24 H        0.2140    -5.4920     0.0530 H     1 <1>   0.1500 
 25 H        2.5560    -5.4850     0.3190 H     1 <1>   0.0800 
 26 H        3.2090    -4.1020     1.1850 H     1 <1>   0.0800 
 27 H       -1.9680    -6.1340     0.8080 H     1 <1>   0.0800 
 28 H       -1.7830    -6.2020    -0.9660 H     1 <1>   0.0800 
 29 H        2.8740    -4.0870    -1.5930 H     1 <1>   0.4000 
 30 H       -4.9990    -7.6100    -0.3440 H     1 <1>   0.0800 
 31 H       -3.6120    -7.8720     0.7060 H     1 <1>   0.0800 
 32 H       -3.4260    -7.9490    -1.0560 H     1 <1>   0.0800 
@<TRIPOS>BOND
  1   1   2  1   
  2   1   3  1   
  3   2   4  ar  
  4   2   5  ar  
  5   3   6  1   
  6   3  17  1   
  7   3  18  1   
  8   4   7  ar  
  9   4  19  1   
 10   5   8  ar  
 11   5  20  1   
 12   6   9  1   
 13   7  10  1   
 14   7  11  ar  
 15   8  11  ar  
 16   8  12  1   
 17   9  21  1   
 18   9  22  1   
 19   9  23  1   
 20  10  13  1   
 21  11  24  1   
 22  12  14  1   
 23  12  25  1   
 24  12  26  1   
 25  13  15  1   
 26  13  27  1   
 27  13  28  1   
 28  14  29  1   
 29  15  16  1   
 30  16  30  1   
 31  16  31  1   
 32  16  32  1   
@<TRIPOS>SUBSTRUCTURE
  1 ****   4 GROUP 4 **** **** 0

# MOE 2024.06 (io_trps.svl 2023.06)
