@<TRIPOS>MOLECULE
NONAME
52 56 1 0 0 
SMALL
USER_CHARGES


@<TRIPOS>ATOM
  1 O       -0.5310     1.3160     0.5190 O.2   1 <1>  -0.5700 
  2 C       -0.5640     2.5010     0.3080 C.2   1 <1>   0.5690 
  3 N       -1.4080     3.3010     0.9920 N.am  1 <1>  -0.7300 
  4 C        0.3250     3.1180    -0.7690 C.3   1 <1>   0.1810 
  5 C       -1.5840     4.7510     0.7180 C.3   1 <1>   0.3640 
  6 O        0.5320     4.4960    -0.5590 O.3   1 <1>  -0.5600 
  7 C       -3.0560     4.9830     0.3870 C.ar  1 <1>  -0.1440 
  8 C       -0.6570     5.2720    -0.4200 C.3   1 <1>   0.2610 
  9 C       -3.7410     6.0470     0.9610 C.ar  1 <1>   0.1600 
 10 C       -3.7450     4.1510    -0.4800 C.ar  1 <1>  -0.1500 
 11 C       -0.2930     6.7410    -0.1680 C.2   1 <1>   0.5690 
 12 N       -5.0180     6.3270     0.7590 N.ar  1 <1>  -0.6200 
 13 C       -5.0740     4.4350    -0.7070 C.ar  1 <1>  -0.1500 
 14 O       -1.1590     7.5140     0.1680 O.2   1 <1>  -0.5700 
 15 N        1.0040     7.1200    -0.3200 N.am  1 <1>  -0.7300 
 16 C       -5.6540     5.5180    -0.0700 C.ar  1 <1>   0.1600 
 17 C        1.6250     8.4410    -0.1440 C.3   1 <1>   0.3000 
 18 C        3.1230     8.2920    -0.4560 C.3   1 <1>  -0.1600 
 19 C        1.4600     8.9320     1.3080 C.3   1 <1>  -0.1600 
 20 C        1.0090     9.4680    -1.1140 C.3   1 <1>  -0.1600 
 21 C        3.8090     9.6520    -0.2830 C.3   1 <1>   0.2800 
 22 C        2.1560    10.2960     1.4860 C.3   1 <1>  -0.0800 
 23 C        1.7030    10.8340    -0.9490 C.3   1 <1>  -0.0800 
 24 O        5.1440     9.5020    -0.5640 O.3   1 <1>  -0.6800 
 25 C        3.6560    10.1420     1.1640 C.3   1 <1>  -0.1600 
 26 C        3.2050    10.6760    -1.2540 C.3   1 <1>  -0.1600 
 27 C        1.5310    11.3130     0.5080 C.3   1 <1>  -0.1600 
 28 H       -2.0310     2.8750     1.6800 H     1 <1>   0.3700 
 29 H       -0.1240     2.9820    -1.7360 H     1 <1>   0.0800 
 30 H        1.2860     2.6360    -0.7580 H     1 <1>   0.0800 
 31 H       -1.3410     5.2830     1.6230 H     1 <1>   0.0800 
 32 H       -1.1820     5.2220    -1.3570 H     1 <1>   0.0800 
 33 H       -3.2110     6.7110     1.6250 H     1 <1>   0.1500 
 34 H       -3.2760     3.3090    -0.9600 H     1 <1>   0.1500 
 35 H       -5.6600     3.8240    -1.3690 H     1 <1>   0.1500 
 36 H        1.6630     6.3730    -0.5580 H     1 <1>   0.3700 
 37 H       -6.6940     5.7300    -0.2520 H     1 <1>   0.1500 
 38 H        3.2550     7.9540    -1.4670 H     1 <1>   0.0800 
 39 H        3.5690     7.5810     0.2170 H     1 <1>   0.0800 
 40 H        0.4160     9.0400     1.5420 H     1 <1>   0.0800 
 41 H        1.8840     8.2150     1.9870 H     1 <1>   0.0800 
 42 H        1.1180     9.1250    -2.1280 H     1 <1>   0.0800 
 43 H       -0.0410     9.5820    -0.9110 H     1 <1>   0.0800 
 44 H        2.0320    10.6390     2.5000 H     1 <1>   0.0800 
 45 H        1.2640    11.5500    -1.6230 H     1 <1>   0.0800 
 46 H        5.5950    10.3590    -0.4590 H     1 <1>   0.4000 
 47 H        4.1000     9.4320     1.8400 H     1 <1>   0.0800 
 48 H        4.1490    11.0890     1.2910 H     1 <1>   0.0800 
 49 H        3.6950    11.6270    -1.1450 H     1 <1>   0.0800 
 50 H        3.3350    10.3400    -2.2680 H     1 <1>   0.0800 
 51 H        1.9970    12.2750     0.6340 H     1 <1>   0.0800 
 52 H        0.4830    11.4300     0.7290 H     1 <1>   0.0800 
@<TRIPOS>BOND
  1   1   2  2   
  2   2   3  am  
  3   2   4  1   
  4   3   5  1   
  5   3  28  1   
  6   4   6  1   
  7   4  29  1   
  8   4  30  1   
  9   5   7  1   
 10   5   8  1   
 11   5  31  1   
 12   6   8  1   
 13   7   9  ar  
 14   7  10  ar  
 15   8  11  1   
 16   8  32  1   
 17   9  12  ar  
 18   9  33  1   
 19  10  13  ar  
 20  10  34  1   
 21  11  14  2   
 22  11  15  am  
 23  12  16  ar  
 24  13  16  ar  
 25  13  35  1   
 26  15  17  1   
 27  15  36  1   
 28  16  37  1   
 29  17  18  1   
 30  17  19  1   
 31  17  20  1   
 32  18  21  1   
 33  18  38  1   
 34  18  39  1   
 35  19  22  1   
 36  19  40  1   
 37  19  41  1   
 38  20  23  1   
 39  20  42  1   
 40  20  43  1   
 41  21  24  1   
 42  21  25  1   
 43  21  26  1   
 44  22  25  1   
 45  22  27  1   
 46  22  44  1   
 47  23  26  1   
 48  23  27  1   
 49  23  45  1   
 50  24  46  1   
 51  25  47  1   
 52  25  48  1   
 53  26  49  1   
 54  26  50  1   
 55  27  51  1   
 56  27  52  1   
@<TRIPOS>SUBSTRUCTURE
  1 ****  11 GROUP 4 **** **** 0

# MOE 2024.06 (io_trps.svl 2023.06)
