@<TRIPOS>MOLECULE
NONAME
48 51 1 0 0 
SMALL
USER_CHARGES


@<TRIPOS>ATOM
  1 O       -6.1040     0.4760    -0.7620 O.3   1 <1>  -0.8290 
  2 C       -5.8420    -0.6530    -0.2880 C.ar  1 <1>   0.1390 
  3 N       -6.0390    -0.8730     1.0340 N.ar  1 <1>  -0.3100 
  4 C       -5.3960    -1.6580    -1.1420 C.ar  1 <1>  -0.1500 
  5 N       -5.8660    -2.0720     1.5310 N.ar  1 <1>  -0.3100 
  6 C       -5.2130    -2.9040    -0.6130 C.ar  1 <1>  -0.1500 
  7 C       -5.4720    -3.0610     0.7380 C.ar  1 <1>   0.1670 
  8 C       -5.3090    -4.4180     1.3940 C.3   1 <1>  -0.0160 
  9 C       -6.6690    -5.0630     1.6990 C.3   1 <1>  -0.0990 
 10 C       -7.3890    -5.5100     0.4370 C.2   1 <1>   0.5690 
 11 O       -6.8870    -6.4370    -0.1570 O.2   1 <1>  -0.5700 
 12 N       -8.5730    -4.9560     0.0180 N.am  1 <1>  -0.6600 
 13 C       -9.1750    -3.6950     0.5850 C.3   1 <1>   0.1400 
 14 C       -9.3900    -5.7260    -0.9660 C.3   1 <1>   0.1400 
 15 C       -9.9840    -2.8370    -0.4270 C.3   1 <1>   0.1430 
 16 C      -10.7900    -5.1410    -1.1600 C.3   1 <1>  -0.1600 
 17 C      -10.9990    -2.0270     0.3710 C.ar  1 <1>   0.1670 
 18 C      -10.6730    -3.6650    -1.5400 C.3   1 <1>  -0.1600 
 19 C       -9.1060    -1.7190    -1.0450 C.3   1 <1>  -0.1600 
 20 N      -12.1120    -2.4950     0.8990 N.ar  1 <1>  -0.6200 
 21 C      -10.6190    -0.7250     0.4940 C.ar  1 <1>  -0.1430 
 22 C       -9.3010    -0.4590    -0.1860 C.3   1 <1>  -0.0160 
 23 C      -12.8310    -1.5910     1.5500 C.ar  1 <1>   0.4770 
 24 C      -11.4370     0.1230     1.1950 C.ar  1 <1>   0.1600 
 25 N      -12.5640    -0.3040     1.7310 N.ar  1 <1>  -0.6200 
 26 C      -14.1170    -2.0820     2.1670 C.3   1 <1>  -0.0970 
 27 H       -5.2330    -1.4170    -2.1730 H     1 <1>   0.1500 
 28 H       -4.8910    -3.7270    -1.2220 H     1 <1>   0.1500 
 29 H       -4.7650    -4.2850     2.3120 H     1 <1>   0.0800 
 30 H       -4.7310    -5.0680     0.7620 H     1 <1>   0.0800 
 31 H       -7.2700    -4.3990     2.2880 H     1 <1>   0.0800 
 32 H       -6.5000    -5.9410     2.2940 H     1 <1>   0.0800 
 33 H       -8.4090    -3.0740     1.0140 H     1 <1>   0.0800 
 34 H       -9.8350    -3.9880     1.3840 H     1 <1>   0.0800 
 35 H       -9.4700    -6.7480    -0.6330 H     1 <1>   0.0800 
 36 H       -8.8680    -5.7280    -1.9080 H     1 <1>   0.0800 
 37 H      -11.3670    -5.2540    -0.2590 H     1 <1>   0.0800 
 38 H      -11.2920    -5.6790    -1.9440 H     1 <1>   0.0800 
 39 H      -10.0940    -3.6070    -2.4450 H     1 <1>   0.0800 
 40 H      -11.6470    -3.2590    -1.7530 H     1 <1>   0.0800 
 41 H       -9.4430    -1.4850    -2.0390 H     1 <1>   0.0800 
 42 H       -8.0730    -2.0040    -1.1020 H     1 <1>   0.0800 
 43 H       -9.3100     0.4330    -0.7880 H     1 <1>   0.0800 
 44 H       -8.5280    -0.3740     0.5550 H     1 <1>   0.0800 
 45 H      -11.1640     1.1570     1.3180 H     1 <1>   0.1500 
 46 H      -14.2600    -3.1270     1.9640 H     1 <1>   0.0800 
 47 H      -14.9420    -1.5280     1.7600 H     1 <1>   0.0800 
 48 H      -14.0820    -1.9320     3.2290 H     1 <1>   0.0800 
@<TRIPOS>BOND
  1   1   2  1   
  2   2   3  ar  
  3   2   4  ar  
  4   3   5  ar  
  5   4   6  ar  
  6   4  27  1   
  7   5   7  ar  
  8   6   7  ar  
  9   6  28  1   
 10   7   8  1   
 11   8   9  1   
 12   8  29  1   
 13   8  30  1   
 14   9  10  1   
 15   9  31  1   
 16   9  32  1   
 17  10  11  2   
 18  10  12  am  
 19  12  13  1   
 20  12  14  1   
 21  13  15  1   
 22  13  33  1   
 23  13  34  1   
 24  14  16  1   
 25  14  35  1   
 26  14  36  1   
 27  15  17  1   
 28  15  18  1   
 29  15  19  1   
 30  16  18  1   
 31  16  37  1   
 32  16  38  1   
 33  17  20  ar  
 34  17  21  ar  
 35  18  39  1   
 36  18  40  1   
 37  19  22  1   
 38  19  41  1   
 39  19  42  1   
 40  20  23  ar  
 41  21  22  1   
 42  21  24  ar  
 43  22  43  1   
 44  22  44  1   
 45  23  25  ar  
 46  23  26  1   
 47  24  25  ar  
 48  24  45  1   
 49  26  46  1   
 50  26  47  1   
 51  26  48  1   
@<TRIPOS>SUBSTRUCTURE
  1 ****  13 GROUP 4 **** **** 0

# MOE 2024.06 (io_trps.svl 2023.06)
