@<TRIPOS>MOLECULE
NONAME
50 52 1 0 0 
SMALL
USER_CHARGES


@<TRIPOS>ATOM
  1 O        0.5170     2.2180     3.7320 O.co2 1 <1>  -0.9000 
  2 C        1.1140     3.2450     3.3580 C.2   1 <1>   1.0330 
  3 O        1.9890     3.7370     4.0940 O.co2 1 <1>  -0.9000 
  4 C        0.7810     3.8310     2.0600 C.2   1 <1>  -0.0060 
  5 N        1.3120     4.9650     1.4920 N.2   1 <1>  -0.5650 
  6 C       -0.1170     3.3370     1.1820 C.2   1 <1>  -0.0100 
  7 C        0.7200     5.0460     0.3600 C.2   1 <1>   0.2980 
  8 O       -0.1510     4.0980     0.1240 O.3   1 <1>  -0.2800 
  9 C        0.9710     6.1290    -0.6770 C.3   1 <1>   0.5230 
 10 N        2.1680     6.9560    -0.3060 N.4   1 <1>  -0.9590 
 11 C        2.2750     8.2950    -0.9520 C.3   1 <1>   0.4230 
 12 C        3.4230     6.1510    -0.4140 C.3   1 <1>   0.4860 
 13 C        1.1140     9.1950    -0.5330 C.3   1 <1>  -0.1600 
 14 C        2.1710     8.2270    -2.4770 C.3   1 <1>  -0.1600 
 15 C        4.5900     6.9550     0.1240 C.ar  1 <1>  -0.1430 
 16 C        0.0520     9.1380    -1.6410 C.3   1 <1>  -0.1600 
 17 C        0.6990     8.4440    -2.8440 C.3   1 <1>  -0.1600 
 18 C        5.4940     7.5360    -0.7580 C.ar  1 <1>   0.0820 
 19 C        4.7560     7.1160     1.4900 C.ar  1 <1>  -0.1500 
 20 O        5.2760     7.3440    -2.0870 O.3   1 <1>  -0.3620 
 21 C        6.5570     8.2840    -0.2600 C.ar  1 <1>  -0.1500 
 22 C        5.8080     7.8680     1.9870 C.ar  1 <1>   0.0820 
 23 C        6.2370     7.7370    -3.0460 C.3   1 <1>   0.0400 
 24 C        6.7120     8.4510     1.1050 C.ar  1 <1>  -0.1500 
 25 O        5.8850     7.9910     3.3350 O.3   1 <1>  -0.3620 
 26 C        6.9930     8.6070     3.9550 C.3   1 <1>   0.0400 
 27 H       -0.7420     2.4640     1.2610 H     1 <1>   0.1500 
 28 H        0.0930     6.7490    -0.7200 H     1 <1>   0.0800 
 29 H        1.1170     5.6750    -1.6410 H     1 <1>   0.0800 
 30 H        2.0720     7.0980     0.7120 H     1 <1>   0.4500 
 31 H        3.2050     8.7580    -0.6650 H     1 <1>   0.0800 
 32 H        3.6070     5.8820    -1.4400 H     1 <1>   0.0800 
 33 H        3.3340     5.2440     0.1630 H     1 <1>   0.0800 
 34 H        1.4870    10.2040    -0.4820 H     1 <1>   0.0800 
 35 H        0.7150     8.9420     0.4340 H     1 <1>   0.0800 
 36 H        2.5750     7.3220    -2.8940 H     1 <1>   0.0800 
 37 H        2.7380     9.0520    -2.8740 H     1 <1>   0.0800 
 38 H       -0.2600    10.1360    -1.9050 H     1 <1>   0.0800 
 39 H       -0.8180     8.5940    -1.3150 H     1 <1>   0.0800 
 40 H        0.2130     7.5020    -3.0340 H     1 <1>   0.0800 
 41 H        0.6120     9.0490    -3.7320 H     1 <1>   0.0800 
 42 H        4.0770     6.6590     2.1950 H     1 <1>   0.1500 
 43 H        7.2720     8.7460    -0.9130 H     1 <1>   0.1500 
 44 H        5.8950     7.4220    -4.0150 H     1 <1>   0.0800 
 45 H        7.1750     7.2600    -2.8190 H     1 <1>   0.0800 
 46 H        6.3370     8.8080    -3.0270 H     1 <1>   0.0800 
 47 H        7.5380     9.0370     1.4630 H     1 <1>   0.1500 
 48 H        6.8620     8.5330     5.0190 H     1 <1>   0.0800 
 49 H        7.0270     9.6410     3.6630 H     1 <1>   0.0800 
 50 H        7.8900     8.0910     3.6610 H     1 <1>   0.0800 
@<TRIPOS>BOND
  1   1   2  ar  
  2   2   3  ar  
  3   2   4  1   
  4   4   5  1   
  5   4   6  2   
  6   5   7  2   
  7   6   8  1   
  8   6  27  1   
  9   7   8  1   
 10   7   9  1   
 11   9  10  1   
 12   9  28  1   
 13   9  29  1   
 14  10  11  1   
 15  10  12  1   
 16  10  30  1   
 17  11  13  1   
 18  11  14  1   
 19  11  31  1   
 20  12  15  1   
 21  12  32  1   
 22  12  33  1   
 23  13  16  1   
 24  13  34  1   
 25  13  35  1   
 26  14  17  1   
 27  14  36  1   
 28  14  37  1   
 29  15  18  ar  
 30  15  19  ar  
 31  16  17  1   
 32  16  38  1   
 33  16  39  1   
 34  17  40  1   
 35  17  41  1   
 36  18  20  1   
 37  18  21  ar  
 38  19  22  ar  
 39  19  42  1   
 40  20  23  1   
 41  21  24  ar  
 42  21  43  1   
 43  22  24  ar  
 44  22  25  1   
 45  23  44  1   
 46  23  45  1   
 47  23  46  1   
 48  24  47  1   
 49  25  26  1   
 50  26  48  1   
 51  26  49  1   
 52  26  50  1   
@<TRIPOS>SUBSTRUCTURE
  1 ****  12 GROUP 4 **** **** 0

# MOE 2024.06 (io_trps.svl 2023.06)
