@<TRIPOS>MOLECULE
NONAME
58 61 1 0 0 
SMALL
USER_CHARGES


@<TRIPOS>ATOM
  1 O        0.3190     0.7330     0.9720 O.2   1 <1>  -0.5700 
  2 C       -0.1250     1.6450     0.2980 C.2   1 <1>   0.5440 
  3 N       -1.4520     1.6040    -0.0870 N.am  1 <1>  -0.6600 
  4 C        0.7390     2.7540    -0.0480 C.ar  1 <1>   0.0860 
  5 C       -2.2330     2.8130    -0.4990 C.3   1 <1>   0.1400 
  6 C       -2.3060     0.4100     0.1540 C.3   1 <1>   0.1400 
  7 C        1.4590     3.4330     0.9360 C.ar  1 <1>  -0.1500 
  8 C        0.8850     3.1930    -1.3650 C.ar  1 <1>  -0.1500 
  9 C       -3.2350     3.2040     0.6040 C.3   1 <1>   0.1440 
 10 C       -3.3300     0.7220     1.2530 C.3   1 <1>  -0.1600 
 11 C        2.2580     4.5150     0.6240 C.ar  1 <1>  -0.1500 
 12 C        1.6850     4.2740    -1.6780 C.ar  1 <1>  -0.1500 
 13 C       -4.0840     4.3800     0.1580 C.ar  1 <1>   0.1670 
 14 C       -4.1400     1.9980     0.9490 C.3   1 <1>  -0.1600 
 15 C       -2.5190     3.7710     1.8610 C.3   1 <1>  -0.1600 
 16 C        2.3790     4.9580    -0.6880 C.ar  1 <1>   0.1000 
 17 N       -4.7070     4.4750    -0.9960 N.ar  1 <1>  -0.6200 
 18 C       -4.1330     5.3550     1.1080 C.ar  1 <1>  -0.1430 
 19 C       -3.3350     4.9880     2.3330 C.3   1 <1>  -0.0170 
 20 N        3.1650     6.0530    -1.0130 N.pl3 1 <1>  -0.8380 
 21 C       -5.3880     5.6010    -1.1590 C.ar  1 <1>   0.4770 
 22 C       -4.8670     6.4810     0.8330 C.ar  1 <1>   0.1600 
 23 C        2.5230     7.2910    -1.5180 C.3   1 <1>   0.2090 
 24 C        4.5830     6.1260    -0.5840 C.3   1 <1>   0.2090 
 25 N       -5.5060     6.6150    -0.3120 N.ar  1 <1>  -0.6200 
 26 C       -6.1150     5.7450    -2.4740 C.3   1 <1>  -0.0970 
 27 C        2.0380     8.1290    -0.3400 C.3   1 <1>  -0.2400 
 28 C        5.4760     5.9700    -1.8090 C.3   1 <1>  -0.2400 
 29 H       -2.7700     2.5860    -1.4040 H     1 <1>   0.0800 
 30 H       -1.5910     3.6490    -0.7040 H     1 <1>   0.0800 
 31 H       -1.7060    -0.4370     0.4430 H     1 <1>   0.0800 
 32 H       -2.8160     0.1560    -0.7590 H     1 <1>   0.0800 
 33 H        1.3800     3.0980     1.9550 H     1 <1>   0.1500 
 34 H        0.3600     2.6720    -2.1470 H     1 <1>   0.1500 
 35 H       -2.8050     0.8240     2.1860 H     1 <1>   0.0800 
 36 H       -4.0010    -0.1130     1.3540 H     1 <1>   0.0800 
 37 H        2.7930     5.0330     1.3980 H     1 <1>   0.1500 
 38 H        1.7890     4.5990    -2.6960 H     1 <1>   0.1500 
 39 H       -4.7810     1.8030     0.1070 H     1 <1>   0.0800 
 40 H       -4.7720     2.2400     1.7850 H     1 <1>   0.0800 
 41 H       -1.5380     4.1170     1.5870 H     1 <1>   0.0800 
 42 H       -2.4070     3.0430     2.6430 H     1 <1>   0.0800 
 43 H       -2.6950     5.7930     2.6510 H     1 <1>   0.0800 
 44 H       -4.0020     4.7110     3.1300 H     1 <1>   0.0800 
 45 H       -4.9340     7.2790     1.5520 H     1 <1>   0.1500 
 46 H        1.6860     7.0300    -2.1430 H     1 <1>   0.0800 
 47 H        3.2240     7.8510    -2.1130 H     1 <1>   0.0800 
 48 H        4.7950     5.3310     0.1110 H     1 <1>   0.0800 
 49 H        4.7740     7.0650    -0.0950 H     1 <1>   0.0800 
 50 H       -6.5480     4.8040    -2.7560 H     1 <1>   0.0800 
 51 H       -5.4200     6.0560    -3.2300 H     1 <1>   0.0800 
 52 H       -6.8970     6.4770    -2.3900 H     1 <1>   0.0800 
 53 H        1.3340     7.5650     0.2440 H     1 <1>   0.0800 
 54 H        1.5500     9.0140    -0.7030 H     1 <1>   0.0800 
 55 H        2.8640     8.4210     0.2810 H     1 <1>   0.0800 
 56 H        5.2680     5.0320    -2.2910 H     1 <1>   0.0800 
 57 H        6.5080     5.9830    -1.5090 H     1 <1>   0.0800 
 58 H        5.3090     6.7730    -2.5020 H     1 <1>   0.0800 
@<TRIPOS>BOND
  1   1   2  2   
  2   2   3  am  
  3   2   4  1   
  4   3   5  1   
  5   3   6  1   
  6   4   7  ar  
  7   4   8  ar  
  8   5   9  1   
  9   5  29  1   
 10   5  30  1   
 11   6  10  1   
 12   6  31  1   
 13   6  32  1   
 14   7  11  ar  
 15   7  33  1   
 16   8  12  ar  
 17   8  34  1   
 18   9  13  1   
 19   9  14  1   
 20   9  15  1   
 21  10  14  1   
 22  10  35  1   
 23  10  36  1   
 24  11  16  ar  
 25  11  37  1   
 26  12  16  ar  
 27  12  38  1   
 28  13  17  ar  
 29  13  18  ar  
 30  14  39  1   
 31  14  40  1   
 32  15  19  1   
 33  15  41  1   
 34  15  42  1   
 35  16  20  1   
 36  17  21  ar  
 37  18  19  1   
 38  18  22  ar  
 39  19  43  1   
 40  19  44  1   
 41  20  23  1   
 42  20  24  1   
 43  21  25  ar  
 44  21  26  1   
 45  22  25  ar  
 46  22  45  1   
 47  23  27  1   
 48  23  46  1   
 49  23  47  1   
 50  24  28  1   
 51  24  48  1   
 52  24  49  1   
 53  26  50  1   
 54  26  51  1   
 55  26  52  1   
 56  27  53  1   
 57  27  54  1   
 58  27  55  1   
 59  28  56  1   
 60  28  57  1   
 61  28  58  1   
@<TRIPOS>SUBSTRUCTURE
  1 ****   5 GROUP 4 **** **** 0

# MOE 2024.06 (io_trps.svl 2023.06)
