@<TRIPOS>MOLECULE
NONAME
53 55 1 0 0 
SMALL
USER_CHARGES


@<TRIPOS>ATOM
  1 O       -1.1090     1.0610    -1.0680 O.2   1 <1>  -0.5700 
  2 C       -0.7360     2.0490    -0.4880 C.2   1 <1>   0.5690 
  3 N       -1.5580     3.1100    -0.3370 N.am  1 <1>  -0.7300 
  4 C        0.6980     2.1240     0.0520 C.3   1 <1>   0.1810 
  5 C       -1.1670     4.3480     0.3750 C.3   1 <1>   0.3640 
  6 O        0.9020     3.1790     0.9690 O.3   1 <1>  -0.5600 
  7 C       -1.6650     5.5590    -0.4110 C.ar  1 <1>  -0.1440 
  8 C        0.3680     4.4280     0.5580 C.3   1 <1>   0.2610 
  9 C       -1.4830     5.6540    -1.7850 C.ar  1 <1>  -0.1500 
 10 C       -2.2880     6.6030     0.2590 C.ar  1 <1>  -0.1500 
 11 C        0.7510     5.5580     1.5280 C.2   1 <1>   0.5690 
 12 C       -1.9090     6.7760    -2.4740 C.ar  1 <1>  -0.1500 
 13 C       -2.7150     7.7250    -0.4290 C.ar  1 <1>  -0.1500 
 14 O       -0.0360     5.8620     2.4000 O.2   1 <1>  -0.5700 
 15 N        1.9380     6.2370     1.3910 N.am  1 <1>  -0.6600 
 16 C       -2.5230     7.8130    -1.7960 C.ar  1 <1>  -0.1500 
 17 C        2.1230     7.5570     2.0500 C.3   1 <1>   0.3210 
 18 C        3.0950     5.7760     0.5770 C.3   1 <1>   0.1400 
 19 C        2.0810     8.6420     0.9910 C.2   1 <1>  -0.1810 
 20 C        3.9940     4.8960     1.4400 C.3   1 <1>  -0.2400 
 21 C        1.0250     8.8870     0.1220 C.2   1 <1>   0.1390 
 22 C        3.0140     9.5620     0.6620 C.2   1 <1>  -0.3020 
 23 N        1.2720     9.8730    -0.6850 N.2   1 <1>  -0.7070 
 24 N        2.5090    10.2980    -0.3510 N.pl3 1 <1>   0.3140 
 25 C        3.1970    11.4300    -1.0350 C.3   1 <1>   0.1760 
 26 C        2.3950    12.7290    -0.8760 C.3   1 <1>  -0.2400 
 27 C        3.4240    11.1060    -2.5190 C.3   1 <1>  -0.2400 
 28 H       -2.5120     3.0610    -0.6990 H     1 <1>   0.3700 
 29 H        1.3790     2.2540    -0.7690 H     1 <1>   0.0800 
 30 H        0.9360     1.2040     0.5550 H     1 <1>   0.0800 
 31 H       -1.6380     4.3330     1.3440 H     1 <1>   0.0800 
 32 H        0.7900     4.6570    -0.4010 H     1 <1>   0.0800 
 33 H       -1.0060     4.8570    -2.3300 H     1 <1>   0.1500 
 34 H       -2.4350     6.5550     1.3250 H     1 <1>   0.1500 
 35 H       -1.7600     6.8450    -3.5370 H     1 <1>   0.1500 
 36 H       -3.1900     8.5330     0.1000 H     1 <1>   0.1500 
 37 H       -2.8470     8.6900    -2.3300 H     1 <1>   0.1500 
 38 H        1.3500     7.7420     2.7770 H     1 <1>   0.0800 
 39 H        3.0680     7.5760     2.5620 H     1 <1>   0.0800 
 40 H        2.7670     5.2220    -0.2830 H     1 <1>   0.0800 
 41 H        3.6520     6.6250     0.2170 H     1 <1>   0.0800 
 42 H        3.4490     4.0360     1.7900 H     1 <1>   0.0800 
 43 H        4.3650     5.4480     2.2840 H     1 <1>   0.0800 
 44 H        4.8320     4.5550     0.8600 H     1 <1>   0.0800 
 45 H        0.1040     8.3260     0.1070 H     1 <1>   0.1500 
 46 H        3.9880     9.7310     1.0800 H     1 <1>   0.1500 
 47 H        4.1540    11.5600    -0.5630 H     1 <1>   0.0800 
 48 H        1.4320    12.6320    -1.3470 H     1 <1>   0.0800 
 49 H        2.9190    13.5490    -1.3330 H     1 <1>   0.0800 
 50 H        2.2530    12.9500     0.1660 H     1 <1>   0.0800 
 51 H        2.4810    10.9740    -3.0200 H     1 <1>   0.0800 
 52 H        4.0020    10.2040    -2.6160 H     1 <1>   0.0800 
 53 H        3.9580    11.9080    -2.9970 H     1 <1>   0.0800 
@<TRIPOS>BOND
  1   1   2  2   
  2   2   3  am  
  3   2   4  1   
  4   3   5  1   
  5   3  28  1   
  6   4   6  1   
  7   4  29  1   
  8   4  30  1   
  9   5   7  1   
 10   5   8  1   
 11   5  31  1   
 12   6   8  1   
 13   7   9  ar  
 14   7  10  ar  
 15   8  11  1   
 16   8  32  1   
 17   9  12  ar  
 18   9  33  1   
 19  10  13  ar  
 20  10  34  1   
 21  11  14  2   
 22  11  15  am  
 23  12  16  ar  
 24  12  35  1   
 25  13  16  ar  
 26  13  36  1   
 27  15  17  1   
 28  15  18  1   
 29  16  37  1   
 30  17  19  1   
 31  17  38  1   
 32  17  39  1   
 33  18  20  1   
 34  18  40  1   
 35  18  41  1   
 36  19  21  1   
 37  19  22  2   
 38  20  42  1   
 39  20  43  1   
 40  20  44  1   
 41  21  23  2   
 42  21  45  1   
 43  22  24  1   
 44  22  46  1   
 45  23  24  1   
 46  24  25  1   
 47  25  26  1   
 48  25  27  1   
 49  25  47  1   
 50  26  48  1   
 51  26  49  1   
 52  26  50  1   
 53  27  51  1   
 54  27  52  1   
 55  27  53  1   
@<TRIPOS>SUBSTRUCTURE
  1 ****  11 GROUP 4 **** **** 0

# MOE 2024.06 (io_trps.svl 2023.06)
