@<TRIPOS>MOLECULE
NONAME
45 47 1 0 0 
SMALL
USER_CHARGES


@<TRIPOS>ATOM
  1 O       -0.3290    -0.0860    -2.0520 O.2   1 <1>  -0.5700 
  2 C       -1.1250     0.6290    -1.4880 C.2   1 <1>   0.5690 
  3 N       -2.2140     0.1040    -0.8390 N.am  1 <1>  -0.6600 
  4 C       -0.9020     2.1380    -1.5660 C.3   1 <1>   0.1810 
  5 C       -3.2150     0.8660    -0.0500 C.3   1 <1>   0.1400 
  6 C       -2.4620    -1.3530    -0.7360 C.3   1 <1>   0.1400 
  7 O       -0.8220     2.7270    -0.2770 O.3   1 <1>  -0.3620 
  8 C       -4.1650    -0.1940     0.5100 C.3   1 <1>   0.2000 
  9 C       -3.3890    -1.5100     0.4710 C.3   1 <1>  -0.0800 
 10 C       -0.7240     4.0710    -0.1260 C.ar  1 <1>   0.0820 
 11 O       -4.5400     0.0920     1.8130 O.3   1 <1>  -0.6800 
 12 C       -4.3130    -2.7380     0.4040 C.3   1 <1>  -0.0170 
 13 C       -0.5950     4.9640    -1.1860 C.ar  1 <1>  -0.1500 
 14 C       -0.7590     4.5570     1.1700 C.ar  1 <1>  -0.1500 
 15 C       -3.5260    -4.0390     0.3930 C.ar  1 <1>   0.1670 
 16 C       -0.5110     6.3240    -0.9400 C.ar  1 <1>  -0.1500 
 17 C       -0.6740     5.9170     1.4130 C.ar  1 <1>  -0.1500 
 18 N       -3.0540    -4.4330    -0.7790 N.ar  1 <1>  -0.6200 
 19 C       -3.3340    -4.7480     1.5770 C.ar  1 <1>   0.1600 
 20 C       -0.5520     6.8080     0.3580 C.ar  1 <1>  -0.1440 
 21 C       -2.3800    -5.5670    -0.6870 C.ar  1 <1>   0.1600 
 22 N       -2.6610    -5.8830     1.6710 N.ar  1 <1>  -0.6200 
 23 C       -0.4580     8.2990     0.6240 C.3   1 <1>  -0.0970 
 24 C       -2.1890    -6.2680     0.4980 C.ar  1 <1>   0.1600 
 25 H       -1.7200     2.5870    -2.0970 H     1 <1>   0.0800 
 26 H        0.0200     2.3340    -2.0810 H     1 <1>   0.0800 
 27 H       -2.7190     1.3910     0.7470 H     1 <1>   0.0800 
 28 H       -3.7440     1.5580    -0.6810 H     1 <1>   0.0800 
 29 H       -2.9410    -1.6920    -1.6380 H     1 <1>   0.0800 
 30 H       -1.5410    -1.8960    -0.6010 H     1 <1>   0.0800 
 31 H       -5.0530    -0.2450    -0.0970 H     1 <1>   0.0800 
 32 H       -2.7610    -1.5810     1.3420 H     1 <1>   0.0800 
 33 H       -3.7500     0.1910     2.3790 H     1 <1>   0.4000 
 34 H       -4.9230    -2.6920    -0.4810 H     1 <1>   0.0800 
 35 H       -4.9750    -2.7270     1.2520 H     1 <1>   0.0800 
 36 H       -0.5540     4.6270    -2.2040 H     1 <1>   0.1500 
 37 H       -0.8510     3.8670     1.9880 H     1 <1>   0.1500 
 38 H       -0.4100     7.0070    -1.7640 H     1 <1>   0.1500 
 39 H       -0.7030     6.2780     2.4260 H     1 <1>   0.1500 
 40 H       -3.7530    -4.3590     2.4880 H     1 <1>   0.1500 
 41 H       -1.9560    -5.9620    -1.5940 H     1 <1>   0.1500 
 42 H       -0.8680     8.8560    -0.1990 H     1 <1>   0.0800 
 43 H        0.5710     8.5810     0.7550 H     1 <1>   0.0800 
 44 H       -1.0050     8.5590     1.5130 H     1 <1>   0.0800 
 45 H       -1.6250    -7.1830     0.4710 H     1 <1>   0.1500 
@<TRIPOS>BOND
  1   1   2  2   
  2   2   3  am  
  3   2   4  1   
  4   3   5  1   
  5   3   6  1   
  6   4   7  1   
  7   4  25  1   
  8   4  26  1   
  9   5   8  1   
 10   5  27  1   
 11   5  28  1   
 12   6   9  1   
 13   6  29  1   
 14   6  30  1   
 15   7  10  1   
 16   8   9  1   
 17   8  11  1   
 18   8  31  1   
 19   9  12  1   
 20   9  32  1   
 21  10  13  ar  
 22  10  14  ar  
 23  11  33  1   
 24  12  15  1   
 25  12  34  1   
 26  12  35  1   
 27  13  16  ar  
 28  13  36  1   
 29  14  17  ar  
 30  14  37  1   
 31  15  18  ar  
 32  15  19  ar  
 33  16  20  ar  
 34  16  38  1   
 35  17  20  ar  
 36  17  39  1   
 37  18  21  ar  
 38  19  22  ar  
 39  19  40  1   
 40  20  23  1   
 41  21  24  ar  
 42  21  41  1   
 43  22  24  ar  
 44  23  42  1   
 45  23  43  1   
 46  23  44  1   
 47  24  45  1   
@<TRIPOS>SUBSTRUCTURE
  1 ****   3 GROUP 4 **** **** 0

# MOE 2024.06 (io_trps.svl 2023.06)
