@<TRIPOS>MOLECULE
NONAME
42 44 1 0 0 
SMALL
USER_CHARGES


@<TRIPOS>ATOM
  1 CL      -3.1730     0.6910    -3.2990 Cl    1 <1>  -0.1230 
  2 C       -3.1720     0.5800    -1.5440 C.2   1 <1>   0.1230 
  3 C       -3.2420    -0.5870    -0.7780 C.2   1 <1>   0.2030 
  4 C       -3.1020     1.6210    -0.6940 C.2   1 <1>  -0.3320 
  5 N       -3.2160    -0.2610     0.5080 N.2   1 <1>  -0.7070 
  6 C       -3.3290    -1.9460    -1.2820 C.2   1 <1>   0.7160 
  7 N       -3.1290     1.0790     0.5440 N.pl3 1 <1>   0.3140 
  8 C       -3.0080     3.1100    -0.9940 C.3   1 <1>  -0.0600 
  9 O       -3.4120    -2.2200    -2.4670 O.2   1 <1>  -0.5700 
 10 N       -3.3380    -2.9810    -0.3920 N.am  1 <1>  -0.7300 
 11 C       -3.0740     1.8050     1.8200 C.3   1 <1>   0.0160 
 12 C       -3.3990    -4.4250    -0.7100 C.3   1 <1>   0.2200 
 13 C       -4.7780    -4.9990    -0.4200 C.3   1 <1>  -0.0800 
 14 C       -2.5550    -5.1950     0.2970 C.3   1 <1>   0.1200 
 15 C       -4.7140    -5.3010     1.0800 C.3   1 <1>   0.1200 
 16 C       -5.9750    -4.1240    -0.8370 C.3   1 <1>  -0.0160 
 17 O       -3.3600    -5.3430     1.4280 O.3   1 <1>  -0.5600 
 18 C       -7.2890    -4.8460    -0.5770 C.ar  1 <1>  -0.1430 
 19 C       -8.0480    -4.6030     0.5500 C.ar  1 <1>  -0.1500 
 20 C       -7.7880    -5.7840    -1.4570 C.ar  1 <1>  -0.1500 
 21 C       -9.2320    -5.2950     0.7410 C.ar  1 <1>   0.1600 
 22 C       -8.9850    -6.4210    -1.1720 C.ar  1 <1>   0.1600 
 23 N       -9.7180    -6.2000    -0.0930 N.ar  1 <1>  -0.6200 
 24 H       -3.0040     3.2780    -2.0570 H     1 <1>   0.0800 
 25 H       -2.1010     3.5170    -0.5840 H     1 <1>   0.0800 
 26 H       -3.8500     3.6290    -0.5720 H     1 <1>   0.0800 
 27 H       -3.2900    -2.7340     0.6020 H     1 <1>   0.3700 
 28 H       -2.1620     2.3710     1.8650 H     1 <1>   0.0800 
 29 H       -3.0990     1.0990     2.6300 H     1 <1>   0.0800 
 30 H       -3.9190     2.4630     1.8890 H     1 <1>   0.0800 
 31 H       -3.0820    -4.6020    -1.7240 H     1 <1>   0.0800 
 32 H       -4.8550    -5.9410    -0.9340 H     1 <1>   0.0800 
 33 H       -1.6470    -4.6820     0.5610 H     1 <1>   0.0800 
 34 H       -2.3270    -6.1800    -0.0730 H     1 <1>   0.0800 
 35 H       -5.1690    -6.2470     1.3190 H     1 <1>   0.0800 
 36 H       -5.1710    -4.5190     1.6600 H     1 <1>   0.0800 
 37 H       -5.8980    -3.8900    -1.8850 H     1 <1>   0.0800 
 38 H       -5.9680    -3.1930    -0.2980 H     1 <1>   0.0800 
 39 H       -7.7300    -3.8820     1.2820 H     1 <1>   0.1500 
 40 H       -7.2590    -6.0250    -2.3600 H     1 <1>   0.1500 
 41 H       -9.8100    -5.0920     1.6260 H     1 <1>   0.1500 
 42 H       -9.3600    -7.1500    -1.8700 H     1 <1>   0.1500 
@<TRIPOS>BOND
  1   1   2  1   
  2   2   3  1   
  3   2   4  2   
  4   3   5  2   
  5   3   6  1   
  6   4   7  1   
  7   4   8  1   
  8   5   7  1   
  9   6   9  2   
 10   6  10  am  
 11   7  11  1   
 12   8  24  1   
 13   8  25  1   
 14   8  26  1   
 15  10  12  1   
 16  10  27  1   
 17  11  28  1   
 18  11  29  1   
 19  11  30  1   
 20  12  13  1   
 21  12  14  1   
 22  12  31  1   
 23  13  15  1   
 24  13  16  1   
 25  13  32  1   
 26  14  17  1   
 27  14  33  1   
 28  14  34  1   
 29  15  17  1   
 30  15  35  1   
 31  15  36  1   
 32  16  18  1   
 33  16  37  1   
 34  16  38  1   
 35  18  19  ar  
 36  18  20  ar  
 37  19  21  ar  
 38  19  39  1   
 39  20  22  ar  
 40  20  40  1   
 41  21  23  ar  
 42  21  41  1   
 43  22  23  ar  
 44  22  42  1   
@<TRIPOS>SUBSTRUCTURE
  1 ****  10 GROUP 4 **** **** 0

# MOE 2024.06 (io_trps.svl 2023.06)
