@<TRIPOS>MOLECULE
NONAME
60 64 1 0 0 
SMALL
USER_CHARGES


@<TRIPOS>ATOM
  1 O       -4.0480     2.0500     3.2710 O.2   1 <1>  -0.5700 
  2 C       -3.5670     2.5870     2.3040 C.2   1 <1>   0.5690 
  3 N       -3.9330     2.2400     1.0260 N.am  1 <1>  -0.6600 
  4 C       -2.5500     3.6760     2.5540 C.3   1 <1>  -0.1790 
  5 C       -4.8660     1.1070     0.7900 C.3   1 <1>   0.1400 
  6 C       -3.5020     2.9470    -0.2070 C.3   1 <1>   0.1400 
  7 C       -6.1340     1.6530     0.1370 C.3   1 <1>  -0.1600 
  8 C       -4.7450     3.5220    -0.8890 C.3   1 <1>  -0.1600 
  9 C       -5.7810     2.4200    -1.1480 C.3   1 <1>   0.4230 
 10 N       -6.9860     3.0020    -1.8170 N.4   1 <1>  -0.9590 
 11 C       -7.8120     3.8900    -0.9170 C.3   1 <1>   0.3430 
 12 C       -7.8390     1.9370    -2.4250 C.3   1 <1>   0.3430 
 13 C       -8.9600     4.5820    -1.6720 C.3   1 <1>   0.1430 
 14 C       -8.9600     2.5730    -3.2510 C.3   1 <1>  -0.1600 
 15 C       -9.8070     5.3360    -0.6750 C.ar  1 <1>   0.1670 
 16 C       -9.8200     3.5360    -2.4130 C.3   1 <1>  -0.1600 
 17 C       -8.4770     5.7140    -2.6200 C.3   1 <1>  -0.1600 
 18 N      -10.2200     4.8460     0.4670 N.ar  1 <1>  -0.6200 
 19 C      -10.0860     6.5970    -1.0970 C.ar  1 <1>  -0.1440 
 20 C       -9.4610     6.8870    -2.4390 C.3   1 <1>  -0.0170 
 21 C      -10.9740     5.6730     1.2090 C.ar  1 <1>   0.6200 
 22 C      -10.8550     7.3830    -0.2790 C.ar  1 <1>   0.1600 
 23 N      -11.3010     6.9280     0.8700 N.ar  1 <1>  -0.6200 
 24 C      -11.4750     5.1680     2.4790 C.ar  1 <1>   0.0000 
 25 C      -12.7190     5.5610     2.9790 C.ar  1 <1>  -0.1500 
 26 C      -10.7380     4.2690     3.2550 C.ar  1 <1>  -0.1500 
 27 C      -13.2040     5.0830     4.1840 C.ar  1 <1>  -0.1500 
 28 C      -11.2150     3.7870     4.4600 C.ar  1 <1>  -0.1500 
 29 C      -12.4520     4.1930     4.9280 C.ar  1 <1>  -0.1500 
 30 H       -1.6320     3.4450     2.0460 H     1 <1>   0.0800 
 31 H       -2.3480     3.7460     3.6070 H     1 <1>   0.0800 
 32 H       -2.9310     4.6200     2.2160 H     1 <1>   0.0800 
 33 H       -5.1180     0.6150     1.7160 H     1 <1>   0.0800 
 34 H       -4.3890     0.3810     0.1540 H     1 <1>   0.0800 
 35 H       -3.0020     2.2480    -0.8570 H     1 <1>   0.0800 
 36 H       -2.8110     3.7400     0.0170 H     1 <1>   0.0800 
 37 H       -6.6150     2.2900     0.8570 H     1 <1>   0.0800 
 38 H       -6.7840     0.8260    -0.0800 H     1 <1>   0.0800 
 39 H       -4.4470     3.9740    -1.8180 H     1 <1>   0.0800 
 40 H       -5.1460     4.2860    -0.2470 H     1 <1>   0.0800 
 41 H       -5.3260     1.7150    -1.8260 H     1 <1>   0.0800 
 42 H       -6.6480     3.5860    -2.5900 H     1 <1>   0.4500 
 43 H       -7.1950     4.6450    -0.4590 H     1 <1>   0.0800 
 44 H       -8.2440     3.2990    -0.1260 H     1 <1>   0.0800 
 45 H       -8.2740     1.3290    -1.6470 H     1 <1>   0.0800 
 46 H       -7.2440     1.2990    -3.0590 H     1 <1>   0.0800 
 47 H       -9.5910     1.7910    -3.6390 H     1 <1>   0.0800 
 48 H       -8.5370     3.0840    -4.0980 H     1 <1>   0.0800 
 49 H      -10.5460     4.0260    -3.0390 H     1 <1>   0.0800 
 50 H      -10.3680     2.9610    -1.6840 H     1 <1>   0.0800 
 51 H       -8.4250     5.4110    -3.6500 H     1 <1>   0.0800 
 52 H       -7.5020     6.0520    -2.3120 H     1 <1>   0.0800 
 53 H      -10.2210     6.8720    -3.2010 H     1 <1>   0.0800 
 54 H       -8.9560     7.8380    -2.4470 H     1 <1>   0.0800 
 55 H      -11.1080     8.3910    -0.5630 H     1 <1>   0.1500 
 56 H      -13.3180     6.2540     2.4130 H     1 <1>   0.1500 
 57 H       -9.7730     3.9440     2.9110 H     1 <1>   0.1500 
 58 H      -14.1660     5.4050     4.5420 H     1 <1>   0.1500 
 59 H      -10.6250     3.0960     5.0370 H     1 <1>   0.1500 
 60 H      -12.8260     3.8200     5.8650 H     1 <1>   0.1500 
@<TRIPOS>BOND
  1   1   2  2   
  2   2   3  am  
  3   2   4  1   
  4   3   5  1   
  5   3   6  1   
  6   4  30  1   
  7   4  31  1   
  8   4  32  1   
  9   5   7  1   
 10   5  33  1   
 11   5  34  1   
 12   6   8  1   
 13   6  35  1   
 14   6  36  1   
 15   7   9  1   
 16   7  37  1   
 17   7  38  1   
 18   8   9  1   
 19   8  39  1   
 20   8  40  1   
 21   9  10  1   
 22   9  41  1   
 23  10  11  1   
 24  10  12  1   
 25  10  42  1   
 26  11  13  1   
 27  11  43  1   
 28  11  44  1   
 29  12  14  1   
 30  12  45  1   
 31  12  46  1   
 32  13  15  1   
 33  13  16  1   
 34  13  17  1   
 35  14  16  1   
 36  14  47  1   
 37  14  48  1   
 38  15  18  ar  
 39  15  19  ar  
 40  16  49  1   
 41  16  50  1   
 42  17  20  1   
 43  17  51  1   
 44  17  52  1   
 45  18  21  ar  
 46  19  20  1   
 47  19  22  ar  
 48  20  53  1   
 49  20  54  1   
 50  21  23  ar  
 51  21  24  1   
 52  22  23  ar  
 53  22  55  1   
 54  24  25  ar  
 55  24  26  ar  
 56  25  27  ar  
 57  25  56  1   
 58  26  28  ar  
 59  26  57  1   
 60  27  29  ar  
 61  27  58  1   
 62  28  29  ar  
 63  28  59  1   
 64  29  60  1   
@<TRIPOS>SUBSTRUCTURE
  1 ****  11 GROUP 4 **** **** 0

# MOE 2024.06 (io_trps.svl 2023.06)
