@<TRIPOS>MOLECULE
NONAME
38 40 1 0 0 
SMALL
USER_CHARGES


@<TRIPOS>ATOM
  1 O        2.7050     1.9930    -0.8360 O.3   1 <1>  -0.0190 
  2 N        3.3400     0.8660    -0.7280 N.2   1 <1>  -0.4100 
  3 C        1.4110     1.8330    -0.7710 C.2   1 <1>  -0.0400 
  4 C        2.4380    -0.0420    -0.6070 C.2   1 <1>   0.1080 
  5 C        1.1650     0.5220    -0.6270 C.2   1 <1>  -0.1500 
  6 C        0.4910     3.0350    -0.8610 C.3   1 <1>   0.0200 
  7 C        2.7320    -1.5190    -0.4610 C.3   1 <1>  -0.0590 
  8 C        0.5740     3.9050     0.4100 C.3   1 <1>  -0.0800 
  9 C       -0.3940     5.0850     0.3480 C.3   1 <1>   0.2000 
 10 C        1.9480     4.5770     0.5720 C.3   1 <1>   0.3430 
 11 O       -0.6100     5.5340     1.6480 O.3   1 <1>  -0.6800 
 12 C        0.4040     6.1520    -0.4040 C.3   1 <1>   0.3430 
 13 N        1.8180     5.9600     0.0290 N.4   1 <1>  -0.9590 
 14 C        2.1990     6.9950     1.0260 C.3   1 <1>   0.5240 
 15 C        2.3990     8.3030     0.2720 C.2   1 <1>   0.0460 
 16 N        2.9990     8.3010    -0.9390 N.2   1 <1>  -0.5650 
 17 C        2.0390     9.5580     0.6270 C.2   1 <1>  -0.3020 
 18 C        3.0030     9.5490    -1.2850 C.2   1 <1>   0.0360 
 19 N        2.4320    10.3670    -0.3750 N.pl3 1 <1>   0.0330 
 20 H        0.2350    -0.0080    -0.5430 H     1 <1>   0.1500 
 21 H        0.7470     3.6020    -1.7400 H     1 <1>   0.0800 
 22 H       -0.5170     2.6770    -0.9820 H     1 <1>   0.0800 
 23 H        2.2910    -2.0610    -1.2770 H     1 <1>   0.0800 
 24 H        2.3300    -1.8830     0.4660 H     1 <1>   0.0800 
 25 H        3.7940    -1.6850    -0.4690 H     1 <1>   0.0800 
 26 H        0.3660     3.2750     1.2580 H     1 <1>   0.0800 
 27 H       -1.3440     4.8670    -0.1110 H     1 <1>   0.0800 
 28 H        2.7260     4.0360     0.0610 H     1 <1>   0.0800 
 29 H        2.1930     4.6200     1.6210 H     1 <1>   0.0800 
 30 H       -1.2610     4.9670     2.1160 H     1 <1>   0.4000 
 31 H        0.0400     7.1440    -0.1880 H     1 <1>   0.0800 
 32 H        0.3290     5.9740    -1.4640 H     1 <1>   0.0800 
 33 H        2.4510     6.1550    -0.7680 H     1 <1>   0.4500 
 34 H        1.4370     7.1000     1.7820 H     1 <1>   0.0800 
 35 H        3.1290     6.7240     1.4960 H     1 <1>   0.0800 
 36 H        1.5430     9.9200     1.5110 H     1 <1>   0.1500 
 37 H        3.4180     9.9230    -2.2060 H     1 <1>   0.1500 
 38 H        2.3310    11.3860    -0.4410 H     1 <1>   0.2700 
@<TRIPOS>BOND
  1   1   2  1   
  2   1   3  1   
  3   2   4  2   
  4   3   5  2   
  5   3   6  1   
  6   4   5  1   
  7   4   7  1   
  8   5  20  1   
  9   6   8  1   
 10   6  21  1   
 11   6  22  1   
 12   7  23  1   
 13   7  24  1   
 14   7  25  1   
 15   8   9  1   
 16   8  10  1   
 17   8  26  1   
 18   9  11  1   
 19   9  12  1   
 20   9  27  1   
 21  10  13  1   
 22  10  28  1   
 23  10  29  1   
 24  11  30  1   
 25  12  13  1   
 26  12  31  1   
 27  12  32  1   
 28  13  14  1   
 29  13  33  1   
 30  14  15  1   
 31  14  34  1   
 32  14  35  1   
 33  15  16  1   
 34  15  17  2   
 35  16  18  2   
 36  17  19  1   
 37  17  36  1   
 38  18  19  1   
 39  18  37  1   
 40  19  38  1   
@<TRIPOS>SUBSTRUCTURE
  1 ****  10 GROUP 4 **** **** 0

# MOE 2024.06 (io_trps.svl 2023.06)
