@<TRIPOS>MOLECULE
NONAME
52 54 1 0 0 
SMALL
USER_CHARGES


@<TRIPOS>ATOM
  1 O        1.4610    -0.5390     1.6080 O.co2 1 <1>  -0.9000 
  2 C        1.3670     0.3590     0.7550 C.2   1 <1>   0.9060 
  3 O        0.4920     1.2200     0.8210 O.co2 1 <1>  -0.9000 
  4 C        2.3830     0.3950    -0.4040 C.3   1 <1>  -0.1060 
  5 C        3.7320    -0.1680     0.0980 C.3   1 <1>   0.4230 
  6 C        2.6110     1.8570    -0.8880 C.3   1 <1>  -0.1600 
  7 C        1.8820    -0.4540    -1.5970 C.3   1 <1>  -0.1600 
  8 N        3.5840    -1.6140     0.4820 N.4   1 <1>  -0.9590 
  9 C        4.2980     0.7370     1.2160 C.3   1 <1>   0.1400 
 10 C        3.2200     2.7430     0.2100 C.3   1 <1>   0.1400 
 11 C        1.8350    -1.9480    -1.2420 C.3   1 <1>  -0.1600 
 12 C        3.1600    -2.4550    -0.6660 C.3   1 <1>   0.3430 
 13 C        4.7310    -2.1990     1.2250 C.3   1 <1>   0.2630 
 14 N        4.4930     2.1150     0.6720 N.am  1 <1>  -0.6600 
 15 C        5.7470     2.6280     0.4740 C.2   1 <1>   0.5690 
 16 O        6.7320     1.9470     0.6470 O.2   1 <1>  -0.5700 
 17 C        5.9260     4.0670     0.0080 C.3   1 <1>  -0.0990 
 18 C        7.3890     4.5580     0.0450 C.3   1 <1>  -0.0990 
 19 C        7.5750     6.0050    -0.4030 C.2   1 <1>   0.4230 
 20 O        6.6000     6.6060    -0.7780 O.2   1 <1>  -0.5700 
 21 C        8.8970     6.6050    -0.3650 C.ar  1 <1>   0.0860 
 22 C        9.0710     7.9430    -0.7320 C.ar  1 <1>  -0.1500 
 23 C       10.0470     5.9080     0.0260 C.ar  1 <1>  -0.1500 
 24 C       10.3110     8.5530    -0.7100 C.ar  1 <1>  -0.1500 
 25 C       11.2910     6.5120     0.0500 C.ar  1 <1>  -0.1500 
 26 C       11.4260     7.8380    -0.3180 C.ar  1 <1>  -0.1500 
 27 H        4.4330    -0.1170    -0.7170 H     1 <1>   0.0800 
 28 H        1.6700     2.2860    -1.1890 H     1 <1>   0.0800 
 29 H        3.2610     1.8760    -1.7440 H     1 <1>   0.0800 
 30 H        0.8960    -0.1220    -1.8800 H     1 <1>   0.0800 
 31 H        2.5320    -0.3140    -2.4440 H     1 <1>   0.0800 
 32 H        2.7490    -1.5570     1.1270 H     1 <1>   0.4500 
 33 H        5.2380     0.3530     1.5660 H     1 <1>   0.0800 
 34 H        3.6220     0.7810     2.0520 H     1 <1>   0.0800 
 35 H        2.5370     2.8250     1.0420 H     1 <1>   0.0800 
 36 H        3.3820     3.7330    -0.1760 H     1 <1>   0.0800 
 37 H        1.5930    -2.5170    -2.1230 H     1 <1>   0.0800 
 38 H        1.0520    -2.1270    -0.5250 H     1 <1>   0.0800 
 39 H        3.9190    -2.4280    -1.4310 H     1 <1>   0.0800 
 40 H        3.0350    -3.4750    -0.3430 H     1 <1>   0.0800 
 41 H        5.6250    -2.1600     0.6240 H     1 <1>   0.0800 
 42 H        4.5220    -3.2250     1.4780 H     1 <1>   0.0800 
 43 H        4.8990    -1.6540     2.1390 H     1 <1>   0.0800 
 44 H        5.5560     4.1460    -0.9980 H     1 <1>   0.0800 
 45 H        5.3330     4.7040     0.6380 H     1 <1>   0.0800 
 46 H        7.9810     3.9260    -0.5930 H     1 <1>   0.0800 
 47 H        7.7560     4.4600     1.0510 H     1 <1>   0.0800 
 48 H        8.2120     8.5140    -1.0400 H     1 <1>   0.1500 
 49 H        9.9860     4.8750     0.3180 H     1 <1>   0.1500 
 50 H       10.4080     9.5860    -0.9990 H     1 <1>   0.1500 
 51 H       12.1570     5.9510     0.3560 H     1 <1>   0.1500 
 52 H       12.3940     8.3100    -0.2990 H     1 <1>   0.1500 
@<TRIPOS>BOND
  1   1   2  ar  
  2   2   3  ar  
  3   2   4  1   
  4   4   5  1   
  5   4   6  1   
  6   4   7  1   
  7   5   8  1   
  8   5   9  1   
  9   5  27  1   
 10   6  10  1   
 11   6  28  1   
 12   6  29  1   
 13   7  11  1   
 14   7  30  1   
 15   7  31  1   
 16   8  12  1   
 17   8  13  1   
 18   8  32  1   
 19   9  14  1   
 20   9  33  1   
 21   9  34  1   
 22  10  14  1   
 23  10  35  1   
 24  10  36  1   
 25  11  12  1   
 26  11  37  1   
 27  11  38  1   
 28  12  39  1   
 29  12  40  1   
 30  13  41  1   
 31  13  42  1   
 32  13  43  1   
 33  14  15  am  
 34  15  16  2   
 35  15  17  1   
 36  17  18  1   
 37  17  44  1   
 38  17  45  1   
 39  18  19  1   
 40  18  46  1   
 41  18  47  1   
 42  19  20  2   
 43  19  21  1   
 44  21  22  ar  
 45  21  23  ar  
 46  22  24  ar  
 47  22  48  1   
 48  23  25  ar  
 49  23  49  1   
 50  24  26  ar  
 51  24  50  1   
 52  25  26  ar  
 53  25  51  1   
 54  26  52  1   
@<TRIPOS>SUBSTRUCTURE
  1 ****  15 GROUP 4 **** **** 0

# MOE 2024.06 (io_trps.svl 2023.06)
