@<TRIPOS>MOLECULE
NONAME
44 45 1 0 0 
SMALL
USER_CHARGES


@<TRIPOS>ATOM
  1 O       -0.6400     0.1240     0.1960 O.2   1 <1>  -0.5700 
  2 C       -1.7390     0.6420     0.1310 C.2   1 <1>   0.5440 
  3 N       -1.8710     1.9700     0.4940 N.am  1 <1>  -0.6600 
  4 C       -2.8620    -0.1520    -0.3090 C.ar  1 <1>   0.0860 
  5 C       -3.1560     2.5840     0.9290 C.3   1 <1>   0.0600 
  6 C       -0.6770     2.8410     0.6850 C.3   1 <1>   0.0600 
  7 C       -3.0350    -1.4470     0.1700 C.ar  1 <1>   0.1600 
  8 C       -3.8090     0.3090    -1.2190 C.ar  1 <1>  -0.1500 
  9 N       -4.0280    -2.2630    -0.1390 N.ar  1 <1>  -0.6200 
 10 C       -4.8430    -0.5300    -1.5560 C.ar  1 <1>  -0.1500 
 11 C       -4.9270    -1.8040    -1.0000 C.ar  1 <1>   0.4100 
 12 N       -5.9770    -2.6160    -1.3540 N.pl3 1 <1>  -0.8690 
 13 C       -6.1120    -4.0770    -1.1160 C.3   1 <1>   0.2890 
 14 C       -6.0420    -4.4300     0.3790 C.3   1 <1>  -0.0170 
 15 C       -5.0780    -4.8120    -1.9710 C.3   1 <1>  -0.2400 
 16 C       -6.9120    -5.6320     0.7060 C.ar  1 <1>   0.1670 
 17 N       -6.4560    -6.8190     0.3350 N.ar  1 <1>  -0.6200 
 18 C       -8.1190    -5.4410     1.3620 C.ar  1 <1>  -0.1500 
 19 C       -7.2210    -7.8560     0.6260 C.ar  1 <1>   0.1670 
 20 C       -8.9120    -6.5280     1.6610 C.ar  1 <1>  -0.1500 
 21 C       -8.4400    -7.7640     1.2770 C.ar  1 <1>  -0.1500 
 22 C       -6.6850    -9.2060     0.1980 C.3   1 <1>  -0.0970 
 23 H       -3.9080     1.8310     1.0870 H     1 <1>   0.0800 
 24 H       -3.4990     3.2770     0.1810 H     1 <1>   0.0800 
 25 H       -3.0110     3.1120     1.8560 H     1 <1>   0.0800 
 26 H        0.1780     2.4250     0.1790 H     1 <1>   0.0800 
 27 H       -0.4520     2.9210     1.7340 H     1 <1>   0.0800 
 28 H       -0.8680     3.8200     0.2830 H     1 <1>   0.0800 
 29 H       -2.2960    -1.8240     0.8570 H     1 <1>   0.1500 
 30 H       -3.7200     1.2930    -1.6430 H     1 <1>   0.1500 
 31 H       -5.5970    -0.2140    -2.2510 H     1 <1>   0.1500 
 32 H       -6.5340    -2.2990    -2.1460 H     1 <1>   0.4000 
 33 H       -7.0900    -4.3630    -1.4650 H     1 <1>   0.0800 
 34 H       -6.3750    -3.5870     0.9550 H     1 <1>   0.0800 
 35 H       -5.0280    -4.6420     0.6640 H     1 <1>   0.0800 
 36 H       -4.0820    -4.5760    -1.6420 H     1 <1>   0.0800 
 37 H       -5.1860    -4.5370    -3.0030 H     1 <1>   0.0800 
 38 H       -5.2190    -5.8730    -1.8850 H     1 <1>   0.0800 
 39 H       -8.4380    -4.4530     1.6390 H     1 <1>   0.1500 
 40 H       -9.8540    -6.4160     2.1690 H     1 <1>   0.1500 
 41 H       -9.0160    -8.6470     1.4850 H     1 <1>   0.1500 
 42 H       -5.7350    -9.3780     0.6690 H     1 <1>   0.0800 
 43 H       -6.5490    -9.2150    -0.8680 H     1 <1>   0.0800 
 44 H       -7.3580    -9.9960     0.4720 H     1 <1>   0.0800 
@<TRIPOS>BOND
  1   1   2  2   
  2   2   3  am  
  3   2   4  1   
  4   3   5  1   
  5   3   6  1   
  6   4   7  ar  
  7   4   8  ar  
  8   5  23  1   
  9   5  24  1   
 10   5  25  1   
 11   6  26  1   
 12   6  27  1   
 13   6  28  1   
 14   7   9  ar  
 15   7  29  1   
 16   8  10  ar  
 17   8  30  1   
 18   9  11  ar  
 19  10  11  ar  
 20  10  31  1   
 21  11  12  1   
 22  12  13  1   
 23  12  32  1   
 24  13  14  1   
 25  13  15  1   
 26  13  33  1   
 27  14  16  1   
 28  14  34  1   
 29  14  35  1   
 30  15  36  1   
 31  15  37  1   
 32  15  38  1   
 33  16  17  ar  
 34  16  18  ar  
 35  17  19  ar  
 36  18  20  ar  
 37  18  39  1   
 38  19  21  ar  
 39  19  22  1   
 40  20  21  ar  
 41  20  40  1   
 42  21  41  1   
 43  22  42  1   
 44  22  43  1   
 45  22  44  1   
@<TRIPOS>SUBSTRUCTURE
  1 ****   9 GROUP 4 **** **** 0

# MOE 2024.06 (io_trps.svl 2023.06)
