@<TRIPOS>MOLECULE
NONAME
49 50 1 0 0 
SMALL
USER_CHARGES


@<TRIPOS>ATOM
  1 O       -0.8340     0.2030    -0.7260 O.2   1 <1>  -0.5700 
  2 C       -1.7520     0.8760    -0.3120 C.2   1 <1>   0.5690 
  3 N       -2.6870     0.3260     0.5430 N.am  1 <1>  -0.6600 
  4 C       -1.7850     2.3370    -0.8070 C.3   1 <1>   0.2610 
  5 C       -2.5410    -1.0930     0.9720 C.3   1 <1>   0.3200 
  6 C       -3.8090     1.0750     1.1960 C.3   1 <1>   0.1400 
  7 O       -1.7380     3.2450     0.2840 O.3   1 <1>  -0.3630 
  8 C       -2.9890     2.6920    -1.6910 C.3   1 <1>  -0.2400 
  9 C       -3.4450    -1.9890     0.1470 C.2   1 <1>  -0.3320 
 10 C       -5.1730     0.7040     0.5980 C.3   1 <1>   0.1200 
 11 C       -0.8800     4.2810     0.1790 C.ar  1 <1>   0.0820 
 12 N       -3.9210    -3.1750     0.5730 N.pl3 1 <1>   0.0330 
 13 C       -3.9290    -1.8220    -1.1040 C.2   1 <1>   0.0770 
 14 O       -6.1500     1.5330     1.1330 O.3   1 <1>  -0.6800 
 15 C        0.4870     4.1110     0.3840 C.ar  1 <1>  -0.1430 
 16 C       -1.3980     5.5290    -0.1290 C.ar  1 <1>  -0.1500 
 17 C       -4.6790    -3.6420    -0.4420 C.2   1 <1>   0.0070 
 18 N       -4.7120    -2.8550    -1.4650 N.2   1 <1>  -0.5650 
 19 C        1.3210     5.2090     0.2470 C.ar  1 <1>  -0.1500 
 20 C        1.0820     2.7610     0.7610 C.3   1 <1>  -0.0970 
 21 C       -0.5590     6.6210    -0.2630 C.ar  1 <1>  -0.1430 
 22 C       -5.4140    -4.9630    -0.3790 C.3   1 <1>  -0.0600 
 23 C        0.8030     6.4530    -0.0750 C.ar  1 <1>  -0.1500 
 24 C       -1.1230     7.9880    -0.6040 C.3   1 <1>  -0.0970 
 25 H       -0.8930     2.4850    -1.3920 H     1 <1>   0.0800 
 26 H       -2.7980    -1.1720     2.0140 H     1 <1>   0.0800 
 27 H       -1.5210    -1.4220     0.8660 H     1 <1>   0.0800 
 28 H       -3.6690     2.1330     1.0890 H     1 <1>   0.0800 
 29 H       -3.8090     0.8560     2.2490 H     1 <1>   0.0800 
 30 H       -3.9000     2.7010    -1.1250 H     1 <1>   0.0800 
 31 H       -3.0790     1.9710    -2.4830 H     1 <1>   0.0800 
 32 H       -2.8410     3.6610    -2.1320 H     1 <1>   0.0800 
 33 H       -5.4400    -0.3150     0.8180 H     1 <1>   0.0800 
 34 H       -5.1700     0.8500    -0.4680 H     1 <1>   0.0800 
 35 H       -3.7510    -3.6430     1.4670 H     1 <1>   0.2700 
 36 H       -3.7490    -0.9970    -1.7730 H     1 <1>   0.1500 
 37 H       -6.3260     1.3130     2.0680 H     1 <1>   0.4000 
 38 H       -2.4590     5.6330    -0.2620 H     1 <1>   0.1500 
 39 H        2.3810     5.1040     0.3940 H     1 <1>   0.1500 
 40 H        0.4330     2.2440     1.4450 H     1 <1>   0.0800 
 41 H        2.0380     2.8860     1.2360 H     1 <1>   0.0800 
 42 H        1.2110     2.1560    -0.1180 H     1 <1>   0.0800 
 43 H       -6.1190    -4.9570     0.4320 H     1 <1>   0.0800 
 44 H       -4.7150    -5.7680    -0.2430 H     1 <1>   0.0800 
 45 H       -5.9480    -5.1240    -1.2980 H     1 <1>   0.0800 
 46 H        1.4690     7.2920    -0.1750 H     1 <1>   0.1500 
 47 H       -2.0480     7.8900    -1.1440 H     1 <1>   0.0800 
 48 H       -0.4300     8.5370    -1.2160 H     1 <1>   0.0800 
 49 H       -1.3050     8.5410     0.2990 H     1 <1>   0.0800 
@<TRIPOS>BOND
  1   1   2  2   
  2   2   3  am  
  3   2   4  1   
  4   3   5  1   
  5   3   6  1   
  6   4   7  1   
  7   4   8  1   
  8   4  25  1   
  9   5   9  1   
 10   5  26  1   
 11   5  27  1   
 12   6  10  1   
 13   6  28  1   
 14   6  29  1   
 15   7  11  1   
 16   8  30  1   
 17   8  31  1   
 18   8  32  1   
 19   9  12  1   
 20   9  13  2   
 21  10  14  1   
 22  10  33  1   
 23  10  34  1   
 24  11  15  ar  
 25  11  16  ar  
 26  12  17  1   
 27  12  35  1   
 28  13  18  1   
 29  13  36  1   
 30  14  37  1   
 31  15  19  ar  
 32  15  20  1   
 33  16  21  ar  
 34  16  38  1   
 35  17  18  2   
 36  17  22  1   
 37  19  23  ar  
 38  19  39  1   
 39  20  40  1   
 40  20  41  1   
 41  20  42  1   
 42  21  23  ar  
 43  21  24  1   
 44  22  43  1   
 45  22  44  1   
 46  22  45  1   
 47  23  46  1   
 48  24  47  1   
 49  24  48  1   
 50  24  49  1   
@<TRIPOS>SUBSTRUCTURE
  1 ****   2 GROUP 4 **** **** 0

# MOE 2024.06 (io_trps.svl 2023.06)
