@<TRIPOS>MOLECULE
NONAME
51 55 1 0 0 
SMALL
USER_CHARGES


@<TRIPOS>ATOM
  1 O       -0.8570     0.4180    -2.8920 O.2   1 <1>  -0.5700 
  2 C       -1.7220     0.9630    -2.2340 C.2   1 <1>   0.7150 
  3 N       -2.8730     0.2750    -1.9260 N.am  1 <1>  -0.6600 
  4 C       -1.5230     2.3100    -1.7920 C.2   1 <1>  -0.2370 
  5 C       -4.0680     0.8790    -1.2640 C.3   1 <1>   0.1400 
  6 C       -3.0310    -1.1830    -2.2060 C.3   1 <1>   0.1400 
  7 N       -1.2250     2.6320    -0.4960 N.pl3 1 <1>   0.2940 
  8 C       -1.5700     3.4730    -2.5180 C.2   1 <1>  -0.1500 
  9 C       -4.4500     0.0800    -0.0030 C.3   1 <1>   0.1900 
 10 C       -3.4600    -1.9390    -0.9370 C.3   1 <1>   0.1100 
 11 C       -1.1110     3.9800    -0.4210 C.2   1 <1>  -0.3020 
 12 C       -1.0850     1.7120     0.6590 C.3   1 <1>  -0.0910 
 13 C       -1.3150     4.5290    -1.6480 C.2   1 <1>  -0.1500 
 14 N       -4.6770    -1.3490    -0.3330 N.3   1 <1>  -0.8100 
 15 C       -5.6990     0.6880     0.6620 C.3   1 <1>   0.1200 
 16 C        0.2050     1.6940     1.4240 C.3   1 <1>  -0.2000 
 17 C       -0.1770     0.5200     0.5800 C.3   1 <1>  -0.2000 
 18 C       -5.1050    -2.0850     0.8810 C.3   1 <1>   0.3330 
 19 O       -6.0390    -0.0340     1.8100 O.3   1 <1>  -0.5600 
 20 C       -5.4790    -3.5280     0.5460 C.ar  1 <1>  -0.1440 
 21 C       -6.3090    -1.3870     1.5490 C.3   1 <1>   0.1200 
 22 C       -4.9930    -4.5710     1.3230 C.ar  1 <1>  -0.1500 
 23 C       -6.3080    -3.8180    -0.5290 C.ar  1 <1>  -0.1500 
 24 C       -5.3310    -5.8810     1.0290 C.ar  1 <1>  -0.1500 
 25 C       -6.6470    -5.1270    -0.8240 C.ar  1 <1>  -0.1500 
 26 C       -6.1580    -6.1600    -0.0440 C.ar  1 <1>  -0.1500 
 27 H       -3.8830     1.9030    -0.9980 H     1 <1>   0.0800 
 28 H       -4.8930     0.8620    -1.9550 H     1 <1>   0.0800 
 29 H       -3.7790    -1.3180    -2.9670 H     1 <1>   0.0800 
 30 H       -2.1100    -1.6030    -2.5710 H     1 <1>   0.0800 
 31 H       -1.7660     3.5660    -3.5730 H     1 <1>   0.1500 
 32 H       -3.6370     0.1570     0.6970 H     1 <1>   0.0800 
 33 H       -2.6500    -1.9200    -0.2270 H     1 <1>   0.0800 
 34 H       -3.6450    -2.9650    -1.2020 H     1 <1>   0.0800 
 35 H       -0.8860     4.4810     0.5030 H     1 <1>   0.1500 
 36 H       -1.9980     1.6370     1.2200 H     1 <1>   0.1000 
 37 H       -1.2860     5.5710    -1.9200 H     1 <1>   0.1500 
 38 H       -6.5360     0.6750    -0.0140 H     1 <1>   0.0800 
 39 H       -5.5080     1.7030     0.9620 H     1 <1>   0.0800 
 40 H        1.0200     2.3160     1.0940 H     1 <1>   0.1000 
 41 H        0.1810     1.5750     2.4930 H     1 <1>   0.1000 
 42 H       -0.4690    -0.3900     1.0730 H     1 <1>   0.1000 
 43 H        0.3790     0.3380    -0.3250 H     1 <1>   0.1000 
 44 H       -4.2940    -2.0900     1.5890 H     1 <1>   0.0800 
 45 H       -6.5360    -1.8640     2.4850 H     1 <1>   0.0800 
 46 H       -7.1750    -1.4470     0.9140 H     1 <1>   0.0800 
 47 H       -4.3500    -4.3700     2.1610 H     1 <1>   0.1500 
 48 H       -6.6850    -3.0170    -1.1420 H     1 <1>   0.1500 
 49 H       -4.9510    -6.6840     1.6360 H     1 <1>   0.1500 
 50 H       -7.2900    -5.3400    -1.6600 H     1 <1>   0.1500 
 51 H       -6.4220    -7.1780    -0.2720 H     1 <1>   0.1500 
@<TRIPOS>BOND
  1   1   2  2   
  2   2   3  am  
  3   2   4  1   
  4   3   5  1   
  5   3   6  1   
  6   4   7  1   
  7   4   8  2   
  8   5   9  1   
  9   5  27  1   
 10   5  28  1   
 11   6  10  1   
 12   6  29  1   
 13   6  30  1   
 14   7  11  1   
 15   7  12  1   
 16   8  13  1   
 17   8  31  1   
 18   9  14  1   
 19   9  15  1   
 20   9  32  1   
 21  10  14  1   
 22  10  33  1   
 23  10  34  1   
 24  11  13  2   
 25  11  35  1   
 26  12  16  1   
 27  12  17  1   
 28  12  36  1   
 29  13  37  1   
 30  14  18  1   
 31  15  19  1   
 32  15  38  1   
 33  15  39  1   
 34  16  17  1   
 35  16  40  1   
 36  16  41  1   
 37  17  42  1   
 38  17  43  1   
 39  18  20  1   
 40  18  21  1   
 41  18  44  1   
 42  19  21  1   
 43  20  22  ar  
 44  20  23  ar  
 45  21  45  1   
 46  21  46  1   
 47  22  24  ar  
 48  22  47  1   
 49  23  25  ar  
 50  23  48  1   
 51  24  26  ar  
 52  24  49  1   
 53  25  26  ar  
 54  25  50  1   
 55  26  51  1   
@<TRIPOS>SUBSTRUCTURE
  1 ****   9 GROUP 4 **** **** 0

# MOE 2024.06 (io_trps.svl 2023.06)
