@<TRIPOS>MOLECULE
NONAME
44 47 1 0 0 
SMALL
USER_CHARGES


@<TRIPOS>ATOM
  1 CL      -0.7370     2.1110     2.5090 Cl    1 <1>  -0.1770 
  2 C       -1.3700     2.0030     0.8760 C.ar  1 <1>   0.1770 
  3 C       -1.5040     3.1590     0.0950 C.ar  1 <1>   0.4100 
  4 C       -1.7190     0.7700     0.3800 C.ar  1 <1>  -0.1500 
  5 N       -1.9600     3.1270    -1.1540 N.ar  1 <1>  -0.6200 
  6 N       -1.1560     4.3930     0.6120 N.pl3 1 <1>  -0.8690 
  7 C       -2.1980     0.7470    -0.9150 C.ar  1 <1>  -0.1500 
  8 C       -2.2950     1.9340    -1.6220 C.ar  1 <1>   0.1600 
  9 C       -0.7190     5.5440    -0.2090 C.3   1 <1>   0.2890 
 10 C        0.8340     5.7100    -0.1650 C.3   1 <1>   0.0000 
 11 C       -1.5260     6.7430     0.2950 C.3   1 <1>  -0.2400 
 12 C        1.2770     6.9130    -1.0410 C.3   1 <1>  -0.1600 
 13 C        1.5150     4.4370    -0.7420 C.3   1 <1>  -0.1600 
 14 C        1.3820     5.9340     1.2720 C.3   1 <1>  -0.1600 
 15 C        2.8060     7.0390    -1.0430 C.3   1 <1>   0.2800 
 16 C        3.0490     4.5680    -0.7570 C.3   1 <1>  -0.0800 
 17 C        2.9180     6.0750     1.2660 C.3   1 <1>  -0.0800 
 18 O        3.1610     8.1160    -1.8190 O.3   1 <1>  -0.6800 
 19 C        3.4440     5.7740    -1.6280 C.3   1 <1>  -0.1600 
 20 C        3.3130     7.2750     0.3850 C.3   1 <1>  -0.1600 
 21 C        3.5450     4.7940     0.6840 C.3   1 <1>  -0.1600 
 22 H       -1.6200    -0.1220     0.9730 H     1 <1>   0.1500 
 23 H       -0.7150     4.3690     1.5330 H     1 <1>   0.4000 
 24 H       -2.4930    -0.1810    -1.3720 H     1 <1>   0.1500 
 25 H       -2.6700     1.9020    -2.6310 H     1 <1>   0.1500 
 26 H       -1.0020     5.3790    -1.2350 H     1 <1>   0.0800 
 27 H       -1.2920     6.9680     1.3180 H     1 <1>   0.0800 
 28 H       -2.5740     6.5160     0.2230 H     1 <1>   0.0800 
 29 H       -1.3400     7.6110    -0.3080 H     1 <1>   0.0800 
 30 H        0.8660     7.8260    -0.6520 H     1 <1>   0.0800 
 31 H        0.9210     6.7760    -2.0460 H     1 <1>   0.0800 
 32 H        1.1570     4.2530    -1.7400 H     1 <1>   0.0800 
 33 H        1.2550     3.5780    -0.1490 H     1 <1>   0.0800 
 34 H        1.1130     5.1070     1.9050 H     1 <1>   0.0800 
 35 H        0.9560     6.8230     1.6990 H     1 <1>   0.0800 
 36 H        3.4880     3.6700    -1.1560 H     1 <1>   0.0800 
 37 H        3.2730     6.2300     2.2710 H     1 <1>   0.0800 
 38 H        2.8710     7.9610    -2.7350 H     1 <1>   0.4000 
 39 H        4.5150     5.8760    -1.6390 H     1 <1>   0.0800 
 40 H        3.1020     5.6150    -2.6350 H     1 <1>   0.0800 
 41 H        2.8820     8.1770     0.7820 H     1 <1>   0.0800 
 42 H        4.3830     7.3850     0.3780 H     1 <1>   0.0800 
 43 H        4.6180     4.8780     0.6920 H     1 <1>   0.0800 
 44 H        3.2800     3.9490     1.2970 H     1 <1>   0.0800 
@<TRIPOS>BOND
  1   1   2  1   
  2   2   3  ar  
  3   2   4  ar  
  4   3   5  ar  
  5   3   6  1   
  6   4   7  ar  
  7   4  22  1   
  8   5   8  ar  
  9   6   9  1   
 10   6  23  1   
 11   7   8  ar  
 12   7  24  1   
 13   8  25  1   
 14   9  10  1   
 15   9  11  1   
 16   9  26  1   
 17  10  12  1   
 18  10  13  1   
 19  10  14  1   
 20  11  27  1   
 21  11  28  1   
 22  11  29  1   
 23  12  15  1   
 24  12  30  1   
 25  12  31  1   
 26  13  16  1   
 27  13  32  1   
 28  13  33  1   
 29  14  17  1   
 30  14  34  1   
 31  14  35  1   
 32  15  18  1   
 33  15  19  1   
 34  15  20  1   
 35  16  19  1   
 36  16  21  1   
 37  16  36  1   
 38  17  20  1   
 39  17  21  1   
 40  17  37  1   
 41  18  38  1   
 42  19  39  1   
 43  19  40  1   
 44  20  41  1   
 45  20  42  1   
 46  21  43  1   
 47  21  44  1   
@<TRIPOS>SUBSTRUCTURE
  1 ****  10 GROUP 4 **** **** 0

# MOE 2024.06 (io_trps.svl 2023.06)
