@<TRIPOS>MOLECULE
NONAME
47 49 1 0 0 
SMALL
USER_CHARGES


@<TRIPOS>ATOM
  1 S       -0.5870     0.3540    -1.6230 S.3   1 <1>  -0.0800 
  2 C       -0.5320     1.7120    -0.5080 C.2   1 <1>  -0.1400 
  3 C        1.0360    -0.1380    -1.1740 C.2   1 <1>  -0.1100 
  4 C        0.6520     1.7470     0.1310 C.2   1 <1>  -0.1500 
  5 C       -1.7510     2.6120    -0.4310 C.3   1 <1>   0.0200 
  6 C        1.5450     0.6940    -0.2470 C.2   1 <1>  -0.1500 
  7 C       -2.9280     1.9020     0.2510 C.3   1 <1>  -0.1600 
  8 C       -4.1660     2.8150     0.3480 C.3   1 <1>  -0.0990 
  9 C       -5.3770     2.1820     1.0280 C.2   1 <1>   0.5690 
 10 O       -5.2690     1.0610     1.4670 O.2   1 <1>  -0.5700 
 11 N       -6.5530     2.8850     1.1300 N.am  1 <1>  -0.6600 
 12 C       -6.7890     4.2670     0.6280 C.3   1 <1>   0.1400 
 13 C       -7.7550     2.2900     1.7810 C.3   1 <1>   0.1400 
 14 C       -7.9180     4.2360    -0.4040 C.3   1 <1>  -0.1600 
 15 C       -8.9070     2.2480     0.7750 C.3   1 <1>  -0.1600 
 16 C       -9.2000     3.6310     0.1850 C.3   1 <1>   0.4180 
 17 O       -9.6400     4.4290     1.2580 O.3   1 <1>  -0.5600 
 18 C      -10.2900     3.5160    -0.8770 C.2   1 <1>  -0.2880 
 19 C      -10.3760     5.5800     0.9490 C.3   1 <1>   0.1200 
 20 C      -11.4310     4.2100    -0.8600 C.2   1 <1>  -0.2760 
 21 C      -11.6920     5.2100     0.2510 C.3   1 <1>  -0.0220 
 22 C      -12.5380     4.0730    -1.8890 C.3   1 <1>  -0.1020 
 23 H        1.4400    -1.0090    -1.6580 H     1 <1>   0.1500 
 24 H        0.9450     2.4780     0.8640 H     1 <1>   0.1500 
 25 H       -2.0270     2.9120    -1.4270 H     1 <1>   0.0800 
 26 H       -1.4950     3.4950     0.1260 H     1 <1>   0.0800 
 27 H        2.5220     0.6130     0.1960 H     1 <1>   0.1500 
 28 H       -2.6310     1.5950     1.2400 H     1 <1>   0.0800 
 29 H       -3.1850     1.0150    -0.3020 H     1 <1>   0.0800 
 30 H       -4.4570     3.1030    -0.6460 H     1 <1>   0.0800 
 31 H       -3.9030     3.6990     0.8990 H     1 <1>   0.0800 
 32 H       -5.9050     4.6840     0.1820 H     1 <1>   0.0800 
 33 H       -7.0710     4.8960     1.4560 H     1 <1>   0.0800 
 34 H       -8.0310     2.8920     2.6300 H     1 <1>   0.0800 
 35 H       -7.5490     1.2940     2.1340 H     1 <1>   0.0800 
 36 H       -7.6010     3.6410    -1.2410 H     1 <1>   0.0800 
 37 H       -8.1120     5.2250    -0.7730 H     1 <1>   0.0800 
 38 H       -9.7940     1.8720     1.2510 H     1 <1>   0.0800 
 39 H       -8.6460     1.5650    -0.0130 H     1 <1>   0.0800 
 40 H      -10.0490     2.8040    -1.6450 H     1 <1>   0.1500 
 41 H       -9.7800     6.2120     0.3160 H     1 <1>   0.0800 
 42 H      -10.5750     6.1000     1.8690 H     1 <1>   0.0800 
 43 H      -12.1300     6.1070    -0.1490 H     1 <1>   0.0800 
 44 H      -12.3770     4.7910     0.9660 H     1 <1>   0.0800 
 45 H      -13.4520     3.7680    -1.4110 H     1 <1>   0.0800 
 46 H      -12.2770     3.3350    -2.6270 H     1 <1>   0.0800 
 47 H      -12.7010     5.0120    -2.3880 H     1 <1>   0.0800 
@<TRIPOS>BOND
  1   1   2  1   
  2   1   3  1   
  3   2   4  2   
  4   2   5  1   
  5   3   6  2   
  6   3  23  1   
  7   4   6  1   
  8   4  24  1   
  9   5   7  1   
 10   5  25  1   
 11   5  26  1   
 12   6  27  1   
 13   7   8  1   
 14   7  28  1   
 15   7  29  1   
 16   8   9  1   
 17   8  30  1   
 18   8  31  1   
 19   9  10  2   
 20   9  11  am  
 21  11  12  1   
 22  11  13  1   
 23  12  14  1   
 24  12  32  1   
 25  12  33  1   
 26  13  15  1   
 27  13  34  1   
 28  13  35  1   
 29  14  16  1   
 30  14  36  1   
 31  14  37  1   
 32  15  16  1   
 33  15  38  1   
 34  15  39  1   
 35  16  17  1   
 36  16  18  1   
 37  17  19  1   
 38  18  20  2   
 39  18  40  1   
 40  19  21  1   
 41  19  41  1   
 42  19  42  1   
 43  20  21  1   
 44  20  22  1   
 45  21  43  1   
 46  21  44  1   
 47  22  45  1   
 48  22  46  1   
 49  22  47  1   
@<TRIPOS>SUBSTRUCTURE
  1 ****  11 GROUP 4 **** **** 0

# MOE 2024.06 (io_trps.svl 2023.06)
