@<TRIPOS>MOLECULE
NONAME
63 66 1 0 0 
SMALL
USER_CHARGES


@<TRIPOS>ATOM
  1 O        0.8660     0.7410     1.7200 O.3   1 <1>  -0.5600 
  2 C        1.3110     1.7900     0.9030 C.3   1 <1>   0.2000 
  3 C        1.6350     0.5230     2.8700 C.3   1 <1>   0.1200 
  4 C        1.0640     3.1670     1.5390 C.3   1 <1>   0.2090 
  5 C        0.6530     1.6830    -0.4730 C.3   1 <1>   0.3430 
  6 C        1.4200     1.6300     3.9150 C.3   1 <1>  -0.1600 
  7 N        2.2350     3.5190     2.3910 N.pl3 1 <1>  -0.8380 
  8 N        1.0000     0.3750    -1.1020 N.4   1 <1>  -0.9590 
  9 C        2.3030     2.8800     3.7410 C.3   1 <1>   0.2090 
 10 C        3.4020     3.9550     1.7650 C.ar  1 <1>   0.4100 
 11 C        2.3900     0.4070    -1.6540 C.3   1 <1>   0.3430 
 12 C       -0.0050    -0.0460    -2.1140 C.3   1 <1>   0.3430 
 13 N        3.5000     3.7660     0.4760 N.ar  1 <1>  -0.6200 
 14 C        4.4380     4.5490     2.5100 C.ar  1 <1>  -0.1500 
 15 C        2.7740    -0.9840    -2.1590 C.3   1 <1>  -0.1600 
 16 C        0.3390    -1.4470    -2.6250 C.3   1 <1>  -0.1600 
 17 C        4.6730     4.0580    -0.1390 C.ar  1 <1>   0.3100 
 18 C        5.6260     4.8730     1.9310 C.ar  1 <1>  -0.1430 
 19 C        1.7660    -1.5140    -3.1870 C.3   1 <1>  -0.1600 
 20 C        4.8070     3.7940    -1.5280 C.ar  1 <1>   0.0830 
 21 C        5.7820     4.5970     0.5530 C.ar  1 <1>   0.0000 
 22 C        6.7420     5.5140     2.7450 C.3   1 <1>  -0.0970 
 23 O        3.7570     3.3090    -2.2390 O.3   1 <1>  -0.3630 
 24 C        5.9880     4.0130    -2.1900 C.ar  1 <1>  -0.1500 
 25 C        6.9760     4.8210    -0.1620 C.ar  1 <1>  -0.1500 
 26 C        2.8670     4.2900    -2.7230 C.3   1 <1>   0.0400 
 27 C        7.0900     4.5350    -1.4980 C.ar  1 <1>   0.0830 
 28 O        8.2870     4.7820    -2.0860 O.3   1 <1>  -0.3620 
 29 C        8.5130     4.4970    -3.4490 C.3   1 <1>   0.0400 
 30 H        2.3650     1.6510     0.7620 H     1 <1>   0.0800 
 31 H        2.6750     0.4360     2.5990 H     1 <1>   0.0800 
 32 H        1.3120    -0.4170     3.2820 H     1 <1>   0.0800 
 33 H        0.1490     3.1800     2.1050 H     1 <1>   0.0800 
 34 H        0.9760     3.9160     0.7710 H     1 <1>   0.0800 
 35 H        0.9940     2.4940    -1.0960 H     1 <1>   0.0800 
 36 H       -0.4130     1.7700    -0.3480 H     1 <1>   0.0800 
 37 H        1.6690     1.2150     4.8750 H     1 <1>   0.0800 
 38 H        0.3800     1.8980     3.9660 H     1 <1>   0.0800 
 39 H        0.9820    -0.3040    -0.3240 H     1 <1>   0.4500 
 40 H        3.3230     2.5970     3.9410 H     1 <1>   0.0800 
 41 H        2.0190     3.6120     4.4770 H     1 <1>   0.0800 
 42 H        3.0900     0.7200    -0.8950 H     1 <1>   0.0800 
 43 H        2.4450     1.1140    -2.4660 H     1 <1>   0.0800 
 44 H       -0.0030     0.6480    -2.9390 H     1 <1>   0.0800 
 45 H       -0.9900    -0.0550    -1.6750 H     1 <1>   0.0800 
 46 H        4.2580     4.7450     3.5490 H     1 <1>   0.1500 
 47 H        2.8390    -1.6590    -1.3230 H     1 <1>   0.0800 
 48 H        3.7510    -0.9350    -2.6080 H     1 <1>   0.0800 
 49 H       -0.3600    -1.7220    -3.3950 H     1 <1>   0.0800 
 50 H        0.2280    -2.1550    -1.8210 H     1 <1>   0.0800 
 51 H        2.0090    -2.5320    -3.4460 H     1 <1>   0.0800 
 52 H        1.8270    -0.9230    -4.0860 H     1 <1>   0.0800 
 53 H        6.4320     5.6750     3.7620 H     1 <1>   0.0800 
 54 H        7.0090     6.4650     2.3200 H     1 <1>   0.0800 
 55 H        7.6080     4.8760     2.7520 H     1 <1>   0.0800 
 56 H        6.0490     3.7850    -3.2360 H     1 <1>   0.1500 
 57 H        7.8310     5.2240     0.3450 H     1 <1>   0.1500 
 58 H        2.0990     3.8040    -3.2960 H     1 <1>   0.0800 
 59 H        3.4110     4.9770    -3.3480 H     1 <1>   0.0800 
 60 H        2.4350     4.8130    -1.8870 H     1 <1>   0.0800 
 61 H        9.5280     4.7660    -3.6820 H     1 <1>   0.0800 
 62 H        7.8360     5.0820    -4.0460 H     1 <1>   0.0800 
 63 H        8.3670     3.4450    -3.6160 H     1 <1>   0.0800 
@<TRIPOS>BOND
  1   1   2  1   
  2   1   3  1   
  3   2   4  1   
  4   2   5  1   
  5   2  30  1   
  6   3   6  1   
  7   3  31  1   
  8   3  32  1   
  9   4   7  1   
 10   4  33  1   
 11   4  34  1   
 12   5   8  1   
 13   5  35  1   
 14   5  36  1   
 15   6   9  1   
 16   6  37  1   
 17   6  38  1   
 18   7   9  1   
 19   7  10  1   
 20   8  11  1   
 21   8  12  1   
 22   8  39  1   
 23   9  40  1   
 24   9  41  1   
 25  10  13  ar  
 26  10  14  ar  
 27  11  15  1   
 28  11  42  1   
 29  11  43  1   
 30  12  16  1   
 31  12  44  1   
 32  12  45  1   
 33  13  17  ar  
 34  14  18  ar  
 35  14  46  1   
 36  15  19  1   
 37  15  47  1   
 38  15  48  1   
 39  16  19  1   
 40  16  49  1   
 41  16  50  1   
 42  17  20  ar  
 43  17  21  ar  
 44  18  21  ar  
 45  18  22  1   
 46  19  51  1   
 47  19  52  1   
 48  20  23  1   
 49  20  24  ar  
 50  21  25  ar  
 51  22  53  1   
 52  22  54  1   
 53  22  55  1   
 54  23  26  1   
 55  24  27  ar  
 56  24  56  1   
 57  25  27  ar  
 58  25  57  1   
 59  26  58  1   
 60  26  59  1   
 61  26  60  1   
 62  27  28  1   
 63  28  29  1   
 64  29  61  1   
 65  29  62  1   
 66  29  63  1   
@<TRIPOS>SUBSTRUCTURE
  1 ****  13 GROUP 4 **** **** 0

# MOE 2024.06 (io_trps.svl 2023.06)
