@<TRIPOS>MOLECULE
NONAME
49 51 1 0 0 
SMALL
USER_CHARGES


@<TRIPOS>ATOM
  1 S        0.0270     0.3020     0.7610 S.o2  1 <1>   1.3330 
  2 O        0.9690    -0.0770     1.7870 O.2   1 <1>  -0.6500 
  3 O       -1.3730    -0.0300     0.8760 O.2   1 <1>  -0.6500 
  4 N        0.1380     1.9790     0.5630 N.am  1 <1>  -0.8490 
  5 C        0.6140    -0.3730    -0.7820 C.3   1 <1>  -0.1350 
  6 C        1.5080     2.5090     0.4630 C.3   1 <1>   0.1960 
  7 C       -0.7710     2.5520    -0.4410 C.3   1 <1>   0.1960 
  8 C        1.5150     4.0490     0.3860 C.3   1 <1>   0.2000 
  9 C       -0.6670     4.0870    -0.4710 C.3   1 <1>   0.1200 
 10 O        0.6640     4.4780    -0.6490 O.3   1 <1>  -0.5600 
 11 C        2.9310     4.5920     0.1420 C.3   1 <1>   0.2090 
 12 N        2.9090     6.0560    -0.0890 N.pl3 1 <1>  -0.8690 
 13 C        4.0320     6.7830    -0.4050 C.ar  1 <1>   0.4100 
 14 N        5.1960     6.1820    -0.1590 N.ar  1 <1>  -0.6200 
 15 C        3.9190     8.0770    -0.9450 C.ar  1 <1>   0.0860 
 16 C        6.2840     6.8580    -0.4660 C.ar  1 <1>   0.1600 
 17 C        2.6280     8.6850    -1.1580 C.2   1 <1>   0.5440 
 18 C        5.0890     8.7540    -1.2600 C.ar  1 <1>  -0.1500 
 19 C        6.2900     8.1290    -1.0130 C.ar  1 <1>  -0.1500 
 20 O        1.7900     8.1260    -1.8450 O.2   1 <1>  -0.5700 
 21 N        2.3150     9.9070    -0.6040 N.am  1 <1>  -0.6600 
 22 C        3.0150    10.4960     0.5580 C.3   1 <1>   0.1400 
 23 C        0.9940    10.5430    -0.8040 C.3   1 <1>   0.1400 
 24 C        1.9580    11.3390     1.2610 C.3   1 <1>  -0.1600 
 25 C        0.9790    11.7270     0.1570 C.3   1 <1>  -0.1600 
 26 H        0.5740    -1.4440    -0.7410 H     1 <1>   0.0800 
 27 H        1.6280    -0.0810    -0.9610 H     1 <1>   0.0800 
 28 H        0.0010    -0.0440    -1.5960 H     1 <1>   0.0800 
 29 H        1.9920     2.1160    -0.4140 H     1 <1>   0.0800 
 30 H        2.0730     2.2010     1.3270 H     1 <1>   0.0800 
 31 H       -1.7850     2.2760    -0.2070 H     1 <1>   0.0800 
 32 H       -0.5350     2.1730    -1.4200 H     1 <1>   0.0800 
 33 H        1.1490     4.4550     1.3140 H     1 <1>   0.0800 
 34 H       -1.0340     4.5100     0.4480 H     1 <1>   0.0800 
 35 H       -1.2390     4.4860    -1.2890 H     1 <1>   0.0800 
 36 H        3.3610     4.1090    -0.7180 H     1 <1>   0.0800 
 37 H        3.5530     4.3780     0.9940 H     1 <1>   0.0800 
 38 H        2.0530     6.3440    -0.5940 H     1 <1>   0.4000 
 39 H        7.2270     6.3750    -0.2730 H     1 <1>   0.1500 
 40 H        5.0480     9.7410    -1.6880 H     1 <1>   0.1500 
 41 H        7.2220     8.6150    -1.2410 H     1 <1>   0.1500 
 42 H        3.8170    11.1220     0.2060 H     1 <1>   0.0800 
 43 H        3.4050     9.7320     1.2100 H     1 <1>   0.0800 
 44 H        0.2210     9.8380    -0.5490 H     1 <1>   0.0800 
 45 H        0.8730    10.8540    -1.8270 H     1 <1>   0.0800 
 46 H        2.3870    12.1950     1.7510 H     1 <1>   0.0800 
 47 H        1.4580    10.7290     1.9940 H     1 <1>   0.0800 
 48 H       -0.0090    11.9230     0.5330 H     1 <1>   0.0800 
 49 H        1.3370    12.6000    -0.3610 H     1 <1>   0.0800 
@<TRIPOS>BOND
  1   1   2  2   
  2   1   3  2   
  3   1   4  am  
  4   1   5  1   
  5   4   6  1   
  6   4   7  1   
  7   5  26  1   
  8   5  27  1   
  9   5  28  1   
 10   6   8  1   
 11   6  29  1   
 12   6  30  1   
 13   7   9  1   
 14   7  31  1   
 15   7  32  1   
 16   8  10  1   
 17   8  11  1   
 18   8  33  1   
 19   9  10  1   
 20   9  34  1   
 21   9  35  1   
 22  11  12  1   
 23  11  36  1   
 24  11  37  1   
 25  12  13  1   
 26  12  38  1   
 27  13  14  ar  
 28  13  15  ar  
 29  14  16  ar  
 30  15  17  1   
 31  15  18  ar  
 32  16  19  ar  
 33  16  39  1   
 34  17  20  2   
 35  17  21  am  
 36  18  19  ar  
 37  18  40  1   
 38  19  41  1   
 39  21  22  1   
 40  21  23  1   
 41  22  24  1   
 42  22  42  1   
 43  22  43  1   
 44  23  25  1   
 45  23  44  1   
 46  23  45  1   
 47  24  25  1   
 48  24  46  1   
 49  24  47  1   
 50  25  48  1   
 51  25  49  1   
@<TRIPOS>SUBSTRUCTURE
  1 ****  12 GROUP 4 **** **** 0

# MOE 2024.06 (io_trps.svl 2023.06)
