@<TRIPOS>MOLECULE
NONAME
42 44 1 0 0 
SMALL
USER_CHARGES


@<TRIPOS>ATOM
  1 S        0.5500    -0.4530     1.0700 S.o2  1 <1>   1.4470 
  2 O        1.1860    -1.7140     1.3890 O.2   1 <1>  -0.6500 
  3 O       -0.1250     0.2700     2.1250 O.2   1 <1>  -0.6500 
  4 N        1.7800     0.5490     0.4670 N.am  1 <1>  -0.8490 
  5 C       -0.5990    -0.6380    -0.3390 C.ar  1 <1>  -0.0090 
  6 C        2.4600     1.3270     1.5270 C.3   1 <1>   0.1960 
  7 C        2.7120    -0.1760    -0.4150 C.3   1 <1>   0.1960 
  8 C       -1.5200    -1.6920    -0.4170 C.ar  1 <1>  -0.1440 
  9 C       -0.5930     0.3070    -1.3690 C.ar  1 <1>  -0.1500 
 10 C        3.3590     2.4920     1.0290 C.3   1 <1>   0.2200 
 11 C        3.6050     0.7370    -1.2750 C.3   1 <1>  -0.0190 
 12 C       -2.3750    -1.8020    -1.5050 C.ar  1 <1>  -0.1500 
 13 C       -1.6200    -2.7460     0.6790 C.3   1 <1>  -0.0960 
 14 C       -1.4420     0.2070    -2.4570 C.ar  1 <1>  -0.1500 
 15 N        2.9910     2.9740    -0.3420 N.am  1 <1>  -0.6600 
 16 C        4.8600     2.1520     1.1090 C.3   1 <1>   0.1200 
 17 C        3.0470     2.1400    -1.4260 C.2   1 <1>   0.5690 
 18 C        5.0660     0.7730    -0.8050 C.3   1 <1>   0.1200 
 19 C       -2.3190    -0.8540    -2.5060 C.ar  1 <1>   0.1900 
 20 C        2.3950     4.3360    -0.4220 C.3   1 <1>   0.0600 
 21 O        5.1620     0.8940     0.5800 O.3   1 <1>  -0.5600 
 22 O        2.6730     2.4810    -2.5250 O.2   1 <1>  -0.5700 
 23 F       -3.1240    -0.9640    -3.5270 F     1 <1>  -0.1900 
 24 H        1.7130     1.7800     2.1540 H     1 <1>   0.0800 
 25 H        3.0290     0.6620     2.1560 H     1 <1>   0.0800 
 26 H        3.3180    -0.8510     0.1690 H     1 <1>   0.0800 
 27 H        2.1320    -0.7810    -1.0910 H     1 <1>   0.0800 
 28 H        0.0850     1.1440    -1.3300 H     1 <1>   0.1500 
 29 H        3.2120     3.3100     1.7120 H     1 <1>   0.0800 
 30 H        3.6300     0.3100    -2.2610 H     1 <1>   0.0800 
 31 H       -3.0820    -2.6070    -1.5870 H     1 <1>   0.1500 
 32 H       -2.4900    -3.3620     0.5450 H     1 <1>   0.0800 
 33 H       -1.6940    -2.2800     1.6470 H     1 <1>   0.0800 
 34 H       -0.7530    -3.3820     0.6640 H     1 <1>   0.0800 
 35 H       -1.4240     0.9350    -3.2480 H     1 <1>   0.1500 
 36 H        5.1570     2.1240     2.1430 H     1 <1>   0.0800 
 37 H        5.4520     2.9000     0.6100 H     1 <1>   0.0800 
 38 H        5.6100     1.5770    -1.2720 H     1 <1>   0.0800 
 39 H        5.5460    -0.1550    -1.0650 H     1 <1>   0.0800 
 40 H        3.0860     5.0620    -0.0300 H     1 <1>   0.0800 
 41 H        1.4820     4.3660     0.1470 H     1 <1>   0.0800 
 42 H        2.1710     4.5940    -1.4430 H     1 <1>   0.0800 
@<TRIPOS>BOND
  1   1   2  2   
  2   1   3  2   
  3   1   4  am  
  4   1   5  1   
  5   4   6  1   
  6   4   7  1   
  7   5   8  ar  
  8   5   9  ar  
  9   6  10  1   
 10   6  24  1   
 11   6  25  1   
 12   7  11  1   
 13   7  26  1   
 14   7  27  1   
 15   8  12  ar  
 16   8  13  1   
 17   9  14  ar  
 18   9  28  1   
 19  10  15  1   
 20  10  16  1   
 21  10  29  1   
 22  11  17  1   
 23  11  18  1   
 24  11  30  1   
 25  12  19  ar  
 26  12  31  1   
 27  13  32  1   
 28  13  33  1   
 29  13  34  1   
 30  14  19  ar  
 31  14  35  1   
 32  15  17  am  
 33  15  20  1   
 34  16  21  1   
 35  16  36  1   
 36  16  37  1   
 37  17  22  2   
 38  18  21  1   
 39  18  38  1   
 40  18  39  1   
 41  19  23  1   
 42  20  40  1   
 43  20  41  1   
 44  20  42  1   
@<TRIPOS>SUBSTRUCTURE
  1 ****   4 GROUP 4 **** **** 0

# MOE 2024.06 (io_trps.svl 2023.06)
