@<TRIPOS>MOLECULE
NONAME
49 51 1 0 0 
SMALL
USER_CHARGES


@<TRIPOS>ATOM
  1 CL       1.9980    -0.4540    -1.7730 Cl    1 <1>  -0.1770 
  2 C        2.7590     0.8390    -0.8860 C.ar  1 <1>   0.1770 
  3 C        2.8400     2.0920    -1.4390 C.ar  1 <1>  -0.1500 
  4 C        3.2740     0.5700     0.3790 C.ar  1 <1>  -0.1500 
  5 C        3.4510     3.1340    -0.7280 C.ar  1 <1>   0.0000 
  6 C        3.8770     1.5820     1.0910 C.ar  1 <1>  -0.1500 
  7 C        3.9750     2.8720     0.5520 C.ar  1 <1>   0.3610 
  8 C        3.5680     4.4530    -1.2410 C.ar  1 <1>  -0.1500 
  9 N        4.5780     3.9090     1.2490 N.ar  1 <1>  -0.1790 
 10 C        4.1710     5.4250    -0.5050 C.ar  1 <1>  -0.1500 
 11 C        4.6980     5.1610     0.7870 C.ar  1 <1>   0.4610 
 12 N        5.3020     6.0900     1.5520 N.pl3 1 <1>  -0.8690 
 13 C        5.4450     7.5470     1.2880 C.3   1 <1>   0.2090 
 14 C        6.8690     7.8310     0.8020 C.3   1 <1>  -0.1600 
 15 C        7.0700     9.3280     0.5500 C.3   1 <1>   0.3430 
 16 N        8.4880     9.6220     0.1970 N.4   1 <1>  -0.9590 
 17 C        8.7760    11.0920     0.3440 C.3   1 <1>   0.3430 
 18 C        8.8770     9.1410    -1.1620 C.3   1 <1>   0.3430 
 19 C       10.1000    11.5160    -0.3230 C.3   1 <1>  -0.0800 
 20 C       10.4040     9.1910    -1.2950 C.3   1 <1>  -0.1600 
 21 C       11.0670    10.3280    -0.4940 C.3   1 <1>  -0.1600 
 22 C       10.7230    12.6740     0.4700 C.3   1 <1>   0.1200 
 23 O       11.7700    13.2060    -0.2540 O.3   1 <1>  -0.6800 
 24 H        2.4320     2.2690    -2.4190 H     1 <1>   0.1500 
 25 H        3.1880    -0.4290     0.7730 H     1 <1>   0.1500 
 26 H        4.2740     1.3680     2.0690 H     1 <1>   0.1500 
 27 H        3.1670     4.6560    -2.2220 H     1 <1>   0.1500 
 28 H        4.9390     3.7010     2.1750 H     1 <1>   0.4570 
 29 H        4.2540     6.4160    -0.9090 H     1 <1>   0.1500 
 30 H        5.6890     5.8480     2.4730 H     1 <1>   0.4000 
 31 H        5.2510     8.0860     2.2020 H     1 <1>   0.0800 
 32 H        4.7230     7.8770     0.5600 H     1 <1>   0.0800 
 33 H        7.0360     7.2790    -0.1060 H     1 <1>   0.0800 
 34 H        7.5630     7.5010     1.5550 H     1 <1>   0.0800 
 35 H        6.8100     9.8680     1.4470 H     1 <1>   0.0800 
 36 H        6.4180     9.6630    -0.2420 H     1 <1>   0.0800 
 37 H        9.1070     9.1350     0.8590 H     1 <1>   0.4500 
 38 H        8.8180    11.3330     1.3940 H     1 <1>   0.0800 
 39 H        7.9770    11.6690    -0.0920 H     1 <1>   0.0800 
 40 H        8.4300     9.7790    -1.9090 H     1 <1>   0.0800 
 41 H        8.5380     8.1330    -1.3300 H     1 <1>   0.0800 
 42 H        9.8530    11.9010    -1.2990 H     1 <1>   0.0800 
 43 H       10.6370     9.3110    -2.3400 H     1 <1>   0.0800 
 44 H       10.8240     8.2480    -0.9910 H     1 <1>   0.0800 
 45 H       11.3570     9.9620     0.4770 H     1 <1>   0.0800 
 46 H       11.9640    10.6390    -1.0030 H     1 <1>   0.0800 
 47 H       11.0980    12.3550     1.4280 H     1 <1>   0.0800 
 48 H       10.0070    13.4660     0.6160 H     1 <1>   0.0800 
 49 H       12.5590    12.6290    -0.2350 H     1 <1>   0.4000 
@<TRIPOS>BOND
  1   1   2  1   
  2   2   3  ar  
  3   2   4  ar  
  4   3   5  ar  
  5   3  24  1   
  6   4   6  ar  
  7   4  25  1   
  8   5   7  ar  
  9   5   8  ar  
 10   6   7  ar  
 11   6  26  1   
 12   7   9  ar  
 13   8  10  ar  
 14   8  27  1   
 15   9  11  ar  
 16   9  28  1   
 17  10  11  ar  
 18  10  29  1   
 19  11  12  1   
 20  12  13  1   
 21  12  30  1   
 22  13  14  1   
 23  13  31  1   
 24  13  32  1   
 25  14  15  1   
 26  14  33  1   
 27  14  34  1   
 28  15  16  1   
 29  15  35  1   
 30  15  36  1   
 31  16  17  1   
 32  16  18  1   
 33  16  37  1   
 34  17  19  1   
 35  17  38  1   
 36  17  39  1   
 37  18  20  1   
 38  18  40  1   
 39  18  41  1   
 40  19  21  1   
 41  19  22  1   
 42  19  42  1   
 43  20  21  1   
 44  20  43  1   
 45  20  44  1   
 46  21  45  1   
 47  21  46  1   
 48  22  23  1   
 49  22  47  1   
 50  22  48  1   
 51  23  49  1   
@<TRIPOS>SUBSTRUCTURE
  1 ****  14 GROUP 4 **** **** 0

# MOE 2024.06 (io_trps.svl 2023.06)
