@<TRIPOS>MOLECULE
NONAME
43 45 1 0 0 
SMALL
USER_CHARGES


@<TRIPOS>ATOM
  1 O        0.9890    -0.2750     2.3030 O.3   1 <1>  -0.6800 
  2 C        1.4440    -0.1400     0.9970 C.3   1 <1>   0.2000 
  3 C        2.3810    -1.2810     0.6280 C.3   1 <1>  -0.0800 
  4 C        2.2960     1.1160     0.8210 C.3   1 <1>   0.2090 
  5 C        3.2180    -0.6880    -0.5060 C.3   1 <1>   0.2090 
  6 C        1.6560    -2.5820     0.2480 C.3   1 <1>  -0.0170 
  7 N        3.3040     0.7730    -0.2240 N.pl3 1 <1>  -0.8380 
  8 C        2.6340    -3.6440    -0.2250 C.ar  1 <1>   0.1660 
  9 C        4.5650     1.3180    -0.0710 C.ar  1 <1>   0.4100 
 10 N        2.8540    -3.6990    -1.5290 N.ar  1 <1>  -0.6200 
 11 C        3.2400    -4.4800     0.7010 C.ar  1 <1>  -0.1500 
 12 N        5.3090     0.7660     0.8820 N.ar  1 <1>  -0.6200 
 13 C        4.9920     2.3830    -0.8760 C.ar  1 <1>   0.0730 
 14 C        3.7130    -4.6230    -1.9270 C.ar  1 <1>   0.1600 
 15 C        4.1330    -5.4390     0.2720 C.ar  1 <1>  -0.1500 
 16 C        6.5160     1.2640     1.0520 C.ar  1 <1>   0.1670 
 17 C        4.1120     2.9180    -1.8710 C.1   1 <1>   0.4840 
 18 C        6.2680     2.8940    -0.6820 C.ar  1 <1>  -0.1430 
 19 C        4.3690    -5.5040    -1.0840 C.ar  1 <1>  -0.1500 
 20 C        7.0330     2.3090     0.3080 C.ar  1 <1>  -0.1500 
 21 C        7.3450     0.6170     2.1400 C.3   1 <1>  -0.0970 
 22 N        3.4560     3.3990    -2.6740 N.1   1 <1>  -0.5570 
 23 C        6.8270     4.0480    -1.5060 C.3   1 <1>  -0.0970 
 24 H        0.4530    -1.0840     2.3970 H     1 <1>   0.4000 
 25 H        0.5970    -0.0950     0.3340 H     1 <1>   0.0800 
 26 H        3.0540    -1.4640     1.4490 H     1 <1>   0.0800 
 27 H        2.7960     1.3570     1.7440 H     1 <1>   0.0800 
 28 H        1.6940     1.9460     0.4990 H     1 <1>   0.0800 
 29 H        2.7280    -0.8300    -1.4540 H     1 <1>   0.0800 
 30 H        4.1930    -1.1460    -0.5480 H     1 <1>   0.0800 
 31 H        0.9430    -2.3910    -0.5350 H     1 <1>   0.0800 
 32 H        1.1140    -2.9540     1.0980 H     1 <1>   0.0800 
 33 H        3.0210    -4.3820     1.7480 H     1 <1>   0.1500 
 34 H        3.9060    -4.6830    -2.9850 H     1 <1>   0.1500 
 35 H        4.6220    -6.1040     0.9630 H     1 <1>   0.1500 
 36 H        5.0540    -6.2280    -1.4860 H     1 <1>   0.1500 
 37 H        8.0290     2.6630     0.5040 H     1 <1>   0.1500 
 38 H        8.3140     1.0750     2.2180 H     1 <1>   0.0800 
 39 H        7.4700    -0.4280     1.9220 H     1 <1>   0.0800 
 40 H        6.8370     0.7140     3.0820 H     1 <1>   0.0800 
 41 H        7.8310     4.2880    -1.2050 H     1 <1>   0.0800 
 42 H        6.2170     4.9250    -1.3780 H     1 <1>   0.0800 
 43 H        6.8400     3.7850    -2.5490 H     1 <1>   0.0800 
@<TRIPOS>BOND
  1   1   2  1   
  2   1  24  1   
  3   2   3  1   
  4   2   4  1   
  5   2  25  1   
  6   3   5  1   
  7   3   6  1   
  8   3  26  1   
  9   4   7  1   
 10   4  27  1   
 11   4  28  1   
 12   5   7  1   
 13   5  29  1   
 14   5  30  1   
 15   6   8  1   
 16   6  31  1   
 17   6  32  1   
 18   7   9  1   
 19   8  10  ar  
 20   8  11  ar  
 21   9  12  ar  
 22   9  13  ar  
 23  10  14  ar  
 24  11  15  ar  
 25  11  33  1   
 26  12  16  ar  
 27  13  17  1   
 28  13  18  ar  
 29  14  19  ar  
 30  14  34  1   
 31  15  19  ar  
 32  15  35  1   
 33  16  20  ar  
 34  16  21  1   
 35  17  22  3   
 36  18  20  ar  
 37  18  23  1   
 38  19  36  1   
 39  20  37  1   
 40  21  38  1   
 41  21  39  1   
 42  21  40  1   
 43  23  41  1   
 44  23  42  1   
 45  23  43  1   
@<TRIPOS>SUBSTRUCTURE
  1 ****   5 GROUP 4 **** **** 0

# MOE 2024.06 (io_trps.svl 2023.06)
