@<TRIPOS>MOLECULE
NONAME
51 53 1 0 0 
SMALL
USER_CHARGES


@<TRIPOS>ATOM
  1 O       -1.6600    -0.3220    -0.8410 O.2   1 <1>  -0.5700 
  2 C       -2.3130     0.5790    -0.3200 C.2   1 <1>   0.6160 
  3 N       -2.0700     1.9000    -0.7030 N.am  1 <1>  -0.4690 
  4 C       -3.3320     0.3000     0.6460 C.2   1 <1>   0.0290 
  5 C       -2.8290     2.9260    -0.1700 C.2   1 <1>  -0.0290 
  6 C       -0.9550     2.1580    -1.6660 C.3   1 <1>   0.1400 
  7 C       -4.0730     1.3380     1.1630 C.2   1 <1>  -0.1380 
  8 C       -3.5130    -1.0720     1.0290 C.2   1 <1>   0.6160 
  9 C       -3.8060     2.6530     0.7390 C.2   1 <1>  -0.1500 
 10 C       -2.5790     4.3670    -0.5940 C.3   1 <1>  -0.1020 
 11 C        0.3650     2.3040    -0.9070 C.3   1 <1>  -0.2400 
 12 C       -5.1840     1.1590     2.1920 C.3   1 <1>  -0.1020 
 13 O       -3.2250    -1.4320     2.1570 O.2   1 <1>  -0.5700 
 14 N       -4.0840    -1.9970     0.1840 N.am  1 <1>  -0.6600 
 15 C       -4.4910    -1.7540    -1.2220 C.3   1 <1>   0.1400 
 16 C       -4.1780    -3.4410     0.5060 C.3   1 <1>   0.1400 
 17 C       -5.3220    -2.9830    -1.5830 C.3   1 <1>   0.2000 
 18 C       -4.6530    -4.1120    -0.7890 C.3   1 <1>  -0.0800 
 19 O       -6.6100    -2.7810    -1.1080 O.3   1 <1>  -0.6800 
 20 C       -5.5250    -5.3610    -0.5630 C.3   1 <1>  -0.0160 
 21 C       -4.7470    -6.4490     0.1620 C.ar  1 <1>  -0.1440 
 22 C       -4.8490    -6.6390     1.5250 C.ar  1 <1>  -0.1500 
 23 C       -3.8960    -7.3030    -0.5100 C.ar  1 <1>  -0.1500 
 24 C       -4.1150    -7.6440     2.1330 C.ar  1 <1>   0.1600 
 25 C       -3.2080    -8.2780     0.1940 C.ar  1 <1>   0.1600 
 26 N       -3.2970    -8.4690     1.5000 N.ar  1 <1>  -0.6200 
 27 H       -0.8790     1.3440    -2.3670 H     1 <1>   0.0800 
 28 H       -1.1480     3.0440    -2.2410 H     1 <1>   0.0800 
 29 H       -4.4000     3.4470     1.1590 H     1 <1>   0.1500 
 30 H       -1.5620     4.6470    -0.3910 H     1 <1>   0.0800 
 31 H       -3.2210     5.0410    -0.0550 H     1 <1>   0.0800 
 32 H       -2.7800     4.4860    -1.6430 H     1 <1>   0.0800 
 33 H        0.5920     1.3900    -0.3870 H     1 <1>   0.0800 
 34 H        0.3100     3.1110    -0.2000 H     1 <1>   0.0800 
 35 H        1.1610     2.5060    -1.6000 H     1 <1>   0.0800 
 36 H       -6.0800     1.6470     1.8550 H     1 <1>   0.0800 
 37 H       -4.8830     1.5960     3.1280 H     1 <1>   0.0800 
 38 H       -5.4140     0.1230     2.3660 H     1 <1>   0.0800 
 39 H       -5.0520    -0.8410    -1.3310 H     1 <1>   0.0800 
 40 H       -3.6110    -1.7160    -1.8410 H     1 <1>   0.0800 
 41 H       -3.2210    -3.8250     0.8210 H     1 <1>   0.0800 
 42 H       -4.8920    -3.5750     1.3000 H     1 <1>   0.0800 
 43 H       -5.3690    -3.1690    -2.6420 H     1 <1>   0.0800 
 44 H       -3.7730    -4.4100    -1.3310 H     1 <1>   0.0800 
 45 H       -6.5490    -2.4610    -0.1860 H     1 <1>   0.4000 
 46 H       -5.8620    -5.7380    -1.5130 H     1 <1>   0.0800 
 47 H       -6.4010    -5.1090     0.0090 H     1 <1>   0.0800 
 48 H       -5.4900    -6.0170     2.1220 H     1 <1>   0.1500 
 49 H       -3.7620    -7.2210    -1.5730 H     1 <1>   0.1500 
 50 H       -4.2060    -7.7770     3.1980 H     1 <1>   0.1500 
 51 H       -2.5480    -8.9340    -0.3470 H     1 <1>   0.1500 
@<TRIPOS>BOND
  1   1   2  2   
  2   2   3  am  
  3   2   4  1   
  4   3   5  1   
  5   3   6  1   
  6   4   7  2   
  7   4   8  1   
  8   5   9  2   
  9   5  10  1   
 10   6  11  1   
 11   6  27  1   
 12   6  28  1   
 13   7   9  1   
 14   7  12  1   
 15   8  13  2   
 16   8  14  am  
 17   9  29  1   
 18  10  30  1   
 19  10  31  1   
 20  10  32  1   
 21  11  33  1   
 22  11  34  1   
 23  11  35  1   
 24  12  36  1   
 25  12  37  1   
 26  12  38  1   
 27  14  15  1   
 28  14  16  1   
 29  15  17  1   
 30  15  39  1   
 31  15  40  1   
 32  16  18  1   
 33  16  41  1   
 34  16  42  1   
 35  17  18  1   
 36  17  19  1   
 37  17  43  1   
 38  18  20  1   
 39  18  44  1   
 40  19  45  1   
 41  20  21  1   
 42  20  46  1   
 43  20  47  1   
 44  21  22  ar  
 45  21  23  ar  
 46  22  24  ar  
 47  22  48  1   
 48  23  25  ar  
 49  23  49  1   
 50  24  26  ar  
 51  24  50  1   
 52  25  26  ar  
 53  25  51  1   
@<TRIPOS>SUBSTRUCTURE
  1 ****  14 GROUP 4 **** **** 0

# MOE 2024.06 (io_trps.svl 2023.06)
