@<TRIPOS>MOLECULE
NONAME
45 48 1 0 0 
SMALL
USER_CHARGES


@<TRIPOS>ATOM
  1 O       -0.5630     0.1710     0.7760 O.2   1 <1>  -0.5700 
  2 C       -1.5530     0.7370     0.3770 C.2   1 <1>   0.6300 
  3 N       -2.5910     0.0490    -0.1920 N.am  1 <1>  -0.6600 
  4 C       -1.6330     2.2620     0.5430 C.3   1 <1>  -0.0950 
  5 C       -3.8900     0.6150    -0.6300 C.3   1 <1>   0.1400 
  6 C       -2.5860    -1.4230    -0.3450 C.3   1 <1>   0.1400 
  7 C       -0.4760     3.0820     0.0510 C.3   1 <1>  -0.2000 
  8 C       -1.7940     3.1450    -0.6620 C.3   1 <1>  -0.2000 
  9 C       -2.2710     2.6780     1.8750 C.3   1 <1>  -0.1450 
 10 C       -4.7530    -0.5930    -1.0000 C.3   1 <1>   0.2000 
 11 C       -4.0640    -1.8130    -0.3880 C.3   1 <1>  -0.0800 
 12 O       -6.0360    -0.4740    -0.4890 O.3   1 <1>  -0.6800 
 13 C       -4.3440    -3.1070    -1.1700 C.3   1 <1>  -0.0170 
 14 C       -3.6210    -4.2920    -0.5540 C.ar  1 <1>   0.1670 
 15 N       -2.4130    -4.5330    -0.9630 N.ar  1 <1>  -0.6200 
 16 C       -4.2780    -5.0560     0.4240 C.ar  1 <1>  -0.1500 
 17 C       -1.7520    -5.5780    -0.4040 C.ar  1 <1>   0.3100 
 18 C       -3.6400    -6.1130     0.9980 C.ar  1 <1>  -0.1500 
 19 C       -2.3290    -6.4030     0.5870 C.ar  1 <1>   0.0000 
 20 C       -0.4400    -5.8530    -0.8210 C.ar  1 <1>  -0.1500 
 21 C       -1.5730    -7.4680     1.1160 C.ar  1 <1>  -0.1500 
 22 C        0.2790    -6.8920    -0.2930 C.ar  1 <1>  -0.1500 
 23 C       -0.2960    -7.7090     0.6870 C.ar  1 <1>  -0.1500 
 24 H       -4.3320     1.1770     0.1730 H     1 <1>   0.0800 
 25 H       -3.7470     1.2460    -1.4890 H     1 <1>   0.0800 
 26 H       -2.0910    -1.6790    -1.2670 H     1 <1>   0.0800 
 27 H       -2.0730    -1.9010     0.4740 H     1 <1>   0.0800 
 28 H       -0.1540     3.9310     0.6290 H     1 <1>   0.1000 
 29 H        0.3470     2.5670    -0.4140 H     1 <1>   0.1000 
 30 H       -1.8480     2.7040    -1.6420 H     1 <1>   0.1000 
 31 H       -2.3810     4.0430    -0.5800 H     1 <1>   0.1000 
 32 H       -2.2820     3.7480     1.9780 H     1 <1>   0.0800 
 33 H       -1.7060     2.2610     2.6900 H     1 <1>   0.0800 
 34 H       -3.2800     2.3160     1.9370 H     1 <1>   0.0800 
 35 H       -4.8210    -0.6750    -2.0720 H     1 <1>   0.0800 
 36 H       -4.3850    -1.9360     0.6310 H     1 <1>   0.0800 
 37 H       -6.0080    -0.4310     0.4860 H     1 <1>   0.4000 
 38 H       -4.0220    -2.9950    -2.1910 H     1 <1>   0.0800 
 39 H       -5.4020    -3.2970    -1.1830 H     1 <1>   0.0800 
 40 H       -5.2800    -4.7950     0.7100 H     1 <1>   0.1500 
 41 H       -4.1100    -6.7220     1.7500 H     1 <1>   0.1500 
 42 H       -0.0170    -5.2120    -1.5720 H     1 <1>   0.1500 
 43 H       -2.0200    -8.0910     1.8700 H     1 <1>   0.1500 
 44 H        1.2840    -7.0910    -0.6220 H     1 <1>   0.1500 
 45 H        0.2800    -8.5220     1.0930 H     1 <1>   0.1500 
@<TRIPOS>BOND
  1   1   2  2   
  2   2   3  am  
  3   2   4  1   
  4   3   5  1   
  5   3   6  1   
  6   4   7  1   
  7   4   8  1   
  8   4   9  1   
  9   5  10  1   
 10   5  24  1   
 11   5  25  1   
 12   6  11  1   
 13   6  26  1   
 14   6  27  1   
 15   7   8  1   
 16   7  28  1   
 17   7  29  1   
 18   8  30  1   
 19   8  31  1   
 20   9  32  1   
 21   9  33  1   
 22   9  34  1   
 23  10  11  1   
 24  10  12  1   
 25  10  35  1   
 26  11  13  1   
 27  11  36  1   
 28  12  37  1   
 29  13  14  1   
 30  13  38  1   
 31  13  39  1   
 32  14  15  ar  
 33  14  16  ar  
 34  15  17  ar  
 35  16  18  ar  
 36  16  40  1   
 37  17  19  ar  
 38  17  20  ar  
 39  18  19  ar  
 40  18  41  1   
 41  19  21  ar  
 42  20  22  ar  
 43  20  42  1   
 44  21  23  ar  
 45  21  43  1   
 46  22  23  ar  
 47  22  44  1   
 48  23  45  1   
@<TRIPOS>SUBSTRUCTURE
  1 ****   6 GROUP 4 **** **** 0

# MOE 2024.06 (io_trps.svl 2023.06)
