@<TRIPOS>MOLECULE
NONAME
44 45 1 0 0 
SMALL
USER_CHARGES


@<TRIPOS>ATOM
  1 CL      -0.9500    -0.9180    -1.3790 Cl    1 <1>  -0.1770 
  2 C        0.3300    -1.4710    -0.3230 C.ar  1 <1>   0.1770 
  3 C        1.1510    -2.5360    -0.6860 C.ar  1 <1>  -0.1440 
  4 C        0.4850    -0.8150     0.8840 C.ar  1 <1>  -0.1500 
  5 C        2.1480    -2.9430     0.1930 C.ar  1 <1>  -0.1500 
  6 C        1.0030    -3.2830    -2.0130 C.3   1 <1>   0.0450 
  7 C        1.4850    -1.2480     1.7300 C.ar  1 <1>   0.1900 
  8 C        2.3210    -2.3000     1.4080 C.ar  1 <1>  -0.1500 
  9 C        0.7130    -4.7620    -1.8080 C.2   1 <1>   0.5690 
 10 F        1.6460    -0.6420     2.8750 F     1 <1>  -0.1900 
 11 O        1.6060    -5.5460    -2.0280 O.2   1 <1>  -0.5700 
 12 N       -0.5190    -5.1860    -1.3890 N.am  1 <1>  -0.6600 
 13 C       -1.6770    -4.3250    -1.0380 C.3   1 <1>   0.1400 
 14 C       -0.8190    -6.6110    -1.1120 C.3   1 <1>   0.1400 
 15 C       -2.7900    -5.3040    -0.6690 C.3   1 <1>   0.2000 
 16 C       -2.0790    -6.5850    -0.2440 C.3   1 <1>  -0.0800 
 17 O       -3.5730    -4.8290     0.3690 O.3   1 <1>  -0.6800 
 18 C       -2.9760    -7.8260    -0.3850 C.3   1 <1>  -0.0550 
 19 S       -2.1950    -9.3290     0.1950 S.o2  1 <1>   1.3330 
 20 O       -1.1470    -9.6990    -0.7290 O.2   1 <1>  -0.6500 
 21 O       -1.8870    -9.1510     1.5960 O.2   1 <1>  -0.6500 
 22 N       -3.4380   -10.4770     0.0600 N.am  1 <1>  -0.8490 
 23 C       -3.5580   -11.0520    -1.2840 C.3   1 <1>   0.1160 
 24 C       -3.3140   -11.5500     1.0520 C.3   1 <1>   0.1160 
 25 H       -0.1510     0.0060     1.1570 H     1 <1>   0.1500 
 26 H        2.7950    -3.7670    -0.0660 H     1 <1>   0.1500 
 27 H        1.9240    -3.1920    -2.5600 H     1 <1>   0.0800 
 28 H        0.2340    -2.8680    -2.6330 H     1 <1>   0.0800 
 29 H        3.0890    -2.6080     2.0950 H     1 <1>   0.1500 
 30 H       -1.4200    -3.7090    -0.1950 H     1 <1>   0.0800 
 31 H       -1.9670    -3.7150    -1.8760 H     1 <1>   0.0800 
 32 H       -0.9970    -7.1180    -2.0460 H     1 <1>   0.0800 
 33 H        0.0050    -7.0860    -0.6040 H     1 <1>   0.0800 
 34 H       -3.4240    -5.4700    -1.5240 H     1 <1>   0.0800 
 35 H       -1.7570    -6.4910     0.7800 H     1 <1>   0.0800 
 36 H       -3.0390    -4.7160     1.1800 H     1 <1>   0.4000 
 37 H       -3.2640    -7.9450    -1.4100 H     1 <1>   0.0800 
 38 H       -3.8690    -7.6640     0.1890 H     1 <1>   0.0800 
 39 H       -4.4150   -11.7020    -1.3330 H     1 <1>   0.0800 
 40 H       -2.6740   -11.6180    -1.5320 H     1 <1>   0.0800 
 41 H       -3.6830   -10.2710    -2.0130 H     1 <1>   0.0800 
 42 H       -4.1250   -12.2500     0.9490 H     1 <1>   0.0800 
 43 H       -3.3510   -11.1380     2.0470 H     1 <1>   0.0800 
 44 H       -2.3780   -12.0690     0.9270 H     1 <1>   0.0800 
@<TRIPOS>BOND
  1   1   2  1   
  2   2   3  ar  
  3   2   4  ar  
  4   3   5  ar  
  5   3   6  1   
  6   4   7  ar  
  7   4  25  1   
  8   5   8  ar  
  9   5  26  1   
 10   6   9  1   
 11   6  27  1   
 12   6  28  1   
 13   7   8  ar  
 14   7  10  1   
 15   8  29  1   
 16   9  11  2   
 17   9  12  am  
 18  12  13  1   
 19  12  14  1   
 20  13  15  1   
 21  13  30  1   
 22  13  31  1   
 23  14  16  1   
 24  14  32  1   
 25  14  33  1   
 26  15  16  1   
 27  15  17  1   
 28  15  34  1   
 29  16  18  1   
 30  16  35  1   
 31  17  36  1   
 32  18  19  1   
 33  18  37  1   
 34  18  38  1   
 35  19  20  2   
 36  19  21  2   
 37  19  22  am  
 38  22  23  1   
 39  22  24  1   
 40  23  39  1   
 41  23  40  1   
 42  23  41  1   
 43  24  42  1   
 44  24  43  1   
 45  24  44  1   
@<TRIPOS>SUBSTRUCTURE
  1 ****  12 GROUP 4 **** **** 0

# MOE 2024.06 (io_trps.svl 2023.06)
