@<TRIPOS>MOLECULE
NONAME
47 48 1 0 0 
SMALL
USER_CHARGES


@<TRIPOS>ATOM
  1 CL      -0.1240     0.5780    -0.1130 Cl    1 <1>  -0.1770 
  2 C        0.0050     2.2950     0.1720 C.ar  1 <1>   0.1770 
  3 C        1.1960     2.9400    -0.0990 C.ar  1 <1>  -0.1500 
  4 C       -1.0890     2.9810     0.6670 C.ar  1 <1>  -0.1500 
  5 C        1.3010     4.3030     0.1260 C.ar  1 <1>   0.0830 
  6 C       -0.9860     4.3440     0.8940 C.ar  1 <1>  -0.1500 
  7 O        2.4950     4.8770    -0.1630 O.3   1 <1>  -0.3630 
  8 C        0.2030     5.0030     0.6260 C.ar  1 <1>  -0.1500 
  9 C        2.6960     6.2660    -0.0050 C.3   1 <1>   0.1200 
 10 C        4.1370     6.5960    -0.3910 C.3   1 <1>   0.1400 
 11 N        4.3330     8.0770    -0.4700 N.am  1 <1>  -0.6600 
 12 C        4.5020     8.8000     0.6930 C.2   1 <1>   0.5690 
 13 C        4.3080     8.6090    -1.8640 C.3   1 <1>   0.0600 
 14 O        4.4480     8.2500     1.7680 O.2   1 <1>  -0.5700 
 15 C        4.7450    10.3160     0.7270 C.3   1 <1>  -0.0190 
 16 C        3.5360    11.1420     0.2370 C.3   1 <1>  -0.1600 
 17 C        6.0860    10.7440     0.0800 C.3   1 <1>  -0.1600 
 18 C        3.7350    12.6500     0.4690 C.3   1 <1>   0.2000 
 19 C        6.0480    12.1580    -0.5270 C.3   1 <1>  -0.1600 
 20 O        2.9360    13.3060    -0.4850 O.3   1 <1>  -0.5600 
 21 C        5.2170    13.1050     0.3420 C.3   1 <1>   0.2000 
 22 C        2.0880    14.2840     0.0350 C.3   1 <1>   0.0400 
 23 O        5.2730    14.3580    -0.2340 O.3   1 <1>  -0.6800 
 24 H        2.0350     2.3900    -0.4820 H     1 <1>   0.1500 
 25 H       -2.0030     2.4540     0.8690 H     1 <1>   0.1500 
 26 H       -1.8300     4.8890     1.2810 H     1 <1>   0.1500 
 27 H        0.2550     6.0590     0.8140 H     1 <1>   0.1500 
 28 H        2.0070     6.7800    -0.6510 H     1 <1>   0.0800 
 29 H        2.5210     6.5240     1.0250 H     1 <1>   0.0800 
 30 H        4.3670     6.1460    -1.3400 H     1 <1>   0.0800 
 31 H        4.8030     6.1870     0.3500 H     1 <1>   0.0800 
 32 H        4.9770     8.0360    -2.4830 H     1 <1>   0.0800 
 33 H        4.6170     9.6350    -1.9090 H     1 <1>   0.0800 
 34 H        3.3120     8.5310    -2.2620 H     1 <1>   0.0800 
 35 H        4.8400    10.5610     1.7720 H     1 <1>   0.0800 
 36 H        2.6510    10.8240     0.7600 H     1 <1>   0.0800 
 37 H        3.3760    10.9730    -0.8110 H     1 <1>   0.0800 
 38 H        6.8480    10.7090     0.8410 H     1 <1>   0.0800 
 39 H        6.3900    10.0480    -0.6810 H     1 <1>   0.0800 
 40 H        3.3910    12.8950     1.4610 H     1 <1>   0.0800 
 41 H        5.6100    12.1130    -1.5090 H     1 <1>   0.0800 
 42 H        7.0520    12.5350    -0.6200 H     1 <1>   0.0800 
 43 H        5.6670    13.1720     1.3180 H     1 <1>   0.0800 
 44 H        1.5570    14.7380    -0.7830 H     1 <1>   0.0800 
 45 H        2.6730    15.0280     0.5490 H     1 <1>   0.0800 
 46 H        1.3870    13.8220     0.7090 H     1 <1>   0.0800 
 47 H        4.5030    14.4090    -0.8430 H     1 <1>   0.4000 
@<TRIPOS>BOND
  1   1   2  1   
  2   2   3  ar  
  3   2   4  ar  
  4   3   5  ar  
  5   3  24  1   
  6   4   6  ar  
  7   4  25  1   
  8   5   7  1   
  9   5   8  ar  
 10   6   8  ar  
 11   6  26  1   
 12   7   9  1   
 13   8  27  1   
 14   9  10  1   
 15   9  28  1   
 16   9  29  1   
 17  10  11  1   
 18  10  30  1   
 19  10  31  1   
 20  11  12  am  
 21  11  13  1   
 22  12  14  2   
 23  12  15  1   
 24  13  32  1   
 25  13  33  1   
 26  13  34  1   
 27  15  16  1   
 28  15  17  1   
 29  15  35  1   
 30  16  18  1   
 31  16  36  1   
 32  16  37  1   
 33  17  19  1   
 34  17  38  1   
 35  17  39  1   
 36  18  20  1   
 37  18  21  1   
 38  18  40  1   
 39  19  21  1   
 40  19  41  1   
 41  19  42  1   
 42  20  22  1   
 43  21  23  1   
 44  21  43  1   
 45  22  44  1   
 46  22  45  1   
 47  22  46  1   
 48  23  47  1   
@<TRIPOS>SUBSTRUCTURE
  1 ****  11 GROUP 4 **** **** 0

# MOE 2024.06 (io_trps.svl 2023.06)
