@<TRIPOS>MOLECULE
NONAME
56 59 1 0 0 
SMALL
USER_CHARGES


@<TRIPOS>ATOM
  1 O       -0.1330    -0.7060     1.6540 O.2   1 <1>  -0.5700 
  2 C       -0.7720     0.2230     1.2160 C.2   1 <1>   0.5690 
  3 N       -1.9940     0.0000     0.6210 N.am  1 <1>  -0.6600 
  4 C       -0.1790     1.6220     1.3650 C.3   1 <1>   0.0820 
  5 C       -2.4110    -1.3720     0.2370 C.3   1 <1>   0.1400 
  6 C       -2.9750     1.0730     0.2760 C.3   1 <1>   0.1400 
  7 C       -0.1840     2.4170     0.0630 C.2   1 <1>  -0.1810 
  8 C       -3.8650    -1.5210     0.6980 C.3   1 <1>   0.4230 
  9 C       -4.4360     0.6280     0.5410 C.3   1 <1>  -0.1600 
 10 C       -0.8490     3.6530    -0.1170 C.ar  1 <1>   0.0000 
 11 C        0.4090     2.0910    -1.1120 C.2   1 <1>  -0.3320 
 12 N       -4.2970    -2.8900     1.1690 N.4   1 <1>  -0.9590 
 13 C       -4.8400    -0.7100    -0.2770 C.3   1 <1>   0.0000 
 14 C       -0.6400     4.0180    -1.4430 C.ar  1 <1>  -0.1520 
 15 C       -1.6060     4.4920     0.7100 C.ar  1 <1>  -0.1500 
 16 N        0.1380     3.0600    -2.0360 N.pl3 1 <1>   0.0330 
 17 C        1.2580     0.8820    -1.4660 C.3   1 <1>  -0.0600 
 18 C       -4.1220    -3.9410     0.1550 C.3   1 <1>   0.3430 
 19 C       -3.6370    -3.2630     2.4590 C.3   1 <1>   0.2630 
 20 C       -5.2130    -2.0100    -1.1630 C.3   1 <1>  -0.1600 
 21 C       -5.8550     0.1520    -1.1720 C.3   1 <1>   0.1200 
 22 C       -1.1830     5.1950    -1.9640 C.ar  1 <1>  -0.1500 
 23 C       -2.1420     5.6520     0.1980 C.ar  1 <1>  -0.1500 
 24 C       -4.4010    -3.3310    -1.2020 C.3   1 <1>  -0.1600 
 25 O       -7.0090     0.3610    -0.4200 O.3   1 <1>  -0.6800 
 26 C       -1.9320     6.0030    -1.1400 C.ar  1 <1>  -0.1500 
 27 H       -0.7220     2.1440     2.1280 H     1 <1>   0.0800 
 28 H        0.8370     1.5310     1.7000 H     1 <1>   0.0800 
 29 H       -2.3240    -1.4720    -0.8290 H     1 <1>   0.0800 
 30 H       -1.7850    -2.1060     0.7120 H     1 <1>   0.0800 
 31 H       -2.7780     1.9530     0.8620 H     1 <1>   0.0800 
 32 H       -2.8520     1.3370    -0.7620 H     1 <1>   0.0800 
 33 H       -3.8280    -1.0210     1.6460 H     1 <1>   0.0800 
 34 H       -4.6110     0.5450     1.6020 H     1 <1>   0.0800 
 35 H       -4.9960     1.5330     0.3660 H     1 <1>   0.0800 
 36 H       -5.3100    -2.7980     1.3320 H     1 <1>   0.4500 
 37 H       -1.7590     4.2270     1.7390 H     1 <1>   0.1500 
 38 H        0.4650     3.0840    -3.0070 H     1 <1>   0.2700 
 39 H        1.4090     0.2540    -0.6060 H     1 <1>   0.0800 
 40 H        2.2220     1.1990    -1.8220 H     1 <1>   0.0800 
 41 H        0.7760     0.3010    -2.2310 H     1 <1>   0.0800 
 42 H       -3.1150    -4.3280     0.1770 H     1 <1>   0.0800 
 43 H       -4.8080    -4.7500     0.3480 H     1 <1>   0.0800 
 44 H       -2.5700    -3.3460     2.3270 H     1 <1>   0.0800 
 45 H       -4.0160    -4.2070     2.8150 H     1 <1>   0.0800 
 46 H       -3.8300    -2.5120     3.2080 H     1 <1>   0.0800 
 47 H       -6.2350    -2.2820    -0.9460 H     1 <1>   0.0800 
 48 H       -5.1540    -1.7840    -2.2170 H     1 <1>   0.0800 
 49 H       -6.2270    -0.2400    -2.1030 H     1 <1>   0.0800 
 50 H       -5.4550     1.1050    -1.4840 H     1 <1>   0.0800 
 51 H       -1.0110     5.4590    -2.9920 H     1 <1>   0.1500 
 52 H       -2.7250     6.3040     0.8240 H     1 <1>   0.1500 
 53 H       -3.4620    -3.1670    -1.7030 H     1 <1>   0.0800 
 54 H       -4.9270    -4.0580    -1.7980 H     1 <1>   0.0800 
 55 H       -7.6530     0.9160    -0.9070 H     1 <1>   0.4000 
 56 H       -2.3600     6.9150    -1.5170 H     1 <1>   0.1500 
@<TRIPOS>BOND
  1   1   2  2   
  2   2   3  am  
  3   2   4  1   
  4   3   5  1   
  5   3   6  1   
  6   4   7  1   
  7   4  27  1   
  8   4  28  1   
  9   5   8  1   
 10   5  29  1   
 11   5  30  1   
 12   6   9  1   
 13   6  31  1   
 14   6  32  1   
 15   7  10  1   
 16   7  11  2   
 17   8  12  1   
 18   8  13  1   
 19   8  33  1   
 20   9  13  1   
 21   9  34  1   
 22   9  35  1   
 23  10  14  ar  
 24  10  15  ar  
 25  11  16  1   
 26  11  17  1   
 27  12  18  1   
 28  12  19  1   
 29  12  36  1   
 30  13  20  1   
 31  13  21  1   
 32  14  16  1   
 33  14  22  ar  
 34  15  23  ar  
 35  15  37  1   
 36  16  38  1   
 37  17  39  1   
 38  17  40  1   
 39  17  41  1   
 40  18  24  1   
 41  18  42  1   
 42  18  43  1   
 43  19  44  1   
 44  19  45  1   
 45  19  46  1   
 46  20  24  1   
 47  20  47  1   
 48  20  48  1   
 49  21  25  1   
 50  21  49  1   
 51  21  50  1   
 52  22  26  ar  
 53  22  51  1   
 54  23  26  ar  
 55  23  52  1   
 56  24  53  1   
 57  24  54  1   
 58  25  55  1   
 59  26  56  1   
@<TRIPOS>SUBSTRUCTURE
  1 ****   6 GROUP 4 **** **** 0

# MOE 2024.06 (io_trps.svl 2023.06)
