@<TRIPOS>MOLECULE
NONAME
33 35 1 0 0 
SMALL
USER_CHARGES


@<TRIPOS>ATOM
  1 O       -1.1410    -0.0900    -1.7080 O.2   1 <1>  -0.5700 
  2 C       -1.7870     0.5860    -0.9290 C.2   1 <1>   0.5440 
  3 N       -2.6950    -0.0150    -0.1010 N.am  1 <1>  -0.6600 
  4 C       -1.5890     2.0190    -0.9090 C.ar  1 <1>   0.0860 
  5 C       -3.6960     0.7040     0.7360 C.3   1 <1>   0.2350 
  6 C       -2.9550    -1.4810    -0.0670 C.3   1 <1>   0.2350 
  7 C       -1.0450     2.7230     0.1660 C.ar  1 <1>  -0.1440 
  8 C       -1.9620     2.7510    -2.0320 C.ar  1 <1>   0.1600 
  9 C       -4.8420    -0.2690     0.9280 C.3   1 <1>  -0.2420 
 10 C       -4.3810    -1.6230     0.4410 C.3   1 <1>  -0.2420 
 11 C       -0.9420     4.0920     0.0310 C.ar  1 <1>  -0.1500 
 12 C       -0.5700     2.0480     1.4470 C.3   1 <1>  -0.0960 
 13 N       -1.8670     4.0650    -2.1770 N.ar  1 <1>  -0.6200 
 14 C       -5.7030     0.1530     2.1240 C.2   1 <1>   0.9470 
 15 C       -5.5100    -0.9120    -0.2600 C.3   1 <1>  -0.2000 
 16 C       -4.6180    -3.0260     1.0020 C.2   1 <1>   0.9470 
 17 C       -1.3600     4.7050    -1.1370 C.ar  1 <1>   0.1600 
 18 O       -6.9220     0.3150     1.9760 O.co2 1 <1>  -0.9000 
 19 O       -5.1370     0.4990     3.1710 O.co2 1 <1>  -0.9000 
 20 O       -5.4630    -3.7600     0.4700 O.co2 1 <1>  -0.9000 
 21 O       -3.8540    -3.4610     1.8750 O.co2 1 <1>  -0.9000 
 22 H       -3.2550     0.9390     1.6890 H     1 <1>   0.0800 
 23 H       -4.0410     1.6050     0.2610 H     1 <1>   0.0800 
 24 H       -2.8500    -1.9210    -1.0420 H     1 <1>   0.0800 
 25 H       -2.2680    -1.9470     0.6180 H     1 <1>   0.0800 
 26 H       -2.3690     2.2000    -2.8630 H     1 <1>   0.1500 
 27 H       -0.5380     4.6910     0.8280 H     1 <1>   0.1500 
 28 H        0.3110     2.5360     1.8230 H     1 <1>   0.0800 
 29 H       -0.3310     1.0130     1.2780 H     1 <1>   0.0800 
 30 H       -1.3380     2.1020     2.1980 H     1 <1>   0.0800 
 31 H       -5.3520    -0.5100    -1.2430 H     1 <1>   0.1000 
 32 H       -6.5050    -1.3050    -0.1280 H     1 <1>   0.1000 
 33 H       -1.2730     5.7750    -1.2200 H     1 <1>   0.1500 
@<TRIPOS>BOND
  1   1   2  2   
  2   2   3  am  
  3   2   4  1   
  4   3   5  1   
  5   3   6  1   
  6   4   7  ar  
  7   4   8  ar  
  8   5   9  1   
  9   5  22  1   
 10   5  23  1   
 11   6  10  1   
 12   6  24  1   
 13   6  25  1   
 14   7  11  ar  
 15   7  12  1   
 16   8  13  ar  
 17   8  26  1   
 18   9  10  1   
 19   9  14  1   
 20   9  15  1   
 21  10  15  1   
 22  10  16  1   
 23  11  17  ar  
 24  11  27  1   
 25  12  28  1   
 26  12  29  1   
 27  12  30  1   
 28  13  17  ar  
 29  14  18  ar  
 30  14  19  ar  
 31  15  31  1   
 32  15  32  1   
 33  16  20  ar  
 34  16  21  ar  
 35  17  33  1   
@<TRIPOS>SUBSTRUCTURE
  1 ****   5 GROUP 4 **** **** 0

# MOE 2024.06 (io_trps.svl 2023.06)
