@<TRIPOS>MOLECULE
NONAME
38 40 1 0 0 
SMALL
USER_CHARGES


@<TRIPOS>ATOM
  1 O       -0.0230     0.0000     1.0670 O.3   1 <1>  -0.5600 
  2 C        0.7490     0.5580     0.0430 C.3   1 <1>   0.1200 
  3 C       -1.3690     0.3540     0.9210 C.3   1 <1>   0.1200 
  4 C       -0.0630     1.7160    -0.5270 C.3   1 <1>   0.2890 
  5 C       -1.4760     1.1790    -0.3620 C.3   1 <1>  -0.0800 
  6 N        0.1430     2.9220     0.3070 N.pl3 1 <1>  -0.8690 
  7 C       -2.5940     2.2370    -0.3430 C.3   1 <1>  -0.0170 
  8 C        0.4800     4.1440    -0.1540 C.ar  1 <1>   0.7200 
  9 C       -3.9610     1.5800    -0.2260 C.ar  1 <1>  -0.1440 
 10 N        1.0290     4.9350     0.7540 N.ar  1 <1>  -0.6200 
 11 N        0.2300     4.4240    -1.4280 N.ar  1 <1>  -0.6200 
 12 C       -4.6040     1.0370    -1.3200 C.ar  1 <1>  -0.1500 
 13 C       -4.6280     1.4910     0.9790 C.ar  1 <1>  -0.1500 
 14 C        1.3620     6.1330     0.3420 C.ar  1 <1>   0.1670 
 15 C        0.5730     5.6290    -1.8140 C.ar  1 <1>   0.1600 
 16 C       -5.8450     0.4430    -1.1590 C.ar  1 <1>   0.1600 
 17 C       -5.8670     0.8750     1.0320 C.ar  1 <1>   0.1600 
 18 C        1.1500     6.5350    -0.9560 C.ar  1 <1>  -0.1500 
 19 C        1.9910     7.0600     1.3610 C.3   1 <1>  -0.0970 
 20 N       -6.4920     0.3460    -0.0080 N.ar  1 <1>  -0.6200 
 21 H        1.7000     0.8730     0.4350 H     1 <1>   0.0800 
 22 H        0.8950    -0.2020    -0.7030 H     1 <1>   0.0800 
 23 H       -1.9690    -0.5390     0.8800 H     1 <1>   0.0800 
 24 H       -1.6430     0.9390     1.7820 H     1 <1>   0.0800 
 25 H        0.1880     1.9070    -1.5560 H     1 <1>   0.0800 
 26 H       -1.6670     0.4970    -1.1710 H     1 <1>   0.0800 
 27 H        0.4370     2.7480     1.2670 H     1 <1>   0.4000 
 28 H       -2.5500     2.8190    -1.2480 H     1 <1>   0.0800 
 29 H       -2.4550     2.9170     0.4790 H     1 <1>   0.0800 
 30 H       -4.1520     1.0710    -2.2940 H     1 <1>   0.1500 
 31 H       -4.1950     1.8940     1.8760 H     1 <1>   0.1500 
 32 H        0.3900     5.9030    -2.8390 H     1 <1>   0.1500 
 33 H       -6.3320     0.0240    -2.0230 H     1 <1>   0.1500 
 34 H       -6.3710     0.8150     1.9810 H     1 <1>   0.1500 
 35 H        1.4220     7.5170    -1.2940 H     1 <1>   0.1500 
 36 H        2.2250     8.0130     0.9260 H     1 <1>   0.0800 
 37 H        2.8950     6.6170     1.7380 H     1 <1>   0.0800 
 38 H        1.3110     7.2070     2.1800 H     1 <1>   0.0800 
@<TRIPOS>BOND
  1   1   2  1   
  2   1   3  1   
  3   2   4  1   
  4   2  21  1   
  5   2  22  1   
  6   3   5  1   
  7   3  23  1   
  8   3  24  1   
  9   4   5  1   
 10   4   6  1   
 11   4  25  1   
 12   5   7  1   
 13   5  26  1   
 14   6   8  1   
 15   6  27  1   
 16   7   9  1   
 17   7  28  1   
 18   7  29  1   
 19   8  10  ar  
 20   8  11  ar  
 21   9  12  ar  
 22   9  13  ar  
 23  10  14  ar  
 24  11  15  ar  
 25  12  16  ar  
 26  12  30  1   
 27  13  17  ar  
 28  13  31  1   
 29  14  18  ar  
 30  14  19  1   
 31  15  18  ar  
 32  15  32  1   
 33  16  20  ar  
 34  16  33  1   
 35  17  20  ar  
 36  17  34  1   
 37  18  35  1   
 38  19  36  1   
 39  19  37  1   
 40  19  38  1   
@<TRIPOS>SUBSTRUCTURE
  1 ****   7 GROUP 4 **** **** 0

# MOE 2024.06 (io_trps.svl 2023.06)
