@<TRIPOS>MOLECULE
NONAME
51 54 1 0 0 
SMALL
USER_CHARGES


@<TRIPOS>ATOM
  1 CL      -4.4310    -0.7910     3.7120 Cl    1 <1>  -0.1770 
  2 C       -4.4070    -1.7320     2.2390 C.ar  1 <1>   0.1770 
  3 C       -4.3890    -3.1150     2.3220 C.ar  1 <1>  -0.1500 
  4 C       -4.4060    -1.0750     1.0170 C.ar  1 <1>  -0.1500 
  5 C       -4.3690    -3.8360     1.1430 C.ar  1 <1>  -0.1440 
  6 C       -4.3860    -1.8150    -0.1560 C.ar  1 <1>  -0.1500 
  7 C       -4.3700    -3.1990    -0.0800 C.ar  1 <1>   0.1000 
  8 C       -4.3440    -5.3310     0.9440 C.3   1 <1>  -0.0160 
  9 N       -4.3480    -4.0810    -1.1390 N.pl3 1 <1>  -0.8690 
 10 C       -4.2210    -5.4790    -0.5850 C.3   1 <1>   0.3500 
 11 C       -5.1610    -6.5830    -1.1330 C.2   1 <1>   0.5690 
 12 O       -4.6470    -7.6710    -1.2750 O.2   1 <1>  -0.5700 
 13 N       -6.5050    -6.4150    -1.4110 N.am  1 <1>  -0.6600 
 14 C       -7.3350    -7.5670    -1.8940 C.3   1 <1>   0.1400 
 15 C       -7.2840    -5.1440    -1.3020 C.3   1 <1>   0.1400 
 16 C       -8.2400    -8.1440    -0.7930 C.3   1 <1>   0.1400 
 17 C       -7.8780    -4.9410     0.0970 C.3   1 <1>  -0.1600 
 18 N       -9.1020    -7.1000    -0.1460 N.am  1 <1>  -0.6600 
 19 C       -8.3610    -6.2170     0.7960 C.3   1 <1>   0.1400 
 20 C      -10.4580    -6.9500    -0.3150 C.2   1 <1>   0.5690 
 21 O      -11.0650    -6.0630     0.2410 O.2   1 <1>  -0.5700 
 22 C      -11.2680    -7.8550    -1.2310 C.3   1 <1>   0.0810 
 23 C      -11.6960    -9.1340    -0.5340 C.2   1 <1>  -0.0400 
 24 O      -10.8240   -10.0710    -0.2780 O.3   1 <1>  -0.0190 
 25 C      -12.8900    -9.5500    -0.0870 C.2   1 <1>  -0.1500 
 26 N      -11.3680   -11.0930     0.3150 N.2   1 <1>  -0.4100 
 27 C      -12.6140   -10.8070     0.4460 C.2   1 <1>   0.1080 
 28 C      -13.6330   -11.7170     1.0940 C.3   1 <1>  -0.0590 
 29 H       -4.3890    -3.6000     3.2800 H     1 <1>   0.1500 
 30 H       -4.4210    -0.0010     0.9900 H     1 <1>   0.1500 
 31 H       -4.3890    -1.3340    -1.1160 H     1 <1>   0.1500 
 32 H       -5.2490    -5.7790     1.3090 H     1 <1>   0.0800 
 33 H       -3.5010    -5.7800     1.4360 H     1 <1>   0.0800 
 34 H       -3.6580    -3.8710    -1.8670 H     1 <1>   0.4000 
 35 H       -3.2170    -5.8040    -0.7940 H     1 <1>   0.0800 
 36 H       -6.7000    -8.3540    -2.2620 H     1 <1>   0.0800 
 37 H       -7.9430    -7.2480    -2.7220 H     1 <1>   0.0800 
 38 H       -8.0970    -5.1790    -2.0060 H     1 <1>   0.0800 
 39 H       -6.6910    -4.2950    -1.5780 H     1 <1>   0.0800 
 40 H       -7.6220    -8.6090    -0.0440 H     1 <1>   0.0800 
 41 H       -8.8400    -8.9230    -1.2220 H     1 <1>   0.0800 
 42 H       -8.7090    -4.2640     0.0130 H     1 <1>   0.0800 
 43 H       -7.1550    -4.4520     0.7220 H     1 <1>   0.0800 
 44 H       -8.9960    -5.9540     1.6260 H     1 <1>   0.0800 
 45 H       -7.5160    -6.7510     1.1950 H     1 <1>   0.0800 
 46 H      -10.7120    -8.0840    -2.1190 H     1 <1>   0.0800 
 47 H      -12.1480    -7.3190    -1.5330 H     1 <1>   0.0800 
 48 H      -13.8460    -9.0610    -0.1110 H     1 <1>   0.1500 
 49 H      -14.0740   -11.2250     1.9410 H     1 <1>   0.0800 
 50 H      -13.1590   -12.6230     1.4250 H     1 <1>   0.0800 
 51 H      -14.4030   -11.9650     0.3870 H     1 <1>   0.0800 
@<TRIPOS>BOND
  1   1   2  1   
  2   2   3  ar  
  3   2   4  ar  
  4   3   5  ar  
  5   3  29  1   
  6   4   6  ar  
  7   4  30  1   
  8   5   7  ar  
  9   5   8  1   
 10   6   7  ar  
 11   6  31  1   
 12   7   9  1   
 13   8  10  1   
 14   8  32  1   
 15   8  33  1   
 16   9  10  1   
 17   9  34  1   
 18  10  11  1   
 19  10  35  1   
 20  11  12  2   
 21  11  13  am  
 22  13  14  1   
 23  13  15  1   
 24  14  16  1   
 25  14  36  1   
 26  14  37  1   
 27  15  17  1   
 28  15  38  1   
 29  15  39  1   
 30  16  18  1   
 31  16  40  1   
 32  16  41  1   
 33  17  19  1   
 34  17  42  1   
 35  17  43  1   
 36  18  19  1   
 37  18  20  am  
 38  19  44  1   
 39  19  45  1   
 40  20  21  2   
 41  20  22  1   
 42  22  23  1   
 43  22  46  1   
 44  22  47  1   
 45  23  24  1   
 46  23  25  2   
 47  24  26  1   
 48  25  27  1   
 49  25  48  1   
 50  26  27  2   
 51  27  28  1   
 52  28  49  1   
 53  28  50  1   
 54  28  51  1   
@<TRIPOS>SUBSTRUCTURE
  1 ****  19 GROUP 4 **** **** 0

# MOE 2024.06 (io_trps.svl 2023.06)
