@<TRIPOS>MOLECULE
NONAME
45 46 1 0 0 
SMALL
USER_CHARGES


@<TRIPOS>ATOM
  1 O       -0.8370    -0.0200     1.7810 O.2   1 <1>  -0.5700 
  2 C       -1.5530     0.4410     0.9240 C.2   1 <1>   0.5690 
  3 N       -2.2510    -0.3660     0.0590 N.am  1 <1>  -0.6600 
  4 C       -1.6280     1.9590     0.8590 C.3   1 <1>  -0.0990 
  5 C       -2.1430    -1.8470     0.1840 C.3   1 <1>   0.3200 
  6 C       -3.1150     0.1160    -1.0590 C.3   1 <1>   0.1400 
  7 C       -0.3260     2.5810     0.3280 C.3   1 <1>   0.0630 
  8 C       -3.4180    -2.4030     0.7860 C.2   1 <1>  -0.3320 
  9 C       -4.5380     0.4300    -0.5790 C.3   1 <1>   0.1200 
 10 C       -0.3860     4.1020     0.4550 C.ar  1 <1>  -0.1440 
 11 C       -0.0150     2.1700    -1.1190 C.3   1 <1>  -0.2400 
 12 N       -4.4370    -2.9840     0.1170 N.pl3 1 <1>   0.0480 
 13 C       -3.7600    -2.4180     2.0930 C.2   1 <1>   0.0770 
 14 O       -5.3450     0.6520    -1.6870 O.3   1 <1>  -0.6800 
 15 C        0.4590     4.7510     1.3430 C.ar  1 <1>  -0.1500 
 16 C       -1.2760     4.8580    -0.2980 C.ar  1 <1>  -0.1500 
 17 C       -5.3330    -3.3060     1.0770 C.2   1 <1>   0.0360 
 18 C       -4.5950    -3.2080    -1.3320 C.3   1 <1>   0.0160 
 19 N       -4.9660    -2.9860     2.2750 N.2   1 <1>  -0.5650 
 20 C        0.4190     6.1280     1.4780 C.ar  1 <1>  -0.1500 
 21 C       -1.3180     6.2350    -0.1650 C.ar  1 <1>  -0.1500 
 22 C       -0.4700     6.8720     0.7230 C.ar  1 <1>  -0.1500 
 23 H       -2.4620     2.2940     0.2790 H     1 <1>   0.0800 
 24 H       -1.7850     2.3120     1.8620 H     1 <1>   0.0800 
 25 H       -1.9490    -2.2840    -0.7790 H     1 <1>   0.0800 
 26 H       -1.3170    -2.1120     0.8220 H     1 <1>   0.0800 
 27 H       -2.6800     0.9920    -1.5030 H     1 <1>   0.0800 
 28 H       -3.1620    -0.6450    -1.8180 H     1 <1>   0.0800 
 29 H        0.4810     2.2200     0.9440 H     1 <1>   0.0800 
 30 H       -4.5640     1.3050     0.0470 H     1 <1>   0.0800 
 31 H       -4.9560    -0.3980    -0.0370 H     1 <1>   0.0800 
 32 H       -0.8090     2.4550    -1.7840 H     1 <1>   0.0800 
 33 H        0.1320     1.1070    -1.1860 H     1 <1>   0.0800 
 34 H        0.8890     2.6550    -1.4430 H     1 <1>   0.0800 
 35 H       -3.1880    -2.0370     2.9240 H     1 <1>   0.1500 
 36 H       -5.2310     1.5610    -2.0300 H     1 <1>   0.4000 
 37 H        1.1560     4.1880     1.9390 H     1 <1>   0.1500 
 38 H       -1.9420     4.3810    -0.9930 H     1 <1>   0.1500 
 39 H       -6.2680    -3.7860     0.8460 H     1 <1>   0.1500 
 40 H       -3.6620    -3.5330    -1.7520 H     1 <1>   0.0800 
 41 H       -4.9090    -2.2930    -1.8000 H     1 <1>   0.0800 
 42 H       -5.3400    -3.9640    -1.4980 H     1 <1>   0.0800 
 43 H        1.0800     6.6200     2.1700 H     1 <1>   0.1500 
 44 H       -2.0090     6.8120    -0.7530 H     1 <1>   0.1500 
 45 H       -0.5010     7.9420     0.8270 H     1 <1>   0.1500 
@<TRIPOS>BOND
  1   1   2  2   
  2   2   3  am  
  3   2   4  1   
  4   3   5  1   
  5   3   6  1   
  6   4   7  1   
  7   4  23  1   
  8   4  24  1   
  9   5   8  1   
 10   5  25  1   
 11   5  26  1   
 12   6   9  1   
 13   6  27  1   
 14   6  28  1   
 15   7  10  1   
 16   7  11  1   
 17   7  29  1   
 18   8  12  1   
 19   8  13  2   
 20   9  14  1   
 21   9  30  1   
 22   9  31  1   
 23  10  15  ar  
 24  10  16  ar  
 25  11  32  1   
 26  11  33  1   
 27  11  34  1   
 28  12  17  1   
 29  12  18  1   
 30  13  19  1   
 31  13  35  1   
 32  14  36  1   
 33  15  20  ar  
 34  15  37  1   
 35  16  21  ar  
 36  16  38  1   
 37  17  19  2   
 38  17  39  1   
 39  18  40  1   
 40  18  41  1   
 41  18  42  1   
 42  20  22  ar  
 43  20  43  1   
 44  21  22  ar  
 45  21  44  1   
 46  22  45  1   
@<TRIPOS>SUBSTRUCTURE
  1 ****   2 GROUP 4 **** **** 0

# MOE 2024.06 (io_trps.svl 2023.06)
