@<TRIPOS>MOLECULE
NONAME
46 49 1 0 0 
SMALL
USER_CHARGES


@<TRIPOS>ATOM
  1 O       -1.4540     0.2850     0.1210 O.2   1 <1>  -0.5700 
  2 C       -2.3260     1.1370     0.2200 C.2   1 <1>   0.7160 
  3 N       -3.5720     0.7000     0.6320 N.am  1 <1>  -0.6600 
  4 C       -2.0220     2.5260    -0.1260 C.2   1 <1>   0.2030 
  5 C       -3.7410    -0.6330     1.2790 C.3   1 <1>   0.1400 
  6 C       -4.8450     1.2430     0.0790 C.3   1 <1>   0.1400 
  7 N       -2.7290     3.6020     0.2020 N.2   1 <1>  -0.7070 
  8 C       -0.8930     2.8900    -0.8630 C.2   1 <1>  -0.1500 
  9 C       -4.2140    -1.6430     0.2070 C.3   1 <1>   0.4230 
 10 C       -5.3850     0.2520    -0.9650 C.3   1 <1>  -0.1600 
 11 N       -2.0580     4.6380    -0.3210 N.pl3 1 <1>   0.6010 
 12 C       -0.9270     4.2360    -0.9860 C.2   1 <1>  -0.0260 
 13 N       -4.3100    -3.0630     0.6880 N.4   1 <1>  -0.9590 
 14 C       -5.5650    -1.1820    -0.3850 C.3   1 <1>  -0.1060 
 15 C       -2.3680     5.9820    -0.2670 C.2   1 <1>  -0.1810 
 16 N       -0.0650     5.1090    -1.6200 N.2   1 <1>  -0.5760 
 17 C       -4.6490    -4.0010    -0.4120 C.3   1 <1>   0.3430 
 18 C       -3.1620    -3.5370     1.5050 C.3   1 <1>   0.2630 
 19 C       -6.6250    -1.1850     0.7350 C.2   1 <1>   0.9060 
 20 C       -5.9790    -2.1360    -1.5310 C.3   1 <1>  -0.1600 
 21 C       -1.5290     6.8540    -0.8850 C.2   1 <1>  -0.1360 
 22 C       -0.3730     6.3630    -1.5580 C.2   1 <1>   0.3760 
 23 C       -5.9730    -3.6010    -1.0690 C.3   1 <1>  -0.1600 
 24 O       -6.5160    -2.0050     1.6620 O.co2 1 <1>  -0.9000 
 25 O       -7.5520    -0.3790     0.6940 O.co2 1 <1>  -0.9000 
 26 H       -2.8030    -0.9400     1.7030 H     1 <1>   0.0800 
 27 H       -4.4590    -0.5500     2.0760 H     1 <1>   0.0800 
 28 H       -5.5590     1.3740     0.8770 H     1 <1>   0.0800 
 29 H       -4.6950     2.2000    -0.3870 H     1 <1>   0.0800 
 30 H       -0.1460     2.2210    -1.2510 H     1 <1>   0.1500 
 31 H       -3.4800    -1.6140    -0.5800 H     1 <1>   0.0800 
 32 H       -6.3330     0.6170    -1.3230 H     1 <1>   0.0800 
 33 H       -4.7110     0.2380    -1.8020 H     1 <1>   0.0800 
 34 H       -5.1710    -3.0030     1.3000 H     1 <1>   0.4500 
 35 H       -3.2610     6.2450     0.2660 H     1 <1>   0.1500 
 36 H       -3.8640    -3.9900    -1.1490 H     1 <1>   0.0800 
 37 H       -4.7390    -5.0020    -0.0220 H     1 <1>   0.0800 
 38 H       -2.2510    -3.4890     0.9310 H     1 <1>   0.0800 
 39 H       -3.3270    -4.5540     1.8200 H     1 <1>   0.0800 
 40 H       -3.0540    -2.9250     2.3850 H     1 <1>   0.0800 
 41 H       -6.9660    -1.8720    -1.8740 H     1 <1>   0.0800 
 42 H       -5.3010    -2.0260    -2.3600 H     1 <1>   0.0800 
 43 H       -1.7000     7.9150    -0.8870 H     1 <1>   0.1500 
 44 H        0.2680     7.0830    -2.0360 H     1 <1>   0.0600 
 45 H       -6.1560    -4.2420    -1.9140 H     1 <1>   0.0800 
 46 H       -6.7740    -3.7640    -0.3680 H     1 <1>   0.0800 
@<TRIPOS>BOND
  1   1   2  2   
  2   2   3  am  
  3   2   4  1   
  4   3   5  1   
  5   3   6  1   
  6   4   7  2   
  7   4   8  1   
  8   5   9  1   
  9   5  26  1   
 10   5  27  1   
 11   6  10  1   
 12   6  28  1   
 13   6  29  1   
 14   7  11  1   
 15   8  12  2   
 16   8  30  1   
 17   9  13  1   
 18   9  14  1   
 19   9  31  1   
 20  10  14  1   
 21  10  32  1   
 22  10  33  1   
 23  11  12  1   
 24  11  15  1   
 25  12  16  1   
 26  13  17  1   
 27  13  18  1   
 28  13  34  1   
 29  14  19  1   
 30  14  20  1   
 31  15  21  2   
 32  15  35  1   
 33  16  22  2   
 34  17  23  1   
 35  17  36  1   
 36  17  37  1   
 37  18  38  1   
 38  18  39  1   
 39  18  40  1   
 40  19  24  ar  
 41  19  25  ar  
 42  20  23  1   
 43  20  41  1   
 44  20  42  1   
 45  21  22  1   
 46  21  43  1   
 47  22  44  1   
 48  23  45  1   
 49  23  46  1   
@<TRIPOS>SUBSTRUCTURE
  1 ****   3 GROUP 4 **** **** 0

# MOE 2024.06 (io_trps.svl 2023.06)
