@<TRIPOS>MOLECULE
NONAME
48 51 1 0 0 
SMALL
USER_CHARGES


@<TRIPOS>ATOM
  1 CL       0.4500     1.1890    -1.6530 Cl    1 <1>  -0.1770 
  2 C       -0.9730     2.0530    -1.0860 C.ar  1 <1>   0.1770 
  3 C       -2.2270     1.5690    -1.4170 C.ar  1 <1>   0.1770 
  4 C       -0.8400     3.2130    -0.3120 C.ar  1 <1>   0.1000 
  5 CL      -2.4000     0.1210    -2.3840 Cl    1 <1>  -0.1770 
  6 C       -3.3740     2.2150    -0.9930 C.ar  1 <1>  -0.1500 
  7 N        0.3780     3.7800     0.0750 N.pl3 1 <1>  -0.8380 
  8 C       -2.0040     3.8490     0.1050 C.ar  1 <1>  -0.1500 
  9 C       -3.2580     3.3630    -0.2270 C.ar  1 <1>  -0.1500 
 10 C        1.2070     3.0230     1.0650 C.3   1 <1>   0.2090 
 11 C        1.2170     4.4040    -0.9980 C.3   1 <1>   0.2090 
 12 C        2.3180     3.9090     1.6650 C.3   1 <1>   0.2090 
 13 C        2.3300     5.2890    -0.4020 C.3   1 <1>   0.2090 
 14 N        3.1600     4.5420     0.6000 N.pl3 1 <1>  -0.8380 
 15 C        4.4010     5.0400     0.9630 C.ar  1 <1>   0.4100 
 16 N        4.5690     6.3480     0.8760 N.ar  1 <1>  -0.6200 
 17 C        5.4160     4.1790     1.4080 C.ar  1 <1>   0.1600 
 18 C        5.7840     6.7770     1.2640 C.ar  1 <1>   0.3960 
 19 N        6.6140     4.5580     1.7990 N.ar  1 <1>  -0.6200 
 20 C        6.1400     8.2010     1.2400 C.2   1 <1>   0.5440 
 21 C        6.7550     5.8740     1.7140 C.ar  1 <1>   0.1600 
 22 O        7.0280     8.5950     1.9800 O.2   1 <1>  -0.5700 
 23 N        5.5570     9.1480     0.4130 N.am  1 <1>  -0.6600 
 24 C        6.0240    10.5510     0.3550 C.3   1 <1>   0.1400 
 25 C        4.5160     8.9020    -0.6120 C.3   1 <1>   0.1400 
 26 C        5.5200    11.0720    -0.9840 C.3   1 <1>  -0.1600 
 27 C        4.2590    10.2590    -1.2590 C.3   1 <1>  -0.1600 
 28 H       -4.3400     1.8240    -1.2600 H     1 <1>   0.1500 
 29 H       -1.9130     4.7410     0.7000 H     1 <1>   0.1500 
 30 H       -4.1420     3.8780     0.1110 H     1 <1>   0.1500 
 31 H        1.6620     2.1750     0.5850 H     1 <1>   0.0800 
 32 H        0.5740     2.6610     1.8560 H     1 <1>   0.0800 
 33 H        0.5920     5.0000    -1.6380 H     1 <1>   0.0800 
 34 H        1.6730     3.6350    -1.5960 H     1 <1>   0.0800 
 35 H        2.9330     3.3120     2.3150 H     1 <1>   0.0800 
 36 H        1.8620     4.6830     2.2580 H     1 <1>   0.0800 
 37 H        1.8810     6.1430     0.0750 H     1 <1>   0.0800 
 38 H        2.9620     5.6450    -1.1970 H     1 <1>   0.0800 
 39 H        5.1960     3.1280     1.4260 H     1 <1>   0.1500 
 40 H        7.7080     6.2700     2.0200 H     1 <1>   0.1500 
 41 H        7.0980    10.6080     0.4230 H     1 <1>   0.0800 
 42 H        5.5810    11.1000     1.1680 H     1 <1>   0.0800 
 43 H        3.6170     8.5180    -0.1610 H     1 <1>   0.0800 
 44 H        4.8900     8.1990    -1.3370 H     1 <1>   0.0800 
 45 H        6.2600    10.8680    -1.7380 H     1 <1>   0.0800 
 46 H        5.3300    12.1310    -0.9550 H     1 <1>   0.0800 
 47 H        3.4160    10.7210    -0.7740 H     1 <1>   0.0800 
 48 H        4.0500    10.1690    -2.3100 H     1 <1>   0.0800 
@<TRIPOS>BOND
  1   1   2  1   
  2   2   3  ar  
  3   2   4  ar  
  4   3   5  1   
  5   3   6  ar  
  6   4   7  1   
  7   4   8  ar  
  8   6   9  ar  
  9   6  28  1   
 10   7  10  1   
 11   7  11  1   
 12   8   9  ar  
 13   8  29  1   
 14   9  30  1   
 15  10  12  1   
 16  10  31  1   
 17  10  32  1   
 18  11  13  1   
 19  11  33  1   
 20  11  34  1   
 21  12  14  1   
 22  12  35  1   
 23  12  36  1   
 24  13  14  1   
 25  13  37  1   
 26  13  38  1   
 27  14  15  1   
 28  15  16  ar  
 29  15  17  ar  
 30  16  18  ar  
 31  17  19  ar  
 32  17  39  1   
 33  18  20  1   
 34  18  21  ar  
 35  19  21  ar  
 36  20  22  2   
 37  20  23  am  
 38  21  40  1   
 39  23  24  1   
 40  23  25  1   
 41  24  26  1   
 42  24  41  1   
 43  24  42  1   
 44  25  27  1   
 45  25  43  1   
 46  25  44  1   
 47  26  27  1   
 48  26  45  1   
 49  26  46  1   
 50  27  47  1   
 51  27  48  1   
@<TRIPOS>SUBSTRUCTURE
  1 ****  13 GROUP 4 **** **** 0

# MOE 2024.06 (io_trps.svl 2023.06)
