@<TRIPOS>MOLECULE
NONAME
51 53 1 0 0 
SMALL
USER_CHARGES


@<TRIPOS>ATOM
  1 S       -0.8460     0.8770     1.1120 S.o2  1 <1>   1.4470 
  2 O       -0.9860    -0.1030     2.1660 O.2   1 <1>  -0.6500 
  3 O       -1.3900     2.2030     1.3030 O.2   1 <1>  -0.6500 
  4 N       -1.5770     0.2460    -0.2840 N.am  1 <1>  -0.8490 
  5 C        0.8970     1.0160     0.6210 C.ar  1 <1>  -0.0090 
  6 C       -3.0510     0.3500    -0.2660 C.3   1 <1>   0.1960 
  7 C       -1.1810    -1.1380    -0.6180 C.3   1 <1>   0.1960 
  8 C        1.2810     1.8480    -0.4230 C.ar  1 <1>  -0.1500 
  9 C        1.8910     0.2820     1.2560 C.ar  1 <1>  -0.1500 
 10 C       -3.7320    -0.7590     0.5770 C.3   1 <1>   0.2950 
 11 C       -1.9420    -2.2290     0.1830 C.3   1 <1>   0.2000 
 12 C        2.6040     1.9410    -0.8190 C.ar  1 <1>  -0.1500 
 13 C        3.2130     0.3740     0.8600 C.ar  1 <1>  -0.1500 
 14 O       -3.3180    -2.0090     0.1040 O.3   1 <1>  -0.5600 
 15 C       -5.2710    -0.7560     0.5290 C.3   1 <1>  -0.1950 
 16 C       -1.6900    -3.6440    -0.3530 C.3   1 <1>  -0.1600 
 17 C        3.6070     1.2080    -0.1860 C.ar  1 <1>   0.0860 
 18 C       -6.0720    -0.5120    -0.7120 C.3   1 <1>  -0.2000 
 19 C       -6.0960     0.4900     0.4090 C.3   1 <1>  -0.2000 
 20 C       -0.2240    -4.0870    -0.2080 C.3   1 <1>  -0.1600 
 21 C        5.0010     1.2920    -0.5860 C.2   1 <1>   0.5440 
 22 C       -0.0410    -5.5390    -0.6640 C.3   1 <1>  -0.1600 
 23 O        5.7790     0.3890    -0.3740 O.2   1 <1>  -0.5700 
 24 N        5.5090     2.3840    -1.2030 N.am  1 <1>  -0.8000 
 25 C        1.4200    -5.9770    -0.5290 C.3   1 <1>  -0.2400 
 26 H       -3.3470     1.3160     0.1030 H     1 <1>   0.0800 
 27 H       -3.4080     0.2740    -1.2770 H     1 <1>   0.0800 
 28 H       -1.3770    -1.3010    -1.6640 H     1 <1>   0.0800 
 29 H       -0.1220    -1.2570    -0.4750 H     1 <1>   0.0800 
 30 H        0.5270     2.4260    -0.9330 H     1 <1>   0.1500 
 31 H        1.6280    -0.3730     2.0710 H     1 <1>   0.1500 
 32 H       -3.4280    -0.6700     1.6060 H     1 <1>   0.0800 
 33 H       -1.6630    -2.2050     1.2220 H     1 <1>   0.0800 
 34 H        2.8570     2.5890    -1.6400 H     1 <1>   0.1500 
 35 H        3.9630    -0.2100     1.3680 H     1 <1>   0.1500 
 36 H       -5.6560    -1.5040     1.2010 H     1 <1>   0.1000 
 37 H       -2.3130    -4.3250     0.2010 H     1 <1>   0.0800 
 38 H       -1.9810    -3.6900    -1.3880 H     1 <1>   0.0800 
 39 H       -5.5710    -0.2590    -1.6300 H     1 <1>   0.1000 
 40 H       -6.9400    -1.1260    -0.8830 H     1 <1>   0.1000 
 41 H       -6.9880     0.5720     1.0060 H     1 <1>   0.1000 
 42 H       -5.6320     1.4460     0.2430 H     1 <1>   0.1000 
 43 H        0.4140    -3.4560    -0.8020 H     1 <1>   0.0800 
 44 H        0.0780    -3.9990     0.8220 H     1 <1>   0.0800 
 45 H       -0.6620    -6.1870    -0.0690 H     1 <1>   0.0800 
 46 H       -0.3460    -5.6380    -1.6920 H     1 <1>   0.0800 
 47 H        6.5050     2.3920    -1.4260 H     1 <1>   0.3700 
 48 H        5.0110     3.2650    -1.3080 H     1 <1>   0.3700 
 49 H        1.7400    -5.9100     0.4960 H     1 <1>   0.0800 
 50 H        2.0580    -5.3560    -1.1330 H     1 <1>   0.0800 
 51 H        1.5290    -6.9970    -0.8540 H     1 <1>   0.0800 
@<TRIPOS>BOND
  1   1   2  2   
  2   1   3  2   
  3   1   4  am  
  4   1   5  1   
  5   4   6  1   
  6   4   7  1   
  7   5   8  ar  
  8   5   9  ar  
  9   6  10  1   
 10   6  26  1   
 11   6  27  1   
 12   7  11  1   
 13   7  28  1   
 14   7  29  1   
 15   8  12  ar  
 16   8  30  1   
 17   9  13  ar  
 18   9  31  1   
 19  10  14  1   
 20  10  15  1   
 21  10  32  1   
 22  11  14  1   
 23  11  16  1   
 24  11  33  1   
 25  12  17  ar  
 26  12  34  1   
 27  13  17  ar  
 28  13  35  1   
 29  15  18  1   
 30  15  19  1   
 31  15  36  1   
 32  16  20  1   
 33  16  37  1   
 34  16  38  1   
 35  17  21  1   
 36  18  19  1   
 37  18  39  1   
 38  18  40  1   
 39  19  41  1   
 40  19  42  1   
 41  20  22  1   
 42  20  43  1   
 43  20  44  1   
 44  21  23  2   
 45  21  24  am  
 46  22  25  1   
 47  22  45  1   
 48  22  46  1   
 49  24  47  1   
 50  24  48  1   
 51  25  49  1   
 52  25  50  1   
 53  25  51  1   
@<TRIPOS>SUBSTRUCTURE
  1 ****   7 GROUP 4 **** **** 0

# MOE 2024.06 (io_trps.svl 2023.06)
