@<TRIPOS>MOLECULE
NONAME
59 62 1 0 0 
SMALL
USER_CHARGES


@<TRIPOS>ATOM
  1 O        0.2400    -1.1160     1.2630 O.2   1 <1>  -0.5700 
  2 C        1.4180    -1.4110     1.1730 C.2   1 <1>   0.5440 
  3 N        1.9140    -2.4210     1.9730 N.am  1 <1>  -0.6600 
  4 C        2.2530    -0.7100     0.2150 C.ar  1 <1>   0.0860 
  5 C        1.1260    -2.9680     3.1110 C.3   1 <1>   0.1400 
  6 C        3.1070    -3.2350     1.6180 C.3   1 <1>   0.1400 
  7 C        3.4750    -0.1460     0.5840 C.ar  1 <1>  -0.1500 
  8 C        1.8570    -0.5710    -1.1130 C.ar  1 <1>  -0.1500 
  9 C        0.6100    -4.3570     2.7310 C.3   1 <1>  -0.1600 
 10 C        2.6530    -4.6450     1.2260 C.3   1 <1>  -0.1600 
 11 C        4.2740     0.5070    -0.3370 C.ar  1 <1>  -0.1500 
 12 C        2.6530     0.0810    -2.0380 C.ar  1 <1>  -0.1500 
 13 C        1.7700    -5.2860     2.3160 C.3   1 <1>  -0.0190 
 14 C        3.8690     0.6200    -1.6560 C.ar  1 <1>  -0.1430 
 15 C        1.3500    -6.7220     1.9720 C.2   1 <1>   0.5690 
 16 C        4.7430     1.3380    -2.6690 C.3   1 <1>  -0.0970 
 17 O        1.9250    -7.6020     2.5690 O.2   1 <1>  -0.5700 
 18 N        0.3940    -7.0390     1.0380 N.am  1 <1>  -0.6600 
 19 C       -0.3750    -6.1400     0.1380 C.3   1 <1>   0.1400 
 20 C        0.0780    -8.4570     0.7310 C.3   1 <1>   0.1400 
 21 C       -0.9330    -7.0590    -0.9450 C.3   1 <1>   0.2000 
 22 C       -1.0730    -8.4230    -0.2760 C.3   1 <1>  -0.0800 
 23 O       -2.1630    -6.6210    -1.4090 O.3   1 <1>  -0.6800 
 24 C       -1.0530    -9.5870    -1.2790 C.3   1 <1>  -0.0170 
 25 C       -1.2070   -10.9230    -0.5700 C.ar  1 <1>  -0.1430 
 26 C       -0.1220   -11.7070    -0.2310 C.ar  1 <1>  -0.1500 
 27 C       -2.4480   -11.4200    -0.2250 C.ar  1 <1>  -0.1500 
 28 C       -0.3260   -12.9120     0.4200 C.ar  1 <1>   0.1600 
 29 C       -2.5420   -12.6390     0.4240 C.ar  1 <1>   0.1600 
 30 N       -1.5100   -13.3970     0.7560 N.ar  1 <1>  -0.6200 
 31 H        1.7560    -3.0290     3.9810 H     1 <1>   0.0800 
 32 H        0.2980    -2.3200     3.3460 H     1 <1>   0.0800 
 33 H        3.6480    -2.7970     0.7980 H     1 <1>   0.0800 
 34 H        3.7660    -3.2820     2.4680 H     1 <1>   0.0800 
 35 H        3.7940    -0.2230     1.6080 H     1 <1>   0.1500 
 36 H        0.9090    -0.9800    -1.4150 H     1 <1>   0.1500 
 37 H        0.0860    -4.7830     3.5680 H     1 <1>   0.0800 
 38 H       -0.0920    -4.2270     1.9320 H     1 <1>   0.0800 
 39 H        2.1240    -4.5810     0.2950 H     1 <1>   0.0800 
 40 H        3.5200    -5.2610     1.0630 H     1 <1>   0.0800 
 41 H        5.2120     0.9310    -0.0220 H     1 <1>   0.1500 
 42 H        2.3180     0.1700    -3.0570 H     1 <1>   0.1500 
 43 H        2.3960    -5.3740     3.1880 H     1 <1>   0.0800 
 44 H        5.7810     1.2460    -2.4050 H     1 <1>   0.0800 
 45 H        4.4830     2.3800    -2.6990 H     1 <1>   0.0800 
 46 H        4.6050     0.9170    -3.6490 H     1 <1>   0.0800 
 47 H       -1.1810    -5.6940     0.6930 H     1 <1>   0.0800 
 48 H        0.2480    -5.3810    -0.2950 H     1 <1>   0.0800 
 49 H        0.9510    -8.9190     0.3040 H     1 <1>   0.0800 
 50 H       -0.1990    -8.9900     1.6260 H     1 <1>   0.0800 
 51 H       -0.2500    -7.0980    -1.7770 H     1 <1>   0.0800 
 52 H       -1.9900    -8.4520     0.2870 H     1 <1>   0.0800 
 53 H       -2.8120    -6.5830    -0.6790 H     1 <1>   0.4000 
 54 H       -0.1330    -9.5770    -1.8380 H     1 <1>   0.0800 
 55 H       -1.8580    -9.4650    -1.9830 H     1 <1>   0.0800 
 56 H        0.8790   -11.3950    -0.4650 H     1 <1>   0.1500 
 57 H       -3.3420   -10.8710    -0.4560 H     1 <1>   0.1500 
 58 H        0.5320   -13.5090     0.6790 H     1 <1>   0.1500 
 59 H       -3.5180   -13.0110     0.6840 H     1 <1>   0.1500 
@<TRIPOS>BOND
  1   1   2  2   
  2   2   3  am  
  3   2   4  1   
  4   3   5  1   
  5   3   6  1   
  6   4   7  ar  
  7   4   8  ar  
  8   5   9  1   
  9   5  31  1   
 10   5  32  1   
 11   6  10  1   
 12   6  33  1   
 13   6  34  1   
 14   7  11  ar  
 15   7  35  1   
 16   8  12  ar  
 17   8  36  1   
 18   9  13  1   
 19   9  37  1   
 20   9  38  1   
 21  10  13  1   
 22  10  39  1   
 23  10  40  1   
 24  11  14  ar  
 25  11  41  1   
 26  12  14  ar  
 27  12  42  1   
 28  13  15  1   
 29  13  43  1   
 30  14  16  1   
 31  15  17  2   
 32  15  18  am  
 33  16  44  1   
 34  16  45  1   
 35  16  46  1   
 36  18  19  1   
 37  18  20  1   
 38  19  21  1   
 39  19  47  1   
 40  19  48  1   
 41  20  22  1   
 42  20  49  1   
 43  20  50  1   
 44  21  22  1   
 45  21  23  1   
 46  21  51  1   
 47  22  24  1   
 48  22  52  1   
 49  23  53  1   
 50  24  25  1   
 51  24  54  1   
 52  24  55  1   
 53  25  26  ar  
 54  25  27  ar  
 55  26  28  ar  
 56  26  56  1   
 57  27  29  ar  
 58  27  57  1   
 59  28  30  ar  
 60  28  58  1   
 61  29  30  ar  
 62  29  59  1   
@<TRIPOS>SUBSTRUCTURE
  1 ****  19 GROUP 4 **** **** 0

# MOE 2024.06 (io_trps.svl 2023.06)
