@<TRIPOS>MOLECULE
NONAME
53 55 1 0 0 
SMALL
USER_CHARGES


@<TRIPOS>ATOM
  1 O       -1.3610    -0.9190    -1.2240 O.2   1 <1>  -0.5700 
  2 C       -2.4250    -0.4450    -0.9110 C.2   1 <1>   0.5690 
  3 N       -2.6510     0.8410    -0.5530 N.am  1 <1>  -0.6600 
  4 C       -3.6990    -1.2380    -0.8700 C.3   1 <1>  -0.0990 
  5 C       -1.6030     1.8950    -0.5400 C.3   1 <1>   0.2200 
  6 C       -4.0720     1.0770    -0.2390 C.3   1 <1>   0.1400 
  7 C       -4.6440    -0.3360    -0.0490 C.3   1 <1>  -0.0800 
  8 C       -1.4800     2.5350     0.8430 C.3   1 <1>  -0.1600 
  9 C       -1.9630     3.0520    -1.4690 C.3   1 <1>  -0.1600 
 10 C       -4.6340    -0.6880     1.4530 C.3   1 <1>   0.2090 
 11 C       -2.3220     3.8190     0.8290 C.3   1 <1>  -0.1600 
 12 C       -2.7420     4.0630    -0.6240 C.3   1 <1>  -0.1600 
 13 N       -5.1140    -2.0720     1.7280 N.pl3 1 <1>  -0.8380 
 14 C       -6.2050    -2.5910     1.0660 C.ar  1 <1>   0.4100 
 15 C       -4.1030    -2.9960     2.3190 C.3   1 <1>   0.1290 
 16 N       -6.0190    -3.6980     0.3580 N.ar  1 <1>  -0.6200 
 17 C       -7.4380    -1.9450     1.1340 C.ar  1 <1>  -0.1500 
 18 C       -7.0680    -4.1560    -0.3020 C.ar  1 <1>   0.1600 
 19 C       -8.5190    -2.4360     0.4440 C.ar  1 <1>  -0.1500 
 20 C       -8.3440    -3.5930    -0.3130 C.ar  1 <1>   0.0860 
 21 C       -9.4060    -4.2010    -1.0810 C.2   1 <1>   0.5440 
 22 O       -9.1490    -4.9510    -2.0030 O.2   1 <1>  -0.5700 
 23 N      -10.7200    -3.9530    -0.7890 N.am  1 <1>  -0.7300 
 24 C      -11.8780    -4.5240    -1.5050 C.3   1 <1>   0.1400 
 25 C      -12.9070    -4.9810    -0.4790 C.3   1 <1>  -0.2400 
 26 H       -3.5420    -2.2070    -0.4360 H     1 <1>   0.0800 
 27 H       -4.0630    -1.3560    -1.8730 H     1 <1>   0.0800 
 28 H       -0.6630     1.4570    -0.8350 H     1 <1>   0.0800 
 29 H       -4.5410     1.5660    -1.0750 H     1 <1>   0.0800 
 30 H       -4.1840     1.6810     0.6450 H     1 <1>   0.0800 
 31 H       -5.6500    -0.3770    -0.4240 H     1 <1>   0.0800 
 32 H       -0.4500     2.8040     0.9950 H     1 <1>   0.0800 
 33 H       -1.7710     1.8580     1.6260 H     1 <1>   0.0800 
 34 H       -2.5080     2.7220    -2.3370 H     1 <1>   0.0800 
 35 H       -1.0480     3.5130    -1.7960 H     1 <1>   0.0800 
 36 H       -5.2610     0.0030     1.9890 H     1 <1>   0.0800 
 37 H       -3.6310    -0.5770     1.8320 H     1 <1>   0.0800 
 38 H       -1.7380     4.6460     1.1960 H     1 <1>   0.0800 
 39 H       -3.1910     3.7110     1.4550 H     1 <1>   0.0800 
 40 H       -3.7980     3.8880    -0.7300 H     1 <1>   0.0800 
 41 H       -2.5310     5.0720    -0.9330 H     1 <1>   0.0800 
 42 H       -3.7330    -2.5900     3.2440 H     1 <1>   0.0800 
 43 H       -3.2840    -3.1350     1.6370 H     1 <1>   0.0800 
 44 H       -4.5510    -3.9550     2.5200 H     1 <1>   0.0800 
 45 H       -7.5210    -1.0610     1.7360 H     1 <1>   0.1500 
 46 H       -6.9140    -5.0500    -0.8830 H     1 <1>   0.1500 
 47 H       -9.4680    -1.9350     0.4840 H     1 <1>   0.1500 
 48 H      -10.9550    -3.4010     0.0350 H     1 <1>   0.3700 
 49 H      -11.5660    -5.3600    -2.1110 H     1 <1>   0.0800 
 50 H      -12.3020    -3.7750    -2.1520 H     1 <1>   0.0800 
 51 H      -12.4810    -5.7310     0.1640 H     1 <1>   0.0800 
 52 H      -13.7530    -5.4100    -0.9850 H     1 <1>   0.0800 
 53 H      -13.2490    -4.1500     0.1110 H     1 <1>   0.0800 
@<TRIPOS>BOND
  1   1   2  2   
  2   2   3  am  
  3   2   4  1   
  4   3   5  1   
  5   3   6  1   
  6   4   7  1   
  7   4  26  1   
  8   4  27  1   
  9   5   8  1   
 10   5   9  1   
 11   5  28  1   
 12   6   7  1   
 13   6  29  1   
 14   6  30  1   
 15   7  10  1   
 16   7  31  1   
 17   8  11  1   
 18   8  32  1   
 19   8  33  1   
 20   9  12  1   
 21   9  34  1   
 22   9  35  1   
 23  10  13  1   
 24  10  36  1   
 25  10  37  1   
 26  11  12  1   
 27  11  38  1   
 28  11  39  1   
 29  12  40  1   
 30  12  41  1   
 31  13  14  1   
 32  13  15  1   
 33  14  16  ar  
 34  14  17  ar  
 35  15  42  1   
 36  15  43  1   
 37  15  44  1   
 38  16  18  ar  
 39  17  19  ar  
 40  17  45  1   
 41  18  20  ar  
 42  18  46  1   
 43  19  20  ar  
 44  19  47  1   
 45  20  21  1   
 46  21  22  2   
 47  21  23  am  
 48  23  24  1   
 49  23  48  1   
 50  24  25  1   
 51  24  49  1   
 52  24  50  1   
 53  25  51  1   
 54  25  52  1   
 55  25  53  1   
@<TRIPOS>SUBSTRUCTURE
  1 ****   7 GROUP 4 **** **** 0

# MOE 2024.06 (io_trps.svl 2023.06)
