@<TRIPOS>MOLECULE
NONAME
41 43 1 0 0 
SMALL
USER_CHARGES


@<TRIPOS>ATOM
  1 F       -2.1470    -0.9190    -1.3170 F     1 <1>  -0.1900 
  2 C       -2.2820     0.0770    -0.4840 C.ar  1 <1>   0.1900 
  3 C       -2.7850    -0.1620     0.7950 C.ar  1 <1>   0.0860 
  4 C       -1.9060     1.3290    -0.9310 C.ar  1 <1>  -0.1500 
  5 C       -3.1860    -1.4730     1.2500 C.2   1 <1>   0.5440 
  6 C       -2.8810     0.9440     1.6420 C.ar  1 <1>  -0.1500 
  7 C       -2.0290     2.4020    -0.0660 C.ar  1 <1>   0.0830 
  8 O       -2.6650    -1.9490     2.2400 O.2   1 <1>  -0.5700 
  9 N       -4.1800    -2.1910     0.6260 N.am  1 <1>  -0.6600 
 10 C       -2.5130     2.2100     1.2190 C.ar  1 <1>  -0.1500 
 11 O       -1.6810     3.6330    -0.4540 O.3   1 <1>  -0.5330 
 12 C       -5.1130    -1.6720    -0.4060 C.3   1 <1>   0.1400 
 13 C       -4.6030    -3.5420     1.0760 C.3   1 <1>   0.1400 
 14 C       -6.3310    -2.5920    -0.3170 C.3   1 <1>   0.2000 
 15 C       -5.7610    -3.9340     0.1470 C.3   1 <1>  -0.0800 
 16 O       -7.1670    -2.1080     0.6760 O.3   1 <1>  -0.6800 
 17 C       -5.2640    -4.7650    -1.0520 C.3   1 <1>   0.0210 
 18 C       -4.7010    -6.1000    -0.6070 C.2   1 <1>   0.1080 
 19 N       -5.4400    -7.0460    -0.1170 N.2   1 <1>  -0.7070 
 20 C       -3.3580    -6.4580    -0.6640 C.2   1 <1>  -0.1500 
 21 N       -4.5780    -8.0440     0.1550 N.pl3 1 <1>   0.3000 
 22 C       -3.3100    -7.7110    -0.1670 C.2   1 <1>  -0.3320 
 23 C       -2.1130    -8.6230     0.0260 C.3   1 <1>  -0.0600 
 24 H       -1.5260     1.4540    -1.9280 H     1 <1>   0.1500 
 25 H       -3.2480     0.7980     2.6440 H     1 <1>   0.1500 
 26 H       -2.5940     3.0550     1.8810 H     1 <1>   0.1500 
 27 H       -1.3320     3.6850    -1.3620 H     1 <1>   0.4500 
 28 H       -5.3780    -0.6440    -0.2310 H     1 <1>   0.0800 
 29 H       -4.6540    -1.7690    -1.3740 H     1 <1>   0.0800 
 30 H       -3.7780    -4.2320     1.0310 H     1 <1>   0.0800 
 31 H       -4.9460    -3.4810     2.0940 H     1 <1>   0.0800 
 32 H       -6.8920    -2.6470    -1.2340 H     1 <1>   0.0800 
 33 H       -6.5000    -4.5130     0.6740 H     1 <1>   0.0800 
 34 H       -6.6540    -2.0160     1.5030 H     1 <1>   0.4000 
 35 H       -4.5070    -4.2290    -1.5960 H     1 <1>   0.0800 
 36 H       -6.0840    -4.9570    -1.7200 H     1 <1>   0.0800 
 37 H       -2.5520    -5.8440    -1.0270 H     1 <1>   0.1500 
 38 H       -4.8870    -8.9360     0.5590 H     1 <1>   0.2700 
 39 H       -1.2160    -8.1290    -0.3040 H     1 <1>   0.0800 
 40 H       -2.2370    -9.5260    -0.5450 H     1 <1>   0.0800 
 41 H       -2.0010    -8.8760     1.0650 H     1 <1>   0.0800 
@<TRIPOS>BOND
  1   1   2  1   
  2   2   3  ar  
  3   2   4  ar  
  4   3   5  1   
  5   3   6  ar  
  6   4   7  ar  
  7   4  24  1   
  8   5   8  2   
  9   5   9  am  
 10   6  10  ar  
 11   6  25  1   
 12   7  10  ar  
 13   7  11  1   
 14   9  12  1   
 15   9  13  1   
 16  10  26  1   
 17  11  27  1   
 18  12  14  1   
 19  12  28  1   
 20  12  29  1   
 21  13  15  1   
 22  13  30  1   
 23  13  31  1   
 24  14  15  1   
 25  14  16  1   
 26  14  32  1   
 27  15  17  1   
 28  15  33  1   
 29  16  34  1   
 30  17  18  1   
 31  17  35  1   
 32  17  36  1   
 33  18  19  2   
 34  18  20  1   
 35  19  21  1   
 36  20  22  2   
 37  20  37  1   
 38  21  22  1   
 39  21  38  1   
 40  22  23  1   
 41  23  39  1   
 42  23  40  1   
 43  23  41  1   
@<TRIPOS>SUBSTRUCTURE
  1 ****   9 GROUP 4 **** **** 0

# MOE 2024.06 (io_trps.svl 2023.06)
