@<TRIPOS>MOLECULE
NONAME
48 52 1 0 0 
SMALL
USER_CHARGES


@<TRIPOS>ATOM
  1 S        0.4420     0.7630     1.9430 S.3   1 <1>  -0.0800 
  2 C       -0.7060     1.1850     0.6810 C.2   1 <1>  -0.1400 
  3 C       -0.6030    -0.5380     2.5010 C.2   1 <1>  -0.1100 
  4 C       -1.7790     0.3850     0.7300 C.2   1 <1>  -0.1810 
  5 C       -0.4640     2.3200    -0.3100 C.3   1 <1>   0.4600 
  6 C       -1.7260    -0.6050     1.7610 C.2   1 <1>  -0.1500 
  7 C       -2.9040     0.5840    -0.2600 C.3   1 <1>   0.0210 
  8 O       -1.4910     2.2870    -1.2850 O.3   1 <1>  -0.5600 
  9 C        0.8540     2.1190    -1.0650 C.3   1 <1>  -0.1600 
 10 C       -0.4740     3.6890     0.3810 C.3   1 <1>  -0.1600 
 11 C       -2.8020     2.0010    -0.8580 C.3   1 <1>   0.1200 
 12 C        1.1220     3.2610    -2.0470 C.3   1 <1>   0.1400 
 13 C       -0.2000     4.8200    -0.6130 C.3   1 <1>   0.1400 
 14 N        1.0860     4.5610    -1.3180 N.am  1 <1>  -0.6600 
 15 C        2.1550     5.4390    -1.3370 C.2   1 <1>   0.6160 
 16 O        3.0800     5.2210    -2.1010 O.2   1 <1>  -0.5700 
 17 C        2.1920     6.6410    -0.5550 C.2   1 <1>   0.0290 
 18 C        2.2350     6.5370     0.8760 C.2   1 <1>   0.6160 
 19 C        2.2070     7.8880    -1.1370 C.2   1 <1>  -0.1500 
 20 O        2.2320     5.4850     1.4980 O.2   1 <1>  -0.5700 
 21 N        2.2680     7.6890     1.6220 N.am  1 <1>  -0.5390 
 22 C        2.2420     9.0330    -0.3180 C.2   1 <1>  -0.1380 
 23 C        2.2710     8.9160     1.0230 C.2   1 <1>  -0.0290 
 24 C        2.2670    10.4770    -0.7500 C.3   1 <1>  -0.0220 
 25 C        2.3160    10.2430     1.7290 C.3   1 <1>  -0.0220 
 26 C        2.1380    11.2550     0.5780 C.3   1 <1>  -0.1600 
 27 H       -0.2580    -1.1220     3.3360 H     1 <1>   0.1500 
 28 H       -2.5250    -1.3130     1.8980 H     1 <1>   0.1500 
 29 H       -3.8530     0.4710     0.2300 H     1 <1>   0.0800 
 30 H       -2.8330    -0.1490    -1.0430 H     1 <1>   0.0800 
 31 H        0.8240     1.1820    -1.5890 H     1 <1>   0.0800 
 32 H        1.6680     2.0770    -0.3660 H     1 <1>   0.0800 
 33 H        0.2900     3.7050     1.1370 H     1 <1>   0.0800 
 34 H       -1.4120     3.8490     0.8770 H     1 <1>   0.0800 
 35 H       -3.0910     2.7360    -0.1280 H     1 <1>   0.0800 
 36 H       -3.4510     2.0910    -1.7110 H     1 <1>   0.0800 
 37 H        0.3710     3.2690    -2.8190 H     1 <1>   0.0800 
 38 H        2.0790     3.1080    -2.5160 H     1 <1>   0.0800 
 39 H       -0.1780     5.7610    -0.0940 H     1 <1>   0.0800 
 40 H       -0.9920     4.8620    -1.3410 H     1 <1>   0.0800 
 41 H        2.1960     8.0020    -2.2070 H     1 <1>   0.1500 
 42 H        2.3080     7.5560     2.6320 H     1 <1>   0.3700 
 43 H        1.4510    10.6990    -1.4150 H     1 <1>   0.0800 
 44 H        3.2030    10.6960    -1.2340 H     1 <1>   0.0800 
 45 H        3.2690    10.3690     2.2110 H     1 <1>   0.0800 
 46 H        1.5230    10.3280     2.4510 H     1 <1>   0.0800 
 47 H        1.1540    11.6870     0.6370 H     1 <1>   0.0800 
 48 H        2.8660    12.0440     0.6380 H     1 <1>   0.0800 
@<TRIPOS>BOND
  1   1   2  1   
  2   1   3  1   
  3   2   4  2   
  4   2   5  1   
  5   3   6  2   
  6   3  27  1   
  7   4   6  1   
  8   4   7  1   
  9   5   8  1   
 10   5   9  1   
 11   5  10  1   
 12   6  28  1   
 13   7  11  1   
 14   7  29  1   
 15   7  30  1   
 16   8  11  1   
 17   9  12  1   
 18   9  31  1   
 19   9  32  1   
 20  10  13  1   
 21  10  33  1   
 22  10  34  1   
 23  11  35  1   
 24  11  36  1   
 25  12  14  1   
 26  12  37  1   
 27  12  38  1   
 28  13  14  1   
 29  13  39  1   
 30  13  40  1   
 31  14  15  am  
 32  15  16  2   
 33  15  17  1   
 34  17  18  1   
 35  17  19  2   
 36  18  20  2   
 37  18  21  am  
 38  19  22  1   
 39  19  41  1   
 40  21  23  1   
 41  21  42  1   
 42  22  23  2   
 43  22  24  1   
 44  23  25  1   
 45  24  26  1   
 46  24  43  1   
 47  24  44  1   
 48  25  26  1   
 49  25  45  1   
 50  25  46  1   
 51  26  47  1   
 52  26  48  1   
@<TRIPOS>SUBSTRUCTURE
  1 ****  13 GROUP 4 **** **** 0

# MOE 2024.06 (io_trps.svl 2023.06)
