@<TRIPOS>MOLECULE
NONAME
52 54 1 0 0 
SMALL
USER_CHARGES


@<TRIPOS>ATOM
  1 F        1.0830     0.7920     0.2620 F     1 <1>  -0.1900 
  2 C        1.8380    -0.2730     0.2340 C.ar  1 <1>   0.1900 
  3 C        1.4880    -1.3120    -0.6050 C.ar  1 <1>  -0.1500 
  4 C        2.9520    -0.3250     1.0440 C.ar  1 <1>  -0.1500 
  5 C        2.2630    -2.4650    -0.6370 C.ar  1 <1>  -0.1440 
  6 C        3.7440    -1.4560     0.9930 C.ar  1 <1>  -0.1500 
  7 C        3.4250    -2.5220     0.1510 C.ar  1 <1>  -0.0230 
  8 C        1.8250    -3.6170    -1.5520 C.3   1 <1>   0.2540 
  9 N        4.3180    -3.6280     0.1140 N.pl3 1 <1>   0.5930 
 10 N        0.8770    -4.5640    -0.9140 N.3   1 <1>  -0.8100 
 11 N        4.4280    -4.5300     1.1200 N.2   1 <1>  -0.7070 
 12 C        5.1820    -3.9410    -0.8810 C.2   1 <1>  -0.3020 
 13 C        1.5360    -5.3270     0.1690 C.3   1 <1>   0.2900 
 14 C       -0.3890    -3.9280    -0.4770 C.3   1 <1>   0.1100 
 15 C        5.3420    -5.3670     0.7400 C.2   1 <1>   0.1390 
 16 C        5.8530    -5.0510    -0.5120 C.2   1 <1>  -0.1500 
 17 C        0.6200    -6.4320     0.6380 C.2   1 <1>  -0.3320 
 18 C       -1.6030    -4.8370    -0.7580 C.3   1 <1>   0.3430 
 19 N        0.3210    -7.5210    -0.0920 N.pl3 1 <1>   0.0330 
 20 C       -0.0610    -6.5500     1.7970 C.2   1 <1>   0.0770 
 21 N       -2.8330    -4.4240    -0.0040 N.4   1 <1>  -0.9590 
 22 C       -0.5710    -8.2090     0.6530 C.2   1 <1>   0.0060 
 23 N       -0.8430    -7.6440     1.7850 N.2   1 <1>  -0.5650 
 24 C       -2.7330    -4.8500     1.4290 C.3   1 <1>   0.2630 
 25 C       -4.0420    -5.0460    -0.6210 C.3   1 <1>   0.2630 
 26 C       -1.1770    -9.5210     0.2010 C.3   1 <1>  -0.0600 
 27 H        0.6160    -1.1980    -1.2210 H     1 <1>   0.1500 
 28 H        3.1920     0.5000     1.6920 H     1 <1>   0.1500 
 29 H        4.6230    -1.5170     1.6140 H     1 <1>   0.1500 
 30 H        2.6830    -4.1640    -1.9030 H     1 <1>   0.0800 
 31 H        1.3560    -3.2030    -2.4280 H     1 <1>   0.0800 
 32 H        5.2650    -3.3510    -1.7740 H     1 <1>   0.1500 
 33 H        1.7690    -4.6760     0.9950 H     1 <1>   0.0800 
 34 H        2.4530    -5.7640    -0.1910 H     1 <1>   0.0800 
 35 H       -0.5490    -3.0220    -1.0300 H     1 <1>   0.0800 
 36 H       -0.3230    -3.6820     0.5690 H     1 <1>   0.0800 
 37 H        5.6630    -6.2080     1.3350 H     1 <1>   0.1500 
 38 H        6.6200    -5.5930    -1.0400 H     1 <1>   0.1500 
 39 H       -1.3650    -5.8510    -0.4940 H     1 <1>   0.0800 
 40 H       -1.7980    -4.8100    -1.8160 H     1 <1>   0.0800 
 41 H        0.6970    -7.7720    -1.0120 H     1 <1>   0.2700 
 42 H       -0.0380    -5.8880     2.6480 H     1 <1>   0.1500 
 43 H       -2.9250    -3.3990    -0.0490 H     1 <1>   0.4500 
 44 H       -2.6350    -5.9220     1.4940 H     1 <1>   0.0800 
 45 H       -3.6130    -4.5520     1.9740 H     1 <1>   0.0800 
 46 H       -1.8710    -4.4020     1.8960 H     1 <1>   0.0800 
 47 H       -3.9690    -6.1210    -0.5810 H     1 <1>   0.0800 
 48 H       -4.1370    -4.7430    -1.6510 H     1 <1>   0.0800 
 49 H       -4.9310    -4.7430    -0.0910 H     1 <1>   0.0800 
 50 H       -1.7060    -9.3900    -0.7250 H     1 <1>   0.0800 
 51 H       -1.8640    -9.8810     0.9450 H     1 <1>   0.0800 
 52 H       -0.4040   -10.2550     0.0680 H     1 <1>   0.0800 
@<TRIPOS>BOND
  1   1   2  1   
  2   2   3  ar  
  3   2   4  ar  
  4   3   5  ar  
  5   3  27  1   
  6   4   6  ar  
  7   4  28  1   
  8   5   7  ar  
  9   5   8  1   
 10   6   7  ar  
 11   6  29  1   
 12   7   9  1   
 13   8  10  1   
 14   8  30  1   
 15   8  31  1   
 16   9  11  1   
 17   9  12  1   
 18  10  13  1   
 19  10  14  1   
 20  11  15  2   
 21  12  16  2   
 22  12  32  1   
 23  13  17  1   
 24  13  33  1   
 25  13  34  1   
 26  14  18  1   
 27  14  35  1   
 28  14  36  1   
 29  15  16  1   
 30  15  37  1   
 31  16  38  1   
 32  17  19  1   
 33  17  20  2   
 34  18  21  1   
 35  18  39  1   
 36  18  40  1   
 37  19  22  1   
 38  19  41  1   
 39  20  23  1   
 40  20  42  1   
 41  21  24  1   
 42  21  25  1   
 43  21  43  1   
 44  22  23  2   
 45  22  26  1   
 46  24  44  1   
 47  24  45  1   
 48  24  46  1   
 49  25  47  1   
 50  25  48  1   
 51  25  49  1   
 52  26  50  1   
 53  26  51  1   
 54  26  52  1   
@<TRIPOS>SUBSTRUCTURE
  1 ****  13 GROUP 4 **** **** 0

# MOE 2024.06 (io_trps.svl 2023.06)
