@<TRIPOS>MOLECULE
NONAME
41 42 1 0 0 
SMALL
USER_CHARGES


@<TRIPOS>ATOM
  1 O       -2.0940     0.3570    -1.4940 O.2   1 <1>  -0.5700 
  2 C       -1.9050     0.3670    -0.2990 C.2   1 <1>   0.5690 
  3 N       -1.8740    -0.7970     0.3990 N.am  1 <1>  -0.7300 
  4 C       -1.7230     1.7190     0.4360 C.3   1 <1>   0.0610 
  5 C       -2.0240    -2.1500    -0.1840 C.3   1 <1>   0.2200 
  6 C       -1.4230     1.5490     1.9410 C.3   1 <1>  -0.2400 
  7 C       -3.0080     2.5580     0.3010 C.3   1 <1>  -0.2400 
  8 C       -0.5560     2.5040    -0.1920 C.3   1 <1>  -0.2400 
  9 C       -3.4110    -2.7170     0.0870 C.3   1 <1>  -0.0800 
 10 C       -1.1650    -3.1230     0.6100 C.3   1 <1>   0.1200 
 11 C       -3.2710    -3.3170     1.4910 C.3   1 <1>   0.1200 
 12 C       -4.5840    -1.7320    -0.0680 C.3   1 <1>  -0.0170 
 13 O       -1.9010    -3.3970     1.7640 O.3   1 <1>  -0.5600 
 14 C       -5.9160    -2.4400     0.1250 C.ar  1 <1>  -0.1440 
 15 C       -6.5980    -2.4080     1.3250 C.ar  1 <1>  -0.1500 
 16 C       -6.5100    -3.1550    -0.8940 C.ar  1 <1>  -0.1500 
 17 C       -7.8040    -3.0790     1.4450 C.ar  1 <1>   0.1600 
 18 C       -7.7210    -3.7910    -0.6700 C.ar  1 <1>   0.1600 
 19 N       -8.3810    -3.7720     0.4770 N.ar  1 <1>  -0.6200 
 20 H       -1.7400    -0.7890     1.4120 H     1 <1>   0.3700 
 21 H       -1.7740    -2.1420    -1.2320 H     1 <1>   0.0800 
 22 H       -1.2920     2.5080     2.4100 H     1 <1>   0.0800 
 23 H       -0.5200     0.9810     2.0840 H     1 <1>   0.0800 
 24 H       -2.2330     1.0440     2.4370 H     1 <1>   0.0800 
 25 H       -2.9000     3.5090     0.7910 H     1 <1>   0.0800 
 26 H       -3.8420     2.0370     0.7370 H     1 <1>   0.0800 
 27 H       -3.2290     2.7330    -0.7380 H     1 <1>   0.0800 
 28 H       -0.4200     3.4520     0.2970 H     1 <1>   0.0800 
 29 H       -0.7470     2.6840    -1.2360 H     1 <1>   0.0800 
 30 H        0.3570     1.9400    -0.1130 H     1 <1>   0.0800 
 31 H       -3.5680    -3.5340    -0.5960 H     1 <1>   0.0800 
 32 H       -0.2060    -2.7140     0.8770 H     1 <1>   0.0800 
 33 H       -1.0350    -4.0460     0.0730 H     1 <1>   0.0800 
 34 H       -3.6980    -4.3040     1.5470 H     1 <1>   0.0800 
 35 H       -3.7140    -2.6860     2.2410 H     1 <1>   0.0800 
 36 H       -4.5530    -1.2930    -1.0510 H     1 <1>   0.0800 
 37 H       -4.5000    -0.9300     0.6430 H     1 <1>   0.0800 
 38 H       -6.2060    -1.8680     2.1670 H     1 <1>   0.1500 
 39 H       -6.0450    -3.2230    -1.8600 H     1 <1>   0.1500 
 40 H       -8.3220    -3.0430     2.3880 H     1 <1>   0.1500 
 41 H       -8.1690    -4.3440    -1.4770 H     1 <1>   0.1500 
@<TRIPOS>BOND
  1   1   2  2   
  2   2   3  am  
  3   2   4  1   
  4   3   5  1   
  5   3  20  1   
  6   4   6  1   
  7   4   7  1   
  8   4   8  1   
  9   5   9  1   
 10   5  10  1   
 11   5  21  1   
 12   6  22  1   
 13   6  23  1   
 14   6  24  1   
 15   7  25  1   
 16   7  26  1   
 17   7  27  1   
 18   8  28  1   
 19   8  29  1   
 20   8  30  1   
 21   9  11  1   
 22   9  12  1   
 23   9  31  1   
 24  10  13  1   
 25  10  32  1   
 26  10  33  1   
 27  11  13  1   
 28  11  34  1   
 29  11  35  1   
 30  12  14  1   
 31  12  36  1   
 32  12  37  1   
 33  14  15  ar  
 34  14  16  ar  
 35  15  17  ar  
 36  15  38  1   
 37  16  18  ar  
 38  16  39  1   
 39  17  19  ar  
 40  17  40  1   
 41  18  19  ar  
 42  18  41  1   
@<TRIPOS>SUBSTRUCTURE
  1 ****  12 GROUP 4 **** **** 0

# MOE 2024.06 (io_trps.svl 2023.06)
