@<TRIPOS>MOLECULE
NONAME
50 52 1 0 0 
SMALL
USER_CHARGES


@<TRIPOS>ATOM
  1 O        1.0370    -0.3630     2.9560 O.2   1 <1>  -0.5700 
  2 C        1.9100    -0.7570     2.2230 C.2   1 <1>   0.5690 
  3 N        3.0400    -0.0410     2.0100 N.am  1 <1>  -0.7300 
  4 C        1.7530    -2.0790     1.5090 C.3   1 <1>  -0.0990 
  5 C        3.2440     1.3360     2.4980 C.3   1 <1>   0.2840 
  6 C        0.2820    -2.3610     1.1790 C.3   1 <1>   0.0960 
  7 C        3.8130     2.1910     1.3710 C.ar  1 <1>  -0.1440 
  8 N        0.1570    -3.5770     0.3470 N.pl3 1 <1>   0.3140 
  9 C        3.0940     2.4440     0.1980 C.ar  1 <1>  -0.0230 
 10 C        5.0820     2.7310     1.5240 C.ar  1 <1>  -0.1500 
 11 N        0.5610    -4.7610     0.8280 N.2   1 <1>  -0.7070 
 12 C       -0.3310    -3.7000    -0.9050 C.2   1 <1>  -0.3320 
 13 N        1.8030     1.9000    -0.0280 N.pl3 1 <1>   0.3260 
 14 C        3.6660     3.2390    -0.7900 C.ar  1 <1>  -0.1500 
 15 C        5.6400     3.5180     0.5320 C.ar  1 <1>  -0.1500 
 16 C        0.3260    -5.6100    -0.1140 C.2   1 <1>   0.1080 
 17 C       -0.2270    -5.0200    -1.2610 C.2   1 <1>  -0.0860 
 18 C       -0.8980    -2.5220    -1.6910 C.3   1 <1>  -0.0600 
 19 C        1.4580     0.9400    -0.9260 C.2   1 <1>   0.0360 
 20 C        0.6400     2.1750     0.6000 C.2   1 <1>  -0.3020 
 21 C        4.9300     3.7730    -0.6260 C.ar  1 <1>  -0.1500 
 22 C        0.6480    -7.0790     0.0620 C.3   1 <1>  -0.0590 
 23 C       -0.5550    -5.7290    -2.4740 C.2   1 <1>   0.5950 
 24 N        0.2110     0.5950    -0.9030 N.2   1 <1>  -0.5650 
 25 C       -0.3070     1.3780     0.0640 C.2   1 <1>   0.0770 
 26 O       -0.8470    -6.8980    -2.5120 O.2   1 <1>  -0.5700 
 27 C       -0.5090    -5.0130    -3.8060 C.3   1 <1>  -0.1790 
 28 H        3.7840    -0.4050     1.4150 H     1 <1>   0.3700 
 29 H        2.1350    -2.8590     2.1420 H     1 <1>   0.0800 
 30 H        2.3200    -2.0590     0.5970 H     1 <1>   0.0800 
 31 H        3.9210     1.3120     3.3340 H     1 <1>   0.0800 
 32 H        2.3120     1.7540     2.8400 H     1 <1>   0.0800 
 33 H       -0.1420    -1.5240     0.6600 H     1 <1>   0.0800 
 34 H       -0.2740    -2.5150     2.0860 H     1 <1>   0.0800 
 35 H        5.6500     2.5470     2.4190 H     1 <1>   0.1500 
 36 H        3.1200     3.4450    -1.6950 H     1 <1>   0.1500 
 37 H        6.6250     3.9330     0.6620 H     1 <1>   0.1500 
 38 H       -1.5280    -1.9170    -1.0640 H     1 <1>   0.0800 
 39 H       -1.4990    -2.8530    -2.5150 H     1 <1>   0.0800 
 40 H       -0.0980    -1.9090    -2.0670 H     1 <1>   0.0800 
 41 H        2.1930     0.5190    -1.5870 H     1 <1>   0.1500 
 42 H        0.5630     2.9060     1.3820 H     1 <1>   0.1500 
 43 H        5.3620     4.3880    -1.3980 H     1 <1>   0.1500 
 44 H        1.1630    -7.2350     0.9920 H     1 <1>   0.0800 
 45 H        1.2720    -7.4190    -0.7430 H     1 <1>   0.0800 
 46 H       -0.2620    -7.6500     0.0690 H     1 <1>   0.0800 
 47 H       -1.3510     1.3250     0.3290 H     1 <1>   0.1500 
 48 H        0.1800    -4.1900    -3.7650 H     1 <1>   0.0800 
 49 H       -1.4910    -4.6580    -4.0570 H     1 <1>   0.0800 
 50 H       -0.1830    -5.6960    -4.5680 H     1 <1>   0.0800 
@<TRIPOS>BOND
  1   1   2  2   
  2   2   3  am  
  3   2   4  1   
  4   3   5  1   
  5   3  28  1   
  6   4   6  1   
  7   4  29  1   
  8   4  30  1   
  9   5   7  1   
 10   5  31  1   
 11   5  32  1   
 12   6   8  1   
 13   6  33  1   
 14   6  34  1   
 15   7   9  ar  
 16   7  10  ar  
 17   8  11  1   
 18   8  12  1   
 19   9  13  1   
 20   9  14  ar  
 21  10  15  ar  
 22  10  35  1   
 23  11  16  2   
 24  12  17  2   
 25  12  18  1   
 26  13  19  1   
 27  13  20  1   
 28  14  21  ar  
 29  14  36  1   
 30  15  21  ar  
 31  15  37  1   
 32  16  17  1   
 33  16  22  1   
 34  17  23  1   
 35  18  38  1   
 36  18  39  1   
 37  18  40  1   
 38  19  24  2   
 39  19  41  1   
 40  20  25  2   
 41  20  42  1   
 42  21  43  1   
 43  22  44  1   
 44  22  45  1   
 45  22  46  1   
 46  23  26  2   
 47  23  27  1   
 48  24  25  1   
 49  25  47  1   
 50  27  48  1   
 51  27  49  1   
 52  27  50  1   
@<TRIPOS>SUBSTRUCTURE
  1 ****   4 GROUP 4 **** **** 0

# MOE 2024.06 (io_trps.svl 2023.06)
