@<TRIPOS>MOLECULE
NONAME
34 37 1 0 0 
SMALL
USER_CHARGES


@<TRIPOS>ATOM
  1 S       -0.0050     0.3390     1.0210 S.3   1 <1>  -0.0800 
  2 C       -1.4800     1.0340     0.2980 C.2   1 <1>  -0.0450 
  3 C       -0.6650    -1.2900     1.0170 C.2   1 <1>  -0.1100 
  4 C       -2.3670     0.0210     0.1030 C.2   1 <1>   0.0620 
  5 C       -1.5310     2.4450     0.0420 C.2   1 <1>   0.7150 
  6 C       -1.9050    -1.2760     0.5010 C.2   1 <1>   0.0620 
  7 O       -3.6020     0.1690    -0.4210 O.3   1 <1>  -0.3420 
  8 O       -2.5050     2.9650    -0.4720 O.2   1 <1>  -0.5700 
  9 N       -0.4500     3.2270     0.3800 N.am  1 <1>  -0.4940 
 10 O       -2.6860    -2.3790     0.3510 O.3   1 <1>  -0.3420 
 11 C       -4.5060    -0.9130    -0.3000 C.3   1 <1>   0.1200 
 12 C       -0.2020     4.6130     0.2280 C.2   1 <1>  -0.0880 
 13 C       -3.7800    -2.2460    -0.5380 C.3   1 <1>   0.1200 
 14 N       -1.0860     5.6530     0.3430 N.pl3 1 <1>   0.3140 
 15 C        0.9960     5.1800    -0.0430 C.2   1 <1>  -0.1810 
 16 N       -0.4720     6.8490     0.1570 N.2   1 <1>  -0.7070 
 17 C       -2.5090     5.6180     0.7090 C.3   1 <1>   0.0160 
 18 C        0.7630     6.5390    -0.0760 C.2   1 <1>   0.1080 
 19 C        2.4070     4.7120    -0.3060 C.3   1 <1>   0.2510 
 20 C        1.9420     7.4380    -0.3660 C.3   1 <1>   0.2510 
 21 S        3.3220     6.2630    -0.5540 S.3   1 <1>  -0.4600 
 22 H       -0.0580    -2.0920     1.3990 H     1 <1>   0.1500 
 23 H        0.3440     2.6800     0.7090 H     1 <1>   0.3700 
 24 H       -5.2890    -0.7690    -1.0220 H     1 <1>   0.0800 
 25 H       -4.9270    -0.8870     0.6890 H     1 <1>   0.0800 
 26 H       -4.4430    -3.0750    -0.3720 H     1 <1>   0.0800 
 27 H       -3.4030    -2.2920    -1.5450 H     1 <1>   0.0800 
 28 H       -2.6800     4.8250     1.4100 H     1 <1>   0.0800 
 29 H       -3.0920     5.4550    -0.1780 H     1 <1>   0.0800 
 30 H       -2.7820     6.5570     1.1510 H     1 <1>   0.0800 
 31 H        2.4840     4.1300    -1.2070 H     1 <1>   0.0800 
 32 H        2.8360     4.2020     0.5380 H     1 <1>   0.0800 
 33 H        2.1600     8.0960     0.4550 H     1 <1>   0.0800 
 34 H        1.8210     7.9760    -1.2880 H     1 <1>   0.0800 
@<TRIPOS>BOND
  1   1   2  1   
  2   1   3  1   
  3   2   4  2   
  4   2   5  1   
  5   3   6  2   
  6   3  22  1   
  7   4   6  1   
  8   4   7  1   
  9   5   8  2   
 10   5   9  am  
 11   6  10  1   
 12   7  11  1   
 13   9  12  1   
 14   9  23  1   
 15  10  13  1   
 16  11  13  1   
 17  11  24  1   
 18  11  25  1   
 19  12  14  1   
 20  12  15  2   
 21  13  26  1   
 22  13  27  1   
 23  14  16  1   
 24  14  17  1   
 25  15  18  1   
 26  15  19  1   
 27  16  18  2   
 28  17  28  1   
 29  17  29  1   
 30  17  30  1   
 31  18  20  1   
 32  19  21  1   
 33  19  31  1   
 34  19  32  1   
 35  20  21  1   
 36  20  33  1   
 37  20  34  1   
@<TRIPOS>SUBSTRUCTURE
  1 ****   5 GROUP 4 **** **** 0

# MOE 2024.06 (io_trps.svl 2023.06)
