@<TRIPOS>MOLECULE
NONAME
51 55 1 0 0 
SMALL
USER_CHARGES


@<TRIPOS>ATOM
  1 S       -0.2970     0.7000     2.1590 S.3   1 <1>  -0.0800 
  2 C       -0.2630     2.3460     1.5640 C.2   1 <1>  -0.1400 
  3 C        1.3550     0.4480     1.6110 C.2   1 <1>  -0.1100 
  4 C        0.9100     2.6480     0.9930 C.2   1 <1>  -0.1810 
  5 C       -1.4320     3.2830     1.6990 C.3   1 <1>   0.0200 
  6 C        1.8440     1.5580     1.0250 C.2   1 <1>  -0.1500 
  7 C        1.1610     4.0300     0.3840 C.3   1 <1>   0.4610 
  8 C       -0.8960     4.7100     1.5000 C.3   1 <1>   0.1200 
  9 O       -0.0370     4.7850     0.3850 O.3   1 <1>  -0.5600 
 10 C        2.2150     4.7940     1.1990 C.3   1 <1>  -0.1600 
 11 C        1.5600     3.9060    -1.0990 C.3   1 <1>  -0.1600 
 12 C        2.7280     6.0030     0.4210 C.3   1 <1>   0.1400 
 13 C        3.0370     4.2130    -1.3530 C.3   1 <1>   0.1400 
 14 N        3.3900     5.5830    -0.8580 N.am  1 <1>  -0.6600 
 15 C        4.3270     6.3130    -1.5600 C.2   1 <1>   0.5690 
 16 O        4.9850     5.7840    -2.4250 O.2   1 <1>  -0.5700 
 17 C        4.6190     7.8050    -1.3650 C.3   1 <1>  -0.0190 
 18 C        5.4960     8.1240    -0.1390 C.3   1 <1>   0.2800 
 19 C        3.3880     8.6980    -1.1880 C.3   1 <1>  -0.0990 
 20 O        4.6090     8.6780     0.8030 O.3   1 <1>  -0.4300 
 21 C        6.5770     9.1770    -0.3980 C.3   1 <1>  -0.1600 
 22 C        6.2830     6.9880     0.5180 C.3   1 <1>  -0.1600 
 23 C        3.4600     9.0440     0.2710 C.2   1 <1>   0.6590 
 24 C        7.5340     9.0800     0.7940 C.3   1 <1>  -0.1600 
 25 C        7.3510     7.6730     1.3770 C.3   1 <1>  -0.1600 
 26 O        2.5670     9.5430     0.8960 O.2   1 <1>  -0.5700 
 27 H        1.7900    -0.5190     1.7900 H     1 <1>   0.1500 
 28 H       -1.8760     3.1930     2.6730 H     1 <1>   0.0800 
 29 H       -2.1730     3.0550     0.9550 H     1 <1>   0.0800 
 30 H        2.8320     1.6550     0.6100 H     1 <1>   0.1500 
 31 H       -0.3560     5.0300     2.3720 H     1 <1>   0.0800 
 32 H       -1.7110     5.3920     1.3320 H     1 <1>   0.0800 
 33 H        3.0470     4.1510     1.4190 H     1 <1>   0.0800 
 34 H        1.8090     5.1070     2.1410 H     1 <1>   0.0800 
 35 H        0.9790     4.5890    -1.6940 H     1 <1>   0.0800 
 36 H        1.3440     2.9150    -1.4530 H     1 <1>   0.0800 
 37 H        3.4260     6.5240     1.0460 H     1 <1>   0.0800 
 38 H        1.8990     6.6540     0.2010 H     1 <1>   0.0800 
 39 H        3.2280     4.1400    -2.4110 H     1 <1>   0.0800 
 40 H        3.6590     3.4890    -0.8560 H     1 <1>   0.0800 
 41 H        5.1360     8.1220    -2.2530 H     1 <1>   0.0800 
 42 H        2.4670     8.2030    -1.4360 H     1 <1>   0.0800 
 43 H        3.4810     9.6010    -1.7620 H     1 <1>   0.0800 
 44 H        6.1710    10.1660    -0.5160 H     1 <1>   0.0800 
 45 H        7.1190     8.9150    -1.2900 H     1 <1>   0.0800 
 46 H        6.7780     6.4140    -0.2470 H     1 <1>   0.0800 
 47 H        5.6620     6.3280     1.0960 H     1 <1>   0.0800 
 48 H        7.2640     9.8120     1.5360 H     1 <1>   0.0800 
 49 H        8.5520     9.2530     0.4890 H     1 <1>   0.0800 
 50 H        8.2720     7.1160     1.3660 H     1 <1>   0.0800 
 51 H        7.0030     7.7520     2.3940 H     1 <1>   0.0800 
@<TRIPOS>BOND
  1   1   2  1   
  2   1   3  1   
  3   2   4  2   
  4   2   5  1   
  5   3   6  2   
  6   3  27  1   
  7   4   6  1   
  8   4   7  1   
  9   5   8  1   
 10   5  28  1   
 11   5  29  1   
 12   6  30  1   
 13   7   9  1   
 14   7  10  1   
 15   7  11  1   
 16   8   9  1   
 17   8  31  1   
 18   8  32  1   
 19  10  12  1   
 20  10  33  1   
 21  10  34  1   
 22  11  13  1   
 23  11  35  1   
 24  11  36  1   
 25  12  14  1   
 26  12  37  1   
 27  12  38  1   
 28  13  14  1   
 29  13  39  1   
 30  13  40  1   
 31  14  15  am  
 32  15  16  2   
 33  15  17  1   
 34  17  18  1   
 35  17  19  1   
 36  17  41  1   
 37  18  20  1   
 38  18  21  1   
 39  18  22  1   
 40  19  23  1   
 41  19  42  1   
 42  19  43  1   
 43  20  23  1   
 44  21  24  1   
 45  21  44  1   
 46  21  45  1   
 47  22  25  1   
 48  22  46  1   
 49  22  47  1   
 50  23  26  2   
 51  24  25  1   
 52  24  48  1   
 53  24  49  1   
 54  25  50  1   
 55  25  51  1   
@<TRIPOS>SUBSTRUCTURE
  1 ****  12 GROUP 4 **** **** 0

# MOE 2024.06 (io_trps.svl 2023.06)
