@<TRIPOS>MOLECULE
NONAME
40 41 1 0 0 
SMALL
USER_CHARGES


@<TRIPOS>ATOM
  1 S       -0.7360    -0.9460    -0.9900 S.3   1 <1>  -0.0800 
  2 C       -1.9560     0.1130    -0.2970 C.2   1 <1>  -0.1400 
  3 C        0.5510     0.1370    -0.4920 C.2   1 <1>  -0.1100 
  4 C       -1.3780     1.1960     0.2560 C.2   1 <1>  -0.1500 
  5 C       -3.4090    -0.3090    -0.4130 C.3   1 <1>   0.0200 
  6 C        0.0490     1.2090     0.1460 C.2   1 <1>  -0.1500 
  7 C       -3.7030    -1.5250     0.4730 C.3   1 <1>  -0.1600 
  8 C       -5.1900    -1.9130     0.4210 C.3   1 <1>  -0.0990 
  9 C       -5.4800    -3.1440     1.2680 C.2   1 <1>   0.5690 
 10 O       -5.7230    -2.9480     2.4380 O.2   1 <1>  -0.5700 
 11 N       -5.4150    -4.4110     0.7500 N.am  1 <1>  -0.6600 
 12 C       -5.6690    -5.5850     1.6490 C.3   1 <1>   0.3210 
 13 C       -5.0840    -4.7240    -0.7080 C.3   1 <1>   0.0340 
 14 C       -6.3710    -6.7490     0.9570 C.2   1 <1>   0.0460 
 15 C       -6.2170    -4.6160    -1.7440 C.2   1 <1>   0.9060 
 16 N       -5.7790    -7.9610     0.8640 N.2   1 <1>  -0.5650 
 17 C       -7.5780    -6.7530     0.3430 C.2   1 <1>  -0.3320 
 18 O       -6.9730    -3.6330    -1.7380 O.co2 1 <1>  -0.9000 
 19 O       -6.3180    -5.4920    -2.6140 O.co2 1 <1>  -0.9000 
 20 C       -6.6100    -8.6510     0.1520 C.2   1 <1>   0.0360 
 21 N       -7.7200    -7.9720    -0.1990 N.pl3 1 <1>   0.0330 
 22 C       -8.6120    -5.6530     0.1740 C.3   1 <1>  -0.0600 
 23 H        1.5590    -0.1490    -0.7340 H     1 <1>   0.1500 
 24 H       -1.8990     2.0000     0.7460 H     1 <1>   0.1500 
 25 H       -3.6330    -0.5410    -1.4400 H     1 <1>   0.0800 
 26 H       -4.0370     0.5110    -0.1120 H     1 <1>   0.0800 
 27 H        0.6260     2.0220     0.5520 H     1 <1>   0.1500 
 28 H       -3.4310    -1.3030     1.4900 H     1 <1>   0.0800 
 29 H       -3.1070    -2.3600     0.1460 H     1 <1>   0.0800 
 30 H       -5.4940    -2.0730    -0.5930 H     1 <1>   0.0800 
 31 H       -5.7860    -1.1050     0.8020 H     1 <1>   0.0800 
 32 H       -6.2740    -5.2860     2.4850 H     1 <1>   0.0800 
 33 H       -4.7260    -5.9310     2.0300 H     1 <1>   0.0800 
 34 H       -4.6940    -5.7220    -0.7740 H     1 <1>   0.0800 
 35 H       -4.3040    -4.0680    -1.0390 H     1 <1>   0.0800 
 36 H       -6.4460    -9.6690    -0.1500 H     1 <1>   0.1500 
 37 H       -8.4830    -8.2870    -0.8030 H     1 <1>   0.2700 
 38 H       -8.2560    -4.7320     0.6010 H     1 <1>   0.0800 
 39 H       -9.5340    -5.9240     0.6520 H     1 <1>   0.0800 
 40 H       -8.7950    -5.4780    -0.8730 H     1 <1>   0.0800 
@<TRIPOS>BOND
  1   1   2  1   
  2   1   3  1   
  3   2   4  2   
  4   2   5  1   
  5   3   6  2   
  6   3  23  1   
  7   4   6  1   
  8   4  24  1   
  9   5   7  1   
 10   5  25  1   
 11   5  26  1   
 12   6  27  1   
 13   7   8  1   
 14   7  28  1   
 15   7  29  1   
 16   8   9  1   
 17   8  30  1   
 18   8  31  1   
 19   9  10  2   
 20   9  11  am  
 21  11  12  1   
 22  11  13  1   
 23  12  14  1   
 24  12  32  1   
 25  12  33  1   
 26  13  15  1   
 27  13  34  1   
 28  13  35  1   
 29  14  16  1   
 30  14  17  2   
 31  15  18  ar  
 32  15  19  ar  
 33  16  20  2   
 34  17  21  1   
 35  17  22  1   
 36  20  21  1   
 37  20  36  1   
 38  21  37  1   
 39  22  38  1   
 40  22  39  1   
 41  22  40  1   
@<TRIPOS>SUBSTRUCTURE
  1 ****  11 GROUP 4 **** **** 0

# MOE 2024.06 (io_trps.svl 2023.06)
