@<TRIPOS>MOLECULE
NONAME
46 48 1 0 0 
SMALL
USER_CHARGES


@<TRIPOS>ATOM
  1 O        0.3990     1.2980    -1.1120 O.2   1 <1>  -0.5700 
  2 C        0.1020     2.4500    -0.9270 C.2   1 <1>   0.5690 
  3 N       -0.6570     2.8080     0.1300 N.am  1 <1>  -0.7300 
  4 C        0.5490     3.5300    -1.9110 C.3   1 <1>   0.1810 
  5 C       -1.1560     4.1870     0.3660 C.3   1 <1>   0.3640 
  6 O        0.5550     4.8110    -1.3240 O.3   1 <1>  -0.5600 
  7 C       -2.6800     4.1220     0.4290 C.ar  1 <1>  -0.1440 
  8 C       -0.6740     5.2020    -0.7130 C.3   1 <1>   0.2610 
  9 C       -3.3650     4.7970     1.4320 C.ar  1 <1>   0.1600 
 10 C       -3.4150     3.3980    -0.4940 C.ar  1 <1>  -0.1500 
 11 C       -0.5280     6.5960    -0.0910 C.2   1 <1>   0.5690 
 12 N       -4.6790     4.7940     1.5900 N.ar  1 <1>  -0.6200 
 13 C       -4.7850     3.3910    -0.3470 C.ar  1 <1>  -0.1500 
 14 O       -1.3850     7.0110     0.6520 O.2   1 <1>  -0.5700 
 15 N        0.5770     7.3320    -0.3800 N.am  1 <1>  -0.7300 
 16 C       -5.3580     4.0940     0.6980 C.ar  1 <1>   0.1600 
 17 C        0.8910     8.6770     0.1270 C.3   1 <1>   0.2200 
 18 C        1.1090     9.5980    -1.0820 C.3   1 <1>  -0.1600 
 19 C        2.0950     8.5480     1.0670 C.3   1 <1>  -0.1600 
 20 C        1.1170    11.0840    -0.6910 C.3   1 <1>  -0.1600 
 21 C        2.6240     9.8760     1.6340 C.3   1 <1>  -0.1600 
 22 C        2.4870    11.6340    -0.2630 C.3   1 <1>  -0.1600 
 23 C        3.3730    10.7060     0.5820 C.3   1 <1>  -0.1600 
 24 H       -0.9870     2.0750     0.7610 H     1 <1>   0.3700 
 25 H       -0.1090     3.5440    -2.7600 H     1 <1>   0.0800 
 26 H        1.5480     3.3170    -2.2450 H     1 <1>   0.0800 
 27 H       -0.7800     4.5070     1.3240 H     1 <1>   0.0800 
 28 H       -1.4110     5.2680    -1.4920 H     1 <1>   0.0800 
 29 H       -2.8050     5.3780     2.1470 H     1 <1>   0.1500 
 30 H       -2.9480     2.8520    -1.2970 H     1 <1>   0.1500 
 31 H       -5.4070     2.8450    -1.0330 H     1 <1>   0.1500 
 32 H        1.2890     6.8970    -0.9730 H     1 <1>   0.3700 
 33 H       -6.4290     4.0800     0.8050 H     1 <1>   0.1500 
 34 H        0.0480     9.0410     0.6920 H     1 <1>   0.0800 
 35 H        2.0130     9.3390    -1.6030 H     1 <1>   0.0800 
 36 H        0.2830     9.4500    -1.7550 H     1 <1>   0.0800 
 37 H        1.7930     7.9330     1.8960 H     1 <1>   0.0800 
 38 H        2.8960     8.0390     0.5600 H     1 <1>   0.0800 
 39 H        0.7810    11.6630    -1.5340 H     1 <1>   0.0800 
 40 H        0.4030    11.2480     0.0980 H     1 <1>   0.0800 
 41 H        1.8270    10.4490     2.0760 H     1 <1>   0.0800 
 42 H        3.3190     9.6380     2.4210 H     1 <1>   0.0800 
 43 H        3.0410    11.9040    -1.1460 H     1 <1>   0.0800 
 44 H        2.3180    12.5440     0.2870 H     1 <1>   0.0800 
 45 H        4.1010    11.3200     1.0840 H     1 <1>   0.0800 
 46 H        3.9240    10.0480    -0.0680 H     1 <1>   0.0800 
@<TRIPOS>BOND
  1   1   2  2   
  2   2   3  am  
  3   2   4  1   
  4   3   5  1   
  5   3  24  1   
  6   4   6  1   
  7   4  25  1   
  8   4  26  1   
  9   5   7  1   
 10   5   8  1   
 11   5  27  1   
 12   6   8  1   
 13   7   9  ar  
 14   7  10  ar  
 15   8  11  1   
 16   8  28  1   
 17   9  12  ar  
 18   9  29  1   
 19  10  13  ar  
 20  10  30  1   
 21  11  14  2   
 22  11  15  am  
 23  12  16  ar  
 24  13  16  ar  
 25  13  31  1   
 26  15  17  1   
 27  15  32  1   
 28  16  33  1   
 29  17  18  1   
 30  17  19  1   
 31  17  34  1   
 32  18  20  1   
 33  18  35  1   
 34  18  36  1   
 35  19  21  1   
 36  19  37  1   
 37  19  38  1   
 38  20  22  1   
 39  20  39  1   
 40  20  40  1   
 41  21  23  1   
 42  21  41  1   
 43  21  42  1   
 44  22  23  1   
 45  22  43  1   
 46  22  44  1   
 47  23  45  1   
 48  23  46  1   
@<TRIPOS>SUBSTRUCTURE
  1 ****  11 GROUP 4 **** **** 0

# MOE 2024.06 (io_trps.svl 2023.06)
