@<TRIPOS>MOLECULE
NONAME
36 38 1 0 0 
SMALL
USER_CHARGES


@<TRIPOS>ATOM
  1 O        0.1520    -0.1730     0.7810 O.3   1 <1>  -0.5600 
  2 C        1.4480    -0.2300     0.2650 C.3   1 <1>   0.1200 
  3 C       -0.5240    -1.3870     0.5700 C.3   1 <1>   0.1200 
  4 C        1.7800    -1.7120     0.1390 C.3   1 <1>   0.2000 
  5 C        0.4270    -2.3160    -0.1910 C.3   1 <1>   0.2890 
  6 O        2.7120    -1.9790    -0.8740 O.3   1 <1>  -0.5600 
  7 N        0.3450    -3.7490     0.2190 N.pl3 1 <1>  -0.8690 
  8 C        4.0310    -1.6640    -0.5550 C.3   1 <1>   0.0400 
  9 C       -0.7620    -4.5480     0.0100 C.ar  1 <1>   0.4100 
 10 N       -1.8670    -3.9730    -0.4200 N.ar  1 <1>  -0.3100 
 11 C       -0.6660    -5.9430     0.2450 C.ar  1 <1>   0.0000 
 12 N       -2.9470    -4.6990    -0.6740 N.ar  1 <1>  -0.3100 
 13 C       -1.8070    -6.7070    -0.0410 C.ar  1 <1>   0.0000 
 14 C        0.4800    -6.6010     0.7450 C.ar  1 <1>  -0.1500 
 15 C       -2.9290    -5.9910    -0.5040 C.ar  1 <1>   0.1670 
 16 C       -1.7520    -8.1080     0.1540 C.ar  1 <1>  -0.1500 
 17 C        0.5050    -7.9560     0.9290 C.ar  1 <1>  -0.1500 
 18 C       -4.2170    -6.7260    -0.8330 C.3   1 <1>  -0.0970 
 19 C       -0.6250    -8.7190     0.6260 C.ar  1 <1>  -0.1500 
 20 H        1.4360     0.2430    -0.7020 H     1 <1>   0.0800 
 21 H        2.1110     0.2840     0.9360 H     1 <1>   0.0800 
 22 H       -0.7720    -1.7990     1.5320 H     1 <1>   0.0800 
 23 H       -1.4200    -1.1940     0.0070 H     1 <1>   0.0800 
 24 H        2.1410    -2.0930     1.0790 H     1 <1>   0.0800 
 25 H        0.2320    -2.2230    -1.2470 H     1 <1>   0.0800 
 26 H        1.2470    -4.2180     0.1210 H     1 <1>   0.4000 
 27 H        4.6500    -1.9360    -1.3910 H     1 <1>   0.0800 
 28 H        4.3310    -2.2240     0.3140 H     1 <1>   0.0800 
 29 H        4.1160    -0.6070    -0.3740 H     1 <1>   0.0800 
 30 H        1.3510    -6.0220     0.9900 H     1 <1>   0.1500 
 31 H       -2.6160    -8.7060    -0.0720 H     1 <1>   0.1500 
 32 H        1.3850    -8.4480     1.3080 H     1 <1>   0.1500 
 33 H       -4.0420    -7.4380    -1.6190 H     1 <1>   0.0800 
 34 H       -4.9720    -6.0350    -1.1640 H     1 <1>   0.0800 
 35 H       -4.5830    -7.2350     0.0390 H     1 <1>   0.0800 
 36 H       -0.5910    -9.7850     0.7720 H     1 <1>   0.1500 
@<TRIPOS>BOND
  1   1   2  1   
  2   1   3  1   
  3   2   4  1   
  4   2  20  1   
  5   2  21  1   
  6   3   5  1   
  7   3  22  1   
  8   3  23  1   
  9   4   5  1   
 10   4   6  1   
 11   4  24  1   
 12   5   7  1   
 13   5  25  1   
 14   6   8  1   
 15   7   9  1   
 16   7  26  1   
 17   8  27  1   
 18   8  28  1   
 19   8  29  1   
 20   9  10  ar  
 21   9  11  ar  
 22  10  12  ar  
 23  11  13  ar  
 24  11  14  ar  
 25  12  15  ar  
 26  13  15  ar  
 27  13  16  ar  
 28  14  17  ar  
 29  14  30  1   
 30  15  18  1   
 31  16  19  ar  
 32  16  31  1   
 33  17  19  ar  
 34  17  32  1   
 35  18  33  1   
 36  18  34  1   
 37  18  35  1   
 38  19  36  1   
@<TRIPOS>SUBSTRUCTURE
  1 ****   9 GROUP 4 **** **** 0

# MOE 2024.06 (io_trps.svl 2023.06)
