@<TRIPOS>MOLECULE
NONAME
56 58 1 0 0 
SMALL
USER_CHARGES


@<TRIPOS>ATOM
  1 O       -0.0060     0.7540     0.0960 O.3   1 <1>  -0.3630 
  2 C        1.2410     1.2830    -0.0150 C.ar  1 <1>   0.0830 
  3 C       -1.1370     1.4670    -0.3380 C.3   1 <1>   0.1200 
  4 C        1.5080     2.5330    -0.5700 C.ar  1 <1>  -0.1500 
  5 C        2.2890     0.5110     0.4610 C.ar  1 <1>  -0.1500 
  6 C       -2.3590     0.5870    -0.0600 C.3   1 <1>   0.3430 
  7 C        2.8130     2.9900    -0.6390 C.ar  1 <1>  -0.1500 
  8 C        3.5930     0.9700     0.3910 C.ar  1 <1>  -0.1500 
  9 N       -3.6450     1.2060    -0.5250 N.4   1 <1>  -0.9590 
 10 C        3.8600     2.2180    -0.1630 C.ar  1 <1>   0.0830 
 11 C       -4.7550     0.1870    -0.5010 C.3   1 <1>   0.3430 
 12 C       -4.0100     2.4370     0.2380 C.3   1 <1>   0.3430 
 13 O        5.1060     2.7490    -0.2730 O.3   1 <1>  -0.3630 
 14 C       -6.1740     0.8050    -0.5900 C.3   1 <1>   0.0000 
 15 C       -5.1710     3.1490    -0.4670 C.3   1 <1>  -0.1600 
 16 C        6.2400     2.0450     0.1790 C.3   1 <1>   0.1200 
 17 C       -6.7960     0.7790     0.8250 C.3   1 <1>   0.2000 
 18 C       -6.0990     2.2030    -1.2510 C.3   1 <1>  -0.1600 
 19 C       -7.0990    -0.1330    -1.3850 C.3   1 <1>  -0.1600 
 20 C        7.4740     2.9060    -0.0870 C.3   1 <1>  -0.1600 
 21 O       -7.8670     1.6450     0.8960 O.3   1 <1>  -0.6800 
 22 C       -7.3290    -0.6400     1.0120 C.3   1 <1>  -0.1600 
 23 C       -7.5990    -1.1920    -0.3950 C.3   1 <1>  -0.1600 
 24 C        8.7560     2.2060     0.3790 C.3   1 <1>  -0.2400 
 25 H       -1.1790     2.3870     0.2180 H     1 <1>   0.0800 
 26 H       -1.0280     1.6540    -1.3920 H     1 <1>   0.0800 
 27 H        0.7310     3.1650    -0.9520 H     1 <1>   0.1500 
 28 H        2.0810    -0.4530     0.8890 H     1 <1>   0.1500 
 29 H       -2.4140     0.3920     0.9980 H     1 <1>   0.0800 
 30 H       -2.2130    -0.3520    -0.5690 H     1 <1>   0.0800 
 31 H        3.0330     3.9530    -1.0660 H     1 <1>   0.1500 
 32 H        4.3800     0.3450     0.7690 H     1 <1>   0.1500 
 33 H       -3.5380     1.4960    -1.5070 H     1 <1>   0.4500 
 34 H       -4.6200    -0.4880    -1.3300 H     1 <1>   0.0800 
 35 H       -4.6910    -0.4000     0.4010 H     1 <1>   0.0800 
 36 H       -4.3110     2.1640     1.2370 H     1 <1>   0.0800 
 37 H       -3.1720     3.1110     0.3120 H     1 <1>   0.0800 
 38 H       -5.7460     3.6640     0.2840 H     1 <1>   0.0800 
 39 H       -4.7850     3.9020    -1.1320 H     1 <1>   0.0800 
 40 H        6.1260     1.8600     1.2330 H     1 <1>   0.0800 
 41 H        6.3010     1.1160    -0.3600 H     1 <1>   0.0800 
 42 H       -6.1060     1.0590     1.6030 H     1 <1>   0.0800 
 43 H       -5.7250     2.0920    -2.2550 H     1 <1>   0.0800 
 44 H       -7.0770     2.6490    -1.3330 H     1 <1>   0.0800 
 45 H       -7.9510     0.4210    -1.7430 H     1 <1>   0.0800 
 46 H       -6.6150    -0.5780    -2.2370 H     1 <1>   0.0800 
 47 H        7.5440     3.1060    -1.1430 H     1 <1>   0.0800 
 48 H        7.3710     3.8420     0.4340 H     1 <1>   0.0800 
 49 H       -8.6060     1.3070     0.3530 H     1 <1>   0.4000 
 50 H       -6.5750    -1.2430     1.4860 H     1 <1>   0.0800 
 51 H       -8.2090    -0.6620     1.6340 H     1 <1>   0.0800 
 52 H       -7.0720    -2.1220    -0.5330 H     1 <1>   0.0800 
 53 H       -8.6510    -1.3750    -0.5400 H     1 <1>   0.0800 
 54 H        8.8880     1.2740    -0.1420 H     1 <1>   0.0800 
 55 H        8.7150     2.0110     1.4370 H     1 <1>   0.0800 
 56 H        9.6080     2.8320     0.1810 H     1 <1>   0.0800 
@<TRIPOS>BOND
  1   1   2  1   
  2   1   3  1   
  3   2   4  ar  
  4   2   5  ar  
  5   3   6  1   
  6   3  25  1   
  7   3  26  1   
  8   4   7  ar  
  9   4  27  1   
 10   5   8  ar  
 11   5  28  1   
 12   6   9  1   
 13   6  29  1   
 14   6  30  1   
 15   7  10  ar  
 16   7  31  1   
 17   8  10  ar  
 18   8  32  1   
 19   9  11  1   
 20   9  12  1   
 21   9  33  1   
 22  10  13  1   
 23  11  14  1   
 24  11  34  1   
 25  11  35  1   
 26  12  15  1   
 27  12  36  1   
 28  12  37  1   
 29  13  16  1   
 30  14  17  1   
 31  14  18  1   
 32  14  19  1   
 33  15  18  1   
 34  15  38  1   
 35  15  39  1   
 36  16  20  1   
 37  16  40  1   
 38  16  41  1   
 39  17  21  1   
 40  17  22  1   
 41  17  42  1   
 42  18  43  1   
 43  18  44  1   
 44  19  23  1   
 45  19  45  1   
 46  19  46  1   
 47  20  24  1   
 48  20  47  1   
 49  20  48  1   
 50  21  49  1   
 51  22  23  1   
 52  22  50  1   
 53  22  51  1   
 54  23  52  1   
 55  23  53  1   
 56  24  54  1   
 57  24  55  1   
 58  24  56  1   
@<TRIPOS>SUBSTRUCTURE
  1 ****   3 GROUP 4 **** **** 0

# MOE 2024.06 (io_trps.svl 2023.06)
