@<TRIPOS>MOLECULE
NONAME
49 51 1 0 0 
SMALL
USER_CHARGES


@<TRIPOS>ATOM
  1 F        1.4810     0.4900    -0.9680 F     1 <1>  -0.1900 
  2 C        2.1420    -0.5150    -0.4600 C.ar  1 <1>   0.1900 
  3 C        1.9060    -1.7810    -0.9490 C.ar  1 <1>  -0.1500 
  4 C        3.0510    -0.2690     0.5490 C.ar  1 <1>  -0.1500 
  5 C        2.5950    -2.8680    -0.4160 C.ar  1 <1>   0.0860 
  6 C        3.7460    -1.3410     1.0800 C.ar  1 <1>  -0.1500 
  7 C        3.5260    -2.6280     0.6050 C.ar  1 <1>  -0.1440 
  8 C        2.3240    -4.2010    -0.9210 C.2   1 <1>   0.5440 
  9 C        4.3210    -3.7820     1.2040 C.3   1 <1>  -0.0960 
 10 O        3.0360    -4.6780    -1.7830 O.2   1 <1>  -0.5700 
 11 N        1.2730    -4.9630    -0.4510 N.am  1 <1>  -0.6600 
 12 C        1.0170    -6.3040    -1.0620 C.3   1 <1>   0.1400 
 13 C        0.3440    -4.5010     0.6280 C.3   1 <1>   0.1400 
 14 C        0.0950    -7.1400    -0.1620 C.3   1 <1>   0.4230 
 15 C       -1.0920    -4.9280     0.2960 C.3   1 <1>  -0.1600 
 16 N        0.0150    -8.6180    -0.5010 N.4   1 <1>  -0.9590 
 17 C       -1.2860    -6.4610     0.0570 C.3   1 <1>   0.0000 
 18 C       -1.1200    -9.3240     0.1880 C.3   1 <1>   0.3430 
 19 C        0.0280    -8.9330    -1.9690 C.3   1 <1>   0.2630 
 20 C       -1.9100    -7.1360     1.3110 C.3   1 <1>  -0.1600 
 21 C       -2.2070    -6.6370    -1.1840 C.3   1 <1>   0.1200 
 22 C       -1.5060    -8.6190     1.4940 C.3   1 <1>  -0.1600 
 23 O       -3.3960    -5.9390    -1.0370 O.3   1 <1>  -0.6800 
 24 H        1.1940    -1.9250    -1.7420 H     1 <1>   0.1500 
 25 H        3.2090     0.7330     0.9040 H     1 <1>   0.1500 
 26 H        4.4630    -1.1630     1.8640 H     1 <1>   0.1500 
 27 H        5.0190    -3.4310     1.9430 H     1 <1>   0.0800 
 28 H        4.8760    -4.2840     0.4300 H     1 <1>   0.0800 
 29 H        3.6590    -4.4880     1.6700 H     1 <1>   0.0800 
 30 H        0.5770    -6.1560    -2.0320 H     1 <1>   0.0800 
 31 H        1.9580    -6.8130    -1.1800 H     1 <1>   0.0800 
 32 H        0.6510    -4.9250     1.5700 H     1 <1>   0.0800 
 33 H        0.3760    -3.4290     0.7250 H     1 <1>   0.0800 
 34 H        0.5730    -7.0970     0.8030 H     1 <1>   0.0800 
 35 H       -1.7550    -4.5810     1.0700 H     1 <1>   0.0800 
 36 H       -1.3660    -4.3770    -0.5890 H     1 <1>   0.0800 
 37 H        0.8780    -9.0230    -0.1100 H     1 <1>   0.4500 
 38 H       -1.9820    -9.3440    -0.4570 H     1 <1>   0.0800 
 39 H       -0.8440   -10.3460     0.3940 H     1 <1>   0.0800 
 40 H       -0.8370    -8.5150    -2.4560 H     1 <1>   0.0800 
 41 H        0.0240   -10.0010    -2.1210 H     1 <1>   0.0800 
 42 H        0.9130    -8.5300    -2.4340 H     1 <1>   0.0800 
 43 H       -1.5990    -6.6100     2.2000 H     1 <1>   0.0800 
 44 H       -2.9830    -7.0590     1.2800 H     1 <1>   0.0800 
 45 H       -2.4670    -7.6620    -1.3640 H     1 <1>   0.0800 
 46 H       -1.7290    -6.2470    -2.0660 H     1 <1>   0.0800 
 47 H       -2.3230    -9.1510     1.9520 H     1 <1>   0.0800 
 48 H       -0.6760    -8.6860     2.1760 H     1 <1>   0.0800 
 49 H       -3.9300    -6.2640    -0.2860 H     1 <1>   0.4000 
@<TRIPOS>BOND
  1   1   2  1   
  2   2   3  ar  
  3   2   4  ar  
  4   3   5  ar  
  5   3  24  1   
  6   4   6  ar  
  7   4  25  1   
  8   5   7  ar  
  9   5   8  1   
 10   6   7  ar  
 11   6  26  1   
 12   7   9  1   
 13   8  10  2   
 14   8  11  am  
 15   9  27  1   
 16   9  28  1   
 17   9  29  1   
 18  11  12  1   
 19  11  13  1   
 20  12  14  1   
 21  12  30  1   
 22  12  31  1   
 23  13  15  1   
 24  13  32  1   
 25  13  33  1   
 26  14  16  1   
 27  14  17  1   
 28  14  34  1   
 29  15  17  1   
 30  15  35  1   
 31  15  36  1   
 32  16  18  1   
 33  16  19  1   
 34  16  37  1   
 35  17  20  1   
 36  17  21  1   
 37  18  22  1   
 38  18  38  1   
 39  18  39  1   
 40  19  40  1   
 41  19  41  1   
 42  19  42  1   
 43  20  22  1   
 44  20  43  1   
 45  20  44  1   
 46  21  23  1   
 47  21  45  1   
 48  21  46  1   
 49  22  47  1   
 50  22  48  1   
 51  23  49  1   
@<TRIPOS>SUBSTRUCTURE
  1 ****  11 GROUP 4 **** **** 0

# MOE 2024.06 (io_trps.svl 2023.06)
