@<TRIPOS>MOLECULE
NONAME
24 24 1 0 0 
SMALL
USER_CHARGES


@<TRIPOS>ATOM
  1 F       -0.6720    -0.7260     0.6390 F     1 <1>  -0.3400 
  2 C       -1.4360    -0.7460    -0.4460 C.3   1 <1>   1.1640 
  3 F       -1.6420     0.5240    -0.7790 F     1 <1>  -0.3400 
  4 F       -0.6910    -1.2640    -1.4160 F     1 <1>  -0.3400 
  5 C       -2.7390    -1.5250    -0.2180 C.ar  1 <1>  -0.1440 
  6 C       -2.7640    -2.9090    -0.3500 C.ar  1 <1>  -0.1500 
  7 C       -3.9160    -0.8730     0.1330 C.ar  1 <1>  -0.1500 
  8 C       -3.9300    -3.6250    -0.1370 C.ar  1 <1>   0.0830 
  9 C       -5.0980    -1.5710     0.3400 C.ar  1 <1>   0.1000 
 10 O       -3.8480    -4.9720    -0.2840 O.3   1 <1>  -0.3630 
 11 C       -5.0940    -2.9530     0.2100 C.ar  1 <1>  -0.1500 
 12 N       -6.2520    -0.8780     0.6810 N.pl3 1 <1>  -0.8690 
 13 C       -4.9570    -5.8020    -0.0190 C.3   1 <1>   0.0400 
 14 C       -7.5200    -1.1980    -0.0220 C.3   1 <1>   0.1290 
 15 H       -1.8740    -3.4540    -0.6170 H     1 <1>   0.1500 
 16 H       -3.9300     0.1960     0.2500 H     1 <1>   0.1500 
 17 H       -6.0080    -3.4800     0.3930 H     1 <1>   0.1500 
 18 H       -6.1160     0.1330     0.7900 H     1 <1>   0.4000 
 19 H       -4.6550    -6.8220    -0.1720 H     1 <1>   0.0800 
 20 H       -5.7520    -5.5500    -0.6980 H     1 <1>   0.0800 
 21 H       -5.2620    -5.6610     1.0030 H     1 <1>   0.0800 
 22 H       -7.3150    -1.5250    -1.0270 H     1 <1>   0.0800 
 23 H       -8.1490    -0.3250    -0.0580 H     1 <1>   0.0800 
 24 H       -8.0380    -1.9800     0.5060 H     1 <1>   0.0800 
@<TRIPOS>BOND
  1   1   2  1   
  2   2   3  1   
  3   2   4  1   
  4   2   5  1   
  5   5   6  ar  
  6   5   7  ar  
  7   6   8  ar  
  8   6  15  1   
  9   7   9  ar  
 10   7  16  1   
 11   8  10  1   
 12   8  11  ar  
 13   9  11  ar  
 14   9  12  1   
 15  10  13  1   
 16  11  17  1   
 17  12  14  1   
 18  12  18  1   
 19  13  19  1   
 20  13  20  1   
 21  13  21  1   
 22  14  22  1   
 23  14  23  1   
 24  14  24  1   
@<TRIPOS>SUBSTRUCTURE
  1 ****   5 GROUP 4 **** **** 0

# MOE 2024.06 (io_trps.svl 2023.06)
