@<TRIPOS>MOLECULE
NONAME
67 70 1 0 0 
SMALL
USER_CHARGES


@<TRIPOS>ATOM
  1 O       -0.3020    -1.0010     0.0510 O.2   1 <1>  -0.5700 
  2 C        0.3090    -1.9680    -0.3370 C.2   1 <1>   0.5690 
  3 N        1.5450    -1.8270    -0.9250 N.am  1 <1>  -0.6600 
  4 C       -0.4130    -3.2940    -0.1550 C.3   1 <1>  -0.0990 
  5 C        2.3930    -2.9520    -1.4280 C.3   1 <1>   0.1400 
  6 C        2.0540    -0.4610    -1.2460 C.3   1 <1>   0.1400 
  7 C        0.3420    -4.5830    -0.4640 C.3   1 <1>   0.1200 
  8 C        2.6920    -4.0860    -0.3980 C.3   1 <1>   0.2800 
  9 C        2.9390     0.0540    -0.1070 C.3   1 <1>  -0.1600 
 10 O        1.5430    -4.5750     0.2340 O.3   1 <1>  -0.5600 
 11 C        3.3620    -5.2880    -1.0830 C.3   1 <1>  -0.1600 
 12 C        3.5860    -3.5940     0.7500 C.3   1 <1>  -0.1600 
 13 C        3.5860     1.4190    -0.4100 C.3   1 <1>  -0.0800 
 14 C        4.7940    -4.9820    -1.5340 C.3   1 <1>   0.1400 
 15 C        5.0170    -3.2950     0.2980 C.3   1 <1>   0.1400 
 16 C        4.5990     1.7680     0.6960 C.3   1 <1>  -0.1600 
 17 C        2.5360     2.5390    -0.5420 C.3   1 <1>  -0.1600 
 18 N        5.5920    -4.4950    -0.3720 N.am  1 <1>  -0.6600 
 19 C        5.2580     3.1320     0.4530 C.3   1 <1>  -0.1600 
 20 C        3.1910     3.9070    -0.7770 C.3   1 <1>  -0.1600 
 21 C        6.7580    -5.1360    -0.0110 C.2   1 <1>   0.5690 
 22 C        4.2030     4.2380     0.3260 C.3   1 <1>  -0.1600 
 23 O        7.2150    -6.0230    -0.6950 O.2   1 <1>  -0.5700 
 24 C        7.5200    -4.7500     1.2650 C.3   1 <1>  -0.0190 
 25 C        8.4420    -3.5390     1.0330 C.3   1 <1>  -0.1600 
 26 C        8.3670    -5.9000     1.8440 C.3   1 <1>  -0.1600 
 27 C        9.2300    -3.2030     2.3040 C.3   1 <1>   0.1200 
 28 C        9.1580    -5.4310     3.0690 C.3   1 <1>   0.1200 
 29 O        9.9390    -4.3270     2.7240 O.3   1 <1>  -0.5600 
 30 H       -1.2990    -3.2660    -0.7590 H     1 <1>   0.0800 
 31 H       -0.7360    -3.3410     0.8690 H     1 <1>   0.0800 
 32 H        3.3300    -2.5510    -1.7660 H     1 <1>   0.0800 
 33 H        1.9230    -3.3660    -2.3020 H     1 <1>   0.0800 
 34 H        1.2210     0.2050    -1.3880 H     1 <1>   0.0800 
 35 H        2.6090    -0.4840    -2.1680 H     1 <1>   0.0800 
 36 H        0.5120    -4.7250    -1.5160 H     1 <1>   0.0800 
 37 H       -0.2280    -5.4220    -0.1040 H     1 <1>   0.0800 
 38 H        3.7210    -0.6580     0.0690 H     1 <1>   0.0800 
 39 H        2.3440     0.1290     0.7870 H     1 <1>   0.0800 
 40 H        2.7860    -5.5990    -1.9350 H     1 <1>   0.0800 
 41 H        3.4030    -6.1130    -0.3930 H     1 <1>   0.0800 
 42 H        3.6290    -4.3510     1.5130 H     1 <1>   0.0800 
 43 H        3.1550    -2.7130     1.1900 H     1 <1>   0.0800 
 44 H        4.1230     1.3450    -1.3410 H     1 <1>   0.0800 
 45 H        4.8000    -4.2320    -2.3050 H     1 <1>   0.0800 
 46 H        5.2270    -5.8770    -1.9480 H     1 <1>   0.0800 
 47 H        5.5970    -2.9960     1.1500 H     1 <1>   0.0800 
 48 H        5.0290    -2.4750    -0.3980 H     1 <1>   0.0800 
 49 H        5.3640     1.0130     0.7410 H     1 <1>   0.0800 
 50 H        4.0960     1.7860     1.6480 H     1 <1>   0.0800 
 51 H        1.9430     2.5820     0.3560 H     1 <1>   0.0800 
 52 H        1.8710     2.3360    -1.3620 H     1 <1>   0.0800 
 53 H        5.8430     3.0920    -0.4490 H     1 <1>   0.0800 
 54 H        5.9220     3.3620     1.2680 H     1 <1>   0.0800 
 55 H        2.4320     4.6690    -0.8080 H     1 <1>   0.0800 
 56 H        3.6920     3.9020    -1.7300 H     1 <1>   0.0800 
 57 H        4.6860     5.1740     0.1040 H     1 <1>   0.0800 
 58 H        3.6850     4.3470     1.2630 H     1 <1>   0.0800 
 59 H        6.8000    -4.5010     2.0210 H     1 <1>   0.0800 
 60 H        7.8690    -2.6810     0.7310 H     1 <1>   0.0800 
 61 H        9.1380    -3.7610     0.2430 H     1 <1>   0.0800 
 62 H        9.0630    -6.2580     1.1050 H     1 <1>   0.0800 
 63 H        7.7280    -6.7210     2.1170 H     1 <1>   0.0800 
 64 H        8.5780    -2.8920     3.1020 H     1 <1>   0.0800 
 65 H        9.9440    -2.4210     2.1100 H     1 <1>   0.0800 
 66 H        9.8220    -6.2070     3.4080 H     1 <1>   0.0800 
 67 H        8.5040    -5.1500     3.8770 H     1 <1>   0.0800 
@<TRIPOS>BOND
  1   1   2  2   
  2   2   3  am  
  3   2   4  1   
  4   3   5  1   
  5   3   6  1   
  6   4   7  1   
  7   4  30  1   
  8   4  31  1   
  9   5   8  1   
 10   5  32  1   
 11   5  33  1   
 12   6   9  1   
 13   6  34  1   
 14   6  35  1   
 15   7  10  1   
 16   7  36  1   
 17   7  37  1   
 18   8  10  1   
 19   8  11  1   
 20   8  12  1   
 21   9  13  1   
 22   9  38  1   
 23   9  39  1   
 24  11  14  1   
 25  11  40  1   
 26  11  41  1   
 27  12  15  1   
 28  12  42  1   
 29  12  43  1   
 30  13  16  1   
 31  13  17  1   
 32  13  44  1   
 33  14  18  1   
 34  14  45  1   
 35  14  46  1   
 36  15  18  1   
 37  15  47  1   
 38  15  48  1   
 39  16  19  1   
 40  16  49  1   
 41  16  50  1   
 42  17  20  1   
 43  17  51  1   
 44  17  52  1   
 45  18  21  am  
 46  19  22  1   
 47  19  53  1   
 48  19  54  1   
 49  20  22  1   
 50  20  55  1   
 51  20  56  1   
 52  21  23  2   
 53  21  24  1   
 54  22  57  1   
 55  22  58  1   
 56  24  25  1   
 57  24  26  1   
 58  24  59  1   
 59  25  27  1   
 60  25  60  1   
 61  25  61  1   
 62  26  28  1   
 63  26  62  1   
 64  26  63  1   
 65  27  29  1   
 66  27  64  1   
 67  27  65  1   
 68  28  29  1   
 69  28  66  1   
 70  28  67  1   
@<TRIPOS>SUBSTRUCTURE
  1 ****  15 GROUP 4 **** **** 0

# MOE 2024.06 (io_trps.svl 2023.06)
