@<TRIPOS>MOLECULE
NONAME
50 52 1 0 0 
SMALL
USER_CHARGES


@<TRIPOS>ATOM
  1 S        0.3900    -0.8660     0.4100 S.o2  1 <1>   1.5010 
  2 O        1.0250    -2.1650     0.3050 O.2   1 <1>  -0.6500 
  3 O       -0.2350    -0.5880     1.6880 O.2   1 <1>  -0.6500 
  4 N       -0.8840    -0.9020    -0.7270 N.am  1 <1>  -0.8490 
  5 C        1.5420     0.4590    -0.1370 C.2   1 <1>   0.1640 
  6 C       -1.6070    -2.1720    -0.7570 C.3   1 <1>   0.1960 
  7 C       -1.8260     0.2340    -0.6420 C.3   1 <1>   0.1960 
  8 N        1.1790     1.7600    -0.3410 N.2   1 <1>  -0.5650 
  9 C        2.8690     0.3340    -0.4040 C.2   1 <1>  -0.3020 
 10 C       -2.5960    -2.1700     0.4250 C.3   1 <1>   0.4230 
 11 C       -3.0270     0.0050     0.3270 C.3   1 <1>  -0.1600 
 12 C        2.2630     2.3600    -0.7080 C.2   1 <1>   0.0060 
 13 N        3.3300     1.5410    -0.7680 N.pl3 1 <1>   0.0330 
 14 N       -2.7440    -3.4520     1.2040 N.4   1 <1>  -0.9590 
 15 C       -3.8910    -1.3340     0.0210 C.3   1 <1>   0.0000 
 16 C        2.3400     3.8380    -1.0450 C.3   1 <1>   0.0200 
 17 C       -3.2040    -4.5860     0.3920 C.3   1 <1>   0.3430 
 18 C       -1.4840    -3.7660     1.9530 C.3   1 <1>   0.2630 
 19 C       -4.7430    -2.6550    -0.3600 C.3   1 <1>  -0.1600 
 20 C       -5.1790    -0.4360    -0.3040 C.3   1 <1>   0.1200 
 21 C        3.1580     4.6060    -0.0010 C.3   1 <1>  -0.2400 
 22 C       -4.1340    -4.0470    -0.6770 C.3   1 <1>  -0.1600 
 23 O       -5.7180    -0.0140     0.9090 O.3   1 <1>  -0.6800 
 24 H       -2.1440    -2.2370    -1.6870 H     1 <1>   0.0800 
 25 H       -0.9290    -3.0050    -0.7100 H     1 <1>   0.0800 
 26 H       -1.3010     1.1290    -0.3530 H     1 <1>   0.0800 
 27 H       -2.2180     0.4130    -1.6290 H     1 <1>   0.0800 
 28 H        3.4880    -0.5450    -0.3500 H     1 <1>   0.1500 
 29 H       -2.0690    -1.6060     1.1650 H     1 <1>   0.0800 
 30 H       -2.6960     0.0410     1.3530 H     1 <1>   0.0800 
 31 H       -3.5280     0.9590     0.2930 H     1 <1>   0.0800 
 32 H        4.2870     1.7980    -1.0310 H     1 <1>   0.2700 
 33 H       -3.4830    -3.2480     1.8920 H     1 <1>   0.4500 
 34 H        2.7760     3.9630    -2.0200 H     1 <1>   0.0800 
 35 H        1.3420     4.2400    -1.0770 H     1 <1>   0.0800 
 36 H       -2.3690    -5.0870    -0.0730 H     1 <1>   0.0800 
 37 H       -3.7260    -5.2930     1.0180 H     1 <1>   0.0800 
 38 H       -0.6750    -3.9660     1.2690 H     1 <1>   0.0800 
 39 H       -1.6250    -4.6270     2.5860 H     1 <1>   0.0800 
 40 H       -1.2000    -2.9280     2.5720 H     1 <1>   0.0800 
 41 H       -5.4870    -2.8050     0.4080 H     1 <1>   0.0800 
 42 H       -5.2660    -2.5200    -1.2950 H     1 <1>   0.0800 
 43 H       -6.0240    -0.8630    -0.8170 H     1 <1>   0.0800 
 44 H       -4.9610     0.4250    -0.9160 H     1 <1>   0.0800 
 45 H        4.1720     4.2520     0.0250 H     1 <1>   0.0800 
 46 H        2.7200     4.4770     0.9730 H     1 <1>   0.0800 
 47 H        3.1640     5.6550    -0.2390 H     1 <1>   0.0800 
 48 H       -3.5960    -4.0040    -1.6080 H     1 <1>   0.0800 
 49 H       -4.9260    -4.7600    -0.8270 H     1 <1>   0.0800 
 50 H       -6.4860     0.5780     0.7700 H     1 <1>   0.4000 
@<TRIPOS>BOND
  1   1   2  2   
  2   1   3  2   
  3   1   4  am  
  4   1   5  1   
  5   4   6  1   
  6   4   7  1   
  7   5   8  1   
  8   5   9  2   
  9   6  10  1   
 10   6  24  1   
 11   6  25  1   
 12   7  11  1   
 13   7  26  1   
 14   7  27  1   
 15   8  12  2   
 16   9  13  1   
 17   9  28  1   
 18  10  14  1   
 19  10  15  1   
 20  10  29  1   
 21  11  15  1   
 22  11  30  1   
 23  11  31  1   
 24  12  13  1   
 25  12  16  1   
 26  13  32  1   
 27  14  17  1   
 28  14  18  1   
 29  14  33  1   
 30  15  19  1   
 31  15  20  1   
 32  16  21  1   
 33  16  34  1   
 34  16  35  1   
 35  17  22  1   
 36  17  36  1   
 37  17  37  1   
 38  18  38  1   
 39  18  39  1   
 40  18  40  1   
 41  19  22  1   
 42  19  41  1   
 43  19  42  1   
 44  20  23  1   
 45  20  43  1   
 46  20  44  1   
 47  21  45  1   
 48  21  46  1   
 49  21  47  1   
 50  22  48  1   
 51  22  49  1   
 52  23  50  1   
@<TRIPOS>SUBSTRUCTURE
  1 ****   4 GROUP 4 **** **** 0

# MOE 2024.06 (io_trps.svl 2023.06)
