@<TRIPOS>MOLECULE
NONAME
53 55 1 0 0 
SMALL
USER_CHARGES


@<TRIPOS>ATOM
  1 O       -1.2830     0.4040    -1.5310 O.2   1 <1>  -0.5700 
  2 C       -1.5330     0.7750    -0.4000 C.2   1 <1>   0.5440 
  3 N       -2.0990    -0.1230     0.4580 N.am  1 <1>  -0.7300 
  4 C       -1.2320     2.1310     0.0250 C.ar  1 <1>   0.0860 
  5 C       -2.4300    -1.5290     0.1310 C.3   1 <1>   0.2200 
  6 C       -0.2290     2.8680    -0.6090 C.ar  1 <1>  -0.1500 
  7 C       -1.9210     2.7490     1.0720 C.ar  1 <1>  -0.1500 
  8 C       -3.9310    -1.6550    -0.0590 C.3   1 <1>  -0.0800 
  9 C       -2.1990    -2.4050     1.3560 C.3   1 <1>   0.1200 
 10 C        0.0890     4.1630    -0.2200 C.ar  1 <1>   0.0830 
 11 C       -1.6160     4.0360     1.4750 C.ar  1 <1>  -0.1500 
 12 C       -4.4290    -1.8300     1.3810 C.3   1 <1>   0.1200 
 13 C       -4.2890    -2.8570    -0.9530 C.3   1 <1>  -0.0160 
 14 O       -3.3420    -2.2670     2.1460 O.3   1 <1>  -0.5600 
 15 O        1.0640     4.9000    -0.8260 O.3   1 <1>  -0.3630 
 16 C       -0.6170     4.7490     0.8320 C.ar  1 <1>   0.0830 
 17 C       -5.7910    -2.9630    -1.1670 C.ar  1 <1>  -0.1430 
 18 C        1.8200     4.3860    -1.8990 C.3   1 <1>   0.0400 
 19 O       -0.3220     6.0020     1.2470 O.3   1 <1>  -0.3630 
 20 C       -6.4630    -2.1060    -2.0150 C.ar  1 <1>  -0.1500 
 21 C       -6.5590    -3.9180    -0.5310 C.ar  1 <1>  -0.1500 
 22 C       -1.2600     7.0240     1.0000 C.3   1 <1>   0.2000 
 23 C       -7.8330    -2.2360    -2.1750 C.ar  1 <1>   0.1600 
 24 C       -7.9240    -3.9620    -0.7610 C.ar  1 <1>   0.1600 
 25 C       -1.1090     7.4900    -0.4490 C.3   1 <1>  -0.2400 
 26 C       -0.9700     8.1540     1.9840 C.3   1 <1>  -0.2400 
 27 N       -8.5800    -3.1430    -1.5670 N.ar  1 <1>  -0.6200 
 28 H       -2.2750     0.1300     1.4320 H     1 <1>   0.3700 
 29 H       -1.8610    -1.8620    -0.7220 H     1 <1>   0.0800 
 30 H        0.2940     2.3930    -1.4180 H     1 <1>   0.1500 
 31 H       -2.7080     2.2220     1.5790 H     1 <1>   0.1500 
 32 H       -4.3400    -0.7640    -0.5030 H     1 <1>   0.0800 
 33 H       -1.3300    -2.1130     1.9190 H     1 <1>   0.0800 
 34 H       -2.1190    -3.4400     1.0750 H     1 <1>   0.0800 
 35 H       -2.1460     4.4920     2.2920 H     1 <1>   0.1500 
 36 H       -5.2260    -2.5470     1.4680 H     1 <1>   0.0800 
 37 H       -4.7530    -0.8880     1.7880 H     1 <1>   0.0800 
 38 H       -3.9210    -3.7700    -0.5180 H     1 <1>   0.0800 
 39 H       -3.8130    -2.7410    -1.9120 H     1 <1>   0.0800 
 40 H        2.5190     5.1430    -2.2060 H     1 <1>   0.0800 
 41 H        1.1580     4.1490    -2.7130 H     1 <1>   0.0800 
 42 H        2.3520     3.5130    -1.5650 H     1 <1>   0.0800 
 43 H       -5.9360    -1.3390    -2.5510 H     1 <1>   0.1500 
 44 H       -6.1120    -4.6260     0.1420 H     1 <1>   0.1500 
 45 H       -2.2510     6.6360     1.1690 H     1 <1>   0.0800 
 46 H       -8.3400    -1.5580    -2.8400 H     1 <1>   0.1500 
 47 H       -8.5080    -4.7130    -0.2560 H     1 <1>   0.1500 
 48 H       -0.1010     7.8180    -0.6290 H     1 <1>   0.0800 
 49 H       -1.7800     8.3050    -0.6470 H     1 <1>   0.0800 
 50 H       -1.3430     6.6860    -1.1230 H     1 <1>   0.0800 
 51 H        0.0280     8.5280     1.8370 H     1 <1>   0.0800 
 52 H       -1.0700     7.7950     2.9920 H     1 <1>   0.0800 
 53 H       -1.6660     8.9590     1.8370 H     1 <1>   0.0800 
@<TRIPOS>BOND
  1   1   2  2   
  2   2   3  am  
  3   2   4  1   
  4   3   5  1   
  5   3  28  1   
  6   4   6  ar  
  7   4   7  ar  
  8   5   8  1   
  9   5   9  1   
 10   5  29  1   
 11   6  10  ar  
 12   6  30  1   
 13   7  11  ar  
 14   7  31  1   
 15   8  12  1   
 16   8  13  1   
 17   8  32  1   
 18   9  14  1   
 19   9  33  1   
 20   9  34  1   
 21  10  15  1   
 22  10  16  ar  
 23  11  16  ar  
 24  11  35  1   
 25  12  14  1   
 26  12  36  1   
 27  12  37  1   
 28  13  17  1   
 29  13  38  1   
 30  13  39  1   
 31  15  18  1   
 32  16  19  1   
 33  17  20  ar  
 34  17  21  ar  
 35  18  40  1   
 36  18  41  1   
 37  18  42  1   
 38  19  22  1   
 39  20  23  ar  
 40  20  43  1   
 41  21  24  ar  
 42  21  44  1   
 43  22  25  1   
 44  22  26  1   
 45  22  45  1   
 46  23  27  ar  
 47  23  46  1   
 48  24  27  ar  
 49  24  47  1   
 50  25  48  1   
 51  25  49  1   
 52  25  50  1   
 53  26  51  1   
 54  26  52  1   
 55  26  53  1   
@<TRIPOS>SUBSTRUCTURE
  1 ****   2 GROUP 4 **** **** 0

# MOE 2024.06 (io_trps.svl 2023.06)
