@<TRIPOS>MOLECULE
NONAME
47 49 1 0 0 
SMALL
USER_CHARGES


@<TRIPOS>ATOM
  1 S        0.4280     0.8310    -0.9430 S.o2  1 <1>   1.3330 
  2 O        1.2880     0.3690    -2.0070 O.2   1 <1>  -0.6500 
  3 O       -0.4650     1.9440    -1.1700 O.2   1 <1>  -0.6500 
  4 N        1.4370     1.2420     0.3600 N.am  1 <1>  -0.8490 
  5 C       -0.5430    -0.5240    -0.3180 C.3   1 <1>  -0.1350 
  6 C        1.9680     2.6050     0.1870 C.3   1 <1>   0.1960 
  7 C        2.5240     0.2660     0.5510 C.3   1 <1>   0.1160 
  8 C        2.5510     3.1760     1.4890 C.3   1 <1>   0.2090 
  9 N        2.8010     4.6450     1.3550 N.pl3 1 <1>  -0.8690 
 10 C        3.9180     5.2500     0.9180 C.ar  1 <1>   0.4610 
 11 N        3.9600     6.5830     0.8750 N.ar  1 <1>  -0.1790 
 12 C        5.0720     4.5530     0.4820 C.ar  1 <1>  -0.1500 
 13 C        5.0490     7.3160     0.4390 C.ar  1 <1>   0.3610 
 14 C        6.1850     5.2010     0.0390 C.ar  1 <1>  -0.1430 
 15 C        6.2040     6.6300     0.0070 C.ar  1 <1>   0.0000 
 16 C        5.0040     8.7150     0.4280 C.ar  1 <1>  -0.1500 
 17 C        7.4040     4.4100    -0.4220 C.3   1 <1>  -0.0970 
 18 C        7.3000     7.3950    -0.4310 C.ar  1 <1>  -0.1500 
 19 C        6.0950     9.4220    -0.0070 C.ar  1 <1>  -0.1430 
 20 C        7.2300     8.7640    -0.4320 C.ar  1 <1>  -0.1430 
 21 C        6.2680    10.9200    -0.1020 C.3   1 <1>  -0.0170 
 22 C        8.2960     9.7450    -0.8590 C.3   1 <1>  -0.0170 
 23 C        7.7800    11.0900    -0.3230 C.3   1 <1>  -0.1600 
 24 H       -1.2580    -0.8300    -1.0560 H     1 <1>   0.0800 
 25 H       -1.0710    -0.2220     0.5650 H     1 <1>   0.0800 
 26 H        0.0820    -1.3620    -0.0820 H     1 <1>   0.0800 
 27 H        1.1690     3.2630    -0.1070 H     1 <1>   0.0800 
 28 H        2.7090     2.6130    -0.5950 H     1 <1>   0.0800 
 29 H        2.1210    -0.7260     0.6520 H     1 <1>   0.0800 
 30 H        3.0790     0.4840     1.4460 H     1 <1>   0.0800 
 31 H        3.1960     0.2760    -0.2920 H     1 <1>   0.0800 
 32 H        3.4610     2.6660     1.7480 H     1 <1>   0.0800 
 33 H        1.8420     3.0170     2.2850 H     1 <1>   0.0800 
 34 H        1.9640     5.1740     1.6310 H     1 <1>   0.4000 
 35 H        3.1430     7.0980     1.1820 H     1 <1>   0.4570 
 36 H        5.0510     3.4800     0.5040 H     1 <1>   0.1500 
 37 H        4.1270     9.2420     0.7560 H     1 <1>   0.1500 
 38 H        7.2360     3.3510    -0.3380 H     1 <1>   0.0800 
 39 H        8.2600     4.6610     0.1800 H     1 <1>   0.0800 
 40 H        7.6240     4.6330    -1.4510 H     1 <1>   0.0800 
 41 H        8.2020     6.9160    -0.7680 H     1 <1>   0.1500 
 42 H        5.9430    11.4220     0.7930 H     1 <1>   0.0800 
 43 H        5.7220    11.2950    -0.9500 H     1 <1>   0.0800 
 44 H        8.3560     9.7660    -1.9330 H     1 <1>   0.0800 
 45 H        9.2580     9.4970    -0.4450 H     1 <1>   0.0800 
 46 H        8.2490    11.2870     0.6260 H     1 <1>   0.0800 
 47 H        7.9990    11.9010    -0.9950 H     1 <1>   0.0800 
@<TRIPOS>BOND
  1   1   2  2   
  2   1   3  2   
  3   1   4  am  
  4   1   5  1   
  5   4   6  1   
  6   4   7  1   
  7   5  24  1   
  8   5  25  1   
  9   5  26  1   
 10   6   8  1   
 11   6  27  1   
 12   6  28  1   
 13   7  29  1   
 14   7  30  1   
 15   7  31  1   
 16   8   9  1   
 17   8  32  1   
 18   8  33  1   
 19   9  10  1   
 20   9  34  1   
 21  10  11  ar  
 22  10  12  ar  
 23  11  13  ar  
 24  11  35  1   
 25  12  14  ar  
 26  12  36  1   
 27  13  15  ar  
 28  13  16  ar  
 29  14  15  ar  
 30  14  17  1   
 31  15  18  ar  
 32  16  19  ar  
 33  16  37  1   
 34  17  38  1   
 35  17  39  1   
 36  17  40  1   
 37  18  20  ar  
 38  18  41  1   
 39  19  20  ar  
 40  19  21  1   
 41  20  22  1   
 42  21  23  1   
 43  21  42  1   
 44  21  43  1   
 45  22  23  1   
 46  22  44  1   
 47  22  45  1   
 48  23  46  1   
 49  23  47  1   
@<TRIPOS>SUBSTRUCTURE
  1 ****  10 GROUP 4 **** **** 0

# MOE 2024.06 (io_trps.svl 2023.06)
