@<TRIPOS>MOLECULE
NONAME
41 42 1 0 0 
SMALL
USER_CHARGES


@<TRIPOS>ATOM
  1 N       -0.5470    -0.2080     0.0360 N.ar  1 <1>  -0.6200 
  2 C        0.6340     0.3020    -0.2650 C.ar  1 <1>   0.7710 
  3 C       -1.5350     0.6180     0.3020 C.ar  1 <1>   0.4100 
  4 N        0.8380     1.6270    -0.2850 N.ar  1 <1>  -0.1790 
  5 N        1.6720    -0.5320    -0.5570 N.pl3 1 <1>  -0.8380 
  6 N       -2.7240     0.0590     0.6230 N.pl3 1 <1>  -0.8690 
  7 C       -1.3820     2.0270     0.2620 C.ar  1 <1>  -0.1430 
  8 C       -0.1430     2.5230    -0.0220 C.ar  1 <1>   0.2170 
  9 C        1.5410    -2.0190    -0.3870 C.3   1 <1>   0.1290 
 10 C        3.0040    -0.1500    -1.1240 C.3   1 <1>   0.1290 
 11 C       -2.9860    -1.3970     0.8100 C.3   1 <1>   0.2090 
 12 C       -2.6080     2.9070     0.5360 C.3   1 <1>  -0.0970 
 13 C        0.2490     3.9950    -0.0750 C.3   1 <1>  -0.0970 
 14 C       -3.2400    -2.0690    -0.5390 C.3   1 <1>   0.0960 
 15 N       -3.4550    -3.5110    -0.3360 N.pl3 1 <1>   0.0480 
 16 C       -2.4910    -4.4670    -0.2730 C.2   1 <1>  -0.3020 
 17 C       -4.6480    -4.1320    -0.1380 C.2   1 <1>  -0.3020 
 18 C       -3.0640    -5.6760    -0.0410 C.2   1 <1>  -0.1500 
 19 C       -4.4430    -5.4620     0.0450 C.2   1 <1>  -0.1500 
 20 H        1.7860     1.9100    -0.4890 H     1 <1>   0.4570 
 21 H       -3.5250     0.6590     0.8360 H     1 <1>   0.4000 
 22 H        0.7870    -2.2690     0.3410 H     1 <1>   0.0800 
 23 H        2.4730    -2.4400    -0.0510 H     1 <1>   0.0800 
 24 H        1.2740    -2.4710    -1.3280 H     1 <1>   0.0800 
 25 H        2.9870     0.8290    -1.5690 H     1 <1>   0.0800 
 26 H        3.2850    -0.8510    -1.8940 H     1 <1>   0.0800 
 27 H        3.7540    -0.1780    -0.3500 H     1 <1>   0.0800 
 28 H       -3.8430    -1.5260     1.4480 H     1 <1>   0.0800 
 29 H       -2.1360    -1.8580     1.2850 H     1 <1>   0.0800 
 30 H       -3.4410     2.5740    -0.0580 H     1 <1>   0.0800 
 31 H       -2.4460     3.9390     0.2910 H     1 <1>   0.0800 
 32 H       -2.8810     2.8430     1.5750 H     1 <1>   0.0800 
 33 H        1.2530     4.1350     0.2850 H     1 <1>   0.0800 
 34 H       -0.3900     4.5970     0.5430 H     1 <1>   0.0800 
 35 H        0.1900     4.3570    -1.0860 H     1 <1>   0.0800 
 36 H       -2.3910    -1.9350    -1.1830 H     1 <1>   0.0800 
 37 H       -4.1120    -1.6490    -1.0060 H     1 <1>   0.0800 
 38 H       -1.4470    -4.2420    -0.3970 H     1 <1>   0.1500 
 39 H       -5.5830    -3.6000    -0.1380 H     1 <1>   0.1500 
 40 H       -2.5790    -6.6320     0.0610 H     1 <1>   0.1500 
 41 H       -5.1790    -6.2270     0.2240 H     1 <1>   0.1500 
@<TRIPOS>BOND
  1   1   2  ar  
  2   1   3  ar  
  3   2   4  ar  
  4   2   5  1   
  5   3   6  1   
  6   3   7  ar  
  7   4   8  ar  
  8   4  20  1   
  9   5   9  1   
 10   5  10  1   
 11   6  11  1   
 12   6  21  1   
 13   7   8  ar  
 14   7  12  1   
 15   8  13  1   
 16   9  22  1   
 17   9  23  1   
 18   9  24  1   
 19  10  25  1   
 20  10  26  1   
 21  10  27  1   
 22  11  14  1   
 23  11  28  1   
 24  11  29  1   
 25  12  30  1   
 26  12  31  1   
 27  12  32  1   
 28  13  33  1   
 29  13  34  1   
 30  13  35  1   
 31  14  15  1   
 32  14  36  1   
 33  14  37  1   
 34  15  16  1   
 35  15  17  1   
 36  16  18  2   
 37  16  38  1   
 38  17  19  2   
 39  17  39  1   
 40  18  19  1   
 41  18  40  1   
 42  19  41  1   
@<TRIPOS>SUBSTRUCTURE
  1 ****   1 GROUP 4 **** **** 0

# MOE 2024.06 (io_trps.svl 2023.06)
