@<TRIPOS>MOLECULE
NONAME
55 57 1 0 0 
SMALL
USER_CHARGES


@<TRIPOS>ATOM
  1 O       -0.1960     1.6730    -1.4130 O.2   1 <1>  -0.5700 
  2 C       -0.4660     2.7860    -1.0270 C.2   1 <1>   0.5690 
  3 N       -1.3540     3.0500    -0.0150 N.am  1 <1>  -0.6600 
  4 C        0.2210     3.9580    -1.7210 C.3   1 <1>   0.1810 
  5 C       -1.6390     4.4670     0.3990 C.3   1 <1>   0.3640 
  6 C       -2.0350     2.0120     0.8090 C.3   1 <1>   0.2200 
  7 O        0.4530     5.0190    -0.8340 O.3   1 <1>  -0.5600 
  8 C       -3.1040     4.7940     0.0970 C.ar  1 <1>  -0.1440 
  9 C       -0.7240     5.5490    -0.2430 C.3   1 <1>   0.2610 
 10 C       -1.0040     1.2240     1.6150 C.3   1 <1>  -0.2400 
 11 C       -2.9090     1.0990    -0.0510 C.3   1 <1>  -0.2400 
 12 C       -3.6780     4.4740    -1.1270 C.ar  1 <1>  -0.1500 
 13 C       -3.8810     5.4320     1.0540 C.ar  1 <1>  -0.1500 
 14 C       -0.3530     6.6060     0.8070 C.2   1 <1>   0.5690 
 15 C       -5.0020     4.7810    -1.3880 C.ar  1 <1>  -0.1500 
 16 C       -5.2050     5.7410     0.7950 C.ar  1 <1>  -0.1500 
 17 O       -1.2150     7.1170     1.4820 O.2   1 <1>  -0.5700 
 18 N        0.9500     6.9480     0.9670 N.am  1 <1>  -0.7300 
 19 C       -5.7670     5.4150    -0.4260 C.ar  1 <1>  -0.1500 
 20 C        1.4620     7.9900     1.8690 C.3   1 <1>   0.2840 
 21 C        2.7120     8.5800     1.2500 C.ar  1 <1>  -0.1430 
 22 C        3.9670     8.1890     1.6830 C.ar  1 <1>   0.1600 
 23 C        2.6240     9.5140     0.2380 C.ar  1 <1>  -0.1500 
 24 N        5.1080     8.6450     1.1990 N.ar  1 <1>  -0.6200 
 25 C        3.8020    10.0090    -0.2830 C.ar  1 <1>  -0.1430 
 26 C        5.0110     9.5390     0.2290 C.ar  1 <1>   0.1670 
 27 C        3.7350    11.0490    -1.3950 C.3   1 <1>  -0.0970 
 28 C        6.3390    10.0420    -0.3070 C.3   1 <1>  -0.0970 
 29 H       -0.3840     4.3100    -2.5370 H     1 <1>   0.0800 
 30 H        1.1730     3.6360    -2.1030 H     1 <1>   0.0800 
 31 H       -1.4980     4.5150     1.4660 H     1 <1>   0.0800 
 32 H       -2.6880     2.5040     1.5110 H     1 <1>   0.0800 
 33 H       -1.2680     6.0510    -1.0230 H     1 <1>   0.0800 
 34 H       -0.3680     0.6500     0.9660 H     1 <1>   0.0800 
 35 H       -1.5050     0.5430     2.2800 H     1 <1>   0.0800 
 36 H       -0.4010     1.8920     2.2030 H     1 <1>   0.0800 
 37 H       -2.3150     0.5070    -0.7220 H     1 <1>   0.0800 
 38 H       -3.6120     1.6820    -0.6170 H     1 <1>   0.0800 
 39 H       -3.4620     0.4290     0.5810 H     1 <1>   0.0800 
 40 H       -3.1000     3.9750    -1.8850 H     1 <1>   0.1500 
 41 H       -3.4590     5.7030     2.0080 H     1 <1>   0.1500 
 42 H       -5.4370     4.5260    -2.3380 H     1 <1>   0.1500 
 43 H       -5.7970     6.2380     1.5440 H     1 <1>   0.1500 
 44 H        1.6420     6.4980     0.3580 H     1 <1>   0.3700 
 45 H       -6.7960     5.6550    -0.6270 H     1 <1>   0.1500 
 46 H        0.7170     8.7560     2.0060 H     1 <1>   0.0800 
 47 H        1.6830     7.5550     2.8280 H     1 <1>   0.0800 
 48 H        4.0420     7.4590     2.4710 H     1 <1>   0.1500 
 49 H        1.6650     9.8400    -0.1270 H     1 <1>   0.1500 
 50 H        2.7260    11.3890    -1.5430 H     1 <1>   0.0800 
 51 H        4.0890    10.6240    -2.3170 H     1 <1>   0.0800 
 52 H        4.3410    11.9010    -1.1440 H     1 <1>   0.0800 
 53 H        6.3190    10.1070    -1.3780 H     1 <1>   0.0800 
 54 H        7.1300     9.3690    -0.0280 H     1 <1>   0.0800 
 55 H        6.5510    11.0090     0.1090 H     1 <1>   0.0800 
@<TRIPOS>BOND
  1   1   2  2   
  2   2   3  am  
  3   2   4  1   
  4   3   5  1   
  5   3   6  1   
  6   4   7  1   
  7   4  29  1   
  8   4  30  1   
  9   5   8  1   
 10   5   9  1   
 11   5  31  1   
 12   6  10  1   
 13   6  11  1   
 14   6  32  1   
 15   7   9  1   
 16   8  12  ar  
 17   8  13  ar  
 18   9  14  1   
 19   9  33  1   
 20  10  34  1   
 21  10  35  1   
 22  10  36  1   
 23  11  37  1   
 24  11  38  1   
 25  11  39  1   
 26  12  15  ar  
 27  12  40  1   
 28  13  16  ar  
 29  13  41  1   
 30  14  17  2   
 31  14  18  am  
 32  15  19  ar  
 33  15  42  1   
 34  16  19  ar  
 35  16  43  1   
 36  18  20  1   
 37  18  44  1   
 38  19  45  1   
 39  20  21  1   
 40  20  46  1   
 41  20  47  1   
 42  21  22  ar  
 43  21  23  ar  
 44  22  24  ar  
 45  22  48  1   
 46  23  25  ar  
 47  23  49  1   
 48  24  26  ar  
 49  25  26  ar  
 50  25  27  1   
 51  26  28  1   
 52  27  50  1   
 53  27  51  1   
 54  27  52  1   
 55  28  53  1   
 56  28  54  1   
 57  28  55  1   
@<TRIPOS>SUBSTRUCTURE
  1 ****   9 GROUP 4 **** **** 0

# MOE 2024.06 (io_trps.svl 2023.06)
