@<TRIPOS>MOLECULE
NONAME
45 46 1 0 0 
SMALL
USER_CHARGES


@<TRIPOS>ATOM
  1 S        0.9730     0.2030    -0.2160 S.o2  1 <1>   1.3330 
  2 O        1.8410     0.4690     0.9090 O.2   1 <1>  -0.6500 
  3 O        1.5320     0.1770    -1.5470 O.2   1 <1>  -0.6500 
  4 N        0.1010    -1.2210     0.0660 N.am  1 <1>  -0.8490 
  5 C       -0.2720     1.4880    -0.1730 C.3   1 <1>  -0.0550 
  6 C        0.9040    -2.2460     0.7410 C.3   1 <1>   0.1160 
  7 C       -0.5050    -1.7860    -1.1460 C.3   1 <1>   0.1160 
  8 C        0.3240     2.8770    -0.4950 C.3   1 <1>  -0.0800 
  9 C       -0.6440     4.0550    -0.3770 C.3   1 <1>   0.2000 
 10 C        1.4930     3.2830     0.4060 C.3   1 <1>   0.3430 
 11 O       -1.4180     3.9070     0.7700 O.3   1 <1>  -0.6800 
 12 C        0.2690     5.2790    -0.2250 C.3   1 <1>   0.3430 
 13 N        1.5950     4.7550     0.2500 N.4   1 <1>  -0.9590 
 14 C        2.1610     5.4930     1.4170 C.3   1 <1>   0.4860 
 15 C        2.2700     6.9470     1.0130 C.ar  1 <1>  -0.1440 
 16 C        2.8550     7.2530    -0.2030 C.ar  1 <1>  -0.1500 
 17 C        1.7600     7.9710     1.7960 C.ar  1 <1>  -0.1500 
 18 C        2.8720     8.5450    -0.7140 C.ar  1 <1>  -0.1790 
 19 C        1.8190     9.2770     1.3380 C.ar  1 <1>  -0.1500 
 20 C        3.3730     8.7740    -2.0600 C.2   1 <1>   0.9790 
 21 C        2.3620     9.5570     0.0970 C.ar  1 <1>  -0.1500 
 22 O        3.6430     9.9150    -2.4620 O.co2 1 <1>  -0.9000 
 23 O        3.5000     7.8000    -2.8280 O.co2 1 <1>  -0.9000 
 24 H       -1.0410     1.2650    -0.8880 H     1 <1>   0.0800 
 25 H       -0.7250     1.4900     0.7990 H     1 <1>   0.0800 
 26 H        0.3090    -3.1240     0.9280 H     1 <1>   0.0800 
 27 H        1.2590    -1.8750     1.6880 H     1 <1>   0.0800 
 28 H        1.7530    -2.5180     0.1350 H     1 <1>   0.0800 
 29 H       -1.1120    -2.6380    -0.8930 H     1 <1>   0.0800 
 30 H        0.2590    -2.0950    -1.8410 H     1 <1>   0.0800 
 31 H       -1.1330    -1.0550    -1.6250 H     1 <1>   0.0800 
 32 H        0.6970     2.8510    -1.5060 H     1 <1>   0.0800 
 33 H       -1.3090     4.1420    -1.2200 H     1 <1>   0.0800 
 34 H        2.4080     2.7880     0.1200 H     1 <1>   0.0800 
 35 H        1.2630     3.0330     1.4290 H     1 <1>   0.0800 
 36 H       -0.8940     3.9400     1.5930 H     1 <1>   0.4000 
 37 H       -0.1570     5.9910     0.4630 H     1 <1>   0.0800 
 38 H        0.4000     5.7600    -1.1820 H     1 <1>   0.0800 
 39 H        2.2500     4.9510    -0.5240 H     1 <1>   0.4500 
 40 H        1.5180     5.3940     2.2750 H     1 <1>   0.0800 
 41 H        3.1390     5.1130     1.6630 H     1 <1>   0.0800 
 42 H        3.3050     6.4890    -0.8150 H     1 <1>   0.1500 
 43 H        1.3130     7.7730     2.7550 H     1 <1>   0.1500 
 44 H        1.4360    10.0820     1.9410 H     1 <1>   0.1500 
 45 H        2.3950    10.5700    -0.2720 H     1 <1>   0.1500 
@<TRIPOS>BOND
  1   1   2  2   
  2   1   3  2   
  3   1   4  am  
  4   1   5  1   
  5   4   6  1   
  6   4   7  1   
  7   5   8  1   
  8   5  24  1   
  9   5  25  1   
 10   6  26  1   
 11   6  27  1   
 12   6  28  1   
 13   7  29  1   
 14   7  30  1   
 15   7  31  1   
 16   8   9  1   
 17   8  10  1   
 18   8  32  1   
 19   9  11  1   
 20   9  12  1   
 21   9  33  1   
 22  10  13  1   
 23  10  34  1   
 24  10  35  1   
 25  11  36  1   
 26  12  13  1   
 27  12  37  1   
 28  12  38  1   
 29  13  14  1   
 30  13  39  1   
 31  14  15  1   
 32  14  40  1   
 33  14  41  1   
 34  15  16  ar  
 35  15  17  ar  
 36  16  18  ar  
 37  16  42  1   
 38  17  19  ar  
 39  17  43  1   
 40  18  20  1   
 41  18  21  ar  
 42  19  21  ar  
 43  19  44  1   
 44  20  22  ar  
 45  20  23  ar  
 46  21  45  1   
@<TRIPOS>SUBSTRUCTURE
  1 ****  13 GROUP 4 **** **** 0

# MOE 2024.06 (io_trps.svl 2023.06)
