@<TRIPOS>MOLECULE
NONAME
49 51 1 0 0 
SMALL
USER_CHARGES


@<TRIPOS>ATOM
  1 O       -2.4290     1.2580    -2.4490 O.2   1 <1>  -0.5700 
  2 C       -1.8720     1.7490    -1.4910 C.2   1 <1>   0.6900 
  3 N       -2.5010     2.4210    -0.4840 N.am  1 <1>  -0.4200 
  4 N       -0.5440     1.6670    -1.2870 N.am  1 <1>  -0.7300 
  5 C       -1.5820     2.7750     0.4570 C.2   1 <1>   0.5690 
  6 C       -3.9470     2.2840    -0.1820 C.3   1 <1>   0.2010 
  7 C       -0.2050     2.2430     0.0200 C.3   1 <1>   0.3610 
  8 O       -1.8050     3.4060     1.4640 O.2   1 <1>  -0.5700 
  9 C       -4.2460     0.9010     0.4010 C.2   1 <1>   0.5690 
 10 C        0.8380     3.3430    -0.1840 C.3   1 <1>  -0.2400 
 11 C        0.3110     1.1280     0.9300 C.3   1 <1>  -0.2400 
 12 O       -4.1400     0.7780     1.5990 O.2   1 <1>  -0.5700 
 13 N       -4.5750    -0.1700    -0.3900 N.am  1 <1>  -0.6600 
 14 C       -4.3500    -1.5510     0.1420 C.3   1 <1>   0.3640 
 15 C       -5.0810    -0.1040    -1.7960 C.3   1 <1>   0.1400 
 16 C       -2.8440    -1.8510     0.1250 C.ar  1 <1>  -0.1440 
 17 C       -5.1480    -2.6320    -0.6370 C.3   1 <1>   0.2000 
 18 C       -6.2510    -1.0760    -2.0570 C.3   1 <1>   0.1200 
 19 C       -2.1980    -2.1570     1.3140 C.ar  1 <1>  -0.1500 
 20 C       -2.1000    -1.8340    -1.0500 C.ar  1 <1>  -0.1500 
 21 O       -6.3590    -2.1070    -1.1150 O.3   1 <1>  -0.5600 
 22 C       -5.5110    -3.8570     0.2200 C.3   1 <1>   0.1200 
 23 C       -0.8460    -2.4550     1.3310 C.ar  1 <1>  -0.1500 
 24 C       -0.7480    -2.1290    -1.0360 C.ar  1 <1>  -0.1500 
 25 O       -4.4040    -4.3890     0.8750 O.3   1 <1>  -0.6800 
 26 C       -0.1200    -2.4430     0.1550 C.ar  1 <1>  -0.1500 
 27 H       -0.0110     0.8910    -1.6760 H     1 <1>   0.3700 
 28 H       -4.2240     3.0250     0.5460 H     1 <1>   0.0800 
 29 H       -4.5140     2.4670    -1.0720 H     1 <1>   0.0800 
 30 H        1.0520     3.8170     0.7580 H     1 <1>   0.0800 
 31 H        0.4630     4.0920    -0.8590 H     1 <1>   0.0800 
 32 H        1.7500     2.9330    -0.5780 H     1 <1>   0.0800 
 33 H        0.5250     1.5270     1.9050 H     1 <1>   0.0800 
 34 H        1.2080     0.6900     0.5320 H     1 <1>   0.0800 
 35 H       -0.4410     0.3660     1.0420 H     1 <1>   0.0800 
 36 H       -4.6940    -1.5750     1.1620 H     1 <1>   0.0800 
 37 H       -5.4030     0.8880    -2.0480 H     1 <1>   0.0800 
 38 H       -4.2830    -0.3550    -2.4700 H     1 <1>   0.0800 
 39 H       -4.5840    -2.9630    -1.4900 H     1 <1>   0.0800 
 40 H       -6.1490    -1.5210    -3.0310 H     1 <1>   0.0800 
 41 H       -7.1800    -0.5350    -2.0350 H     1 <1>   0.0800 
 42 H       -2.7510    -2.1660     2.2390 H     1 <1>   0.1500 
 43 H       -2.5640    -1.5870    -1.9870 H     1 <1>   0.1500 
 44 H       -5.9330    -4.6280    -0.4010 H     1 <1>   0.0800 
 45 H       -6.2270    -3.5790     0.9750 H     1 <1>   0.0800 
 46 H       -0.3640    -2.6950     2.2630 H     1 <1>   0.1500 
 47 H       -0.1870    -2.1160    -1.9550 H     1 <1>   0.1500 
 48 H       -3.6460    -4.5060     0.2670 H     1 <1>   0.4000 
 49 H        0.9300    -2.6780     0.1680 H     1 <1>   0.1500 
@<TRIPOS>BOND
  1   1   2  2   
  2   2   3  am  
  3   2   4  am  
  4   3   5  am  
  5   3   6  1   
  6   4   7  1   
  7   4  27  1   
  8   5   7  1   
  9   5   8  2   
 10   6   9  1   
 11   6  28  1   
 12   6  29  1   
 13   7  10  1   
 14   7  11  1   
 15   9  12  2   
 16   9  13  am  
 17  10  30  1   
 18  10  31  1   
 19  10  32  1   
 20  11  33  1   
 21  11  34  1   
 22  11  35  1   
 23  13  14  1   
 24  13  15  1   
 25  14  16  1   
 26  14  17  1   
 27  14  36  1   
 28  15  18  1   
 29  15  37  1   
 30  15  38  1   
 31  16  19  ar  
 32  16  20  ar  
 33  17  21  1   
 34  17  22  1   
 35  17  39  1   
 36  18  21  1   
 37  18  40  1   
 38  18  41  1   
 39  19  23  ar  
 40  19  42  1   
 41  20  24  ar  
 42  20  43  1   
 43  22  25  1   
 44  22  44  1   
 45  22  45  1   
 46  23  26  ar  
 47  23  46  1   
 48  24  26  ar  
 49  24  47  1   
 50  25  48  1   
 51  26  49  1   
@<TRIPOS>SUBSTRUCTURE
  1 ****  16 GROUP 4 **** **** 0

# MOE 2024.06 (io_trps.svl 2023.06)
