@<TRIPOS>MOLECULE
NONAME
38 39 1 0 0 
SMALL
USER_CHARGES


@<TRIPOS>ATOM
  1 S        0.4170     0.1880    -1.6540 S.o2  1 <1>   1.3330 
  2 O        0.8000    -1.0750    -2.2460 O.2   1 <1>  -0.6500 
  3 O       -0.4300     1.0960    -2.3930 O.2   1 <1>  -0.6500 
  4 N       -0.3630    -0.1440    -0.1820 N.am  1 <1>  -0.8490 
  5 C        1.9160     1.0460    -1.1690 C.3   1 <1>  -0.0550 
  6 C       -1.0770     1.0140     0.3710 C.3   1 <1>   0.1160 
  7 C       -1.2780    -1.2830    -0.2900 C.3   1 <1>   0.1160 
  8 C        2.9450     0.1620    -0.4300 C.3   1 <1>  -0.0800 
  9 C        4.2810     0.8390    -0.1630 C.3   1 <1>   0.2890 
 10 C        2.5150    -0.3100     0.9650 C.3   1 <1>   0.1200 
 11 N        4.0560     2.2360     0.2990 N.pl3 1 <1>  -0.8690 
 12 C        4.7850     0.0080     1.0090 C.3   1 <1>   0.1200 
 13 O        3.6530    -0.2660     1.7770 O.3   1 <1>  -0.5600 
 14 C        4.8290     3.3340    -0.0530 C.ar  1 <1>   0.4100 
 15 N        5.7790     3.0930    -0.9510 N.ar  1 <1>  -0.6200 
 16 C        4.6180     4.6210     0.5050 C.ar  1 <1>   0.3830 
 17 C        6.4960     4.1580    -1.2510 C.ar  1 <1>   0.1600 
 18 N        5.3570     5.6870     0.1930 N.ar  1 <1>  -0.6200 
 19 C        3.5460     4.7730     1.4460 C.1   1 <1>   0.4840 
 20 C        6.2950     5.4130    -0.6970 C.ar  1 <1>   0.1600 
 21 N        2.6770     4.8270     2.1870 N.1   1 <1>  -0.5570 
 22 H        2.3850     1.4270    -2.0550 H     1 <1>   0.0800 
 23 H        1.6570     1.8910    -0.5610 H     1 <1>   0.0800 
 24 H       -1.4820     0.7710     1.3380 H     1 <1>   0.0800 
 25 H       -1.8820     1.3080    -0.2820 H     1 <1>   0.0800 
 26 H       -0.4060     1.8470     0.4870 H     1 <1>   0.0800 
 27 H       -1.7460    -1.4790     0.6600 H     1 <1>   0.0800 
 28 H       -0.7360    -2.1660    -0.5860 H     1 <1>   0.0800 
 29 H       -2.0390    -1.0830    -1.0270 H     1 <1>   0.0800 
 30 H        3.1340    -0.7140    -1.0260 H     1 <1>   0.0800 
 31 H        4.9400     0.7900    -1.0120 H     1 <1>   0.0800 
 32 H        2.1340    -1.3170     0.9470 H     1 <1>   0.0800 
 33 H        1.7830     0.3470     1.4020 H     1 <1>   0.0800 
 34 H        3.6080     2.2390     1.2260 H     1 <1>   0.4000 
 35 H        5.5140     0.5290     1.6040 H     1 <1>   0.0800 
 36 H        5.1890    -0.9290     0.6670 H     1 <1>   0.0800 
 37 H        7.2840     4.0330    -1.9720 H     1 <1>   0.1500 
 38 H        6.9350     6.2240    -1.0030 H     1 <1>   0.1500 
@<TRIPOS>BOND
  1   1   2  2   
  2   1   3  2   
  3   1   4  am  
  4   1   5  1   
  5   4   6  1   
  6   4   7  1   
  7   5   8  1   
  8   5  22  1   
  9   5  23  1   
 10   6  24  1   
 11   6  25  1   
 12   6  26  1   
 13   7  27  1   
 14   7  28  1   
 15   7  29  1   
 16   8   9  1   
 17   8  10  1   
 18   8  30  1   
 19   9  11  1   
 20   9  12  1   
 21   9  31  1   
 22  10  13  1   
 23  10  32  1   
 24  10  33  1   
 25  11  14  1   
 26  11  34  1   
 27  12  13  1   
 28  12  35  1   
 29  12  36  1   
 30  14  15  ar  
 31  14  16  ar  
 32  15  17  ar  
 33  16  18  ar  
 34  16  19  1   
 35  17  20  ar  
 36  17  37  1   
 37  18  20  ar  
 38  19  21  3   
 39  20  38  1   
@<TRIPOS>SUBSTRUCTURE
  1 ****  11 GROUP 4 **** **** 0

# MOE 2024.06 (io_trps.svl 2023.06)
