@<TRIPOS>MOLECULE
NONAME
48 51 1 0 0 
SMALL
USER_CHARGES


@<TRIPOS>ATOM
  1 O       -0.6050     0.0040     1.2410 O.2   1 <1>  -0.5700 
  2 C       -1.4330     0.6280     0.6070 C.2   1 <1>   0.5440 
  3 N       -2.4160    -0.0530    -0.0780 N.am  1 <1>  -0.6600 
  4 C       -1.3750     2.0730     0.6000 C.ar  1 <1>   0.0860 
  5 C       -3.5980     0.5990    -0.7250 C.3   1 <1>   0.1400 
  6 C       -2.4850    -1.5470    -0.1070 C.3   1 <1>   0.1400 
  7 C       -0.9800     2.8060    -0.5260 C.ar  1 <1>   0.1660 
  8 C       -1.7430     2.7850     1.7320 C.ar  1 <1>  -0.1500 
  9 C       -4.9130     0.0540    -0.1380 C.3   1 <1>   0.1900 
 10 C       -3.8320    -2.0460     0.4410 C.3   1 <1>   0.1100 
 11 N       -0.9780     4.1280    -0.6000 N.ar  1 <1>  -0.6200 
 12 C       -0.5120     2.1060    -1.7930 C.3   1 <1>  -0.0960 
 13 C       -1.7260     4.1600     1.6710 C.ar  1 <1>  -0.1500 
 14 N       -4.9740    -1.4230    -0.2680 N.3   1 <1>  -0.8100 
 15 C       -6.1230     0.7100    -0.8300 C.3   1 <1>   0.1200 
 16 C       -1.3450     4.7750     0.4930 C.ar  1 <1>   0.1600 
 17 C       -6.2760    -1.9210     0.2390 C.3   1 <1>   0.3330 
 18 O       -7.3180     0.2150    -0.2990 O.3   1 <1>  -0.5600 
 19 C       -6.4240    -3.4220    -0.0080 C.ar  1 <1>  -0.1440 
 20 C       -7.4480    -1.1750    -0.4350 C.3   1 <1>   0.1200 
 21 C       -6.1270    -3.9720    -1.2480 C.ar  1 <1>  -0.1500 
 22 C       -6.8650    -4.2550     1.0100 C.ar  1 <1>  -0.1500 
 23 C       -6.2690    -5.3310    -1.4670 C.ar  1 <1>  -0.1500 
 24 C       -7.0080    -5.6140     0.7930 C.ar  1 <1>  -0.1500 
 25 C       -6.7110    -6.1530    -0.4460 C.ar  1 <1>  -0.1500 
 26 H       -3.5700     1.6650    -0.5890 H     1 <1>   0.0800 
 27 H       -3.5730     0.3980    -1.7810 H     1 <1>   0.0800 
 28 H       -2.3730    -1.8840    -1.1220 H     1 <1>   0.0800 
 29 H       -1.6870    -1.9770     0.4720 H     1 <1>   0.0800 
 30 H       -2.0320     2.2650     2.6300 H     1 <1>   0.1500 
 31 H       -4.9460     0.3240     0.9050 H     1 <1>   0.0800 
 32 H       -3.8860    -1.8260     1.4940 H     1 <1>   0.0800 
 33 H       -3.8680    -3.1150     0.3230 H     1 <1>   0.0800 
 34 H       -0.0790     1.1470    -1.5780 H     1 <1>   0.0800 
 35 H        0.2360     2.7030    -2.2830 H     1 <1>   0.0800 
 36 H       -1.3410     1.9780    -2.4630 H     1 <1>   0.0800 
 37 H       -2.0040     4.7530     2.5240 H     1 <1>   0.1500 
 38 H       -6.1090     0.5140    -1.8880 H     1 <1>   0.0800 
 39 H       -6.1150     1.7740    -0.6730 H     1 <1>   0.0800 
 40 H       -1.3380     5.8510     0.4470 H     1 <1>   0.1500 
 41 H       -6.3330    -1.7340     1.2980 H     1 <1>   0.0800 
 42 H       -8.3770    -1.4660     0.0190 H     1 <1>   0.0800 
 43 H       -7.4880    -1.4150    -1.4830 H     1 <1>   0.0800 
 44 H       -5.7770    -3.3360    -2.0430 H     1 <1>   0.1500 
 45 H       -7.1010    -3.8500     1.9790 H     1 <1>   0.1500 
 46 H       -6.0360    -5.7470    -2.4310 H     1 <1>   0.1500 
 47 H       -7.3510    -6.2530     1.5880 H     1 <1>   0.1500 
 48 H       -6.8220    -7.2100    -0.6150 H     1 <1>   0.1500 
@<TRIPOS>BOND
  1   1   2  2   
  2   2   3  am  
  3   2   4  1   
  4   3   5  1   
  5   3   6  1   
  6   4   7  ar  
  7   4   8  ar  
  8   5   9  1   
  9   5  26  1   
 10   5  27  1   
 11   6  10  1   
 12   6  28  1   
 13   6  29  1   
 14   7  11  ar  
 15   7  12  1   
 16   8  13  ar  
 17   8  30  1   
 18   9  14  1   
 19   9  15  1   
 20   9  31  1   
 21  10  14  1   
 22  10  32  1   
 23  10  33  1   
 24  11  16  ar  
 25  12  34  1   
 26  12  35  1   
 27  12  36  1   
 28  13  16  ar  
 29  13  37  1   
 30  14  17  1   
 31  15  18  1   
 32  15  38  1   
 33  15  39  1   
 34  16  40  1   
 35  17  19  1   
 36  17  20  1   
 37  17  41  1   
 38  18  20  1   
 39  19  21  ar  
 40  19  22  ar  
 41  20  42  1   
 42  20  43  1   
 43  21  23  ar  
 44  21  44  1   
 45  22  24  ar  
 46  22  45  1   
 47  23  25  ar  
 48  23  46  1   
 49  24  25  ar  
 50  24  47  1   
 51  25  48  1   
@<TRIPOS>SUBSTRUCTURE
  1 ****   9 GROUP 4 **** **** 0

# MOE 2024.06 (io_trps.svl 2023.06)
