@<TRIPOS>MOLECULE
NONAME
46 49 1 0 0 
SMALL
USER_CHARGES


@<TRIPOS>ATOM
  1 S       -1.2980    -0.0290    -1.2720 S.3   1 <1>  -0.0800 
  2 C       -1.9990     1.0860    -0.1030 C.2   1 <1>   0.4620 
  3 C       -2.0780    -1.3570    -0.4430 C.ar  1 <1>   0.0400 
  4 N       -2.7250     0.5390     0.7950 N.2   1 <1>  -0.5650 
  5 N       -1.7300     2.4040    -0.2300 N.pl3 1 <1>  -0.8840 
  6 C       -2.7850    -0.8350     0.6240 C.ar  1 <1>   0.2270 
  7 C       -2.0320    -2.6990    -0.7550 C.ar  1 <1>  -0.1500 
  8 C       -3.4920    -1.7290     1.4270 C.ar  1 <1>  -0.1440 
  9 C       -2.7310    -3.6060     0.0420 C.ar  1 <1>   0.0860 
 10 C       -3.4580    -3.0830     1.1270 C.ar  1 <1>  -0.1500 
 11 C       -4.2910    -1.2100     2.6140 C.3   1 <1>  -0.0970 
 12 C       -2.7030    -5.0270    -0.2590 C.2   1 <1>   0.5440 
 13 O       -2.3550    -5.4270    -1.3520 O.2   1 <1>  -0.5700 
 14 N       -3.0750    -5.9580     0.6690 N.am  1 <1>  -0.7300 
 15 C       -3.0870    -7.4260     0.4620 C.3   1 <1>   0.2200 
 16 C       -4.5040    -7.9380     0.2370 C.3   1 <1>  -0.0800 
 17 C       -2.7550    -8.1060     1.7820 C.3   1 <1>   0.1200 
 18 C       -5.0420    -8.1050     1.6630 C.3   1 <1>   0.1200 
 19 C       -5.3930    -7.0790    -0.6820 C.3   1 <1>  -0.0170 
 20 O       -3.9370    -8.0520     2.5210 O.3   1 <1>  -0.5600 
 21 C       -6.7530    -7.7280    -0.8840 C.ar  1 <1>  -0.1430 
 22 C       -6.9380    -8.7580    -1.7830 C.ar  1 <1>  -0.1500 
 23 C       -7.8710    -7.3240    -0.1820 C.ar  1 <1>  -0.1500 
 24 C       -8.1940    -9.3230    -1.9280 C.ar  1 <1>   0.1600 
 25 C       -9.0830    -7.9570    -0.4020 C.ar  1 <1>   0.1600 
 26 N       -9.2710    -8.9490    -1.2570 N.ar  1 <1>  -0.6200 
 27 H       -1.1430     2.7800    -0.9740 H     1 <1>   0.4000 
 28 H       -2.1270     3.0700     0.4340 H     1 <1>   0.4000 
 29 H       -1.4630    -3.0400    -1.6030 H     1 <1>   0.1500 
 30 H       -4.0160    -3.7580     1.7490 H     1 <1>   0.1500 
 31 H       -4.7840    -2.0100     3.1360 H     1 <1>   0.0800 
 32 H       -5.0340    -0.5110     2.2730 H     1 <1>   0.0800 
 33 H       -3.6350    -0.7030     3.2990 H     1 <1>   0.0800 
 34 H       -3.3440    -5.6780     1.6140 H     1 <1>   0.3700 
 35 H       -2.4100    -7.7080    -0.3280 H     1 <1>   0.0800 
 36 H       -4.4320    -8.9210    -0.1940 H     1 <1>   0.0800 
 37 H       -1.9640    -7.6140     2.3190 H     1 <1>   0.0800 
 38 H       -2.5060    -9.1420     1.6270 H     1 <1>   0.0800 
 39 H       -5.5420    -9.0500     1.7920 H     1 <1>   0.0800 
 40 H       -5.7040    -7.3020     1.9370 H     1 <1>   0.0800 
 41 H       -4.9090    -6.9590    -1.6360 H     1 <1>   0.0800 
 42 H       -5.5290    -6.0960    -0.2650 H     1 <1>   0.0800 
 43 H       -6.1180    -9.1250    -2.3730 H     1 <1>   0.1500 
 44 H       -7.8130    -6.5240     0.5330 H     1 <1>   0.1500 
 45 H       -8.3200   -10.1260    -2.6350 H     1 <1>   0.1500 
 46 H       -9.9440    -7.6290     0.1550 H     1 <1>   0.1500 
@<TRIPOS>BOND
  1   1   2  1   
  2   1   3  1   
  3   2   4  2   
  4   2   5  1   
  5   3   6  ar  
  6   3   7  ar  
  7   4   6  1   
  8   5  27  1   
  9   5  28  1   
 10   6   8  ar  
 11   7   9  ar  
 12   7  29  1   
 13   8  10  ar  
 14   8  11  1   
 15   9  10  ar  
 16   9  12  1   
 17  10  30  1   
 18  11  31  1   
 19  11  32  1   
 20  11  33  1   
 21  12  13  2   
 22  12  14  am  
 23  14  15  1   
 24  14  34  1   
 25  15  16  1   
 26  15  17  1   
 27  15  35  1   
 28  16  18  1   
 29  16  19  1   
 30  16  36  1   
 31  17  20  1   
 32  17  37  1   
 33  17  38  1   
 34  18  20  1   
 35  18  39  1   
 36  18  40  1   
 37  19  21  1   
 38  19  41  1   
 39  19  42  1   
 40  21  22  ar  
 41  21  23  ar  
 42  22  24  ar  
 43  22  43  1   
 44  23  25  ar  
 45  23  44  1   
 46  24  26  ar  
 47  24  45  1   
 48  25  26  ar  
 49  25  46  1   
@<TRIPOS>SUBSTRUCTURE
  1 ****  12 GROUP 4 **** **** 0

# MOE 2024.06 (io_trps.svl 2023.06)
