@<TRIPOS>MOLECULE
NONAME
42 42 1 0 0 
SMALL
USER_CHARGES


@<TRIPOS>ATOM
  1 O        0.2210     0.3360    -0.2380 O.2   1 <1>  -0.5700 
  2 C        0.1740     1.5290    -0.4680 C.2   1 <1>   0.7800 
  3 O       -0.9100     2.2440    -0.1530 O.3   1 <1>  -0.4300 
  4 N        1.2180     2.2000    -1.0500 N.am  1 <1>  -0.6600 
  5 C       -2.1000     1.7820     0.4470 C.3   1 <1>   0.2800 
  6 C        1.1940     3.6560    -1.3550 C.3   1 <1>   0.1400 
  7 C        2.4960     1.5220    -1.3920 C.3   1 <1>   0.1400 
  8 C       -2.7870     0.7540    -0.4590 C.3   1 <1>  -0.2400 
  9 C       -2.9900     3.0190     0.5710 C.3   1 <1>  -0.2400 
 10 C       -1.8080     1.2280     1.8470 C.3   1 <1>  -0.2400 
 11 C        2.3180     4.3620    -0.5800 C.3   1 <1>  -0.0800 
 12 C        3.6480     2.2010    -0.6430 C.3   1 <1>  -0.1600 
 13 C        2.2810     5.8830    -0.8360 C.3   1 <1>   0.2610 
 14 C        3.6860     3.7160    -0.9010 C.3   1 <1>  -0.1600 
 15 O        2.4750     6.1270    -2.2010 O.3   1 <1>  -0.6800 
 16 C        3.3090     6.6480     0.0140 C.2   1 <1>   0.6590 
 17 O        4.3500     7.0430    -0.4530 O.2   1 <1>  -0.5700 
 18 O        2.9910     6.8390     1.2900 O.3   1 <1>  -0.4300 
 19 C        3.8560     7.5180     2.1770 C.3   1 <1>   0.0400 
 20 H        0.2440     4.0890    -1.0940 H     1 <1>   0.0800 
 21 H        1.3350     3.7910    -2.4140 H     1 <1>   0.0800 
 22 H        2.6550     1.5930    -2.4550 H     1 <1>   0.0800 
 23 H        2.4570     0.4790    -1.1290 H     1 <1>   0.0800 
 24 H       -2.9080     1.1510    -1.4510 H     1 <1>   0.0800 
 25 H       -3.7580     0.5110    -0.0680 H     1 <1>   0.0800 
 26 H       -2.2210    -0.1580    -0.5110 H     1 <1>   0.0800 
 27 H       -3.1830     3.4370    -0.4010 H     1 <1>   0.0800 
 28 H       -2.5130     3.7610     1.1850 H     1 <1>   0.0800 
 29 H       -3.9310     2.7590     1.0210 H     1 <1>   0.0800 
 30 H       -1.2440     0.3150     1.7940 H     1 <1>   0.0800 
 31 H       -2.7300     1.0100     2.3540 H     1 <1>   0.0800 
 32 H       -1.2610     1.9480     2.4280 H     1 <1>   0.0800 
 33 H        2.1170     4.2150     0.4680 H     1 <1>   0.0800 
 34 H        4.5780     1.7590    -0.9510 H     1 <1>   0.0800 
 35 H        3.5300     2.0130     0.4100 H     1 <1>   0.0800 
 36 H        1.3030     6.2580    -0.5900 H     1 <1>   0.0800 
 37 H        4.4610     4.1550    -0.2970 H     1 <1>   0.0800 
 38 H        3.9330     3.8870    -1.9350 H     1 <1>   0.0800 
 39 H        3.4070     6.4080    -2.3310 H     1 <1>   0.4000 
 40 H        3.3930     7.5530     3.1470 H     1 <1>   0.0800 
 41 H        4.0210     8.5160     1.8090 H     1 <1>   0.0800 
 42 H        4.7890     6.9840     2.2310 H     1 <1>   0.0800 
@<TRIPOS>BOND
  1   1   2  2   
  2   2   3  1   
  3   2   4  am  
  4   3   5  1   
  5   4   6  1   
  6   4   7  1   
  7   5   8  1   
  8   5   9  1   
  9   5  10  1   
 10   6  11  1   
 11   6  20  1   
 12   6  21  1   
 13   7  12  1   
 14   7  22  1   
 15   7  23  1   
 16   8  24  1   
 17   8  25  1   
 18   8  26  1   
 19   9  27  1   
 20   9  28  1   
 21   9  29  1   
 22  10  30  1   
 23  10  31  1   
 24  10  32  1   
 25  11  13  1   
 26  11  14  1   
 27  11  33  1   
 28  12  14  1   
 29  12  34  1   
 30  12  35  1   
 31  13  15  1   
 32  13  16  1   
 33  13  36  1   
 34  14  37  1   
 35  14  38  1   
 36  15  39  1   
 37  16  17  2   
 38  16  18  1   
 39  18  19  1   
 40  19  40  1   
 41  19  41  1   
 42  19  42  1   
@<TRIPOS>SUBSTRUCTURE
  1 ****   6 GROUP 4 **** **** 0

# MOE 2024.06 (io_trps.svl 2023.06)
