@<TRIPOS>MOLECULE
NONAME
45 46 1 0 0 
SMALL
USER_CHARGES


@<TRIPOS>ATOM
  1 O       -0.0360     0.4660     0.1250 O.3   1 <1>  -0.3630 
  2 C       -1.2080    -0.1440    -0.2170 C.ar  1 <1>   0.0830 
  3 C        0.0290     1.8470     0.4100 C.3   1 <1>   0.1200 
  4 C       -1.2720    -1.5460    -0.2560 C.ar  1 <1>   0.0830 
  5 C       -2.3550     0.5920    -0.5100 C.ar  1 <1>  -0.1500 
  6 C        1.4340     2.1780     0.9040 C.3   1 <1>   0.2090 
  7 O       -0.2220    -2.3780    -0.0110 O.3   1 <1>  -0.3630 
  8 C       -2.4730    -2.1700    -0.5520 C.ar  1 <1>  -0.1500 
  9 C       -3.5440    -0.0470    -0.8160 C.ar  1 <1>  -0.1500 
 10 N        1.5270     3.6300     1.2300 N.pl3 1 <1>  -0.8380 
 11 C        1.0510    -2.0800    -0.5400 C.3   1 <1>   0.0400 
 12 C       -3.6060    -1.4280    -0.8320 C.ar  1 <1>  -0.1500 
 13 C        2.5490     4.3300     0.6310 C.ar  1 <1>   0.4100 
 14 C        1.2610     3.9530     2.6560 C.3   1 <1>   0.1290 
 15 N        3.7720     3.9850     0.9770 N.ar  1 <1>  -0.6200 
 16 C        2.3050     5.3450    -0.2850 C.ar  1 <1>  -0.1430 
 17 C        4.7430     4.6590     0.3990 C.ar  1 <1>   0.4770 
 18 C        3.4100     5.9670    -0.8120 C.ar  1 <1>   0.1600 
 19 C        0.8640     5.7070    -0.6540 C.3   1 <1>  -0.0170 
 20 N        4.6420     5.6360    -0.4800 N.ar  1 <1>  -0.6200 
 21 C        6.1480     4.2720     0.7920 C.3   1 <1>  -0.0970 
 22 C        0.7120     6.8820    -1.6270 C.3   1 <1>  -0.2400 
 23 H       -0.6950     2.0700     1.1730 H     1 <1>   0.0800 
 24 H       -0.1820     2.3910    -0.4920 H     1 <1>   0.0800 
 25 H       -2.3490     1.6650    -0.5070 H     1 <1>   0.1500 
 26 H        2.1440     1.9360     0.1310 H     1 <1>   0.0800 
 27 H        1.6650     1.5920     1.7760 H     1 <1>   0.0800 
 28 H       -2.5120    -3.2440    -0.5630 H     1 <1>   0.1500 
 29 H       -4.4250     0.5310    -1.0390 H     1 <1>   0.1500 
 30 H        1.6020    -2.9980    -0.6250 H     1 <1>   0.0800 
 31 H        1.5590    -1.4130     0.1320 H     1 <1>   0.0800 
 32 H        0.9340    -1.6280    -1.5100 H     1 <1>   0.0800 
 33 H       -4.5310    -1.9260    -1.0640 H     1 <1>   0.1500 
 34 H        0.2540     3.6790     2.9160 H     1 <1>   0.0800 
 35 H        1.3880     5.0100     2.8200 H     1 <1>   0.0800 
 36 H        1.9530     3.4220     3.2860 H     1 <1>   0.0800 
 37 H        3.3070     6.7620    -1.5290 H     1 <1>   0.1500 
 38 H        0.3310     5.9400     0.2520 H     1 <1>   0.0800 
 39 H        0.3970     4.8380    -1.0850 H     1 <1>   0.0800 
 40 H        6.1560     3.2980     1.2440 H     1 <1>   0.0800 
 41 H        6.5280     4.9900     1.4940 H     1 <1>   0.0800 
 42 H        6.7780     4.2590    -0.0770 H     1 <1>   0.0800 
 43 H        1.1460     7.7740    -1.2110 H     1 <1>   0.0800 
 44 H       -0.3310     7.0680    -1.8130 H     1 <1>   0.0800 
 45 H        1.1870     6.6590    -2.5660 H     1 <1>   0.0800 
@<TRIPOS>BOND
  1   1   2  1   
  2   1   3  1   
  3   2   4  ar  
  4   2   5  ar  
  5   3   6  1   
  6   3  23  1   
  7   3  24  1   
  8   4   7  1   
  9   4   8  ar  
 10   5   9  ar  
 11   5  25  1   
 12   6  10  1   
 13   6  26  1   
 14   6  27  1   
 15   7  11  1   
 16   8  12  ar  
 17   8  28  1   
 18   9  12  ar  
 19   9  29  1   
 20  10  13  1   
 21  10  14  1   
 22  11  30  1   
 23  11  31  1   
 24  11  32  1   
 25  12  33  1   
 26  13  15  ar  
 27  13  16  ar  
 28  14  34  1   
 29  14  35  1   
 30  14  36  1   
 31  15  17  ar  
 32  16  18  ar  
 33  16  19  1   
 34  17  20  ar  
 35  17  21  1   
 36  18  20  ar  
 37  18  37  1   
 38  19  22  1   
 39  19  38  1   
 40  19  39  1   
 41  21  40  1   
 42  21  41  1   
 43  21  42  1   
 44  22  43  1   
 45  22  44  1   
 46  22  45  1   
@<TRIPOS>SUBSTRUCTURE
  1 ****   6 GROUP 4 **** **** 0

# MOE 2024.06 (io_trps.svl 2023.06)
