@<TRIPOS>MOLECULE
NONAME
35 35 1 0 0 
SMALL
USER_CHARGES


@<TRIPOS>ATOM
  1 BR      -2.3710    -1.7220    -2.7380 Br    1 <1>  -0.0570 
  2 C       -3.1790    -0.8100    -1.2310 C.2   1 <1>   0.0570 
  3 C       -2.8560    -1.0210     0.0990 C.2   1 <1>   0.1390 
  4 C       -4.1400     0.1290    -1.2680 C.2   1 <1>  -0.3020 
  5 N       -3.5760    -0.2560     0.8680 N.2   1 <1>  -0.7070 
  6 N       -4.3660     0.4530     0.0250 N.pl3 1 <1>   0.3140 
  7 C       -5.3410     1.4390     0.5260 C.3   1 <1>   0.0960 
  8 C       -6.7290     0.8020     0.6640 C.3   1 <1>  -0.1600 
  9 C       -7.7310     1.8020     1.2350 C.3   1 <1>   0.1400 
 10 N       -9.0690     1.1850     1.2390 N.am  1 <1>  -0.7300 
 11 C      -10.0680     1.4700     0.3750 C.2   1 <1>   0.7800 
 12 O       -9.9510     2.3020    -0.5010 O.2   1 <1>  -0.5700 
 13 O      -11.1830     0.7660     0.5480 O.3   1 <1>  -0.4300 
 14 C      -12.3670     0.8510    -0.2170 C.3   1 <1>   0.2800 
 15 C      -12.0870     0.4580    -1.6720 C.3   1 <1>  -0.2400 
 16 C      -13.3200    -0.1700     0.4070 C.3   1 <1>  -0.2400 
 17 C      -12.9780     2.2520    -0.0960 C.3   1 <1>  -0.2400 
 18 H       -2.1160    -1.7180     0.4520 H     1 <1>   0.1500 
 19 H       -4.6560     0.5660    -2.1020 H     1 <1>   0.1500 
 20 H       -5.3730     2.2670    -0.1580 H     1 <1>   0.0800 
 21 H       -4.9970     1.7910     1.4810 H     1 <1>   0.0800 
 22 H       -6.6640    -0.0510     1.3170 H     1 <1>   0.0800 
 23 H       -7.0670     0.4800    -0.3070 H     1 <1>   0.0800 
 24 H       -7.7490     2.6940     0.6300 H     1 <1>   0.0800 
 25 H       -7.4610     2.0780     2.2400 H     1 <1>   0.0800 
 26 H       -9.2480     0.4440     1.9160 H     1 <1>   0.3700 
 27 H      -11.5960    -0.4980    -1.7140 H     1 <1>   0.0800 
 28 H      -11.4750     1.1920    -2.1620 H     1 <1>   0.0800 
 29 H      -13.0110     0.3900    -2.2170 H     1 <1>   0.0800 
 30 H      -12.8970    -1.1570     0.3540 H     1 <1>   0.0800 
 31 H      -14.2580    -0.1750    -0.1180 H     1 <1>   0.0800 
 32 H      -13.5090     0.0760     1.4360 H     1 <1>   0.0800 
 33 H      -12.3660     2.9860    -0.5870 H     1 <1>   0.0800 
 34 H      -13.0950     2.5220     0.9370 H     1 <1>   0.0800 
 35 H      -13.9450     2.2710    -0.5650 H     1 <1>   0.0800 
@<TRIPOS>BOND
  1   1   2  1   
  2   2   3  1   
  3   2   4  2   
  4   3   5  2   
  5   3  18  1   
  6   4   6  1   
  7   4  19  1   
  8   5   6  1   
  9   6   7  1   
 10   7   8  1   
 11   7  20  1   
 12   7  21  1   
 13   8   9  1   
 14   8  22  1   
 15   8  23  1   
 16   9  10  1   
 17   9  24  1   
 18   9  25  1   
 19  10  11  am  
 20  10  26  1   
 21  11  12  2   
 22  11  13  1   
 23  13  14  1   
 24  14  15  1   
 25  14  16  1   
 26  14  17  1   
 27  15  27  1   
 28  15  28  1   
 29  15  29  1   
 30  16  30  1   
 31  16  31  1   
 32  16  32  1   
 33  17  33  1   
 34  17  34  1   
 35  17  35  1   
@<TRIPOS>SUBSTRUCTURE
  1 ****   8 GROUP 4 **** **** 0

# MOE 2024.06 (io_trps.svl 2023.06)
