@<TRIPOS>MOLECULE
NONAME
38 39 1 0 0 
SMALL
USER_CHARGES


@<TRIPOS>ATOM
  1 N       -1.1760    -0.2040    -0.2360 N.ar  1 <1>  -0.6200 
  2 C       -1.6650    -1.3630     0.1720 C.ar  1 <1>   0.4100 
  3 C       -0.0350    -0.3490    -0.8990 C.ar  1 <1>   0.1600 
  4 N       -2.9000    -1.3240     0.8400 N.pl3 1 <1>  -0.8380 
  5 C       -1.0110    -2.6140    -0.0700 C.ar  1 <1>   0.4100 
  6 C        0.5800    -1.5630    -1.1480 C.ar  1 <1>   0.1600 
  7 C       -4.0880    -1.6790     0.0150 C.3   1 <1>   0.1290 
  8 C       -3.1370    -0.1970     1.7810 C.3   1 <1>   0.1290 
  9 N        0.1130    -2.7390    -0.7480 N.ar  1 <1>  -0.6200 
 10 N       -1.5650    -3.7790     0.4260 N.pl3 1 <1>  -0.8690 
 11 C       -1.9870    -4.7980    -0.5550 C.3   1 <1>   0.4330 
 12 C       -3.4950    -5.1090    -0.4270 C.ar  1 <1>   0.1670 
 13 C       -1.0820    -6.0210    -0.4210 C.3   1 <1>  -0.2400 
 14 N       -4.1920    -4.8350    -1.5290 N.ar  1 <1>  -0.6200 
 15 C       -4.0860    -5.6180     0.7390 C.ar  1 <1>  -0.1430 
 16 C       -5.4900    -5.0710    -1.4920 C.ar  1 <1>   0.1600 
 17 C       -5.4480    -5.8520     0.7480 C.ar  1 <1>  -0.1500 
 18 C       -3.3350    -5.9550     2.0260 C.3   1 <1>  -0.0970 
 19 C       -6.1590    -5.5700    -0.3940 C.ar  1 <1>  -0.1500 
 20 H        0.4270     0.5510    -1.2640 H     1 <1>   0.1500 
 21 H        1.5020    -1.5740    -1.7010 H     1 <1>   0.1500 
 22 H       -3.7830    -2.1860    -0.8850 H     1 <1>   0.0800 
 23 H       -4.6270    -0.7890    -0.2630 H     1 <1>   0.0800 
 24 H       -4.7390    -2.3300     0.5730 H     1 <1>   0.0800 
 25 H       -2.2390     0.0030     2.3420 H     1 <1>   0.0800 
 26 H       -3.9260    -0.4500     2.4670 H     1 <1>   0.0800 
 27 H       -3.4060     0.6890     1.2330 H     1 <1>   0.0800 
 28 H       -2.3860    -3.4960     0.9730 H     1 <1>   0.4000 
 29 H       -1.8290    -4.4000    -1.5450 H     1 <1>   0.0800 
 30 H       -1.0810    -6.4010     0.5800 H     1 <1>   0.0800 
 31 H       -0.0780    -5.7450    -0.6860 H     1 <1>   0.0800 
 32 H       -1.4150    -6.7910    -1.0920 H     1 <1>   0.0800 
 33 H       -6.0500    -4.8540    -2.3860 H     1 <1>   0.1500 
 34 H       -5.9480    -6.2460     1.6160 H     1 <1>   0.1500 
 35 H       -2.5540    -5.2520     2.2370 H     1 <1>   0.0800 
 36 H       -2.9070    -6.9380     1.9500 H     1 <1>   0.0800 
 37 H       -4.0040    -5.9470     2.8680 H     1 <1>   0.0800 
 38 H       -7.2200    -5.7380    -0.4360 H     1 <1>   0.1500 
@<TRIPOS>BOND
  1   1   2  ar  
  2   1   3  ar  
  3   2   4  1   
  4   2   5  ar  
  5   3   6  ar  
  6   3  20  1   
  7   4   7  1   
  8   4   8  1   
  9   5   9  ar  
 10   5  10  1   
 11   6   9  ar  
 12   6  21  1   
 13   7  22  1   
 14   7  23  1   
 15   7  24  1   
 16   8  25  1   
 17   8  26  1   
 18   8  27  1   
 19  10  11  1   
 20  10  28  1   
 21  11  12  1   
 22  11  13  1   
 23  11  29  1   
 24  12  14  ar  
 25  12  15  ar  
 26  13  30  1   
 27  13  31  1   
 28  13  32  1   
 29  14  16  ar  
 30  15  17  ar  
 31  15  18  1   
 32  16  19  ar  
 33  16  33  1   
 34  17  19  ar  
 35  17  34  1   
 36  18  35  1   
 37  18  36  1   
 38  18  37  1   
 39  19  38  1   
@<TRIPOS>SUBSTRUCTURE
  1 ****  10 GROUP 4 **** **** 0

# MOE 2024.06 (io_trps.svl 2023.06)
