@<TRIPOS>MOLECULE
NONAME
51 53 1 0 0 
SMALL
USER_CHARGES


@<TRIPOS>ATOM
  1 O       -3.7720     1.9290    -1.4600 O.2   1 <1>  -0.5700 
  2 C       -2.5530     1.9680    -1.4120 C.2   1 <1>   0.5440 
  3 N       -1.9370     0.7950    -1.0270 N.am  1 <1>  -0.6600 
  4 C       -1.8220     3.2060    -1.6820 C.ar  1 <1>   0.3960 
  5 C       -2.4790    -0.5100    -1.5320 C.3   1 <1>   0.1400 
  6 C       -1.4580     0.7000     0.3860 C.3   1 <1>   0.1400 
  7 N       -0.6000     3.3830    -1.1620 N.ar  1 <1>  -0.6200 
  8 C       -2.4310     4.1840    -2.4720 C.ar  1 <1>   0.1600 
  9 C       -3.4660    -1.1540    -0.5260 C.3   1 <1>   0.3430 
 10 C       -2.6090     0.2570     1.3270 C.3   1 <1>   0.3430 
 11 C       -0.0380     4.5390    -1.4750 C.ar  1 <1>   0.4100 
 12 N       -1.8930     5.3470    -2.8010 N.ar  1 <1>  -0.6200 
 13 N       -3.8310    -0.1850     0.5610 N.4   1 <1>  -0.9590 
 14 N        1.2250     4.7570    -0.9300 N.pl3 1 <1>  -0.8380 
 15 C       -0.6880     5.4870    -2.2870 C.ar  1 <1>   0.1600 
 16 C       -4.9420    -0.6560     1.4350 C.3   1 <1>   0.2630 
 17 C        1.7430     6.1260    -0.6260 C.3   1 <1>   0.2090 
 18 C        2.2080     3.6450    -0.8180 C.3   1 <1>   0.2090 
 19 C        0.9220     6.7580     0.4980 C.3   1 <1>   0.0960 
 20 C        2.3610     3.2580     0.6490 C.3   1 <1>  -0.2400 
 21 N        1.4720     8.0800     0.8270 N.pl3 1 <1>   0.3140 
 22 N        1.6380     9.0330    -0.1090 N.2   1 <1>  -0.7070 
 23 C        1.8710     8.5120     2.0390 C.2   1 <1>  -0.3020 
 24 C        2.1340    10.0470     0.5320 C.2   1 <1>   0.1390 
 25 C        2.3040     9.7800     1.8840 C.2   1 <1>  -0.1500 
 26 H       -1.6660    -1.1870    -1.7290 H     1 <1>   0.0800 
 27 H       -2.9890    -0.3470    -2.4670 H     1 <1>   0.0800 
 28 H       -1.0690     1.6470     0.7180 H     1 <1>   0.0800 
 29 H       -0.6510    -0.0110     0.4390 H     1 <1>   0.0800 
 30 H       -3.4180     3.9880    -2.8540 H     1 <1>   0.1500 
 31 H       -3.0130    -2.0320    -0.0970 H     1 <1>   0.0800 
 32 H       -4.3500    -1.4660    -1.0580 H     1 <1>   0.0800 
 33 H       -2.8690     1.0860     1.9650 H     1 <1>   0.0800 
 34 H       -2.2580    -0.5410     1.9590 H     1 <1>   0.0800 
 35 H       -4.1350     0.6610     0.0300 H     1 <1>   0.4500 
 36 H       -0.1720     6.4000    -2.5150 H     1 <1>   0.1500 
 37 H       -4.6460    -1.5390     1.9770 H     1 <1>   0.0800 
 38 H       -5.8100    -0.8890     0.8390 H     1 <1>   0.0800 
 39 H       -5.2110     0.1120     2.1420 H     1 <1>   0.0800 
 40 H        1.7010     6.7390    -1.5100 H     1 <1>   0.0800 
 41 H        2.7720     6.0650    -0.3160 H     1 <1>   0.0800 
 42 H        3.1560     3.9540    -1.2240 H     1 <1>   0.0800 
 43 H        1.8700     2.7940    -1.3860 H     1 <1>   0.0800 
 44 H        0.9590     6.1360     1.3720 H     1 <1>   0.0800 
 45 H       -0.0970     6.8870     0.1890 H     1 <1>   0.0800 
 46 H        2.7560     4.0790     1.2180 H     1 <1>   0.0800 
 47 H        3.0380     2.4280     0.7330 H     1 <1>   0.0800 
 48 H        1.4080     2.9680     1.0510 H     1 <1>   0.0800 
 49 H        1.8250     7.9100     2.9280 H     1 <1>   0.1500 
 50 H        2.3820    10.9830     0.0600 H     1 <1>   0.1500 
 51 H        2.6970    10.4580     2.6210 H     1 <1>   0.1500 
@<TRIPOS>BOND
  1   1   2  2   
  2   2   3  am  
  3   2   4  1   
  4   3   5  1   
  5   3   6  1   
  6   4   7  ar  
  7   4   8  ar  
  8   5   9  1   
  9   5  26  1   
 10   5  27  1   
 11   6  10  1   
 12   6  28  1   
 13   6  29  1   
 14   7  11  ar  
 15   8  12  ar  
 16   8  30  1   
 17   9  13  1   
 18   9  31  1   
 19   9  32  1   
 20  10  13  1   
 21  10  33  1   
 22  10  34  1   
 23  11  14  1   
 24  11  15  ar  
 25  12  15  ar  
 26  13  16  1   
 27  13  35  1   
 28  14  17  1   
 29  14  18  1   
 30  15  36  1   
 31  16  37  1   
 32  16  38  1   
 33  16  39  1   
 34  17  19  1   
 35  17  40  1   
 36  17  41  1   
 37  18  20  1   
 38  18  42  1   
 39  18  43  1   
 40  19  21  1   
 41  19  44  1   
 42  19  45  1   
 43  20  46  1   
 44  20  47  1   
 45  20  48  1   
 46  21  22  1   
 47  21  23  1   
 48  22  24  2   
 49  23  25  2   
 50  23  49  1   
 51  24  25  1   
 52  24  50  1   
 53  25  51  1   
@<TRIPOS>SUBSTRUCTURE
  1 ****   7 GROUP 4 **** **** 0

# MOE 2024.06 (io_trps.svl 2023.06)
