@<TRIPOS>MOLECULE
NONAME
38 41 1 0 0 
SMALL
USER_CHARGES


@<TRIPOS>ATOM
  1 O       -3.1150     0.4670    -3.0660 O.2   1 <1>  -0.5700 
  2 C       -3.1160     1.0510    -1.9960 C.2   1 <1>   0.5440 
  3 N       -3.9260     0.5720    -1.0010 N.am  1 <1>  -0.6600 
  4 C       -2.2520     2.2040    -1.8110 C.ar  1 <1>   0.0860 
  5 C       -4.5460     1.4260     0.0600 C.3   1 <1>   0.2350 
  6 C       -3.6680    -0.8040    -0.4920 C.3   1 <1>   0.2350 
  7 C       -1.5580     2.4110    -0.6220 C.ar  1 <1>  -0.1500 
  8 C       -2.0650     3.1370    -2.8300 C.ar  1 <1>  -0.1500 
  9 C       -4.6750     0.5520     1.2910 C.3   1 <1>  -0.2420 
 10 C       -4.1260    -0.8150     0.9550 C.3   1 <1>  -0.2420 
 11 C       -0.7300     3.5080    -0.4120 C.ar  1 <1>   0.0540 
 12 C       -1.2390     4.2320    -2.6570 C.ar  1 <1>  -0.1500 
 13 C       -4.5820     1.3880     2.5690 C.2   1 <1>   0.9470 
 14 C       -5.5850    -0.6480     1.2770 C.3   1 <1>  -0.2000 
 15 C       -3.2680    -1.7590     1.7980 C.2   1 <1>   0.9470 
 16 C       -0.0730     3.6870     0.8640 C.2   1 <1>  -0.0540 
 17 C       -0.5800     4.4170    -1.4560 C.ar  1 <1>  -0.1500 
 18 O       -5.5700     1.4730     3.3100 O.co2 1 <1>  -0.9000 
 19 O       -3.5830     2.0950     2.7530 O.co2 1 <1>  -0.9000 
 20 O       -3.7930    -2.7520     2.3200 O.co2 1 <1>  -0.9000 
 21 O       -2.0400    -1.5970     1.8170 O.co2 1 <1>  -0.9000 
 22 C        1.0660     4.4340     1.1850 C.2   1 <1>   0.1390 
 23 C       -0.4380     3.1600     2.0580 C.2   1 <1>  -0.3020 
 24 N        1.3760     4.3830     2.4450 N.2   1 <1>  -0.7070 
 25 N        0.4290     3.5850     2.9830 N.pl3 1 <1>   0.3000 
 26 H       -3.9400     2.2870     0.2740 H     1 <1>   0.0800 
 27 H       -5.5190     1.7560    -0.2550 H     1 <1>   0.0800 
 28 H       -4.2170    -1.5260    -1.0690 H     1 <1>   0.0800 
 29 H       -2.6150    -1.0210    -0.5580 H     1 <1>   0.0800 
 30 H       -1.6750     1.6880     0.1720 H     1 <1>   0.1500 
 31 H       -2.5790     2.9880    -3.7640 H     1 <1>   0.1500 
 32 H       -1.1120     4.9410    -3.4570 H     1 <1>   0.1500 
 33 H       -6.3160    -0.7490     0.4980 H     1 <1>   0.1000 
 34 H       -5.9340    -1.0250     2.2240 H     1 <1>   0.1000 
 35 H        0.0500     5.2770    -1.3230 H     1 <1>   0.1500 
 36 H        1.6340     4.9950     0.4640 H     1 <1>   0.1500 
 37 H       -1.2700     2.5150     2.2950 H     1 <1>   0.1500 
 38 H        0.3870     3.3450     3.9810 H     1 <1>   0.2700 
@<TRIPOS>BOND
  1   1   2  2   
  2   2   3  am  
  3   2   4  1   
  4   3   5  1   
  5   3   6  1   
  6   4   7  ar  
  7   4   8  ar  
  8   5   9  1   
  9   5  26  1   
 10   5  27  1   
 11   6  10  1   
 12   6  28  1   
 13   6  29  1   
 14   7  11  ar  
 15   7  30  1   
 16   8  12  ar  
 17   8  31  1   
 18   9  10  1   
 19   9  13  1   
 20   9  14  1   
 21  10  14  1   
 22  10  15  1   
 23  11  16  1   
 24  11  17  ar  
 25  12  17  ar  
 26  12  32  1   
 27  13  18  ar  
 28  13  19  ar  
 29  14  33  1   
 30  14  34  1   
 31  15  20  ar  
 32  15  21  ar  
 33  16  22  1   
 34  16  23  2   
 35  17  35  1   
 36  22  24  2   
 37  22  36  1   
 38  23  25  1   
 39  23  37  1   
 40  24  25  1   
 41  25  38  1   
@<TRIPOS>SUBSTRUCTURE
  1 ****   7 GROUP 4 **** **** 0

# MOE 2024.06 (io_trps.svl 2023.06)
