@<TRIPOS>MOLECULE
NONAME
65 67 1 0 0 
SMALL
USER_CHARGES


@<TRIPOS>ATOM
  1 O       -0.7700    -0.6980    -0.5120 O.3   1 <1>  -0.3630 
  2 C       -1.6120     0.1590    -1.1460 C.ar  1 <1>   0.0820 
  3 C        0.4430    -1.0040    -1.1860 C.3   1 <1>   0.1200 
  4 C       -1.3590     1.5340    -1.1450 C.ar  1 <1>   0.0820 
  5 C       -2.7390    -0.3510    -1.7810 C.ar  1 <1>  -0.1440 
  6 C        1.5920    -1.0620    -0.1690 C.3   1 <1>   0.3430 
  7 O       -0.2870     2.0010    -0.4390 O.3   1 <1>  -0.3630 
  8 C       -2.2160     2.3790    -1.8450 C.ar  1 <1>  -0.1500 
  9 C       -3.5810     0.5080    -2.4730 C.ar  1 <1>  -0.1500 
 10 C       -3.0720    -1.8280    -1.7120 C.3   1 <1>   0.4870 
 11 N        1.7830     0.2620     0.4970 N.4   1 <1>  -0.9590 
 12 C       -0.1720     3.3840    -0.1520 C.3   1 <1>   0.0400 
 13 C       -3.3160     1.8640    -2.5080 C.ar  1 <1>  -0.1500 
 14 N       -3.6960    -2.1050    -0.3940 N.4   1 <1>  -0.9590 
 15 C        2.7430     1.1260    -0.2550 C.3   1 <1>   0.2630 
 16 C        2.1950     0.1150     1.9250 C.3   1 <1>   0.2630 
 17 C       -4.9990    -1.4130    -0.2230 C.3   1 <1>   0.3430 
 18 C       -3.9510    -3.5460    -0.1370 C.3   1 <1>   0.3430 
 19 C       -5.6930    -2.1630     0.9060 C.3   1 <1>  -0.0800 
 20 C       -5.1970    -3.6170     0.7530 C.3   1 <1>  -0.0800 
 21 C       -7.2320    -1.9770     0.9210 C.3   1 <1>   0.2800 
 22 C       -6.2490    -4.5490     0.1290 C.3   1 <1>  -0.1600 
 23 O       -7.6820    -1.9100    -0.3830 O.3   1 <1>  -0.6800 
 24 C       -7.8970    -3.1980     1.5830 C.3   1 <1>  -0.1600 
 25 C       -7.6890    -0.6840     1.6320 C.3   1 <1>  -0.1600 
 26 C       -7.5680    -4.5500     0.9170 C.3   1 <1>  -0.1600 
 27 C       -7.1760     0.6430     1.0440 C.3   1 <1>  -0.2400 
 28 H        0.3230    -1.9570    -1.6680 H     1 <1>   0.0800 
 29 H        0.6420    -0.2560    -1.9350 H     1 <1>   0.0800 
 30 H        2.5040    -1.3600    -0.6610 H     1 <1>   0.0800 
 31 H        1.3540    -1.8130     0.5670 H     1 <1>   0.0800 
 32 H       -2.0520     3.4400    -1.8930 H     1 <1>   0.1500 
 33 H       -4.4520     0.1380    -2.9890 H     1 <1>   0.1500 
 34 H       -2.1690    -2.4050    -1.8220 H     1 <1>   0.0800 
 35 H       -3.7500    -2.0930    -2.5070 H     1 <1>   0.0800 
 36 H        0.8530     0.7350     0.4630 H     1 <1>   0.4500 
 37 H        0.6540     3.5270     0.5210 H     1 <1>   0.0800 
 38 H       -1.0800     3.7240     0.3150 H     1 <1>   0.0800 
 39 H        0.0100     3.9210    -1.0670 H     1 <1>   0.0800 
 40 H       -3.9710     2.5270    -3.0510 H     1 <1>   0.1500 
 41 H       -3.0600    -1.7360     0.3240 H     1 <1>   0.4500 
 42 H        3.7180     0.6670    -0.2880 H     1 <1>   0.0800 
 43 H        2.8310     2.0880     0.2240 H     1 <1>   0.0800 
 44 H        2.3950     1.2810    -1.2630 H     1 <1>   0.0800 
 45 H        3.1500    -0.3790     1.9920 H     1 <1>   0.0800 
 46 H        1.4660    -0.4650     2.4680 H     1 <1>   0.0800 
 47 H        2.2750     1.0840     2.3920 H     1 <1>   0.0800 
 48 H       -4.8680    -0.3680     0.0050 H     1 <1>   0.0800 
 49 H       -5.5790    -1.5060    -1.1270 H     1 <1>   0.0800 
 50 H       -4.1520    -4.0550    -1.0650 H     1 <1>   0.0800 
 51 H       -3.1050    -4.0110     0.3430 H     1 <1>   0.0800 
 52 H       -5.3060    -1.7900     1.8370 H     1 <1>   0.0800 
 53 H       -4.9260    -4.0100     1.7190 H     1 <1>   0.0800 
 54 H       -6.4570    -4.2250    -0.8770 H     1 <1>   0.0800 
 55 H       -5.8730    -5.5570     0.0700 H     1 <1>   0.0800 
 56 H       -8.6590    -1.8830    -0.3840 H     1 <1>   0.4000 
 57 H       -7.5550    -3.2410     2.6030 H     1 <1>   0.0800 
 58 H       -8.9650    -3.0690     1.6250 H     1 <1>   0.0800 
 59 H       -8.7650    -0.6550     1.6320 H     1 <1>   0.0800 
 60 H       -7.3880    -0.7310     2.6650 H     1 <1>   0.0800 
 61 H       -7.5330    -5.3090     1.6800 H     1 <1>   0.0800 
 62 H       -8.3650    -4.8160     0.2420 H     1 <1>   0.0800 
 63 H       -7.3840     0.7050    -0.0100 H     1 <1>   0.0800 
 64 H       -6.1210     0.7590     1.2080 H     1 <1>   0.0800 
 65 H       -7.6730     1.4650     1.5300 H     1 <1>   0.0800 
@<TRIPOS>BOND
  1   1   2  1   
  2   1   3  1   
  3   2   4  ar  
  4   2   5  ar  
  5   3   6  1   
  6   3  28  1   
  7   3  29  1   
  8   4   7  1   
  9   4   8  ar  
 10   5   9  ar  
 11   5  10  1   
 12   6  11  1   
 13   6  30  1   
 14   6  31  1   
 15   7  12  1   
 16   8  13  ar  
 17   8  32  1   
 18   9  13  ar  
 19   9  33  1   
 20  10  14  1   
 21  10  34  1   
 22  10  35  1   
 23  11  15  1   
 24  11  16  1   
 25  11  36  1   
 26  12  37  1   
 27  12  38  1   
 28  12  39  1   
 29  13  40  1   
 30  14  17  1   
 31  14  18  1   
 32  14  41  1   
 33  15  42  1   
 34  15  43  1   
 35  15  44  1   
 36  16  45  1   
 37  16  46  1   
 38  16  47  1   
 39  17  19  1   
 40  17  48  1   
 41  17  49  1   
 42  18  20  1   
 43  18  50  1   
 44  18  51  1   
 45  19  20  1   
 46  19  21  1   
 47  19  52  1   
 48  20  22  1   
 49  20  53  1   
 50  21  23  1   
 51  21  24  1   
 52  21  25  1   
 53  22  26  1   
 54  22  54  1   
 55  22  55  1   
 56  23  56  1   
 57  24  26  1   
 58  24  57  1   
 59  24  58  1   
 60  25  27  1   
 61  25  59  1   
 62  25  60  1   
 63  26  61  1   
 64  26  62  1   
 65  27  63  1   
 66  27  64  1   
 67  27  65  1   
@<TRIPOS>SUBSTRUCTURE
  1 ****  14 GROUP 4 **** **** 0

# MOE 2024.06 (io_trps.svl 2023.06)
