@<TRIPOS>MOLECULE
NONAME
55 57 1 0 0 
SMALL
USER_CHARGES


@<TRIPOS>ATOM
  1 O       -0.9380     1.4600     1.8100 O.2   1 <1>  -0.5700 
  2 C       -1.7090     1.9780     1.0360 C.2   1 <1>   0.5690 
  3 N       -3.0420     1.6320     1.0090 N.am  1 <1>  -0.6600 
  4 C       -1.1590     3.0340     0.0890 C.3   1 <1>  -0.0990 
  5 C       -4.0010     2.1590    -0.0110 C.3   1 <1>   0.2200 
  6 C       -3.5600     0.6640     2.0280 C.3   1 <1>   0.0600 
  7 C        0.2710     3.4470     0.4360 C.3   1 <1>   0.1200 
  8 C       -4.9310     3.2220     0.5610 C.3   1 <1>  -0.1600 
  9 C       -4.9550     1.1220    -0.6000 C.3   1 <1>  -0.1600 
 10 O        0.6710     4.4520    -0.4690 O.3   1 <1>  -0.3620 
 11 C       -6.0930     3.2960    -0.4420 C.3   1 <1>  -0.0800 
 12 C       -6.0970     1.9570    -1.2000 C.3   1 <1>  -0.0800 
 13 C        1.9040     5.0120    -0.3920 C.ar  1 <1>   0.0820 
 14 C       -7.4740     3.4350     0.2130 C.3   1 <1>  -0.1600 
 15 C       -7.4880     1.3430    -0.9980 C.3   1 <1>  -0.1600 
 16 C        2.8620     4.6520     0.5530 C.ar  1 <1>  -0.1500 
 17 C        2.2020     5.9980    -1.3210 C.ar  1 <1>  -0.1500 
 18 C       -8.0210     2.0090     0.2670 C.3   1 <1>   0.4230 
 19 C        4.0980     5.2770     0.5600 C.ar  1 <1>  -0.1500 
 20 C        3.4370     6.6210    -1.3120 C.ar  1 <1>  -0.1500 
 21 N       -9.5090     1.9130     0.3970 N.4   1 <1>  -0.9590 
 22 C        4.3860     6.2600    -0.3710 C.ar  1 <1>  -0.1500 
 23 C      -10.2970     2.6110    -0.6730 C.3   1 <1>   0.2630 
 24 C       -9.9520     2.3850     1.7460 C.3   1 <1>   0.2630 
 25 H       -1.1700     2.6380    -0.9090 H     1 <1>   0.0800 
 26 H       -1.7840     3.9050     0.1400 H     1 <1>   0.0800 
 27 H       -3.4660     2.5940    -0.8360 H     1 <1>   0.0800 
 28 H       -4.5410     0.9490     2.3580 H     1 <1>   0.0800 
 29 H       -2.9150     0.6380     2.8900 H     1 <1>   0.0800 
 30 H       -3.5950    -0.3230     1.6020 H     1 <1>   0.0800 
 31 H        0.9420     2.6100     0.3400 H     1 <1>   0.0800 
 32 H        0.3180     3.8470     1.4350 H     1 <1>   0.0800 
 33 H       -5.2830     2.9140     1.5290 H     1 <1>   0.0800 
 34 H       -4.4290     4.1690     0.6510 H     1 <1>   0.0800 
 35 H       -4.4640     0.5280    -1.3510 H     1 <1>   0.0800 
 36 H       -5.3430     0.4770     0.1650 H     1 <1>   0.0800 
 37 H       -5.9170     4.1080    -1.1300 H     1 <1>   0.0800 
 38 H       -5.9030     2.1250    -2.2480 H     1 <1>   0.0800 
 39 H       -8.0760     4.0580    -0.4220 H     1 <1>   0.0800 
 40 H       -7.4100     3.8820     1.1890 H     1 <1>   0.0800 
 41 H       -7.4460     0.2730    -0.9040 H     1 <1>   0.0800 
 42 H       -8.0870     1.6000    -1.8530 H     1 <1>   0.0800 
 43 H        2.6660     3.8930     1.2860 H     1 <1>   0.1500 
 44 H        1.4600     6.2710    -2.0480 H     1 <1>   0.1500 
 45 H       -7.5600     1.5140     1.1080 H     1 <1>   0.0800 
 46 H        4.8360     4.9970     1.2910 H     1 <1>   0.1500 
 47 H        3.6590     7.3850    -2.0370 H     1 <1>   0.1500 
 48 H       -9.7340     0.9090     0.3330 H     1 <1>   0.4500 
 49 H        5.3470     6.7440    -0.3630 H     1 <1>   0.1500 
 50 H      -10.1200     3.6740    -0.6410 H     1 <1>   0.0800 
 51 H      -11.3510     2.4380    -0.5320 H     1 <1>   0.0800 
 52 H      -10.0230     2.2450    -1.6490 H     1 <1>   0.0800 
 53 H       -9.7430     3.4360     1.8620 H     1 <1>   0.0800 
 54 H       -9.4350     1.8440     2.5220 H     1 <1>   0.0800 
 55 H      -11.0120     2.2290     1.8680 H     1 <1>   0.0800 
@<TRIPOS>BOND
  1   1   2  2   
  2   2   3  am  
  3   2   4  1   
  4   3   5  1   
  5   3   6  1   
  6   4   7  1   
  7   4  25  1   
  8   4  26  1   
  9   5   8  1   
 10   5   9  1   
 11   5  27  1   
 12   6  28  1   
 13   6  29  1   
 14   6  30  1   
 15   7  10  1   
 16   7  31  1   
 17   7  32  1   
 18   8  11  1   
 19   8  33  1   
 20   8  34  1   
 21   9  12  1   
 22   9  35  1   
 23   9  36  1   
 24  10  13  1   
 25  11  12  1   
 26  11  14  1   
 27  11  37  1   
 28  12  15  1   
 29  12  38  1   
 30  13  16  ar  
 31  13  17  ar  
 32  14  18  1   
 33  14  39  1   
 34  14  40  1   
 35  15  18  1   
 36  15  41  1   
 37  15  42  1   
 38  16  19  ar  
 39  16  43  1   
 40  17  20  ar  
 41  17  44  1   
 42  18  21  1   
 43  18  45  1   
 44  19  22  ar  
 45  19  46  1   
 46  20  22  ar  
 47  20  47  1   
 48  21  23  1   
 49  21  24  1   
 50  21  48  1   
 51  22  49  1   
 52  23  50  1   
 53  23  51  1   
 54  23  52  1   
 55  24  53  1   
 56  24  54  1   
 57  24  55  1   
@<TRIPOS>SUBSTRUCTURE
  1 ****   5 GROUP 4 **** **** 0

# MOE 2024.06 (io_trps.svl 2023.06)
