@<TRIPOS>MOLECULE
NONAME
34 35 1 0 0 
SMALL
USER_CHARGES


@<TRIPOS>ATOM
  1 O        0.4260    -0.2850     1.0930 O.2   1 <1>  -0.5700 
  2 C        1.3740    -0.6060     0.4040 C.2   1 <1>   0.7150 
  3 N        2.2460     0.3420    -0.0720 N.am  1 <1>  -0.4940 
  4 C        1.5850    -1.9890     0.0730 C.2   1 <1>  -0.2370 
  5 C        2.2130     1.7470     0.0990 C.2   1 <1>  -0.0880 
  6 N        2.8090    -2.5620    -0.1450 N.pl3 1 <1>   0.0330 
  7 C        0.6470    -2.9800    -0.0630 C.2   1 <1>  -0.1500 
  8 N        3.2790     2.5080     0.4690 N.pl3 1 <1>   0.3140 
  9 C        1.1800     2.6070    -0.0720 C.2   1 <1>  -0.1810 
 10 C        2.6260    -3.8720    -0.4240 C.2   1 <1>  -0.3020 
 11 C        1.2940    -4.1770    -0.3840 C.2   1 <1>   0.0190 
 12 N        2.9610     3.8190     0.5280 N.2   1 <1>  -0.7070 
 13 C        4.6270     2.0360     0.8440 C.3   1 <1>   0.0960 
 14 C        1.7050     3.8630     0.2100 C.2   1 <1>   0.1390 
 15 C       -0.2540     2.3250    -0.4800 C.3   1 <1>  -0.0590 
 16 C        0.6540    -5.4430    -0.6120 C.1   1 <1>   0.5380 
 17 C        5.5060     1.8310    -0.3980 C.3   1 <1>  -0.1600 
 18 N        0.1500    -6.4490    -0.7980 N.1   1 <1>  -0.5570 
 19 C        6.8970     1.3130    -0.0160 C.3   1 <1>  -0.2400 
 20 H        2.8930     0.0060    -0.7790 H     1 <1>   0.3700 
 21 H        3.7190    -2.0920    -0.0690 H     1 <1>   0.2700 
 22 H       -0.4180    -2.8670     0.0600 H     1 <1>   0.1500 
 23 H        3.4430    -4.5420    -0.6320 H     1 <1>   0.1500 
 24 H        4.5250     1.1200     1.3950 H     1 <1>   0.0800 
 25 H        5.0690     2.7730     1.4900 H     1 <1>   0.0800 
 26 H        1.1400     4.7800     0.1700 H     1 <1>   0.1500 
 27 H       -0.3170     1.3920    -1.0090 H     1 <1>   0.0800 
 28 H       -0.6220     3.1080    -1.1180 H     1 <1>   0.0800 
 29 H       -0.8730     2.2640     0.3970 H     1 <1>   0.0800 
 30 H        5.6090     2.7720    -0.9120 H     1 <1>   0.0800 
 31 H        5.0380     1.1300    -1.0660 H     1 <1>   0.0800 
 32 H        7.3960     2.0170     0.6280 H     1 <1>   0.0800 
 33 H        7.4970     1.1830    -0.9010 H     1 <1>   0.0800 
 34 H        6.8280     0.3670     0.4920 H     1 <1>   0.0800 
@<TRIPOS>BOND
  1   1   2  2   
  2   2   3  am  
  3   2   4  1   
  4   3   5  1   
  5   3  20  1   
  6   4   6  1   
  7   4   7  2   
  8   5   8  1   
  9   5   9  2   
 10   6  10  1   
 11   6  21  1   
 12   7  11  1   
 13   7  22  1   
 14   8  12  1   
 15   8  13  1   
 16   9  14  1   
 17   9  15  1   
 18  10  11  2   
 19  10  23  1   
 20  11  16  1   
 21  12  14  2   
 22  13  17  1   
 23  13  24  1   
 24  13  25  1   
 25  14  26  1   
 26  15  27  1   
 27  15  28  1   
 28  15  29  1   
 29  16  18  3   
 30  17  19  1   
 31  17  30  1   
 32  17  31  1   
 33  19  32  1   
 34  19  33  1   
 35  19  34  1   
@<TRIPOS>SUBSTRUCTURE
  1 ****   3 GROUP 4 **** **** 0

# MOE 2024.06 (io_trps.svl 2023.06)
