@<TRIPOS>MOLECULE
NONAME
51 52 1 0 0 
SMALL
USER_CHARGES


@<TRIPOS>ATOM
  1 S        0.4380    -0.4630     1.3970 S.o2  1 <1>   1.5760 
  2 O       -0.4390    -0.1370     2.5000 O.2   1 <1>  -0.6500 
  3 O        1.5450    -1.3700     1.6020 O.2   1 <1>  -0.6500 
  4 N       -0.5440    -1.0870     0.1790 N.am  1 <1>  -0.8490 
  5 N        1.0010     0.9610     0.6640 N.am  1 <1>  -0.8490 
  6 C       -1.0190    -2.4370     0.5230 C.3   1 <1>   0.1960 
  7 C       -1.7050    -0.2270    -0.0930 C.3   1 <1>   0.1960 
  8 C        2.1750     0.7480    -0.2010 C.3   1 <1>   0.1960 
  9 C        1.2640     2.0130     1.6520 C.3   1 <1>   0.1960 
 10 C       -1.9480    -3.0140    -0.5660 C.3   1 <1>   0.3440 
 11 C       -2.5960    -0.8370    -1.1980 C.3   1 <1>   0.2000 
 12 C        1.7780     0.1390    -1.5430 C.3   1 <1>  -0.2400 
 13 C        1.1550     3.3930     1.0020 C.3   1 <1>  -0.2400 
 14 O       -3.0050    -2.1270    -0.8240 O.3   1 <1>  -0.5600 
 15 C       -2.5150    -4.3640    -0.1370 C.ar  1 <1>  -0.1440 
 16 C       -3.8430     0.0190    -1.5210 C.3   1 <1>  -0.0800 
 17 C       -1.8980    -5.5360    -0.5490 C.ar  1 <1>  -0.1500 
 18 C       -3.6390    -4.4440     0.6740 C.ar  1 <1>  -0.1500 
 19 C       -4.8240     0.1430    -0.3420 C.3   1 <1>  -0.2400 
 20 C       -4.5850    -0.5410    -2.7450 C.3   1 <1>  -0.2400 
 21 C       -2.3930    -6.7680    -0.1560 C.ar  1 <1>  -0.1500 
 22 C       -4.1360    -5.6740     1.0680 C.ar  1 <1>  -0.1500 
 23 C       -3.5130    -6.8380     0.6540 C.ar  1 <1>  -0.1500 
 24 H       -0.1750    -3.0960     0.6410 H     1 <1>   0.0800 
 25 H       -1.5520    -2.4150     1.4590 H     1 <1>   0.0800 
 26 H       -2.2850    -0.0990     0.8050 H     1 <1>   0.0800 
 27 H       -1.3660     0.7430    -0.4130 H     1 <1>   0.0800 
 28 H        2.6490     1.6880    -0.4140 H     1 <1>   0.0800 
 29 H        2.9090     0.1300     0.2900 H     1 <1>   0.0800 
 30 H        0.5290     1.9850     2.4370 H     1 <1>   0.0800 
 31 H        2.2320     1.8720     2.1040 H     1 <1>   0.0800 
 32 H       -1.3930    -3.1350    -1.4800 H     1 <1>   0.0800 
 33 H       -2.0050    -0.9280    -2.0940 H     1 <1>   0.0800 
 34 H        0.9590     0.6870    -1.9730 H     1 <1>   0.0800 
 35 H        1.5050    -0.8930    -1.4280 H     1 <1>   0.0800 
 36 H        2.6130     0.1840    -2.2170 H     1 <1>   0.0800 
 37 H        0.2060     3.4900     0.5070 H     1 <1>   0.0800 
 38 H        1.9460     3.5690     0.2980 H     1 <1>   0.0800 
 39 H        1.2180     4.1490     1.7640 H     1 <1>   0.0800 
 40 H       -3.5030     1.0090    -1.7760 H     1 <1>   0.0800 
 41 H       -1.0260    -5.4990    -1.1790 H     1 <1>   0.1500 
 42 H       -4.1330    -3.5430     0.9970 H     1 <1>   0.1500 
 43 H       -5.1640    -0.8300    -0.0320 H     1 <1>   0.0800 
 44 H       -5.6820     0.7240    -0.6320 H     1 <1>   0.0800 
 45 H       -4.3650     0.6310     0.4980 H     1 <1>   0.0800 
 46 H       -4.9630    -1.5270    -2.5350 H     1 <1>   0.0800 
 47 H       -3.9240    -0.6020    -3.5900 H     1 <1>   0.0800 
 48 H       -5.4130     0.0950    -3.0060 H     1 <1>   0.0800 
 49 H       -1.9080    -7.6710    -0.4810 H     1 <1>   0.1500 
 50 H       -5.0090    -5.7240     1.6960 H     1 <1>   0.1500 
 51 H       -3.8990    -7.7940     0.9590 H     1 <1>   0.1500 
@<TRIPOS>BOND
  1   1   2  2   
  2   1   3  2   
  3   1   4  am  
  4   1   5  am  
  5   4   6  1   
  6   4   7  1   
  7   5   8  1   
  8   5   9  1   
  9   6  10  1   
 10   6  24  1   
 11   6  25  1   
 12   7  11  1   
 13   7  26  1   
 14   7  27  1   
 15   8  12  1   
 16   8  28  1   
 17   8  29  1   
 18   9  13  1   
 19   9  30  1   
 20   9  31  1   
 21  10  14  1   
 22  10  15  1   
 23  10  32  1   
 24  11  14  1   
 25  11  16  1   
 26  11  33  1   
 27  12  34  1   
 28  12  35  1   
 29  12  36  1   
 30  13  37  1   
 31  13  38  1   
 32  13  39  1   
 33  15  17  ar  
 34  15  18  ar  
 35  16  19  1   
 36  16  20  1   
 37  16  40  1   
 38  17  21  ar  
 39  17  41  1   
 40  18  22  ar  
 41  18  42  1   
 42  19  43  1   
 43  19  44  1   
 44  19  45  1   
 45  20  46  1   
 46  20  47  1   
 47  20  48  1   
 48  21  23  ar  
 49  21  49  1   
 50  22  23  ar  
 51  22  50  1   
 52  23  51  1   
@<TRIPOS>SUBSTRUCTURE
  1 ****   6 GROUP 4 **** **** 0

# MOE 2024.06 (io_trps.svl 2023.06)
