@<TRIPOS>MOLECULE
NONAME
53 57 1 0 0 
SMALL
USER_CHARGES


@<TRIPOS>ATOM
  1 F        0.8000    -0.3580    -0.8900 F     1 <1>  -0.1900 
  2 C        1.1110    -1.5960    -0.6000 C.ar  1 <1>   0.1900 
  3 C        0.5120    -2.6150    -1.2950 C.ar  1 <1>  -0.1500 
  4 C        2.0470    -1.8140     0.4140 C.ar  1 <1>  -0.1500 
  5 C        0.8630    -3.9280    -0.9610 C.ar  1 <1>   0.0000 
  6 C        2.3920    -3.1050     0.7410 C.ar  1 <1>  -0.1500 
  7 C        1.7910    -4.1680     0.0500 C.ar  1 <1>  -0.1520 
  8 C        0.4690    -5.1840    -1.4450 C.2   1 <1>  -0.1500 
  9 N        1.9480    -5.5300     0.1730 N.pl3 1 <1>   0.0480 
 10 C        1.1270    -6.1550    -0.7440 C.2   1 <1>  -0.2370 
 11 C        2.8610    -6.2030     1.1220 C.3   1 <1>   0.0160 
 12 C        1.0360    -7.5870    -0.8950 C.2   1 <1>   0.7150 
 13 O        2.0410    -8.2700    -0.8240 O.2   1 <1>  -0.5700 
 14 N       -0.1750    -8.2050    -1.1070 N.am  1 <1>  -0.6600 
 15 C       -1.4860    -7.6230    -0.6850 C.3   1 <1>   0.1400 
 16 C       -0.2760    -9.6320    -1.5410 C.3   1 <1>   0.1400 
 17 C       -2.1810    -8.5240     0.3540 C.3   1 <1>   0.1900 
 18 C       -1.0070   -10.4790    -0.4870 C.3   1 <1>   0.1100 
 19 N       -2.3330    -9.9080    -0.1610 N.3   1 <1>  -0.8100 
 20 C       -3.5520    -7.9370     0.7440 C.3   1 <1>   0.1200 
 21 C       -3.0620   -10.7370     0.8290 C.3   1 <1>   0.3330 
 22 O       -4.1840    -8.7520     1.6880 O.3   1 <1>  -0.5600 
 23 C       -3.3510   -12.1310     0.2720 C.ar  1 <1>  -0.1430 
 24 C       -4.3910   -10.0640     1.2340 C.3   1 <1>   0.1200 
 25 C       -3.8880   -12.2930    -0.9970 C.ar  1 <1>  -0.1500 
 26 C       -3.0800   -13.2560     1.0380 C.ar  1 <1>  -0.1500 
 27 C       -4.1530   -13.5580    -1.4930 C.ar  1 <1>  -0.1500 
 28 C       -3.3440   -14.5220     0.5440 C.ar  1 <1>  -0.1500 
 29 C       -3.8810   -14.6740    -0.7220 C.ar  1 <1>  -0.1500 
 30 H       -0.2020    -2.4220    -2.0730 H     1 <1>   0.1500 
 31 H        2.4810    -0.9690     0.9180 H     1 <1>   0.1500 
 32 H        3.1120    -3.2980     1.5160 H     1 <1>   0.1500 
 33 H       -0.2330    -5.3240    -2.2470 H     1 <1>   0.1500 
 34 H        2.3680    -7.0550     1.5510 H     1 <1>   0.0800 
 35 H        3.1440    -5.5280     1.9070 H     1 <1>   0.0800 
 36 H        3.7370    -6.5300     0.5920 H     1 <1>   0.0800 
 37 H       -1.3470    -6.6490    -0.2510 H     1 <1>   0.0800 
 38 H       -2.1190    -7.5200    -1.5480 H     1 <1>   0.0800 
 39 H       -0.8220    -9.6790    -2.4660 H     1 <1>   0.0800 
 40 H        0.7010   -10.0470    -1.7170 H     1 <1>   0.0800 
 41 H       -1.5680    -8.5380     1.2400 H     1 <1>   0.0800 
 42 H       -0.3990   -10.5380     0.4000 H     1 <1>   0.0800 
 43 H       -1.1230   -11.4750    -0.8770 H     1 <1>   0.0800 
 44 H       -4.1880    -7.8520    -0.1200 H     1 <1>   0.0800 
 45 H       -3.4300    -6.9630     1.1850 H     1 <1>   0.0800 
 46 H       -2.4590   -10.8330     1.7150 H     1 <1>   0.0800 
 47 H       -4.8550   -10.6180     2.0300 H     1 <1>   0.0800 
 48 H       -5.0650   -10.0350     0.3970 H     1 <1>   0.0800 
 49 H       -4.0950   -11.4280    -1.6030 H     1 <1>   0.1500 
 50 H       -2.6630   -13.1540     2.0250 H     1 <1>   0.1500 
 51 H       -4.5690   -13.6730    -2.4790 H     1 <1>   0.1500 
 52 H       -3.1310   -15.3890     1.1440 H     1 <1>   0.1500 
 53 H       -4.0860   -15.6570    -1.1060 H     1 <1>   0.1500 
@<TRIPOS>BOND
  1   1   2  1   
  2   2   3  ar  
  3   2   4  ar  
  4   3   5  ar  
  5   3  30  1   
  6   4   6  ar  
  7   4  31  1   
  8   5   7  ar  
  9   5   8  1   
 10   6   7  ar  
 11   6  32  1   
 12   7   9  1   
 13   8  10  2   
 14   8  33  1   
 15   9  10  1   
 16   9  11  1   
 17  10  12  1   
 18  11  34  1   
 19  11  35  1   
 20  11  36  1   
 21  12  13  2   
 22  12  14  am  
 23  14  15  1   
 24  14  16  1   
 25  15  17  1   
 26  15  37  1   
 27  15  38  1   
 28  16  18  1   
 29  16  39  1   
 30  16  40  1   
 31  17  19  1   
 32  17  20  1   
 33  17  41  1   
 34  18  19  1   
 35  18  42  1   
 36  18  43  1   
 37  19  21  1   
 38  20  22  1   
 39  20  44  1   
 40  20  45  1   
 41  21  23  1   
 42  21  24  1   
 43  21  46  1   
 44  22  24  1   
 45  23  25  ar  
 46  23  26  ar  
 47  24  47  1   
 48  24  48  1   
 49  25  27  ar  
 50  25  49  1   
 51  26  28  ar  
 52  26  50  1   
 53  27  29  ar  
 54  27  51  1   
 55  28  29  ar  
 56  28  52  1   
 57  29  53  1   
@<TRIPOS>SUBSTRUCTURE
  1 ****  15 GROUP 4 **** **** 0

# MOE 2024.06 (io_trps.svl 2023.06)
