@<TRIPOS>MOLECULE
NONAME
30 30 1 0 0 
SMALL
USER_CHARGES


@<TRIPOS>ATOM
  1 O       -5.4210    -2.1700     0.7830 O.2   1 <1>  -0.5700 
  2 C       -6.4200    -1.5010     0.5440 C.2   1 <1>   0.6160 
  3 N       -7.5940    -2.1460     0.3260 N.am  1 <1>  -0.5390 
  4 C       -6.3680    -0.0770     0.4240 C.2   1 <1>  -0.1240 
  5 C       -8.7240    -1.4730    -0.0490 C.2   1 <1>  -0.0290 
  6 C       -7.4880     0.6250     0.0450 C.2   1 <1>  -0.1380 
  7 C       -5.0000     0.4810     0.7690 C.3   1 <1>   0.4810 
  8 C       -8.6770    -0.1230    -0.1930 C.2   1 <1>  -0.1500 
  9 C       -9.9720    -2.3000    -0.2830 C.3   1 <1>  -0.1020 
 10 C       -7.7030     2.1320    -0.1700 C.3   1 <1>  -0.0220 
 11 N       -4.0060    -0.0260    -0.2020 N.4   1 <1>  -0.8530 
 12 C       -6.5300     3.1020     0.0230 C.3   1 <1>  -0.1600 
 13 C       -6.9490     4.5410    -0.2980 C.3   1 <1>  -0.2400 
 14 H       -7.5850    -3.1610     0.4440 H     1 <1>   0.3700 
 15 H       -4.7350     0.1480     1.7610 H     1 <1>   0.0800 
 16 H       -4.9910     1.5520     0.7740 H     1 <1>   0.0800 
 17 H       -9.5650     0.4120    -0.4900 H     1 <1>   0.1500 
 18 H       -9.7990    -3.0180    -1.0650 H     1 <1>   0.0800 
 19 H      -10.7960    -1.6730    -0.5720 H     1 <1>   0.0800 
 20 H      -10.2420    -2.8230     0.6170 H     1 <1>   0.0800 
 21 H       -8.4950     2.4450     0.4910 H     1 <1>   0.0800 
 22 H       -8.0710     2.2640    -1.1730 H     1 <1>   0.0800 
 23 H       -4.0420    -1.0600    -0.1320 H     1 <1>   0.4500 
 24 H       -3.0530     0.2810     0.0130 H     1 <1>   0.4500 
 25 H       -4.2590     0.2310    -1.1610 H     1 <1>   0.4500 
 26 H       -5.7210     2.8360    -0.6330 H     1 <1>   0.0800 
 27 H       -6.2020     3.0750     1.0480 H     1 <1>   0.0800 
 28 H       -7.2750     4.6240    -1.3210 H     1 <1>   0.0800 
 29 H       -6.1200     5.2110    -0.1520 H     1 <1>   0.0800 
 30 H       -7.7530     4.8550     0.3450 H     1 <1>   0.0800 
@<TRIPOS>BOND
  1   1   2  2   
  2   2   3  am  
  3   2   4  1   
  4   3   5  1   
  5   3  14  1   
  6   4   6  2   
  7   4   7  1   
  8   5   8  2   
  9   5   9  1   
 10   6   8  1   
 11   6  10  1   
 12   7  11  1   
 13   7  15  1   
 14   7  16  1   
 15   8  17  1   
 16   9  18  1   
 17   9  19  1   
 18   9  20  1   
 19  10  12  1   
 20  10  21  1   
 21  10  22  1   
 22  11  23  1   
 23  11  24  1   
 24  11  25  1   
 25  12  13  1   
 26  12  26  1   
 27  12  27  1   
 28  13  28  1   
 29  13  29  1   
 30  13  30  1   
@<TRIPOS>SUBSTRUCTURE
  1 ****   4 GROUP 4 **** **** 0

# MOE 2024.06 (io_trps.svl 2023.06)
