@<TRIPOS>MOLECULE
NONAME
53 56 1 0 0 
SMALL
USER_CHARGES


@<TRIPOS>ATOM
  1 O       -0.0150     0.1280    -0.4770 O.2   1 <1>  -0.5700 
  2 C       -1.0190     0.7480    -0.7300 C.2   1 <1>   0.5690 
  3 N       -2.2380     0.1360    -0.8130 N.am  1 <1>  -0.6600 
  4 C       -0.8840     2.2460    -0.9170 C.3   1 <1>  -0.0990 
  5 C       -3.5710     0.7820    -0.9240 C.3   1 <1>   0.1400 
  6 C       -2.4120    -1.3210    -0.5670 C.3   1 <1>   0.1400 
  7 C       -0.9290     2.9660     0.4380 C.3   1 <1>  -0.0220 
  8 C       -4.4900    -0.1420    -0.1310 C.3   1 <1>   0.2000 
  9 C       -3.9250    -1.5330    -0.4280 C.3   1 <1>  -0.0800 
 10 C       -0.6760     4.4690     0.2780 C.2   1 <1>  -0.1240 
 11 O       -4.3210     0.1560     1.2140 O.3   1 <1>  -0.6800 
 12 C       -4.3100    -2.6390     0.5730 C.3   1 <1>   0.0210 
 13 C       -1.7880     5.3740     0.1370 C.2   1 <1>   0.3750 
 14 C        0.5960     4.9750     0.2650 C.2   1 <1>  -0.1690 
 15 C       -3.6780    -3.9610     0.1830 C.2   1 <1>   0.1080 
 16 N       -1.6540     6.6510     0.0100 N.2   1 <1>  -0.5760 
 17 C       -3.2180     4.8630     0.1270 C.3   1 <1>  -0.1790 
 18 N        0.7220     6.3520     0.1370 N.pl3 1 <1>   0.6010 
 19 C        1.9070     4.1900     0.3700 C.3   1 <1>  -0.1020 
 20 N       -3.8890    -4.5310    -0.9630 N.2   1 <1>  -0.7070 
 21 C       -2.8090    -4.6940     0.9830 C.2   1 <1>  -0.1500 
 22 C       -0.3780     7.1430     0.0150 C.2   1 <1>   0.3120 
 23 N        1.8060     7.1240     0.1060 N.2   1 <1>  -0.7070 
 24 N       -3.1520    -5.6570    -0.9230 N.pl3 1 <1>   0.3000 
 25 C       -2.4870    -5.7780     0.2460 C.2   1 <1>  -0.3320 
 26 N       -0.0410     8.3890    -0.0930 N.2   1 <1>  -0.5650 
 27 C        1.2870     8.3050    -0.0310 C.2   1 <1>   0.3660 
 28 C       -1.5720    -6.9370     0.5910 C.3   1 <1>  -0.0600 
 29 H        0.0620     2.4360    -1.3920 H     1 <1>   0.0800 
 30 H       -1.6490     2.6130    -1.5730 H     1 <1>   0.0800 
 31 H       -3.5860     1.7790    -0.5250 H     1 <1>   0.0800 
 32 H       -3.8680     0.7960    -1.9590 H     1 <1>   0.0800 
 33 H       -2.0130    -1.8960    -1.3860 H     1 <1>   0.0800 
 34 H       -1.8960    -1.5950     0.3380 H     1 <1>   0.0800 
 35 H       -0.1850     2.5380     1.0870 H     1 <1>   0.0800 
 36 H       -1.8680     2.7740     0.9230 H     1 <1>   0.0800 
 37 H       -5.5310    -0.0330    -0.3840 H     1 <1>   0.0800 
 38 H       -4.2890    -1.8300    -1.3970 H     1 <1>   0.0800 
 39 H       -3.3680     0.0840     1.4260 H     1 <1>   0.4000 
 40 H       -5.3780    -2.7580     0.5840 H     1 <1>   0.0800 
 41 H       -3.9930    -2.3800     1.5660 H     1 <1>   0.0800 
 42 H       -3.3510     4.1410    -0.6560 H     1 <1>   0.0800 
 43 H       -3.9000     5.6760    -0.0520 H     1 <1>   0.0800 
 44 H       -3.4640     4.4270     1.0770 H     1 <1>   0.0800 
 45 H        2.5580     4.4600    -0.4430 H     1 <1>   0.0800 
 46 H        1.7690     3.1270     0.3330 H     1 <1>   0.0800 
 47 H        2.4050     4.4370     1.2920 H     1 <1>   0.0800 
 48 H       -2.4800    -4.4310     1.9730 H     1 <1>   0.1500 
 49 H       -3.1240    -6.3200    -1.7060 H     1 <1>   0.2700 
 50 H        1.8900     9.1970    -0.0930 H     1 <1>   0.1500 
 51 H       -1.1610    -6.8030     1.5760 H     1 <1>   0.0800 
 52 H       -0.7600    -6.9930    -0.1130 H     1 <1>   0.0800 
 53 H       -2.1190    -7.8630     0.5710 H     1 <1>   0.0800 
@<TRIPOS>BOND
  1   1   2  2   
  2   2   3  am  
  3   2   4  1   
  4   3   5  1   
  5   3   6  1   
  6   4   7  1   
  7   4  29  1   
  8   4  30  1   
  9   5   8  1   
 10   5  31  1   
 11   5  32  1   
 12   6   9  1   
 13   6  33  1   
 14   6  34  1   
 15   7  10  1   
 16   7  35  1   
 17   7  36  1   
 18   8   9  1   
 19   8  11  1   
 20   8  37  1   
 21   9  12  1   
 22   9  38  1   
 23  10  13  1   
 24  10  14  2   
 25  11  39  1   
 26  12  15  1   
 27  12  40  1   
 28  12  41  1   
 29  13  16  2   
 30  13  17  1   
 31  14  18  1   
 32  14  19  1   
 33  15  20  2   
 34  15  21  1   
 35  16  22  1   
 36  17  42  1   
 37  17  43  1   
 38  17  44  1   
 39  18  22  1   
 40  18  23  1   
 41  19  45  1   
 42  19  46  1   
 43  19  47  1   
 44  20  24  1   
 45  21  25  2   
 46  21  48  1   
 47  22  26  2   
 48  23  27  2   
 49  24  25  1   
 50  24  49  1   
 51  25  28  1   
 52  26  27  1   
 53  27  50  1   
 54  28  51  1   
 55  28  52  1   
 56  28  53  1   
@<TRIPOS>SUBSTRUCTURE
  1 ****   2 GROUP 4 **** **** 0

# MOE 2024.06 (io_trps.svl 2023.06)
