@<TRIPOS>MOLECULE
NONAME
50 52 1 0 0 
SMALL
USER_CHARGES


@<TRIPOS>ATOM
  1 O       -1.6830     1.0320    -1.3470 O.2   1 <1>  -0.5700 
  2 C       -1.8710     1.2080    -0.1550 C.2   1 <1>   0.5440 
  3 N       -2.1510     0.1080     0.6070 N.am  1 <1>  -0.7300 
  4 C       -1.8040     2.5200     0.4590 C.ar  1 <1>   0.0860 
  5 C       -2.2590    -1.2800     0.1060 C.3   1 <1>   0.2200 
  6 C       -0.8670     3.4880     0.0530 C.ar  1 <1>   0.1000 
  7 C       -2.6720     2.8500     1.5050 C.ar  1 <1>  -0.1500 
  8 C       -3.7250    -1.6720     0.0470 C.3   1 <1>  -0.0800 
  9 C       -1.7230    -2.2450     1.1570 C.3   1 <1>   0.1200 
 10 N        0.0140     3.2530    -0.9910 N.pl3 1 <1>  -0.8690 
 11 C       -0.8200     4.7180     0.7030 C.ar  1 <1>  -0.1500 
 12 C       -2.6130     4.0740     2.1420 C.ar  1 <1>  -0.1500 
 13 C       -4.0000    -2.1240     1.4860 C.3   1 <1>   0.1200 
 14 C       -3.9690    -2.7960    -0.9780 C.3   1 <1>  -0.0170 
 15 O       -2.7670    -2.4480     2.0620 O.3   1 <1>  -0.5600 
 16 C        1.4570     3.2100    -0.7520 C.3   1 <1>   0.2890 
 17 C       -1.6800     5.0130     1.7400 C.ar  1 <1>  -0.1500 
 18 C       -5.4420    -3.1690    -1.0550 C.ar  1 <1>  -0.1430 
 19 C        2.1390     3.9580    -1.8890 C.3   1 <1>  -0.2400 
 20 C        1.8780     1.7460    -0.7130 C.3   1 <1>  -0.2400 
 21 C       -5.9340    -4.3360    -0.5050 C.ar  1 <1>  -0.1500 
 22 C       -6.3630    -2.3550    -1.6820 C.ar  1 <1>  -0.1500 
 23 C       -7.2860    -4.6210    -0.6020 C.ar  1 <1>   0.1600 
 24 C       -7.6950    -2.7340    -1.7230 C.ar  1 <1>   0.1600 
 25 N       -8.1790    -3.8470    -1.1960 N.ar  1 <1>  -0.6200 
 26 H       -2.2570     0.2010     1.6190 H     1 <1>   0.3700 
 27 H       -1.7510    -1.3820    -0.8380 H     1 <1>   0.0800 
 28 H       -3.4120     2.1370     1.8220 H     1 <1>   0.1500 
 29 H       -4.3400    -0.8280    -0.2170 H     1 <1>   0.0800 
 30 H       -0.8630    -1.8590     1.6750 H     1 <1>   0.0800 
 31 H       -1.4850    -3.1960     0.7140 H     1 <1>   0.0800 
 32 H       -0.2830     2.4580    -1.5840 H     1 <1>   0.4000 
 33 H       -0.1030     5.4480     0.3730 H     1 <1>   0.1500 
 34 H       -3.2910     4.3040     2.9460 H     1 <1>   0.1500 
 35 H       -4.6480    -2.9810     1.5440 H     1 <1>   0.0800 
 36 H       -4.4240    -1.3190     2.0610 H     1 <1>   0.0800 
 37 H       -3.3890    -3.6660    -0.7240 H     1 <1>   0.0800 
 38 H       -3.6480    -2.4650    -1.9510 H     1 <1>   0.0800 
 39 H        1.6900     3.6830     0.1880 H     1 <1>   0.0800 
 40 H       -1.6300     5.9700     2.2300 H     1 <1>   0.1500 
 41 H        1.9080     3.5000    -2.8330 H     1 <1>   0.0800 
 42 H        3.2040     3.9490    -1.7500 H     1 <1>   0.0800 
 43 H        1.8040     4.9800    -1.9020 H     1 <1>   0.0800 
 44 H        1.6430     1.2590    -1.6420 H     1 <1>   0.0800 
 45 H        1.3720     1.2420     0.0910 H     1 <1>   0.0800 
 46 H        2.9370     1.6750    -0.5440 H     1 <1>   0.0800 
 47 H       -5.2820    -5.0270    -0.0020 H     1 <1>   0.1500 
 48 H       -6.0580    -1.4310    -2.1380 H     1 <1>   0.1500 
 49 H       -7.6520    -5.5350    -0.1670 H     1 <1>   0.1500 
 50 H       -8.3990    -2.0860    -2.2170 H     1 <1>   0.1500 
@<TRIPOS>BOND
  1   1   2  2   
  2   2   3  am  
  3   2   4  1   
  4   3   5  1   
  5   3  26  1   
  6   4   6  ar  
  7   4   7  ar  
  8   5   8  1   
  9   5   9  1   
 10   5  27  1   
 11   6  10  1   
 12   6  11  ar  
 13   7  12  ar  
 14   7  28  1   
 15   8  13  1   
 16   8  14  1   
 17   8  29  1   
 18   9  15  1   
 19   9  30  1   
 20   9  31  1   
 21  10  16  1   
 22  10  32  1   
 23  11  17  ar  
 24  11  33  1   
 25  12  17  ar  
 26  12  34  1   
 27  13  15  1   
 28  13  35  1   
 29  13  36  1   
 30  14  18  1   
 31  14  37  1   
 32  14  38  1   
 33  16  19  1   
 34  16  20  1   
 35  16  39  1   
 36  17  40  1   
 37  18  21  ar  
 38  18  22  ar  
 39  19  41  1   
 40  19  42  1   
 41  19  43  1   
 42  20  44  1   
 43  20  45  1   
 44  20  46  1   
 45  21  23  ar  
 46  21  47  1   
 47  22  24  ar  
 48  22  48  1   
 49  23  25  ar  
 50  23  49  1   
 51  24  25  ar  
 52  24  50  1   
@<TRIPOS>SUBSTRUCTURE
  1 ****   3 GROUP 4 **** **** 0

# MOE 2024.06 (io_trps.svl 2023.06)
