@<TRIPOS>MOLECULE
NONAME
48 50 1 0 0 
SMALL
USER_CHARGES


@<TRIPOS>ATOM
  1 O       -0.2630     0.9290    -1.0040 O.2   1 <1>  -0.5700 
  2 C       -0.6650     1.7350    -0.1850 C.2   1 <1>   0.7150 
  3 N       -1.7590     1.4030     0.5720 N.am  1 <1>  -0.7300 
  4 C       -0.0230     3.0190     0.0030 C.2   1 <1>   0.0550 
  5 C       -2.5210     0.1290     0.4930 C.3   1 <1>   0.0600 
  6 O        1.0460     3.3670    -0.7100 O.3   1 <1>  -0.2800 
  7 C       -0.3180     4.0500     0.8470 C.2   1 <1>  -0.1500 
  8 C        1.4360     4.5710    -0.3560 C.2   1 <1>  -0.0400 
  9 C        0.6260     5.0500     0.6130 C.2   1 <1>  -0.1500 
 10 C        2.6480     5.1690    -1.0510 C.3   1 <1>   0.3890 
 11 N        2.7230     6.6310    -0.7820 N.pl3 1 <1>  -0.8690 
 12 C        3.8060     7.3390    -0.3990 C.ar  1 <1>   0.4100 
 13 N        4.9430     6.6850    -0.3060 N.ar  1 <1>  -0.6200 
 14 C        3.6980     8.7260    -0.1230 C.ar  1 <1>  -0.1430 
 15 C        6.0220     7.3600     0.0520 C.ar  1 <1>   0.7710 
 16 C        4.8360     9.3950     0.2230 C.ar  1 <1>   0.2180 
 17 C        2.3190     9.3900    -0.2190 C.3   1 <1>  -0.0970 
 18 N        5.9790     8.6750     0.3090 N.ar  1 <1>  -0.1790 
 19 N        7.2050     6.7090     0.1630 N.pl3 1 <1>  -0.8380 
 20 C        4.9480    10.8850     0.5280 C.3   1 <1>  -0.0970 
 21 C        7.3090     5.2410    -0.0750 C.3   1 <1>   0.2090 
 22 C        8.5460     7.2640     0.4940 C.3   1 <1>   0.2090 
 23 C        8.7200     4.8650     0.3550 C.3   1 <1>  -0.1600 
 24 C        9.5270     6.1440     0.1770 C.3   1 <1>  -0.1600 
 25 H       -2.0820     2.0770     1.2650 H     1 <1>   0.3700 
 26 H       -2.1070    -0.5140    -0.2660 H     1 <1>   0.0800 
 27 H       -3.5490     0.3340     0.2480 H     1 <1>   0.0800 
 28 H       -2.4760    -0.3820     1.4390 H     1 <1>   0.0800 
 29 H       -1.1140     4.1160     1.5660 H     1 <1>   0.1500 
 30 H        0.6770     5.9970     1.1220 H     1 <1>   0.1500 
 31 H        2.5580     5.0120    -2.1120 H     1 <1>   0.0800 
 32 H        3.5340     4.6620    -0.7100 H     1 <1>   0.0800 
 33 H        1.8250     7.0940    -0.9260 H     1 <1>   0.4000 
 34 H        1.5900     8.8070     0.3170 H     1 <1>   0.0800 
 35 H        2.0140     9.4560    -1.2490 H     1 <1>   0.0800 
 36 H        2.2980    10.3760     0.2050 H     1 <1>   0.0800 
 37 H        6.8600     9.0870     0.5790 H     1 <1>   0.4570 
 38 H        4.1820    11.4490     0.0290 H     1 <1>   0.0800 
 39 H        5.8930    11.2740     0.1900 H     1 <1>   0.0800 
 40 H        4.8630    11.0520     1.5870 H     1 <1>   0.0800 
 41 H        7.1730     5.0400    -1.1260 H     1 <1>   0.0800 
 42 H        6.5710     4.6970     0.4910 H     1 <1>   0.0800 
 43 H        8.5900     7.4940     1.5460 H     1 <1>   0.0800 
 44 H        8.7740     8.1400    -0.0910 H     1 <1>   0.0800 
 45 H        9.1100     4.0480    -0.2260 H     1 <1>   0.0800 
 46 H        8.7050     4.5790     1.3930 H     1 <1>   0.0800 
 47 H       10.3930     6.1740     0.8160 H     1 <1>   0.0800 
 48 H        9.8480     6.2330    -0.8470 H     1 <1>   0.0800 
@<TRIPOS>BOND
  1   1   2  2   
  2   2   3  am  
  3   2   4  1   
  4   3   5  1   
  5   3  25  1   
  6   4   6  1   
  7   4   7  2   
  8   5  26  1   
  9   5  27  1   
 10   5  28  1   
 11   6   8  1   
 12   7   9  1   
 13   7  29  1   
 14   8   9  2   
 15   8  10  1   
 16   9  30  1   
 17  10  11  1   
 18  10  31  1   
 19  10  32  1   
 20  11  12  1   
 21  11  33  1   
 22  12  13  ar  
 23  12  14  ar  
 24  13  15  ar  
 25  14  16  ar  
 26  14  17  1   
 27  15  18  ar  
 28  15  19  1   
 29  16  18  ar  
 30  16  20  1   
 31  17  34  1   
 32  17  35  1   
 33  17  36  1   
 34  18  37  1   
 35  19  21  1   
 36  19  22  1   
 37  20  38  1   
 38  20  39  1   
 39  20  40  1   
 40  21  23  1   
 41  21  41  1   
 42  21  42  1   
 43  22  24  1   
 44  22  43  1   
 45  22  44  1   
 46  23  24  1   
 47  23  45  1   
 48  23  46  1   
 49  24  47  1   
 50  24  48  1   
@<TRIPOS>SUBSTRUCTURE
  1 ****  10 GROUP 4 **** **** 0

# MOE 2024.06 (io_trps.svl 2023.06)
