@<TRIPOS>MOLECULE
NONAME
55 57 1 0 0 
SMALL
USER_CHARGES


@<TRIPOS>ATOM
  1 CL      -0.7090     0.6260     0.2690 Cl    1 <1>  -0.1770 
  2 C       -2.1440    -0.3630     0.1420 C.ar  1 <1>   0.1770 
  3 C       -2.8450    -0.6930     1.2880 C.ar  1 <1>  -0.1500 
  4 C       -2.5570    -0.8010    -1.1030 C.ar  1 <1>  -0.1500 
  5 C       -3.9800    -1.4760     1.1810 C.ar  1 <1>  -0.1500 
  6 C       -3.6940    -1.5840    -1.2000 C.ar  1 <1>  -0.1500 
  7 C       -4.4150    -1.9290    -0.0590 C.ar  1 <1>   0.1000 
  8 N       -5.5580    -2.7140    -0.1380 N.pl3 1 <1>  -0.8380 
  9 C       -5.3520    -4.1300    -0.5150 C.3   1 <1>   0.2090 
 10 C       -6.7520    -2.0710    -0.7280 C.3   1 <1>   0.2090 
 11 C       -6.5550    -4.9250    -0.0210 C.3   1 <1>  -0.1600 
 12 C       -7.9830    -2.8310    -0.2420 C.3   1 <1>  -0.1600 
 13 C       -7.8480    -4.3170    -0.5870 C.3   1 <1>   0.4230 
 14 N       -9.0620    -5.0510    -0.1340 N.4   1 <1>  -0.9590 
 15 C       -9.1850    -6.3580    -0.8790 C.3   1 <1>   0.3430 
 16 C       -9.1950    -5.2090     1.3420 C.3   1 <1>   0.3430 
 17 C      -10.0140    -7.4420    -0.1690 C.3   1 <1>  -0.1060 
 18 C      -10.5820    -5.7480     1.6880 C.3   1 <1>  -0.1600 
 19 C      -10.6780    -8.2360    -1.2890 C.2   1 <1>   0.9060 
 20 C      -11.1180    -6.7370     0.6440 C.3   1 <1>   0.2000 
 21 C       -9.1360    -8.3910     0.7120 C.3   1 <1>  -0.1600 
 22 O      -10.2170    -8.1390    -2.4310 O.co2 1 <1>  -0.9000 
 23 O      -11.6760    -8.9140    -1.0290 O.co2 1 <1>  -0.9000 
 24 O      -11.8900    -7.6660     1.3000 O.3   1 <1>  -0.6800 
 25 C       -7.9770    -9.0790    -0.0330 C.3   1 <1>  -0.1600 
 26 C       -7.2360   -10.0460     0.8930 C.3   1 <1>  -0.2400 
 27 H       -2.5030    -0.3400     2.2440 H     1 <1>   0.1500 
 28 H       -1.9950    -0.5300    -1.9780 H     1 <1>   0.1500 
 29 H       -4.5400    -1.7450     2.0570 H     1 <1>   0.1500 
 30 H       -4.0260    -1.9310    -2.1600 H     1 <1>   0.1500 
 31 H       -5.2490    -4.2120    -1.5840 H     1 <1>   0.0800 
 32 H       -4.4490    -4.4990    -0.0550 H     1 <1>   0.0800 
 33 H       -6.8010    -1.0420    -0.4110 H     1 <1>   0.0800 
 34 H       -6.6840    -2.0950    -1.8030 H     1 <1>   0.0800 
 35 H       -6.5460    -4.8910     1.0530 H     1 <1>   0.0800 
 36 H       -6.4410    -5.9450    -0.3370 H     1 <1>   0.0800 
 37 H       -8.8520    -2.4160    -0.7160 H     1 <1>   0.0800 
 38 H       -8.0600    -2.6860     0.8200 H     1 <1>   0.0800 
 39 H       -7.7940    -4.3880    -1.6620 H     1 <1>   0.0800 
 40 H       -9.8730    -4.4990    -0.4330 H     1 <1>   0.4500 
 41 H       -9.6470    -6.1440    -1.8300 H     1 <1>   0.0800 
 42 H       -8.2150    -6.7610    -1.1040 H     1 <1>   0.0800 
 43 H       -8.4450    -5.8950     1.6940 H     1 <1>   0.0800 
 44 H       -9.0440    -4.2660     1.8420 H     1 <1>   0.0800 
 45 H      -11.2740    -4.9310     1.7800 H     1 <1>   0.0800 
 46 H      -10.5170    -6.2280     2.6500 H     1 <1>   0.0800 
 47 H      -11.7730    -6.2200    -0.0400 H     1 <1>   0.0800 
 48 H       -8.7400    -7.8750     1.5640 H     1 <1>   0.0800 
 49 H       -9.7770    -9.1680     1.0970 H     1 <1>   0.0800 
 50 H      -12.1100    -8.3680     0.6190 H     1 <1>   0.4000 
 51 H       -8.3630    -9.6330    -0.8740 H     1 <1>   0.0800 
 52 H       -7.2730    -8.3590    -0.4050 H     1 <1>   0.0800 
 53 H       -7.9090   -10.8050     1.2530 H     1 <1>   0.0800 
 54 H       -6.8190    -9.5250     1.7360 H     1 <1>   0.0800 
 55 H       -6.4380   -10.5290     0.3570 H     1 <1>   0.0800 
@<TRIPOS>BOND
  1   1   2  1   
  2   2   3  ar  
  3   2   4  ar  
  4   3   5  ar  
  5   3  27  1   
  6   4   6  ar  
  7   4  28  1   
  8   5   7  ar  
  9   5  29  1   
 10   6   7  ar  
 11   6  30  1   
 12   7   8  1   
 13   8   9  1   
 14   8  10  1   
 15   9  11  1   
 16   9  31  1   
 17   9  32  1   
 18  10  12  1   
 19  10  33  1   
 20  10  34  1   
 21  11  13  1   
 22  11  35  1   
 23  11  36  1   
 24  12  13  1   
 25  12  37  1   
 26  12  38  1   
 27  13  14  1   
 28  13  39  1   
 29  14  15  1   
 30  14  16  1   
 31  14  40  1   
 32  15  17  1   
 33  15  41  1   
 34  15  42  1   
 35  16  18  1   
 36  16  43  1   
 37  16  44  1   
 38  17  19  1   
 39  17  20  1   
 40  17  21  1   
 41  18  20  1   
 42  18  45  1   
 43  18  46  1   
 44  19  22  ar  
 45  19  23  ar  
 46  20  24  1   
 47  20  47  1   
 48  21  25  1   
 49  21  48  1   
 50  21  49  1   
 51  24  50  1   
 52  25  26  1   
 53  25  51  1   
 54  25  52  1   
 55  26  53  1   
 56  26  54  1   
 57  26  55  1   
@<TRIPOS>SUBSTRUCTURE
  1 ****  11 GROUP 4 **** **** 0

# MOE 2024.06 (io_trps.svl 2023.06)
