@<TRIPOS>MOLECULE
NONAME
37 38 1 0 0 
SMALL
USER_CHARGES


@<TRIPOS>ATOM
  1 O        0.2550    -0.0600    -0.7250 O.2   1 <1>  -0.5700 
  2 C        1.2060    -0.6130    -0.2000 C.2   1 <1>   0.5440 
  3 N        2.1910     0.1640     0.3690 N.am  1 <1>  -0.4940 
  4 C        1.3720    -2.0760    -0.1590 C.ar  1 <1>   0.3960 
  5 C        2.4230     1.5610     0.4210 C.2   1 <1>  -0.0880 
  6 N        2.5700    -2.5130     0.2840 N.ar  1 <1>  -0.6200 
  7 C        0.3690    -2.9910    -0.5450 C.ar  1 <1>  -0.1430 
  8 N        1.5060     2.5660     0.5130 N.pl3 1 <1>   0.3140 
  9 C        3.6380     2.1600     0.4050 C.2   1 <1>  -0.1810 
 10 C        2.7740    -3.8140     0.3360 C.ar  1 <1>   0.1600 
 11 C        0.6120    -4.3490    -0.4800 C.ar  1 <1>  -0.1500 
 12 C       -1.0130    -2.5690    -1.0420 C.3   1 <1>  -0.0960 
 13 N        2.1050     3.7780     0.5530 N.2   1 <1>  -0.7070 
 14 C        0.0490     2.4730     0.6620 C.3   1 <1>   0.0160 
 15 C        3.3720     3.5250     0.4810 C.2   1 <1>   0.1080 
 16 C        5.0030     1.4980     0.3160 C.3   1 <1>   0.0210 
 17 C        1.8430    -4.7630    -0.0300 C.ar  1 <1>  -0.1500 
 18 C        4.4040     4.6290     0.4880 C.3   1 <1>  -0.0590 
 19 C        5.3950     1.2860    -1.1470 C.3   1 <1>  -0.2400 
 20 H        2.9820    -0.4130     0.6680 H     1 <1>   0.3700 
 21 H        3.7360    -4.1480     0.6890 H     1 <1>   0.1500 
 22 H       -0.1290    -5.0740    -0.7690 H     1 <1>   0.1500 
 23 H       -1.4970    -1.9450    -0.3120 H     1 <1>   0.0800 
 24 H       -1.6460    -3.4200    -1.2210 H     1 <1>   0.0800 
 25 H       -0.9230    -2.0210    -1.9630 H     1 <1>   0.0800 
 26 H       -0.1940     1.6080     1.2490 H     1 <1>   0.0800 
 27 H       -0.3950     2.3920    -0.3120 H     1 <1>   0.0800 
 28 H       -0.3120     3.3570     1.1520 H     1 <1>   0.0800 
 29 H        4.9750     0.5490     0.8210 H     1 <1>   0.0800 
 30 H        5.7380     2.1090     0.8080 H     1 <1>   0.0800 
 31 H        2.0790    -5.8100     0.0380 H     1 <1>   0.1500 
 32 H        5.1460     4.4450    -0.2660 H     1 <1>   0.0800 
 33 H        4.8740     4.6770     1.4520 H     1 <1>   0.0800 
 34 H        3.9280     5.5700     0.2830 H     1 <1>   0.0800 
 35 H        4.6690     0.6600    -1.6350 H     1 <1>   0.0800 
 36 H        6.3590     0.8140    -1.2100 H     1 <1>   0.0800 
 37 H        5.4330     2.2290    -1.6620 H     1 <1>   0.0800 
@<TRIPOS>BOND
  1   1   2  2   
  2   2   3  am  
  3   2   4  1   
  4   3   5  1   
  5   3  20  1   
  6   4   6  ar  
  7   4   7  ar  
  8   5   8  1   
  9   5   9  2   
 10   6  10  ar  
 11   7  11  ar  
 12   7  12  1   
 13   8  13  1   
 14   8  14  1   
 15   9  15  1   
 16   9  16  1   
 17  10  17  ar  
 18  10  21  1   
 19  11  17  ar  
 20  11  22  1   
 21  12  23  1   
 22  12  24  1   
 23  12  25  1   
 24  13  15  2   
 25  14  26  1   
 26  14  27  1   
 27  14  28  1   
 28  15  18  1   
 29  16  19  1   
 30  16  29  1   
 31  16  30  1   
 32  17  31  1   
 33  18  32  1   
 34  18  33  1   
 35  18  34  1   
 36  19  35  1   
 37  19  36  1   
 38  19  37  1   
@<TRIPOS>SUBSTRUCTURE
  1 ****   3 GROUP 4 **** **** 0

# MOE 2024.06 (io_trps.svl 2023.06)
