@<TRIPOS>MOLECULE
NONAME
43 45 1 0 0 
SMALL
USER_CHARGES


@<TRIPOS>ATOM
  1 O       -0.4570     0.1450    -0.4470 O.2   1 <1>  -0.5700 
  2 C       -1.4760     0.7260    -0.1580 C.2   1 <1>   0.5690 
  3 N       -2.6550     0.0410    -0.0250 N.am  1 <1>  -0.6600 
  4 C       -1.4330     2.2460     0.0430 C.3   1 <1>  -0.0190 
  5 C       -4.0070     0.6090     0.2020 C.3   1 <1>   0.1400 
  6 C       -2.7290    -1.4270    -0.2170 C.3   1 <1>   0.1400 
  7 C       -1.6140     2.9950    -1.2880 C.3   1 <1>  -0.1600 
  8 C       -0.1300     2.7260     0.7090 C.3   1 <1>  -0.1600 
  9 C       -4.9680    -0.5540    -0.0410 C.3   1 <1>   0.2000 
 10 C       -4.1480    -1.8200     0.1980 C.3   1 <1>  -0.0800 
 11 C       -1.4940     4.5090    -1.0820 C.3   1 <1>   0.1200 
 12 C       -0.0980     4.2550     0.8000 C.3   1 <1>   0.1200 
 13 O       -6.0480    -0.5110     0.8250 O.3   1 <1>  -0.6800 
 14 C       -4.6970    -3.0410    -0.5570 C.3   1 <1>  -0.0170 
 15 O       -0.2750     4.8010    -0.4710 O.3   1 <1>  -0.5600 
 16 C       -3.8560    -4.2780    -0.2830 C.ar  1 <1>  -0.1440 
 17 C       -2.8550    -4.6920    -1.1380 C.ar  1 <1>  -0.1500 
 18 C       -4.0540    -5.0510     0.8430 C.ar  1 <1>  -0.1500 
 19 C       -2.1180    -5.8240    -0.8330 C.ar  1 <1>   0.1600 
 20 C       -3.2610    -6.1680     1.0550 C.ar  1 <1>   0.1600 
 21 N       -2.2970    -6.5720     0.2440 N.ar  1 <1>  -0.6200 
 22 H       -2.2370     2.5250     0.6980 H     1 <1>   0.0800 
 23 H       -4.0770     0.9570     1.2180 H     1 <1>   0.0800 
 24 H       -4.2030     1.4130    -0.4860 H     1 <1>   0.0800 
 25 H       -2.5530    -1.6490    -1.2560 H     1 <1>   0.0800 
 26 H       -1.9880    -1.9300     0.3820 H     1 <1>   0.0800 
 27 H       -2.5730     2.7660    -1.7150 H     1 <1>   0.0800 
 28 H       -0.8590     2.6790    -1.9870 H     1 <1>   0.0800 
 29 H        0.7210     2.4010     0.1350 H     1 <1>   0.0800 
 30 H       -0.0430     2.3020     1.6930 H     1 <1>   0.0800 
 31 H       -5.3400    -0.5120    -1.0510 H     1 <1>   0.0800 
 32 H       -4.1210    -2.0350     1.2520 H     1 <1>   0.0800 
 33 H       -2.2870     4.8870    -0.4600 H     1 <1>   0.0800 
 34 H       -1.5150     5.0210    -2.0280 H     1 <1>   0.0800 
 35 H        0.8560     4.5900     1.1690 H     1 <1>   0.0800 
 36 H       -0.8750     4.6280     1.4460 H     1 <1>   0.0800 
 37 H       -5.7520    -0.6220     1.7490 H     1 <1>   0.4000 
 38 H       -4.7170    -2.8420    -1.6140 H     1 <1>   0.0800 
 39 H       -5.7110    -3.2260    -0.2450 H     1 <1>   0.0800 
 40 H       -2.6370    -4.1470    -2.0390 H     1 <1>   0.1500 
 41 H       -4.8150    -4.7980     1.5570 H     1 <1>   0.1500 
 42 H       -1.3400    -6.1300    -1.5100 H     1 <1>   0.1500 
 43 H       -3.4300    -6.7590     1.9380 H     1 <1>   0.1500 
@<TRIPOS>BOND
  1   1   2  2   
  2   2   3  am  
  3   2   4  1   
  4   3   5  1   
  5   3   6  1   
  6   4   7  1   
  7   4   8  1   
  8   4  22  1   
  9   5   9  1   
 10   5  23  1   
 11   5  24  1   
 12   6  10  1   
 13   6  25  1   
 14   6  26  1   
 15   7  11  1   
 16   7  27  1   
 17   7  28  1   
 18   8  12  1   
 19   8  29  1   
 20   8  30  1   
 21   9  10  1   
 22   9  13  1   
 23   9  31  1   
 24  10  14  1   
 25  10  32  1   
 26  11  15  1   
 27  11  33  1   
 28  11  34  1   
 29  12  15  1   
 30  12  35  1   
 31  12  36  1   
 32  13  37  1   
 33  14  16  1   
 34  14  38  1   
 35  14  39  1   
 36  16  17  ar  
 37  16  18  ar  
 38  17  19  ar  
 39  17  40  1   
 40  18  20  ar  
 41  18  41  1   
 42  19  21  ar  
 43  19  42  1   
 44  20  21  ar  
 45  20  43  1   
@<TRIPOS>SUBSTRUCTURE
  1 ****   6 GROUP 4 **** **** 0

# MOE 2024.06 (io_trps.svl 2023.06)
