@<TRIPOS>MOLECULE
NONAME
43 45 1 0 0 
SMALL
USER_CHARGES


@<TRIPOS>ATOM
  1 F       -1.9500     1.5600    -1.2350 F     1 <1>  -0.1900 
  2 C       -1.1380     2.1420    -0.3960 C.ar  1 <1>   0.1900 
  3 C       -1.6330     2.6170     0.8200 C.ar  1 <1>   0.0860 
  4 C        0.1870     2.2550    -0.7710 C.ar  1 <1>  -0.1500 
  5 C       -3.0230     2.4890     1.1900 C.2   1 <1>   0.5440 
  6 C       -0.7170     3.2220     1.6860 C.ar  1 <1>  -0.1500 
  7 C        1.0470     2.8680     0.1180 C.ar  1 <1>   0.1900 
  8 O       -3.3160     1.6990     2.0670 O.2   1 <1>  -0.5700 
  9 N       -4.0120     3.2570     0.6080 N.am  1 <1>  -0.6600 
 10 C        0.6190     3.3530     1.3420 C.ar  1 <1>  -0.1500 
 11 F        2.3030     2.9940    -0.2040 F     1 <1>  -0.1900 
 12 C       -5.4620     3.0470     0.9160 C.3   1 <1>   0.1400 
 13 C       -3.7730     4.3180    -0.4070 C.3   1 <1>   0.1400 
 14 C       -6.2430     2.6530    -0.3620 C.3   1 <1>   0.0000 
 15 C       -4.5100     3.9660    -1.7040 C.3   1 <1>  -0.1600 
 16 C       -7.7420     2.4680    -0.0690 C.3   1 <1>   0.2000 
 17 C       -6.0080     3.7150    -1.4590 C.3   1 <1>  -0.1600 
 18 C       -5.8410     1.2390    -0.8200 C.3   1 <1>  -0.1600 
 19 O       -8.2200     3.4510     0.8010 O.3   1 <1>  -0.5600 
 20 C       -7.8760     1.0670     0.5380 C.3   1 <1>  -0.1600 
 21 C       -6.6500     0.2780     0.0570 C.3   1 <1>  -0.1600 
 22 C       -9.6070     3.5380     0.8840 C.3   1 <1>   0.0400 
 23 H        0.5370     1.8800    -1.7140 H     1 <1>   0.1500 
 24 H       -1.0690     3.5850     2.6370 H     1 <1>   0.1500 
 25 H        1.3220     3.8190     2.0100 H     1 <1>   0.1500 
 26 H       -5.5860     2.2920     1.6720 H     1 <1>   0.0800 
 27 H       -5.8580     3.9650     1.3150 H     1 <1>   0.0800 
 28 H       -4.1460     5.2520    -0.0220 H     1 <1>   0.0800 
 29 H       -2.7230     4.4380    -0.6050 H     1 <1>   0.0800 
 30 H       -4.3920     4.7720    -2.4060 H     1 <1>   0.0800 
 31 H       -4.0580     3.0910    -2.1370 H     1 <1>   0.0800 
 32 H       -8.2910     2.5200    -0.9940 H     1 <1>   0.0800 
 33 H       -6.4780     3.4140    -2.3780 H     1 <1>   0.0800 
 34 H       -6.4670     4.6380    -1.1450 H     1 <1>   0.0800 
 35 H       -6.1270     1.0960    -1.8470 H     1 <1>   0.0800 
 36 H       -4.7840     1.0560    -0.7330 H     1 <1>   0.0800 
 37 H       -7.8640     1.1250     1.6130 H     1 <1>   0.0800 
 38 H       -8.7860     0.5990     0.2100 H     1 <1>   0.0800 
 39 H       -6.0570    -0.0200     0.9060 H     1 <1>   0.0800 
 40 H       -6.9330    -0.6020    -0.4940 H     1 <1>   0.0800 
 41 H       -9.8510     4.3380     1.5600 H     1 <1>   0.0800 
 42 H      -10.0040     2.6120     1.2630 H     1 <1>   0.0800 
 43 H      -10.0090     3.7530    -0.0910 H     1 <1>   0.0800 
@<TRIPOS>BOND
  1   1   2  1   
  2   2   3  ar  
  3   2   4  ar  
  4   3   5  1   
  5   3   6  ar  
  6   4   7  ar  
  7   4  23  1   
  8   5   8  2   
  9   5   9  am  
 10   6  10  ar  
 11   6  24  1   
 12   7  10  ar  
 13   7  11  1   
 14   9  12  1   
 15   9  13  1   
 16  10  25  1   
 17  12  14  1   
 18  12  26  1   
 19  12  27  1   
 20  13  15  1   
 21  13  28  1   
 22  13  29  1   
 23  14  16  1   
 24  14  17  1   
 25  14  18  1   
 26  15  17  1   
 27  15  30  1   
 28  15  31  1   
 29  16  19  1   
 30  16  20  1   
 31  16  32  1   
 32  17  33  1   
 33  17  34  1   
 34  18  21  1   
 35  18  35  1   
 36  18  36  1   
 37  19  22  1   
 38  20  21  1   
 39  20  37  1   
 40  20  38  1   
 41  21  39  1   
 42  21  40  1   
 43  22  41  1   
 44  22  42  1   
 45  22  43  1   
@<TRIPOS>SUBSTRUCTURE
  1 ****   9 GROUP 4 **** **** 0

# MOE 2024.06 (io_trps.svl 2023.06)
