@<TRIPOS>MOLECULE
NONAME
37 38 1 0 0 
SMALL
USER_CHARGES


@<TRIPOS>ATOM
  1 S       -1.3650     0.2660     0.4460 S.3   1 <1>  -0.4600 
  2 C       -1.1470    -0.5740    -1.1630 C.3   1 <1>   0.1310 
  3 C       -0.0410    -0.4460     1.4630 C.3   1 <1>  -0.0100 
  4 C       -1.1890    -2.0910    -1.0150 C.2   1 <1>   0.5690 
  5 O       -0.1500    -2.6980    -1.1340 O.2   1 <1>  -0.5700 
  6 N       -2.3680    -2.7400    -0.7650 N.am  1 <1>  -0.6600 
  7 C       -3.6870    -2.1000    -0.5220 C.3   1 <1>   0.1400 
  8 C       -2.4460    -4.2040    -0.5440 C.3   1 <1>   0.1400 
  9 C       -4.6550    -3.2660    -0.3280 C.3   1 <1>   0.2000 
 10 C       -3.7910    -4.4310     0.1470 C.3   1 <1>  -0.0800 
 11 O       -5.6280    -2.9720     0.6140 O.3   1 <1>  -0.6800 
 12 C       -4.4110    -5.8060    -0.1460 C.3   1 <1>   0.0210 
 13 C       -3.4560    -6.9240     0.2270 C.2   1 <1>   0.1080 
 14 N       -3.0190    -7.1010     1.4350 N.2   1 <1>  -0.7070 
 15 C       -2.9390    -7.8600    -0.6620 C.2   1 <1>  -0.1500 
 16 N       -2.2020    -8.1680     1.3480 N.pl3 1 <1>   0.3000 
 17 C       -2.1370    -8.6440     0.0860 C.2   1 <1>  -0.3320 
 18 C       -1.2970    -9.8380    -0.3310 C.3   1 <1>  -0.0600 
 19 H       -1.9280    -0.2310    -1.8140 H     1 <1>   0.0800 
 20 H       -0.1930    -0.2670    -1.5510 H     1 <1>   0.0800 
 21 H       -0.0530     0.0530     2.4150 H     1 <1>   0.0800 
 22 H        0.8930    -0.2830     0.9560 H     1 <1>   0.0800 
 23 H       -0.2360    -1.4970     1.5790 H     1 <1>   0.0800 
 24 H       -3.6320    -1.4990     0.3690 H     1 <1>   0.0800 
 25 H       -3.9780    -1.4970    -1.3640 H     1 <1>   0.0800 
 26 H       -2.4100    -4.7030    -1.4970 H     1 <1>   0.0800 
 27 H       -1.6290    -4.5490     0.0680 H     1 <1>   0.0800 
 28 H       -5.1430    -3.4920    -1.2610 H     1 <1>   0.0800 
 29 H       -3.6170    -4.3450     1.2060 H     1 <1>   0.0800 
 30 H       -5.2230    -2.8770     1.4980 H     1 <1>   0.4000 
 31 H       -4.6600    -5.8850    -1.1890 H     1 <1>   0.0800 
 32 H       -5.3150    -5.9200     0.4240 H     1 <1>   0.0800 
 33 H       -3.1490    -7.9210    -1.7150 H     1 <1>   0.1500 
 34 H       -1.7060    -8.5440     2.1640 H     1 <1>   0.2700 
 35 H       -1.4130   -10.0200    -1.3850 H     1 <1>   0.0800 
 36 H       -1.6080   -10.7170     0.2040 H     1 <1>   0.0800 
 37 H       -0.2580    -9.6500    -0.1290 H     1 <1>   0.0800 
@<TRIPOS>BOND
  1   1   2  1   
  2   1   3  1   
  3   2   4  1   
  4   2  19  1   
  5   2  20  1   
  6   3  21  1   
  7   3  22  1   
  8   3  23  1   
  9   4   5  2   
 10   4   6  am  
 11   6   7  1   
 12   6   8  1   
 13   7   9  1   
 14   7  24  1   
 15   7  25  1   
 16   8  10  1   
 17   8  26  1   
 18   8  27  1   
 19   9  10  1   
 20   9  11  1   
 21   9  28  1   
 22  10  12  1   
 23  10  29  1   
 24  11  30  1   
 25  12  13  1   
 26  12  31  1   
 27  12  32  1   
 28  13  14  2   
 29  13  15  1   
 30  14  16  1   
 31  15  17  2   
 32  15  33  1   
 33  16  17  1   
 34  16  34  1   
 35  17  18  1   
 36  18  35  1   
 37  18  36  1   
 38  18  37  1   
@<TRIPOS>SUBSTRUCTURE
  1 ****   8 GROUP 4 **** **** 0

# MOE 2024.06 (io_trps.svl 2023.06)
