@<TRIPOS>MOLECULE
NONAME
59 62 1 0 0 
SMALL
USER_CHARGES


@<TRIPOS>ATOM
  1 O        0.1450    -1.3670     1.6280 O.2   1 <1>  -0.5700 
  2 C        0.0730    -2.4440     1.0970 C.2   1 <1>   0.5690 
  3 N       -1.0980    -3.1320     1.1230 N.am  1 <1>  -0.5470 
  4 C        1.2900    -2.9920     0.3890 C.3   1 <1>  -0.1790 
  5 C       -1.4320    -4.3960     0.6300 C.ar  1 <1>   0.1170 
  6 C       -2.5510    -4.5670    -0.1480 C.ar  1 <1>  -0.1500 
  7 C       -0.6440    -5.5180     0.9340 C.ar  1 <1>  -0.1500 
  8 C       -2.9120    -5.8270    -0.6590 C.ar  1 <1>   0.0000 
  9 C       -0.9760    -6.7540     0.4480 C.ar  1 <1>  -0.1500 
 10 C       -2.1070    -6.9480    -0.3600 C.ar  1 <1>   0.3100 
 11 C       -4.0460    -6.0330    -1.4620 C.ar  1 <1>  -0.1500 
 12 N       -2.3820    -8.1930    -0.8180 N.ar  1 <1>  -0.6200 
 13 C       -4.3030    -7.2960    -1.9030 C.ar  1 <1>  -0.1500 
 14 C       -3.4450    -8.3520    -1.5510 C.ar  1 <1>   0.1670 
 15 C       -3.7590    -9.7580    -2.0660 C.3   1 <1>   0.2530 
 16 N       -4.4870   -10.5920    -1.0730 N.3   1 <1>  -0.8100 
 17 C       -4.4060   -12.0230    -1.3790 C.3   1 <1>   0.1100 
 18 C       -5.8640   -10.1290    -0.8460 C.3   1 <1>   0.1100 
 19 C       -5.0030   -12.8500    -0.2150 C.3   1 <1>   0.4230 
 20 C       -6.4740   -10.9040     0.3250 C.3   1 <1>  -0.1600 
 21 N       -4.7950   -14.3520    -0.3530 N.4   1 <1>  -0.9590 
 22 C       -6.4680   -12.4410     0.1100 C.3   1 <1>   0.0000 
 23 C       -5.6910   -15.1740     0.5240 C.3   1 <1>   0.3430 
 24 C       -4.8320   -14.8800    -1.7560 C.3   1 <1>   0.2630 
 25 C       -6.9180   -13.1360     1.4290 C.3   1 <1>  -0.1600 
 26 C       -7.4110   -12.8310    -1.0630 C.3   1 <1>   0.1200 
 27 C       -6.1020   -14.3970     1.7740 C.3   1 <1>  -0.1600 
 28 O       -8.6770   -12.2910    -0.9080 O.3   1 <1>  -0.6800 
 29 H       -1.8550    -2.5880     1.5370 H     1 <1>   0.3700 
 30 H        1.0020    -3.5270    -0.4960 H     1 <1>   0.0800 
 31 H        1.8280    -3.6450     1.0480 H     1 <1>   0.0800 
 32 H        1.9340    -2.1800     0.1060 H     1 <1>   0.0800 
 33 H       -3.1700    -3.7220    -0.3860 H     1 <1>   0.1500 
 34 H        0.2190    -5.3960     1.5640 H     1 <1>   0.1500 
 35 H       -0.3790    -7.6190     0.6750 H     1 <1>   0.1500 
 36 H       -4.6820    -5.2030    -1.7120 H     1 <1>   0.1500 
 37 H       -5.1600    -7.4980    -2.5190 H     1 <1>   0.1500 
 38 H       -2.8170   -10.2250    -2.2980 H     1 <1>   0.0800 
 39 H       -4.3260    -9.6960    -2.9780 H     1 <1>   0.0800 
 40 H       -4.9210   -12.2160    -2.3030 H     1 <1>   0.0800 
 41 H       -3.3680   -12.2880    -1.4930 H     1 <1>   0.0800 
 42 H       -5.8590    -9.0830    -0.5890 H     1 <1>   0.0800 
 43 H       -6.4580   -10.2530    -1.7370 H     1 <1>   0.0800 
 44 H       -4.4350   -12.5460     0.6500 H     1 <1>   0.0800 
 45 H       -5.9020   -10.6520     1.2020 H     1 <1>   0.0800 
 46 H       -7.4740   -10.5460     0.4960 H     1 <1>   0.0800 
 47 H       -3.8380   -14.5060    -0.0020 H     1 <1>   0.4500 
 48 H       -6.5840   -15.4430    -0.0170 H     1 <1>   0.0800 
 49 H       -5.1890   -16.0860     0.8090 H     1 <1>   0.0800 
 50 H       -5.8000   -14.7100    -2.1980 H     1 <1>   0.0800 
 51 H       -4.6350   -15.9400    -1.7610 H     1 <1>   0.0800 
 52 H       -4.0850   -14.3960    -2.3630 H     1 <1>   0.0800 
 53 H       -6.8300   -12.4590     2.2630 H     1 <1>   0.0800 
 54 H       -7.9600   -13.4000     1.3700 H     1 <1>   0.0800 
 55 H       -7.5260   -13.8970    -1.1370 H     1 <1>   0.0800 
 56 H       -7.0400   -12.4640    -2.0030 H     1 <1>   0.0800 
 57 H       -6.6920   -15.0350     2.4110 H     1 <1>   0.0800 
 58 H       -5.2190   -14.1280     2.3290 H     1 <1>   0.0800 
 59 H       -9.0940   -12.5650    -0.0680 H     1 <1>   0.4000 
@<TRIPOS>BOND
  1   1   2  2   
  2   2   3  am  
  3   2   4  1   
  4   3   5  1   
  5   3  29  1   
  6   4  30  1   
  7   4  31  1   
  8   4  32  1   
  9   5   6  ar  
 10   5   7  ar  
 11   6   8  ar  
 12   6  33  1   
 13   7   9  ar  
 14   7  34  1   
 15   8  10  ar  
 16   8  11  ar  
 17   9  10  ar  
 18   9  35  1   
 19  10  12  ar  
 20  11  13  ar  
 21  11  36  1   
 22  12  14  ar  
 23  13  14  ar  
 24  13  37  1   
 25  14  15  1   
 26  15  16  1   
 27  15  38  1   
 28  15  39  1   
 29  16  17  1   
 30  16  18  1   
 31  17  19  1   
 32  17  40  1   
 33  17  41  1   
 34  18  20  1   
 35  18  42  1   
 36  18  43  1   
 37  19  21  1   
 38  19  22  1   
 39  19  44  1   
 40  20  22  1   
 41  20  45  1   
 42  20  46  1   
 43  21  23  1   
 44  21  24  1   
 45  21  47  1   
 46  22  25  1   
 47  22  26  1   
 48  23  27  1   
 49  23  48  1   
 50  23  49  1   
 51  24  50  1   
 52  24  51  1   
 53  24  52  1   
 54  25  27  1   
 55  25  53  1   
 56  25  54  1   
 57  26  28  1   
 58  26  55  1   
 59  26  56  1   
 60  27  57  1   
 61  27  58  1   
 62  28  59  1   
@<TRIPOS>SUBSTRUCTURE
  1 ****  14 GROUP 4 **** **** 0

# MOE 2024.06 (io_trps.svl 2023.06)
