@<TRIPOS>MOLECULE
NONAME
47 50 1 0 0 
SMALL
USER_CHARGES


@<TRIPOS>ATOM
  1 S        0.4840     0.2140    -0.5710 S.3   1 <1>  -0.0800 
  2 C        0.6170     1.9050    -0.9510 C.2   1 <1>   0.4620 
  3 C       -1.1840     0.2990    -1.0480 C.2   1 <1>   0.1980 
  4 N       -0.5010     2.3850    -1.3750 N.2   1 <1>  -0.3380 
  5 N        1.8190     2.5640    -0.7900 N.pl3 1 <1>  -0.8220 
  6 N       -1.5160     1.4730    -1.4270 N.2   1 <1>  -0.3380 
  7 C       -2.0030    -0.9910    -0.9540 C.3   1 <1>   1.2000 
  8 C        1.9640     4.0110    -1.1490 C.3   1 <1>   0.2090 
  9 C        3.0780     1.9720    -0.2230 C.3   1 <1>   0.2090 
 10 F       -2.0340    -1.4810     0.2820 F     1 <1>  -0.3400 
 11 F       -3.2720    -0.8440    -1.3220 F     1 <1>  -0.3400 
 12 F       -1.5090    -1.9610    -1.7190 F     1 <1>  -0.3400 
 13 C        2.5150     4.8460     0.0240 C.3   1 <1>   0.2090 
 14 C        3.6110     2.8060     0.9580 C.3   1 <1>   0.2090 
 15 N        3.7640     4.2480     0.5880 N.pl3 1 <1>  -0.8380 
 16 C        5.0130     4.7790     0.3220 C.ar  1 <1>   0.4100 
 17 N        5.8270     3.9640    -0.3540 N.ar  1 <1>  -0.6200 
 18 C        5.3860     6.0750     0.7330 C.ar  1 <1>   0.0860 
 19 C        7.0380     4.4120    -0.6150 C.ar  1 <1>   0.1600 
 20 C        4.4800     6.9490     1.4300 C.2   1 <1>   0.5440 
 21 C        6.6730     6.5060     0.4440 C.ar  1 <1>  -0.1500 
 22 C        7.5090     5.6570    -0.2420 C.ar  1 <1>  -0.1500 
 23 O        4.2480     6.7920     2.6160 O.2   1 <1>  -0.5700 
 24 N        3.8890     8.0120     0.7810 N.am  1 <1>  -0.6600 
 25 C        2.8630     8.8650     1.4140 C.3   1 <1>   0.1400 
 26 C        4.1060     8.3890    -0.6330 C.3   1 <1>   0.1400 
 27 C        2.1850     9.5720     0.2470 C.3   1 <1>  -0.1600 
 28 C        3.2580     9.6410    -0.8370 C.3   1 <1>  -0.1600 
 29 H        1.0180     4.4210    -1.4560 H     1 <1>   0.0800 
 30 H        2.6430     4.0950    -1.9800 H     1 <1>   0.0800 
 31 H        3.8310     1.9510    -0.9920 H     1 <1>   0.0800 
 32 H        2.9220     0.9640     0.1100 H     1 <1>   0.0800 
 33 H        1.7720     4.9020     0.8000 H     1 <1>   0.0800 
 34 H        2.7040     5.8440    -0.3220 H     1 <1>   0.0800 
 35 H        4.5580     2.4080     1.2800 H     1 <1>   0.0800 
 36 H        2.9270     2.7280     1.7830 H     1 <1>   0.0800 
 37 H        7.6950     3.7510    -1.1540 H     1 <1>   0.1500 
 38 H        7.0010     7.4830     0.7580 H     1 <1>   0.1500 
 39 H        8.5150     5.9500    -0.4870 H     1 <1>   0.1500 
 40 H        3.3500     9.5740     2.0620 H     1 <1>   0.0800 
 41 H        2.1680     8.2730     1.9860 H     1 <1>   0.0800 
 42 H        3.7650     7.5940    -1.2740 H     1 <1>   0.0800 
 43 H        5.1460     8.5890    -0.8240 H     1 <1>   0.0800 
 44 H        1.8200    10.5440     0.5280 H     1 <1>   0.0800 
 45 H        1.3580     8.9710    -0.0900 H     1 <1>   0.0800 
 46 H        2.8390     9.6840    -1.8270 H     1 <1>   0.0800 
 47 H        3.8750    10.5080    -0.6810 H     1 <1>   0.0800 
@<TRIPOS>BOND
  1   1   2  1   
  2   1   3  1   
  3   2   4  2   
  4   2   5  1   
  5   3   6  2   
  6   3   7  1   
  7   4   6  1   
  8   5   8  1   
  9   5   9  1   
 10   7  10  1   
 11   7  11  1   
 12   7  12  1   
 13   8  13  1   
 14   8  29  1   
 15   8  30  1   
 16   9  14  1   
 17   9  31  1   
 18   9  32  1   
 19  13  15  1   
 20  13  33  1   
 21  13  34  1   
 22  14  15  1   
 23  14  35  1   
 24  14  36  1   
 25  15  16  1   
 26  16  17  ar  
 27  16  18  ar  
 28  17  19  ar  
 29  18  20  1   
 30  18  21  ar  
 31  19  22  ar  
 32  19  37  1   
 33  20  23  2   
 34  20  24  am  
 35  21  22  ar  
 36  21  38  1   
 37  22  39  1   
 38  24  25  1   
 39  24  26  1   
 40  25  27  1   
 41  25  40  1   
 42  25  41  1   
 43  26  28  1   
 44  26  42  1   
 45  26  43  1   
 46  27  28  1   
 47  27  44  1   
 48  27  45  1   
 49  28  46  1   
 50  28  47  1   
@<TRIPOS>SUBSTRUCTURE
  1 ****  13 GROUP 4 **** **** 0

# MOE 2024.06 (io_trps.svl 2023.06)
