@<TRIPOS>MOLECULE
NONAME
54 56 1 0 0 
SMALL
USER_CHARGES


@<TRIPOS>ATOM
  1 O        0.9520     0.4430     0.2580 O.co2 1 <1>  -0.9020 
  2 C        1.4770    -0.6740     0.1260 C.2   1 <1>   0.9770 
  3 O        0.7690    -1.6930     0.1160 O.co2 1 <1>  -0.9020 
  4 C        2.9210    -0.7730    -0.0170 C.ar  1 <1>  -0.1860 
  5 C        3.7070     0.3750    -0.0160 C.ar  1 <1>  -0.1160 
  6 C        3.5660    -2.0170    -0.1570 C.ar  1 <1>  -0.1570 
  7 C        5.0790     0.2660    -0.1550 C.ar  1 <1>   0.3030 
  8 C        4.9350    -2.1240    -0.2950 C.ar  1 <1>  -0.1160 
  9 N        6.0760     1.2150    -0.1880 N.pl3 1 <1>  -0.7040 
 10 C        5.6960    -0.9600    -0.2950 C.ar  1 <1>   0.3030 
 11 C        7.2520     0.6110    -0.3260 C.cat 1 <1>   1.0690 
 12 N        7.0630    -0.7220    -0.4190 N.pl3 1 <1>  -0.7670 
 13 N        8.4210     1.2810    -0.3590 N.pl3 1 <1>  -0.5960 
 14 C        8.0040    -1.7900    -0.8460 C.3   1 <1>   0.2680 
 15 C        8.5280     2.7280    -0.7420 C.3   1 <1>   0.1610 
 16 C        9.7390     0.7100     0.0730 C.3   1 <1>   0.1610 
 17 C        9.2250     3.5530     0.3510 C.3   1 <1>   0.1030 
 18 C       10.4200     1.5960     1.1330 C.3   1 <1>   0.1030 
 19 N       10.5470     2.9850     0.6680 N.3   1 <1>  -0.8130 
 20 C       11.2510     3.8220     1.6910 C.3   1 <1>   0.1640 
 21 C       11.6090     5.2390     1.2270 C.2   1 <1>   0.5650 
 22 O       11.5080     6.1500     2.0140 O.2   1 <1>  -0.5740 
 23 N       12.0110     5.3930    -0.0630 N.am  1 <1>  -0.7330 
 24 C       12.3950     6.6030    -0.7900 C.3   1 <1>   0.2940 
 25 C       13.6050     7.2480    -0.1150 C.3   1 <1>  -0.2460 
 26 C       11.2070     7.5630    -0.8460 C.3   1 <1>  -0.2460 
 27 C       12.7680     6.1610    -2.2030 C.3   1 <1>  -0.2460 
 28 H        3.2420     1.3400     0.0910 H     1 <1>   0.1430 
 29 H        2.9490    -2.9050    -0.1540 H     1 <1>   0.1430 
 30 H        5.3980    -3.0870    -0.3970 H     1 <1>   0.1430 
 31 H        5.9250     2.2090    -0.0560 H     1 <1>   0.4450 
 32 H        7.4950    -2.5010    -1.4740 H     1 <1>   0.0730 
 33 H        8.3910    -2.3040     0.0170 H     1 <1>   0.0730 
 34 H        8.8190    -1.3730    -1.4120 H     1 <1>   0.0730 
 35 H        7.5610     3.1520    -0.9450 H     1 <1>   0.0730 
 36 H        9.1090     2.8060    -1.6460 H     1 <1>   0.0730 
 37 H       10.3890     0.6260    -0.7810 H     1 <1>   0.0730 
 38 H        9.6100    -0.2670     0.5010 H     1 <1>   0.0730 
 39 H        8.6120     3.5840     1.2360 H     1 <1>   0.0730 
 40 H        9.3410     4.5630    -0.0060 H     1 <1>   0.0730 
 41 H       11.4010     1.2000     1.3370 H     1 <1>   0.0730 
 42 H        9.8530     1.5650     2.0490 H     1 <1>   0.0730 
 43 H       12.1720     3.3400     1.9660 H     1 <1>   0.0730 
 44 H       10.6440     3.8990     2.5760 H     1 <1>   0.0730 
 45 H       12.0000     4.5480    -0.6350 H     1 <1>   0.3640 
 46 H       13.3500     7.5900     0.8710 H     1 <1>   0.0730 
 47 H       13.9360     8.0970    -0.6850 H     1 <1>   0.0730 
 48 H       14.4150     6.5460    -0.0440 H     1 <1>   0.0730 
 49 H       10.9470     7.8980     0.1420 H     1 <1>   0.0730 
 50 H       10.3550     7.0840    -1.2910 H     1 <1>   0.0730 
 51 H       11.4600     8.4270    -1.4330 H     1 <1>   0.0730 
 52 H       13.5950     5.4730    -2.1780 H     1 <1>   0.0730 
 53 H       13.0610     7.0140    -2.7890 H     1 <1>   0.0730 
 54 H       11.9310     5.6930    -2.6880 H     1 <1>   0.0730 
@<TRIPOS>BOND
  1   1   2  ar  
  2   2   3  ar  
  3   2   4  1   
  4   4   5  ar  
  5   4   6  ar  
  6   5   7  ar  
  7   5  28  1   
  8   6   8  ar  
  9   6  29  1   
 10   7   9  1   
 11   7  10  ar  
 12   8  10  ar  
 13   8  30  1   
 14   9  11  ar  
 15   9  31  1   
 16  10  12  1   
 17  11  12  ar  
 18  11  13  ar  
 19  12  14  1   
 20  13  15  1   
 21  13  16  1   
 22  14  32  1   
 23  14  33  1   
 24  14  34  1   
 25  15  17  1   
 26  15  35  1   
 27  15  36  1   
 28  16  18  1   
 29  16  37  1   
 30  16  38  1   
 31  17  19  1   
 32  17  39  1   
 33  17  40  1   
 34  18  19  1   
 35  18  41  1   
 36  18  42  1   
 37  19  20  1   
 38  20  21  1   
 39  20  43  1   
 40  20  44  1   
 41  21  22  2   
 42  21  23  am  
 43  23  24  1   
 44  23  45  1   
 45  24  25  1   
 46  24  26  1   
 47  24  27  1   
 48  25  46  1   
 49  25  47  1   
 50  25  48  1   
 51  26  49  1   
 52  26  50  1   
 53  26  51  1   
 54  27  52  1   
 55  27  53  1   
 56  27  54  1   
@<TRIPOS>SUBSTRUCTURE
  1 ****  13 GROUP 4 **** **** 0

# MOE 2024.06 (io_trps.svl 2023.06)
