@<TRIPOS>MOLECULE
NONAME
50 53 1 0 0 
SMALL
USER_CHARGES


@<TRIPOS>ATOM
  1 O        0.6890    -0.5440    -2.2500 O.2   1 <1>  -0.5700 
  2 C        1.2850    -1.2360    -1.4650 C.2   1 <1>   0.5690 
  3 N        0.6790    -1.7470    -0.3730 N.am  1 <1>  -0.7300 
  4 C        2.7510    -1.5580    -1.6650 C.3   1 <1>  -0.0990 
  5 C        1.3760    -2.6100     0.6020 C.3   1 <1>   0.1400 
  6 C        3.0300    -3.0480    -1.3730 C.3   1 <1>  -0.0800 
  7 C        2.2640    -3.6180    -0.1530 C.3   1 <1>  -0.0800 
  8 C        4.5120    -3.3460    -1.1200 C.3   1 <1>  -0.1600 
  9 C        3.3260    -4.2670     0.7470 C.3   1 <1>  -0.1600 
 10 C        4.4980    -4.5540    -0.1840 C.3   1 <1>   0.2200 
 11 N        5.7520    -4.8230     0.5770 N.am  1 <1>  -0.6600 
 12 C        6.9360    -4.1580     0.3330 C.2   1 <1>   0.5440 
 13 C        5.8340    -6.2110     1.1090 C.3   1 <1>   0.0600 
 14 O        7.8440    -4.7860    -0.1810 O.2   1 <1>  -0.5700 
 15 C        7.1230    -2.7630     0.6880 C.ar  1 <1>   0.0860 
 16 C        7.9900    -1.9510    -0.0270 C.ar  1 <1>  -0.1500 
 17 C        6.4230    -2.1870     1.7720 C.ar  1 <1>  -0.1500 
 18 C        8.1510    -0.6040     0.3000 C.ar  1 <1>   0.0000 
 19 C        6.5660    -0.8630     2.1110 C.ar  1 <1>  -0.1500 
 20 C        7.4360    -0.0670     1.3640 C.ar  1 <1>  -0.1520 
 21 C        8.9330     0.4480    -0.2290 C.2   1 <1>  -0.1810 
 22 N        7.7680     1.2550     1.4770 N.pl3 1 <1>   0.0330 
 23 C        8.6790     1.5600     0.5040 C.2   1 <1>  -0.3320 
 24 C        9.8640     0.2590    -1.4120 C.3   1 <1>  -0.0590 
 25 C        9.2400     2.9660     0.3790 C.3   1 <1>  -0.0600 
 26 H       -0.3030    -1.5090    -0.2180 H     1 <1>   0.3700 
 27 H        3.0400    -1.3170    -2.6710 H     1 <1>   0.0800 
 28 H        3.3100    -0.9310    -0.9960 H     1 <1>   0.0800 
 29 H        1.9790    -1.9850     1.2390 H     1 <1>   0.0800 
 30 H        0.6580    -3.1320     1.2110 H     1 <1>   0.0800 
 31 H        2.7150    -3.6130    -2.2360 H     1 <1>   0.0800 
 32 H        1.6190    -4.4010    -0.5170 H     1 <1>   0.0800 
 33 H        4.9500    -2.4960    -0.6330 H     1 <1>   0.0800 
 34 H        5.0410    -3.5550    -2.0330 H     1 <1>   0.0800 
 35 H        2.9560    -5.1650     1.2080 H     1 <1>   0.0800 
 36 H        3.6430    -3.5740     1.5050 H     1 <1>   0.0800 
 37 H        4.2630    -5.4230    -0.7770 H     1 <1>   0.0800 
 38 H        5.0310    -6.3920     1.8010 H     1 <1>   0.0800 
 39 H        6.7710    -6.3540     1.6210 H     1 <1>   0.0800 
 40 H        5.7780    -6.9160     0.2980 H     1 <1>   0.0800 
 41 H        8.5500    -2.3580    -0.8490 H     1 <1>   0.1500 
 42 H        5.7660    -2.8160     2.3430 H     1 <1>   0.1500 
 43 H        6.0270    -0.4370     2.9380 H     1 <1>   0.1500 
 44 H        7.3950     1.9000     2.1800 H     1 <1>   0.2700 
 45 H       10.5960    -0.4930    -1.1790 H     1 <1>   0.0800 
 46 H       10.3730     1.1720    -1.6550 H     1 <1>   0.0800 
 47 H        9.2990    -0.0580    -2.2700 H     1 <1>   0.0800 
 48 H        9.9380     3.0320    -0.4340 H     1 <1>   0.0800 
 49 H        9.7490     3.2410     1.2850 H     1 <1>   0.0800 
 50 H        8.4440     3.6660     0.2000 H     1 <1>   0.0800 
@<TRIPOS>BOND
  1   1   2  2   
  2   2   3  am  
  3   2   4  1   
  4   3   5  1   
  5   3  26  1   
  6   4   6  1   
  7   4  27  1   
  8   4  28  1   
  9   5   7  1   
 10   5  29  1   
 11   5  30  1   
 12   6   7  1   
 13   6   8  1   
 14   6  31  1   
 15   7   9  1   
 16   7  32  1   
 17   8  10  1   
 18   8  33  1   
 19   8  34  1   
 20   9  10  1   
 21   9  35  1   
 22   9  36  1   
 23  10  11  1   
 24  10  37  1   
 25  11  12  am  
 26  11  13  1   
 27  12  14  2   
 28  12  15  1   
 29  13  38  1   
 30  13  39  1   
 31  13  40  1   
 32  15  16  ar  
 33  15  17  ar  
 34  16  18  ar  
 35  16  41  1   
 36  17  19  ar  
 37  17  42  1   
 38  18  20  ar  
 39  18  21  1   
 40  19  20  ar  
 41  19  43  1   
 42  20  22  1   
 43  21  23  2   
 44  21  24  1   
 45  22  23  1   
 46  22  44  1   
 47  23  25  1   
 48  24  45  1   
 49  24  46  1   
 50  24  47  1   
 51  25  48  1   
 52  25  49  1   
 53  25  50  1   
@<TRIPOS>SUBSTRUCTURE
  1 ****  15 GROUP 4 **** **** 0

# MOE 2024.06 (io_trps.svl 2023.06)
