@<TRIPOS>MOLECULE
NONAME
48 49 1 0 0 
SMALL
USER_CHARGES


@<TRIPOS>ATOM
  1 O       -0.6930     1.4910    -1.5990 O.2   1 <1>  -0.5700 
  2 C       -0.6340     2.6060    -1.1480 C.2   1 <1>   0.5690 
  3 N       -1.3800     2.9640    -0.0810 N.am  1 <1>  -0.7300 
  4 C        0.2680     3.6540    -1.7970 C.3   1 <1>   0.1810 
  5 C       -1.4090     4.3360     0.4870 C.3   1 <1>   0.3640 
  6 O        0.6220     4.6780    -0.8960 O.3   1 <1>  -0.5600 
  7 C       -2.8600     4.8150     0.4770 C.ar  1 <1>  -0.1440 
  8 C       -0.4820     5.3300    -0.2680 C.3   1 <1>   0.2610 
  9 C       -3.6580     4.6740    -0.6500 C.ar  1 <1>  -0.1500 
 10 C       -3.4040     5.4120     1.6020 C.ar  1 <1>  -0.1500 
 11 C        0.0250     6.4050     0.7030 C.2   1 <1>   0.5690 
 12 C       -4.9710     5.1140    -0.6730 C.ar  1 <1>   0.0830 
 13 C       -4.7160     5.8510     1.6040 C.ar  1 <1>  -0.1500 
 14 O       -0.7640     7.0510     1.3510 O.2   1 <1>  -0.5700 
 15 N        1.3650     6.6030     0.8190 N.am  1 <1>  -0.7300 
 16 O       -5.6070     4.9130    -1.8640 O.3   1 <1>  -0.3630 
 17 C       -5.5230     5.7060     0.4770 C.ar  1 <1>   0.0830 
 18 C        2.0410     7.6160     1.6570 C.3   1 <1>   0.1400 
 19 C       -6.7200     5.6790    -2.2640 C.3   1 <1>   0.0400 
 20 O       -6.8260     6.1160     0.4850 O.3   1 <1>  -0.3630 
 21 C        2.9760     8.4860     0.8000 C.3   1 <1>  -0.0800 
 22 C       -7.4250     6.7050     1.6180 C.3   1 <1>   0.0400 
 23 C        4.0800     7.6610     0.1190 C.3   1 <1>  -0.2400 
 24 C        3.6140     9.5790     1.6670 C.3   1 <1>  -0.2400 
 25 H       -2.0420     2.2870     0.3020 H     1 <1>   0.3700 
 26 H       -0.2330     4.0940    -2.6390 H     1 <1>   0.0800 
 27 H        1.1740     3.1840    -2.1340 H     1 <1>   0.0800 
 28 H       -1.0730     4.2710     1.5080 H     1 <1>   0.0800 
 29 H       -1.0430     5.8250    -1.0400 H     1 <1>   0.0800 
 30 H       -3.2680     4.2140    -1.5400 H     1 <1>   0.1500 
 31 H       -2.8060     5.5500     2.4870 H     1 <1>   0.1500 
 32 H       -5.0850     6.3050     2.5030 H     1 <1>   0.1500 
 33 H        1.9720     6.0180     0.2350 H     1 <1>   0.3700 
 34 H        1.3020     8.2390     2.1330 H     1 <1>   0.0800 
 35 H        2.6050     7.1170     2.4270 H     1 <1>   0.0800 
 36 H       -6.8650     5.5360    -3.3190 H     1 <1>   0.0800 
 37 H       -6.5250     6.7170    -2.0560 H     1 <1>   0.0800 
 38 H       -7.5870     5.3370    -1.7280 H     1 <1>   0.0800 
 39 H        2.3820     8.9690     0.0420 H     1 <1>   0.0800 
 40 H       -8.4470     6.9330     1.3750 H     1 <1>   0.0800 
 41 H       -6.8970     7.6110     1.8610 H     1 <1>   0.0800 
 42 H       -7.3920     6.0060     2.4340 H     1 <1>   0.0800 
 43 H        4.6620     7.1290     0.8510 H     1 <1>   0.0800 
 44 H        4.7370     8.3070    -0.4360 H     1 <1>   0.0800 
 45 H        3.6580     6.9510    -0.5700 H     1 <1>   0.0800 
 46 H        4.2200     9.1440     2.4430 H     1 <1>   0.0800 
 47 H        2.8520    10.1850     2.1250 H     1 <1>   0.0800 
 48 H        4.2350    10.2190     1.0650 H     1 <1>   0.0800 
@<TRIPOS>BOND
  1   1   2  2   
  2   2   3  am  
  3   2   4  1   
  4   3   5  1   
  5   3  25  1   
  6   4   6  1   
  7   4  26  1   
  8   4  27  1   
  9   5   7  1   
 10   5   8  1   
 11   5  28  1   
 12   6   8  1   
 13   7   9  ar  
 14   7  10  ar  
 15   8  11  1   
 16   8  29  1   
 17   9  12  ar  
 18   9  30  1   
 19  10  13  ar  
 20  10  31  1   
 21  11  14  2   
 22  11  15  am  
 23  12  16  1   
 24  12  17  ar  
 25  13  17  ar  
 26  13  32  1   
 27  15  18  1   
 28  15  33  1   
 29  16  19  1   
 30  17  20  1   
 31  18  21  1   
 32  18  34  1   
 33  18  35  1   
 34  19  36  1   
 35  19  37  1   
 36  19  38  1   
 37  20  22  1   
 38  21  23  1   
 39  21  24  1   
 40  21  39  1   
 41  22  40  1   
 42  22  41  1   
 43  22  42  1   
 44  23  43  1   
 45  23  44  1   
 46  23  45  1   
 47  24  46  1   
 48  24  47  1   
 49  24  48  1   
@<TRIPOS>SUBSTRUCTURE
  1 ****   5 GROUP 4 **** **** 0

# MOE 2024.06 (io_trps.svl 2023.06)
