@<TRIPOS>MOLECULE
NONAME
51 53 1 0 0 
SMALL
USER_CHARGES


@<TRIPOS>ATOM
  1 CL       0.0280    -1.1000     0.1500 Cl    1 <1>  -0.1770 
  2 C       -1.6500    -1.3940     0.5490 C.ar  1 <1>   0.1770 
  3 C       -2.6720    -0.7190    -0.1100 C.ar  1 <1>   0.0830 
  4 C       -1.9420    -2.3170     1.5330 C.ar  1 <1>  -0.1500 
  5 O       -2.4250     0.1860    -1.0800 O.3   1 <1>  -0.3630 
  6 C       -3.9900    -0.9940     0.2190 C.ar  1 <1>  -0.1500 
  7 C       -3.2660    -2.5750     1.8560 C.ar  1 <1>  -0.1500 
  8 C       -2.0350     1.4720    -0.6580 C.3   1 <1>   0.1200 
  9 C       -4.3100    -1.9230     1.2030 C.ar  1 <1>  -0.0090 
 10 C       -1.8330     2.3350    -1.8990 C.3   1 <1>  -0.2400 
 11 S       -6.0420    -2.2610     1.6310 S.o2  1 <1>   1.4470 
 12 O       -6.5960    -1.0860     2.2660 O.2   1 <1>  -0.6500 
 13 O       -6.1250    -3.5380     2.3110 O.2   1 <1>  -0.6500 
 14 N       -6.7820    -2.4230     0.1120 N.am  1 <1>  -0.8490 
 15 C       -8.2390    -2.3210     0.1670 C.3   1 <1>   0.1960 
 16 C       -6.5160    -3.7080    -0.5340 C.3   1 <1>   0.1960 
 17 C       -8.7410    -3.7330     0.4710 C.3   1 <1>  -0.0800 
 18 C       -7.7170    -4.6250    -0.2550 C.3   1 <1>  -0.0800 
 19 C      -10.2350    -4.0300     0.1600 C.3   1 <1>   0.2800 
 20 C       -8.2750    -5.2350    -1.5510 C.3   1 <1>  -0.1600 
 21 O      -10.6280    -3.3400    -0.9720 O.3   1 <1>  -0.6800 
 22 C      -10.4080    -5.5320    -0.1360 C.3   1 <1>  -0.1600 
 23 C      -11.1940    -3.6210     1.3010 C.3   1 <1>  -0.1600 
 24 C       -9.5520    -6.0560    -1.3080 C.3   1 <1>  -0.1600 
 25 C      -11.1980    -2.1330     1.6920 C.3   1 <1>  -0.2400 
 26 H       -1.1420    -2.8290     2.0380 H     1 <1>   0.1500 
 27 H       -4.7770    -0.4770    -0.3020 H     1 <1>   0.1500 
 28 H       -3.4920    -3.2950     2.6260 H     1 <1>   0.1500 
 29 H       -2.8120     1.8750    -0.0320 H     1 <1>   0.0800 
 30 H       -1.1200     1.3910    -0.0970 H     1 <1>   0.0800 
 31 H       -2.7490     2.4000    -2.4580 H     1 <1>   0.0800 
 32 H       -1.0630     1.9130    -2.5200 H     1 <1>   0.0800 
 33 H       -1.5350     3.3260    -1.6090 H     1 <1>   0.0800 
 34 H       -8.5650    -1.5960     0.8910 H     1 <1>   0.0800 
 35 H       -8.5870    -2.0060    -0.8020 H     1 <1>   0.0800 
 36 H       -6.4250    -3.5370    -1.5940 H     1 <1>   0.0800 
 37 H       -5.5970    -4.1490    -0.1870 H     1 <1>   0.0800 
 38 H       -8.6030    -3.9020     1.5240 H     1 <1>   0.0800 
 39 H       -7.4100    -5.4220     0.4010 H     1 <1>   0.0800 
 40 H       -8.5110    -4.4360    -2.2340 H     1 <1>   0.0800 
 41 H       -7.5320    -5.8540    -2.0230 H     1 <1>   0.0800 
 42 H      -11.5480    -3.5760    -1.1870 H     1 <1>   0.4000 
 43 H      -10.1170    -6.0710     0.7490 H     1 <1>   0.0800 
 44 H      -11.4420    -5.7660    -0.3140 H     1 <1>   0.0800 
 45 H      -12.1960    -3.8990     1.0230 H     1 <1>   0.0800 
 46 H      -10.9490    -4.1930     2.1780 H     1 <1>   0.0800 
 47 H       -9.2880    -7.0810    -1.1100 H     1 <1>   0.0800 
 48 H      -10.1370    -6.0440    -2.2110 H     1 <1>   0.0800 
 49 H      -11.3190    -1.5070     0.8250 H     1 <1>   0.0800 
 50 H      -10.2860    -1.8690     2.1950 H     1 <1>   0.0800 
 51 H      -12.0120    -1.9370     2.3670 H     1 <1>   0.0800 
@<TRIPOS>BOND
  1   1   2  1   
  2   2   3  ar  
  3   2   4  ar  
  4   3   5  1   
  5   3   6  ar  
  6   4   7  ar  
  7   4  26  1   
  8   5   8  1   
  9   6   9  ar  
 10   6  27  1   
 11   7   9  ar  
 12   7  28  1   
 13   8  10  1   
 14   8  29  1   
 15   8  30  1   
 16   9  11  1   
 17  10  31  1   
 18  10  32  1   
 19  10  33  1   
 20  11  12  2   
 21  11  13  2   
 22  11  14  am  
 23  14  15  1   
 24  14  16  1   
 25  15  17  1   
 26  15  34  1   
 27  15  35  1   
 28  16  18  1   
 29  16  36  1   
 30  16  37  1   
 31  17  18  1   
 32  17  19  1   
 33  17  38  1   
 34  18  20  1   
 35  18  39  1   
 36  19  21  1   
 37  19  22  1   
 38  19  23  1   
 39  20  24  1   
 40  20  40  1   
 41  20  41  1   
 42  21  42  1   
 43  22  24  1   
 44  22  43  1   
 45  22  44  1   
 46  23  25  1   
 47  23  45  1   
 48  23  46  1   
 49  24  47  1   
 50  24  48  1   
 51  25  49  1   
 52  25  50  1   
 53  25  51  1   
@<TRIPOS>SUBSTRUCTURE
  1 ****  14 GROUP 4 **** **** 0

# MOE 2024.06 (io_trps.svl 2023.06)
