@<TRIPOS>MOLECULE
NONAME
48 49 1 0 0 
SMALL
USER_CHARGES


@<TRIPOS>ATOM
  1 O       -1.3950    -0.0910    -0.3820 O.2   1 <1>  -0.5700 
  2 C       -2.3130     0.6520    -0.6590 C.2   1 <1>   0.5690 
  3 N       -3.3360     0.2580    -1.4810 N.am  1 <1>  -0.6600 
  4 C       -2.2520     2.0640    -0.0500 C.3   1 <1>   0.4040 
  5 C       -3.3330    -1.1070    -2.0760 C.3   1 <1>   0.3200 
  6 C       -4.6180     1.0170    -1.6560 C.3   1 <1>   0.1400 
  7 N       -0.8400     2.5880     0.1000 N.4   1 <1>  -0.9590 
  8 C       -4.0620    -2.0290    -1.1300 C.2   1 <1>  -0.3320 
  9 C       -5.5490     0.9070    -0.4350 C.3   1 <1>   0.1200 
 10 C       -0.7740     3.6850     1.1100 C.3   1 <1>   0.4230 
 11 C       -0.2280     2.8740    -1.2360 C.3   1 <1>   0.2630 
 12 N       -3.5790    -2.3510     0.0830 N.pl3 1 <1>   0.0330 
 13 C       -5.2450    -2.6710    -1.2500 C.2   1 <1>   0.0770 
 14 O       -4.9880     1.5390     0.6720 O.3   1 <1>  -0.6800 
 15 C       -1.3660     5.0010     0.6010 C.3   1 <1>  -0.1600 
 16 C        0.6740     4.0300     1.4530 C.3   1 <1>  -0.1600 
 17 C       -4.5090    -3.1590     0.6330 C.2   1 <1>   0.0060 
 18 N       -5.5260    -3.3700    -0.1360 N.2   1 <1>  -0.5650 
 19 C       -0.2100     5.8230     0.0170 C.3   1 <1>  -0.1600 
 20 C        1.0820     5.2240     0.5810 C.3   1 <1>  -0.1600 
 21 C       -4.3620    -3.7570     2.0150 C.3   1 <1>  -0.0600 
 22 H       -2.7130     2.0100     0.9200 H     1 <1>   0.0800 
 23 H       -2.8330     2.7370    -0.6540 H     1 <1>   0.0800 
 24 H       -2.3240    -1.4560    -2.2220 H     1 <1>   0.0800 
 25 H       -3.8200    -1.0940    -3.0360 H     1 <1>   0.0800 
 26 H       -5.1430     0.6280    -2.5120 H     1 <1>   0.0800 
 27 H       -4.4160     2.0530    -1.8590 H     1 <1>   0.0800 
 28 H       -0.3210     1.7830     0.4870 H     1 <1>   0.4500 
 29 H       -5.7350    -0.1240    -0.1860 H     1 <1>   0.0800 
 30 H       -6.4900     1.3860    -0.6460 H     1 <1>   0.0800 
 31 H       -1.2910     3.3700     2.0040 H     1 <1>   0.0800 
 32 H       -0.7530     3.6780    -1.7260 H     1 <1>   0.0800 
 33 H       -0.2720     1.9970    -1.8620 H     1 <1>   0.0800 
 34 H        0.8050     3.1560    -1.1200 H     1 <1>   0.0800 
 35 H       -2.6910    -2.0380     0.4920 H     1 <1>   0.2700 
 36 H       -5.9260    -2.6670    -2.0860 H     1 <1>   0.1500 
 37 H       -5.5800     1.4180     1.4470 H     1 <1>   0.4000 
 38 H       -1.7510     5.5350     1.4530 H     1 <1>   0.0800 
 39 H       -2.1710     4.8710    -0.0980 H     1 <1>   0.0800 
 40 H        1.3430     3.1940     1.3470 H     1 <1>   0.0800 
 41 H        0.7000     4.3470     2.4820 H     1 <1>   0.0800 
 42 H       -0.3050     6.8610     0.2910 H     1 <1>   0.0800 
 43 H       -0.2060     5.7610    -1.0580 H     1 <1>   0.0800 
 44 H        1.7260     4.9070    -0.2220 H     1 <1>   0.0800 
 45 H        1.6170     5.9530     1.1680 H     1 <1>   0.0800 
 46 H       -3.4930    -4.3880     2.0530 H     1 <1>   0.0800 
 47 H       -5.2280    -4.3520     2.2470 H     1 <1>   0.0800 
 48 H       -4.2720    -2.9780     2.7490 H     1 <1>   0.0800 
@<TRIPOS>BOND
  1   1   2  2   
  2   2   3  am  
  3   2   4  1   
  4   3   5  1   
  5   3   6  1   
  6   4   7  1   
  7   4  22  1   
  8   4  23  1   
  9   5   8  1   
 10   5  24  1   
 11   5  25  1   
 12   6   9  1   
 13   6  26  1   
 14   6  27  1   
 15   7  10  1   
 16   7  11  1   
 17   7  28  1   
 18   8  12  1   
 19   8  13  2   
 20   9  14  1   
 21   9  29  1   
 22   9  30  1   
 23  10  15  1   
 24  10  16  1   
 25  10  31  1   
 26  11  32  1   
 27  11  33  1   
 28  11  34  1   
 29  12  17  1   
 30  12  35  1   
 31  13  18  1   
 32  13  36  1   
 33  14  37  1   
 34  15  19  1   
 35  15  38  1   
 36  15  39  1   
 37  16  20  1   
 38  16  40  1   
 39  16  41  1   
 40  17  18  2   
 41  17  21  1   
 42  19  20  1   
 43  19  42  1   
 44  19  43  1   
 45  20  44  1   
 46  20  45  1   
 47  21  46  1   
 48  21  47  1   
 49  21  48  1   
@<TRIPOS>SUBSTRUCTURE
  1 ****   2 GROUP 4 **** **** 0

# MOE 2024.06 (io_trps.svl 2023.06)
