@<TRIPOS>MOLECULE
NONAME
46 48 1 0 0 
SMALL
USER_CHARGES


@<TRIPOS>ATOM
  1 CL       0.5990    -1.6570    -2.5620 Cl    1 <1>  -0.1770 
  2 C        0.0510    -2.5370    -1.1570 C.ar  1 <1>   0.1770 
  3 C       -1.1490    -3.2160    -1.2080 C.ar  1 <1>  -0.1500 
  4 C        0.8330    -2.5380    -0.0160 C.ar  1 <1>  -0.1500 
  5 C       -1.5910    -3.9180    -0.0960 C.ar  1 <1>   0.1000 
  6 C        0.3970    -3.2380     1.0980 C.ar  1 <1>  -0.1500 
  7 N       -2.8000    -4.6010    -0.1510 N.pl3 1 <1>  -0.8380 
  8 C       -0.8060    -3.9210     1.0540 C.ar  1 <1>  -0.1500 
  9 C       -3.8970    -4.0570     0.6720 C.3   1 <1>   0.2090 
 10 C       -2.7190    -6.0750    -0.1580 C.3   1 <1>   0.2090 
 11 C       -5.2160    -4.5530     0.0870 C.3   1 <1>  -0.1600 
 12 C       -4.0110    -6.6130    -0.7630 C.3   1 <1>  -0.1600 
 13 C       -5.2430    -6.0900    -0.0020 C.3   1 <1>   0.4230 
 14 N       -6.4900    -6.5770    -0.6780 N.4   1 <1>  -0.9590 
 15 C       -6.6120    -8.0820    -0.5590 C.3   1 <1>   0.3430 
 16 C       -7.7400    -5.8640    -0.2160 C.3   1 <1>   0.3430 
 17 C       -7.4960    -8.4580     0.6120 C.3   1 <1>  -0.1860 
 18 C       -8.9860    -6.7020    -0.4750 C.3   1 <1>  -0.1600 
 19 C       -7.4840    -9.9430     0.7730 C.2   1 <1>   0.9060 
 20 C       -8.9260    -7.9740     0.3740 C.3   1 <1>   0.2000 
 21 O       -6.7230   -10.5980     0.0580 O.co2 1 <1>  -0.9000 
 22 O       -8.2390   -10.4310     1.6130 O.co2 1 <1>  -0.9000 
 23 O       -9.4470    -7.6900     1.6120 O.3   1 <1>  -0.6800 
 24 H       -1.7410    -3.2040    -2.1020 H     1 <1>   0.1500 
 25 H        1.7640    -2.0010    -0.0040 H     1 <1>   0.1500 
 26 H        0.9940    -3.2490     1.9940 H     1 <1>   0.1500 
 27 H       -1.1420    -4.4630     1.9180 H     1 <1>   0.1500 
 28 H       -3.7840    -4.3830     1.6930 H     1 <1>   0.0800 
 29 H       -3.8630    -2.9800     0.6510 H     1 <1>   0.0800 
 30 H       -1.8740    -6.3870    -0.7510 H     1 <1>   0.0800 
 31 H       -2.5850    -6.4400     0.8470 H     1 <1>   0.0800 
 32 H       -5.3320    -4.1200    -0.8910 H     1 <1>   0.0800 
 33 H       -5.9970    -4.1890     0.7270 H     1 <1>   0.0800 
 34 H       -3.9510    -7.6840    -0.7300 H     1 <1>   0.0800 
 35 H       -4.0500    -6.3030    -1.7920 H     1 <1>   0.0800 
 36 H       -5.2150    -6.4830     1.0030 H     1 <1>   0.0800 
 37 H       -6.3710    -6.3780    -1.6770 H     1 <1>   0.4500 
 38 H       -7.0520    -8.4910    -1.4550 H     1 <1>   0.0800 
 39 H       -5.6530    -8.5530    -0.4350 H     1 <1>   0.0800 
 40 H       -7.6820    -5.6880     0.8460 H     1 <1>   0.0800 
 41 H       -7.8260    -4.9120    -0.7130 H     1 <1>   0.0800 
 42 H       -7.0800    -8.0420     1.5090 H     1 <1>   0.0800 
 43 H       -9.0350    -6.9570    -1.5180 H     1 <1>   0.0800 
 44 H       -9.8740    -6.1440    -0.2330 H     1 <1>   0.0800 
 45 H       -9.5360    -8.7470    -0.0690 H     1 <1>   0.0800 
 46 H       -9.4220    -8.5350     2.1280 H     1 <1>   0.4000 
@<TRIPOS>BOND
  1   1   2  1   
  2   2   3  ar  
  3   2   4  ar  
  4   3   5  ar  
  5   3  24  1   
  6   4   6  ar  
  7   4  25  1   
  8   5   7  1   
  9   5   8  ar  
 10   6   8  ar  
 11   6  26  1   
 12   7   9  1   
 13   7  10  1   
 14   8  27  1   
 15   9  11  1   
 16   9  28  1   
 17   9  29  1   
 18  10  12  1   
 19  10  30  1   
 20  10  31  1   
 21  11  13  1   
 22  11  32  1   
 23  11  33  1   
 24  12  13  1   
 25  12  34  1   
 26  12  35  1   
 27  13  14  1   
 28  13  36  1   
 29  14  15  1   
 30  14  16  1   
 31  14  37  1   
 32  15  17  1   
 33  15  38  1   
 34  15  39  1   
 35  16  18  1   
 36  16  40  1   
 37  16  41  1   
 38  17  19  1   
 39  17  20  1   
 40  17  42  1   
 41  18  20  1   
 42  18  43  1   
 43  18  44  1   
 44  19  21  ar  
 45  19  22  ar  
 46  20  23  1   
 47  20  45  1   
 48  23  46  1   
@<TRIPOS>SUBSTRUCTURE
  1 ****  13 GROUP 4 **** **** 0

# MOE 2024.06 (io_trps.svl 2023.06)
