@<TRIPOS>MOLECULE
NONAME
48 52 1 0 0 
SMALL
USER_CHARGES


@<TRIPOS>ATOM
  1 F       -0.3340    -0.8990    -0.5870 F     1 <1>  -0.1900 
  2 C        0.3560    -2.0020    -0.4350 C.ar  1 <1>   0.1900 
  3 C       -0.2590    -3.2080    -0.6600 C.ar  1 <1>  -0.1500 
  4 C        1.6940    -1.8860    -0.0470 C.ar  1 <1>  -0.1500 
  5 C        0.5010    -4.3710    -0.4920 C.ar  1 <1>   0.0000 
  6 C        2.4440    -3.0280     0.1190 C.ar  1 <1>  -0.1500 
  7 C        1.8400    -4.2700    -0.1060 C.ar  1 <1>  -0.1520 
  8 C        0.2350    -5.7500    -0.6230 C.2   1 <1>  -0.1810 
  9 N        2.3620    -5.5380    -0.0120 N.pl3 1 <1>   0.0330 
 10 C        1.3720    -6.4210    -0.3350 C.2   1 <1>  -0.3320 
 11 C       -1.0770    -6.4140    -1.0090 C.3   1 <1>   0.3900 
 12 C        1.4820    -7.9360    -0.3680 C.3   1 <1>   0.0200 
 13 N       -1.0080    -7.8700    -0.6680 N.pl3 1 <1>  -0.8380 
 14 C        0.2620    -8.5390    -1.0950 C.3   1 <1>   0.2090 
 15 C       -1.6110    -8.3470     0.4810 C.ar  1 <1>   0.4100 
 16 N       -2.1090    -9.5660     0.3810 N.ar  1 <1>  -0.6200 
 17 C       -1.6810    -7.6000     1.6700 C.ar  1 <1>   0.1600 
 18 C       -2.7120   -10.0080     1.4970 C.ar  1 <1>   0.3960 
 19 N       -2.2600    -8.0020     2.7830 N.ar  1 <1>  -0.6200 
 20 C       -3.3280   -11.3360     1.5470 C.2   1 <1>   0.5440 
 21 C       -2.7630    -9.2220     2.6520 C.ar  1 <1>   0.1600 
 22 O       -3.3120   -11.9430     2.6060 O.2   1 <1>  -0.5700 
 23 N       -3.9530   -11.9490     0.4710 N.am  1 <1>  -0.6600 
 24 C       -4.2970   -13.4050     0.4760 C.3   1 <1>   0.1400 
 25 C       -4.3070   -11.2660    -0.8120 C.3   1 <1>   0.1400 
 26 C       -5.7250   -13.6360    -0.0430 C.3   1 <1>   0.1200 
 27 C       -5.7270   -11.6410    -1.2700 C.3   1 <1>   0.1200 
 28 O       -5.9000   -13.0290    -1.2920 O.3   1 <1>  -0.5600 
 29 H       -1.2880    -3.2610    -0.9580 H     1 <1>   0.1500 
 30 H        2.1120    -0.9080     0.1130 H     1 <1>   0.1500 
 31 H        3.4760    -2.9760     0.4170 H     1 <1>   0.1500 
 32 H        3.3260    -5.7630     0.2540 H     1 <1>   0.2700 
 33 H       -1.2390    -6.3030    -2.0670 H     1 <1>   0.0800 
 34 H       -1.8970    -5.9470    -0.4910 H     1 <1>   0.0800 
 35 H        1.5190    -8.3160     0.6370 H     1 <1>   0.0800 
 36 H        2.3790    -8.2370    -0.8780 H     1 <1>   0.0800 
 37 H        0.2060    -9.5970    -0.9010 H     1 <1>   0.0800 
 38 H        0.3780    -8.4040    -2.1560 H     1 <1>   0.0800 
 39 H       -1.2210    -6.6290     1.6790 H     1 <1>   0.1500 
 40 H       -3.2510    -9.6340     3.5190 H     1 <1>   0.1500 
 41 H       -4.2130   -13.8170     1.4660 H     1 <1>   0.0800 
 42 H       -3.6050   -13.9300    -0.1580 H     1 <1>   0.0800 
 43 H       -3.5990   -11.5500    -1.5710 H     1 <1>   0.0800 
 44 H       -4.2660   -10.1980    -0.7000 H     1 <1>   0.0800 
 45 H       -6.4470   -13.2310     0.6450 H     1 <1>   0.0800 
 46 H       -5.9100   -14.6880    -0.1600 H     1 <1>   0.0800 
 47 H       -5.9030   -11.2740    -2.2660 H     1 <1>   0.0800 
 48 H       -6.4610   -11.2140    -0.6100 H     1 <1>   0.0800 
@<TRIPOS>BOND
  1   1   2  1   
  2   2   3  ar  
  3   2   4  ar  
  4   3   5  ar  
  5   3  29  1   
  6   4   6  ar  
  7   4  30  1   
  8   5   7  ar  
  9   5   8  1   
 10   6   7  ar  
 11   6  31  1   
 12   7   9  1   
 13   8  10  2   
 14   8  11  1   
 15   9  10  1   
 16   9  32  1   
 17  10  12  1   
 18  11  13  1   
 19  11  33  1   
 20  11  34  1   
 21  12  14  1   
 22  12  35  1   
 23  12  36  1   
 24  13  14  1   
 25  13  15  1   
 26  14  37  1   
 27  14  38  1   
 28  15  16  ar  
 29  15  17  ar  
 30  16  18  ar  
 31  17  19  ar  
 32  17  39  1   
 33  18  20  1   
 34  18  21  ar  
 35  19  21  ar  
 36  20  22  2   
 37  20  23  am  
 38  21  40  1   
 39  23  24  1   
 40  23  25  1   
 41  24  26  1   
 42  24  41  1   
 43  24  42  1   
 44  25  27  1   
 45  25  43  1   
 46  25  44  1   
 47  26  28  1   
 48  26  45  1   
 49  26  46  1   
 50  27  28  1   
 51  27  47  1   
 52  27  48  1   
@<TRIPOS>SUBSTRUCTURE
  1 ****  15 GROUP 4 **** **** 0

# MOE 2024.06 (io_trps.svl 2023.06)
