@<TRIPOS>MOLECULE
NONAME
42 44 1 0 0 
SMALL
USER_CHARGES


@<TRIPOS>ATOM
  1 O       -2.4690     0.6180    -2.1860 O.2   1 <1>  -0.5700 
  2 C       -2.3120     0.7550    -0.9970 C.2   1 <1>   0.5690 
  3 N       -2.1870    -0.3150    -0.1740 N.am  1 <1>  -0.7300 
  4 C       -2.2770     2.1610    -0.4040 C.3   1 <1>  -0.0190 
  5 C       -2.2070    -1.7310    -0.6040 C.3   1 <1>   0.2200 
  6 C       -0.9970     2.5000     0.3660 C.3   1 <1>  -0.1600 
  7 C       -3.3920     2.4480     0.6040 C.3   1 <1>  -0.1600 
  8 C       -3.5360    -2.3910    -0.2610 C.3   1 <1>  -0.0800 
  9 C       -1.2630    -2.5260     0.2850 C.3   1 <1>   0.1200 
 10 C       -1.3750     3.6650     1.2860 C.3   1 <1>  -0.1600 
 11 C       -2.9060     3.6680     1.3860 C.3   1 <1>  -0.1600 
 12 C       -3.3440    -2.8180     1.1990 C.3   1 <1>   0.1200 
 13 C       -4.7960    -1.5420    -0.5140 C.3   1 <1>  -0.0170 
 14 O       -1.9730    -2.7400     1.4670 O.3   1 <1>  -0.5600 
 15 C       -6.0560    -2.3390    -0.2210 C.ar  1 <1>  -0.1440 
 16 C       -6.5830    -3.2250    -1.1390 C.ar  1 <1>  -0.1500 
 17 C       -6.7390    -2.2230     0.9730 C.ar  1 <1>  -0.1500 
 18 C       -7.7290    -3.9360    -0.8250 C.ar  1 <1>   0.1600 
 19 C       -7.8780    -2.9810     1.1880 C.ar  1 <1>   0.1600 
 20 N       -8.3890    -3.8370     0.3180 N.ar  1 <1>  -0.6200 
 21 H       -2.0750    -0.1840     0.8340 H     1 <1>   0.3700 
 22 H       -2.3730     2.8660    -1.2130 H     1 <1>   0.0800 
 23 H       -1.9570    -1.8140    -1.6490 H     1 <1>   0.0800 
 24 H       -0.6930     1.6630     0.9690 H     1 <1>   0.0800 
 25 H       -0.1920     2.7590    -0.3000 H     1 <1>   0.0800 
 26 H       -4.3340     2.6300     0.1160 H     1 <1>   0.0800 
 27 H       -3.5020     1.6180     1.2800 H     1 <1>   0.0800 
 28 H       -3.6150    -3.2890    -0.8490 H     1 <1>   0.0800 
 29 H       -0.3480    -2.0030     0.4980 H     1 <1>   0.0800 
 30 H       -1.0460    -3.4870    -0.1490 H     1 <1>   0.0800 
 31 H       -0.9220     3.5460     2.2550 H     1 <1>   0.0800 
 32 H       -1.0390     4.5960     0.8600 H     1 <1>   0.0800 
 33 H       -3.2910     4.5650     0.9300 H     1 <1>   0.0800 
 34 H       -3.2360     3.6320     2.4100 H     1 <1>   0.0800 
 35 H       -3.6770    -3.8280     1.3660 H     1 <1>   0.0800 
 36 H       -3.8460    -2.1520     1.8790 H     1 <1>   0.0800 
 37 H       -4.8070    -1.2190    -1.5410 H     1 <1>   0.0800 
 38 H       -4.7840    -0.6580     0.1000 H     1 <1>   0.0800 
 39 H       -6.1120    -3.3680    -2.0940 H     1 <1>   0.1500 
 40 H       -6.3980    -1.5510     1.7390 H     1 <1>   0.1500 
 41 H       -8.1250    -4.6220    -1.5540 H     1 <1>   0.1500 
 42 H       -8.3970    -2.8770     2.1250 H     1 <1>   0.1500 
@<TRIPOS>BOND
  1   1   2  2   
  2   2   3  am  
  3   2   4  1   
  4   3   5  1   
  5   3  21  1   
  6   4   6  1   
  7   4   7  1   
  8   4  22  1   
  9   5   8  1   
 10   5   9  1   
 11   5  23  1   
 12   6  10  1   
 13   6  24  1   
 14   6  25  1   
 15   7  11  1   
 16   7  26  1   
 17   7  27  1   
 18   8  12  1   
 19   8  13  1   
 20   8  28  1   
 21   9  14  1   
 22   9  29  1   
 23   9  30  1   
 24  10  11  1   
 25  10  31  1   
 26  10  32  1   
 27  11  33  1   
 28  11  34  1   
 29  12  14  1   
 30  12  35  1   
 31  12  36  1   
 32  13  15  1   
 33  13  37  1   
 34  13  38  1   
 35  15  16  ar  
 36  15  17  ar  
 37  16  18  ar  
 38  16  39  1   
 39  17  19  ar  
 40  17  40  1   
 41  18  20  ar  
 42  18  41  1   
 43  19  20  ar  
 44  19  42  1   
@<TRIPOS>SUBSTRUCTURE
  1 ****  13 GROUP 4 **** **** 0

# MOE 2024.06 (io_trps.svl 2023.06)
