@<TRIPOS>MOLECULE
NONAME
51 54 1 0 0 
SMALL
USER_CHARGES


@<TRIPOS>ATOM
  1 O        0.1300    -1.6910     0.7270 O.2   1 <1>  -0.5700 
  2 C       -0.1440    -2.8280     0.3770 C.2   1 <1>   0.5440 
  3 N       -1.4100    -3.2910     0.6920 N.am  1 <1>  -0.6600 
  4 C        0.8580    -3.6000    -0.3630 C.ar  1 <1>   0.3960 
  5 C       -2.3800    -2.4900     1.4720 C.3   1 <1>   0.1400 
  6 C       -2.0150    -4.5760     0.2670 C.3   1 <1>   0.1400 
  7 N        0.8660    -4.9440    -0.3280 N.ar  1 <1>  -0.6200 
  8 C        1.8090    -2.8960    -1.1120 C.ar  1 <1>   0.1600 
  9 C       -3.5680    -3.4180     1.7020 C.3   1 <1>  -0.1600 
 10 C       -3.5040    -4.4170     0.5510 C.3   1 <1>  -0.1600 
 11 C        1.8070    -5.4920    -1.0590 C.ar  1 <1>   0.4100 
 12 N        2.7730    -3.4360    -1.8490 N.ar  1 <1>  -0.6200 
 13 N        1.7720    -6.8560    -1.0510 N.pl3 1 <1>  -0.8690 
 14 C        2.7450    -4.7510    -1.7920 C.ar  1 <1>   0.1600 
 15 C        1.0900    -7.5060    -2.1910 C.3   1 <1>   0.4690 
 16 C       -0.3970    -7.7270    -1.8860 C.2   1 <1>   0.2980 
 17 C        1.8070    -8.8250    -2.4620 C.3   1 <1>  -0.2400 
 18 O       -1.2230    -7.8100    -2.8940 O.3   1 <1>  -0.0190 
 19 N       -0.9330    -7.8290    -0.7350 N.2   1 <1>  -0.5650 
 20 N       -2.3850    -7.9580    -2.3400 N.2   1 <1>  -0.4100 
 21 C       -2.2200    -7.9650    -1.0650 C.2   1 <1>   0.4620 
 22 C       -3.2730    -8.0690    -0.0690 C.ar  1 <1>   0.0540 
 23 C       -2.9910    -8.0800     1.3000 C.ar  1 <1>  -0.1500 
 24 C       -4.6180    -8.1430    -0.4400 C.ar  1 <1>  -0.1500 
 25 C       -3.9980    -8.1480     2.2440 C.ar  1 <1>  -0.1500 
 26 C       -5.6310    -8.2130     0.4980 C.ar  1 <1>  -0.1500 
 27 C       -5.3240    -8.2120     1.8550 C.ar  1 <1>   0.0820 
 28 O       -6.2510    -8.2700     2.8410 O.3   1 <1>  -0.3620 
 29 C       -7.6280    -8.3650     2.5520 C.3   1 <1>   0.0400 
 30 H       -2.6740    -1.6330     0.8890 H     1 <1>   0.0800 
 31 H       -1.9450    -2.1610     2.4010 H     1 <1>   0.0800 
 32 H       -1.6020    -5.3720     0.8620 H     1 <1>   0.0800 
 33 H       -1.8310    -4.7700    -0.7760 H     1 <1>   0.0800 
 34 H        1.7640    -1.8200    -1.0980 H     1 <1>   0.1500 
 35 H       -4.4980    -2.8790     1.7280 H     1 <1>   0.0800 
 36 H       -3.4330    -3.9320     2.6380 H     1 <1>   0.0800 
 37 H       -3.9700    -5.3540     0.7990 H     1 <1>   0.0800 
 38 H       -3.9840    -4.0070    -0.3190 H     1 <1>   0.0800 
 39 H        1.2580    -7.1540    -0.2120 H     1 <1>   0.4000 
 40 H        3.4890    -5.2950    -2.3430 H     1 <1>   0.1500 
 41 H        1.1700    -6.8750    -3.0610 H     1 <1>   0.0800 
 42 H        1.7300    -9.4710    -1.6050 H     1 <1>   0.0800 
 43 H        2.8440    -8.6430    -2.6800 H     1 <1>   0.0800 
 44 H        1.3590    -9.3190    -3.3050 H     1 <1>   0.0800 
 45 H       -1.9690    -8.0300     1.6320 H     1 <1>   0.1500 
 46 H       -4.8740    -8.1420    -1.4860 H     1 <1>   0.1500 
 47 H       -3.7620    -8.1520     3.2940 H     1 <1>   0.1500 
 48 H       -6.6480    -8.2660     0.1580 H     1 <1>   0.1500 
 49 H       -8.1620    -8.4080     3.4840 H     1 <1>   0.0800 
 50 H       -7.8050    -9.2630     1.9870 H     1 <1>   0.0800 
 51 H       -7.9300    -7.4940     1.9980 H     1 <1>   0.0800 
@<TRIPOS>BOND
  1   1   2  2   
  2   2   3  am  
  3   2   4  1   
  4   3   5  1   
  5   3   6  1   
  6   4   7  ar  
  7   4   8  ar  
  8   5   9  1   
  9   5  30  1   
 10   5  31  1   
 11   6  10  1   
 12   6  32  1   
 13   6  33  1   
 14   7  11  ar  
 15   8  12  ar  
 16   8  34  1   
 17   9  10  1   
 18   9  35  1   
 19   9  36  1   
 20  10  37  1   
 21  10  38  1   
 22  11  13  1   
 23  11  14  ar  
 24  12  14  ar  
 25  13  15  1   
 26  13  39  1   
 27  14  40  1   
 28  15  16  1   
 29  15  17  1   
 30  15  41  1   
 31  16  18  1   
 32  16  19  2   
 33  17  42  1   
 34  17  43  1   
 35  17  44  1   
 36  18  20  1   
 37  19  21  1   
 38  20  21  2   
 39  21  22  1   
 40  22  23  ar  
 41  22  24  ar  
 42  23  25  ar  
 43  23  45  1   
 44  24  26  ar  
 45  24  46  1   
 46  25  27  ar  
 47  25  47  1   
 48  26  27  ar  
 49  26  48  1   
 50  27  28  1   
 51  28  29  1   
 52  29  49  1   
 53  29  50  1   
 54  29  51  1   
@<TRIPOS>SUBSTRUCTURE
  1 ****   6 GROUP 4 **** **** 0

# MOE 2024.06 (io_trps.svl 2023.06)
