@<TRIPOS>MOLECULE
NONAME
59 63 1 0 0 
SMALL
USER_CHARGES


@<TRIPOS>ATOM
  1 O       -1.3150     0.4750     2.5250 O.2   1 <1>  -0.5700 
  2 C       -1.7030     0.9200     1.4720 C.2   1 <1>   0.5690 
  3 N       -2.2550     0.1090     0.5130 N.am  1 <1>  -0.6600 
  4 C       -1.5560     2.4230     1.2640 C.3   1 <1>  -0.0990 
  5 C       -2.0970    -1.3830     0.6090 C.3   1 <1>   0.3640 
  6 C       -3.1290     0.6030    -0.5920 C.3   1 <1>   0.1400 
  7 C       -0.2040     2.8620     0.6480 C.3   1 <1>   0.0000 
  8 C       -0.8230    -1.8130    -0.1420 C.ar  1 <1>  -0.1440 
  9 C       -3.3970    -2.1120     0.1610 C.3   1 <1>   0.2000 
 10 C       -3.4340    -0.4820    -1.6330 C.3   1 <1>   0.1200 
 11 C        0.9840     2.4410     1.5490 C.3   1 <1>  -0.1600 
 12 C        0.0150     2.2600    -0.7630 C.3   1 <1>  -0.1600 
 13 C       -0.1860     4.4040     0.5170 C.3   1 <1>  -0.1600 
 14 C        0.4060    -1.4720     0.4080 C.ar  1 <1>  -0.1500 
 15 C       -0.8280    -2.5330    -1.3340 C.ar  1 <1>  -0.1500 
 16 O       -3.9630    -1.6450    -1.0510 O.3   1 <1>  -0.5600 
 17 C       -4.4930    -2.0170     1.2320 C.3   1 <1>   0.1200 
 18 C        2.3050     2.9270     0.9390 C.3   1 <1>   0.2800 
 19 C        1.3500     2.7330    -1.3680 C.3   1 <1>  -0.0800 
 20 C        1.1460     4.8970    -0.0830 C.3   1 <1>  -0.0800 
 21 C        1.5930    -1.8150    -0.2150 C.ar  1 <1>  -0.1500 
 22 C        0.3570    -2.8800    -1.9600 C.ar  1 <1>  -0.1500 
 23 O       -4.1750    -2.8160     2.3260 O.3   1 <1>  -0.6800 
 24 O        3.3410     2.5400     1.7550 O.3   1 <1>  -0.6800 
 25 C        2.5050     2.2980    -0.4460 C.3   1 <1>  -0.1600 
 26 C        2.3040     4.4570     0.8320 C.3   1 <1>  -0.1600 
 27 C        1.3360     4.2700    -1.4770 C.3   1 <1>  -0.1600 
 28 C        1.5690    -2.5190    -1.4040 C.ar  1 <1>  -0.1500 
 29 H       -2.3670     2.7950     0.6690 H     1 <1>   0.0800 
 30 H       -1.6550     2.8840     2.2300 H     1 <1>   0.0800 
 31 H       -1.9380    -1.6510     1.6400 H     1 <1>   0.0800 
 32 H       -4.0560     0.9550    -0.1750 H     1 <1>   0.0800 
 33 H       -2.6570     1.4260    -1.0940 H     1 <1>   0.0800 
 34 H       -3.1790    -3.1530     0.0110 H     1 <1>   0.0800 
 35 H       -2.5400    -0.7370    -2.1720 H     1 <1>   0.0800 
 36 H       -4.1560    -0.1190    -2.3420 H     1 <1>   0.0800 
 37 H        1.0200     1.3720     1.6430 H     1 <1>   0.0800 
 38 H        0.8660     2.8600     2.5320 H     1 <1>   0.0800 
 39 H        0.0180     1.1850    -0.7140 H     1 <1>   0.0800 
 40 H       -0.7840     2.5580    -1.4170 H     1 <1>   0.0800 
 41 H       -0.9980     4.7280    -0.1100 H     1 <1>   0.0800 
 42 H       -0.3260     4.8540     1.4850 H     1 <1>   0.0800 
 43 H        0.4480    -0.9310     1.3380 H     1 <1>   0.1500 
 44 H       -1.7490    -2.8370    -1.7970 H     1 <1>   0.1500 
 45 H       -5.4370    -2.3540     0.8390 H     1 <1>   0.0800 
 46 H       -4.5890    -1.0030     1.5820 H     1 <1>   0.0800 
 47 H        1.4810     2.2970    -2.3440 H     1 <1>   0.0800 
 48 H        1.1340     5.9710    -0.1640 H     1 <1>   0.0800 
 49 H        2.5310    -1.5320     0.2310 H     1 <1>   0.1500 
 50 H        0.3340    -3.4330    -2.8830 H     1 <1>   0.1500 
 51 H       -4.2930    -3.7630     2.1150 H     1 <1>   0.4000 
 52 H        4.1810     2.8510     1.3760 H     1 <1>   0.4000 
 53 H        3.4410     2.6150    -0.8690 H     1 <1>   0.0800 
 54 H        2.5120     1.2250    -0.3620 H     1 <1>   0.0800 
 55 H        2.1780     4.8900     1.8090 H     1 <1>   0.0800 
 56 H        3.2360     4.8020     0.4220 H     1 <1>   0.0800 
 57 H        0.5380     4.5810    -2.1290 H     1 <1>   0.0800 
 58 H        2.2600     4.6130    -1.9090 H     1 <1>   0.0800 
 59 H        2.4900    -2.7870    -1.8910 H     1 <1>   0.1500 
@<TRIPOS>BOND
  1   1   2  2   
  2   2   3  am  
  3   2   4  1   
  4   3   5  1   
  5   3   6  1   
  6   4   7  1   
  7   4  29  1   
  8   4  30  1   
  9   5   8  1   
 10   5   9  1   
 11   5  31  1   
 12   6  10  1   
 13   6  32  1   
 14   6  33  1   
 15   7  11  1   
 16   7  12  1   
 17   7  13  1   
 18   8  14  ar  
 19   8  15  ar  
 20   9  16  1   
 21   9  17  1   
 22   9  34  1   
 23  10  16  1   
 24  10  35  1   
 25  10  36  1   
 26  11  18  1   
 27  11  37  1   
 28  11  38  1   
 29  12  19  1   
 30  12  39  1   
 31  12  40  1   
 32  13  20  1   
 33  13  41  1   
 34  13  42  1   
 35  14  21  ar  
 36  14  43  1   
 37  15  22  ar  
 38  15  44  1   
 39  17  23  1   
 40  17  45  1   
 41  17  46  1   
 42  18  24  1   
 43  18  25  1   
 44  18  26  1   
 45  19  25  1   
 46  19  27  1   
 47  19  47  1   
 48  20  26  1   
 49  20  27  1   
 50  20  48  1   
 51  21  28  ar  
 52  21  49  1   
 53  22  28  ar  
 54  22  50  1   
 55  23  51  1   
 56  24  52  1   
 57  25  53  1   
 58  25  54  1   
 59  26  55  1   
 60  26  56  1   
 61  27  57  1   
 62  27  58  1   
 63  28  59  1   
@<TRIPOS>SUBSTRUCTURE
  1 ****   2 GROUP 4 **** **** 0

# MOE 2024.06 (io_trps.svl 2023.06)
