@<TRIPOS>MOLECULE
NONAME
42 44 1 0 0 
SMALL
USER_CHARGES


@<TRIPOS>ATOM
  1 S        0.4540    -0.4730     1.2590 S.o2  1 <1>   1.4470 
  2 O        1.1860    -1.6440     1.6960 O.2   1 <1>  -0.6500 
  3 O       -0.2220     0.3280     2.2550 O.2   1 <1>  -0.6500 
  4 N        1.6070     0.5220     0.5100 N.am  1 <1>  -0.8490 
  5 C       -0.7250    -0.8900    -0.0710 C.ar  1 <1>  -0.0090 
  6 C        2.1870     1.5000     1.4540 C.3   1 <1>   0.1960 
  7 C        2.5950    -0.2410    -0.2660 C.3   1 <1>   0.1960 
  8 C       -1.6040    -1.9780     0.0240 C.ar  1 <1>  -0.1440 
  9 C       -0.7910    -0.1010    -1.2180 C.ar  1 <1>  -0.1500 
 10 C        3.2450     2.4610     0.8630 C.3   1 <1>   0.2200 
 11 C        3.3680     0.5800    -1.3210 C.3   1 <1>  -0.0190 
 12 C       -2.4930    -2.2730    -1.0030 C.ar  1 <1>  -0.1500 
 13 C       -1.6230    -2.8720     1.2590 C.3   1 <1>  -0.0960 
 14 C       -1.6830    -0.4130    -2.2230 C.ar  1 <1>   0.1900 
 15 N        2.8550     2.8900    -0.5190 N.am  1 <1>  -0.6600 
 16 C        4.6740     1.8620     0.9640 C.3   1 <1>   0.1200 
 17 C        2.8300     1.9840    -1.5470 C.2   1 <1>   0.5690 
 18 C        4.8840     0.6010    -1.0590 C.3   1 <1>   0.1200 
 19 C       -2.5380    -1.4900    -2.1410 C.ar  1 <1>  -0.1500 
 20 F       -1.7200     0.3380    -3.2890 F     1 <1>  -0.1900 
 21 C        2.3950     4.2940    -0.6830 C.3   1 <1>   0.0600 
 22 O        5.3020     1.6740    -0.2700 O.3   1 <1>  -0.5600 
 23 O        2.3940     2.2530    -2.6430 O.2   1 <1>  -0.5700 
 24 H        1.3860     2.1190     1.8240 H     1 <1>   0.0800 
 25 H        2.5970     0.9840     2.3060 H     1 <1>   0.0800 
 26 H        3.2770    -0.7320     0.4080 H     1 <1>   0.0800 
 27 H        2.0740    -1.0210    -0.7980 H     1 <1>   0.0800 
 28 H       -0.1570     0.7600    -1.3420 H     1 <1>   0.1500 
 29 H        3.2460     3.3300     1.4980 H     1 <1>   0.0800 
 30 H        3.2450     0.0470    -2.2460 H     1 <1>   0.0800 
 31 H       -3.1600    -3.1140    -0.9230 H     1 <1>   0.1500 
 32 H       -2.4650    -3.5400     1.2410 H     1 <1>   0.0800 
 33 H       -1.6940    -2.2800     2.1550 H     1 <1>   0.0800 
 34 H       -0.7260    -3.4640     1.3030 H     1 <1>   0.0800 
 35 H        4.6810     0.9270     1.4980 H     1 <1>   0.0800 
 36 H        5.2910     2.5480     1.5160 H     1 <1>   0.0800 
 37 H        5.3960     0.7090    -2.0000 H     1 <1>   0.0800 
 38 H        5.2210    -0.3120    -0.6010 H     1 <1>   0.0800 
 39 H       -3.2190    -1.7040    -2.9450 H     1 <1>   0.1500 
 40 H        3.1760     4.9690    -0.3830 H     1 <1>   0.0800 
 41 H        1.5200     4.4640    -0.0810 H     1 <1>   0.0800 
 42 H        2.1480     4.4940    -1.7120 H     1 <1>   0.0800 
@<TRIPOS>BOND
  1   1   2  2   
  2   1   3  2   
  3   1   4  am  
  4   1   5  1   
  5   4   6  1   
  6   4   7  1   
  7   5   8  ar  
  8   5   9  ar  
  9   6  10  1   
 10   6  24  1   
 11   6  25  1   
 12   7  11  1   
 13   7  26  1   
 14   7  27  1   
 15   8  12  ar  
 16   8  13  1   
 17   9  14  ar  
 18   9  28  1   
 19  10  15  1   
 20  10  16  1   
 21  10  29  1   
 22  11  17  1   
 23  11  18  1   
 24  11  30  1   
 25  12  19  ar  
 26  12  31  1   
 27  13  32  1   
 28  13  33  1   
 29  13  34  1   
 30  14  19  ar  
 31  14  20  1   
 32  15  17  am  
 33  15  21  1   
 34  16  22  1   
 35  16  35  1   
 36  16  36  1   
 37  17  23  2   
 38  18  22  1   
 39  18  37  1   
 40  18  38  1   
 41  19  39  1   
 42  21  40  1   
 43  21  41  1   
 44  21  42  1   
@<TRIPOS>SUBSTRUCTURE
  1 ****   4 GROUP 4 **** **** 0

# MOE 2024.06 (io_trps.svl 2023.06)
