@<TRIPOS>MOLECULE
NONAME
56 59 1 0 0 
SMALL
USER_CHARGES


@<TRIPOS>ATOM
  1 O       -2.0140     0.5590     2.3220 O.2   1 <1>  -0.5700 
  2 C       -2.1880     1.0710     1.2310 C.2   1 <1>   0.5440 
  3 N       -2.6480     0.2970     0.1870 N.am  1 <1>  -0.6600 
  4 C       -1.9290     2.4850     1.0610 C.ar  1 <1>   0.0860 
  5 C       -2.6040    -1.2050     0.2910 C.3   1 <1>   0.3640 
  6 C       -3.4210     0.9140    -0.9360 C.3   1 <1>   0.1400 
  7 C       -1.0660     2.9550     0.0700 C.ar  1 <1>  -0.1500 
  8 C       -2.5330     3.4350     1.8850 C.ar  1 <1>  -0.1500 
  9 C       -1.2440    -1.7150    -0.1960 C.ar  1 <1>  -0.1430 
 10 C       -3.7470    -1.9590    -0.4560 C.3   1 <1>   0.2000 
 11 C       -4.1050    -0.1120    -1.8470 C.3   1 <1>   0.1200 
 12 C       -0.8380     4.3060    -0.1030 C.ar  1 <1>  -0.1500 
 13 C       -2.3040     4.7860     1.7150 C.ar  1 <1>  -0.1500 
 14 C       -0.6550    -1.2540    -1.3670 C.ar  1 <1>  -0.1500 
 15 C       -0.5800    -2.6790     0.5500 C.ar  1 <1>  -0.1500 
 16 O       -4.6820    -1.1130    -1.0760 O.3   1 <1>  -0.5600 
 17 C       -4.5370    -2.8850     0.4790 C.3   1 <1>   0.1200 
 18 C       -1.4550     5.2470     0.7130 C.ar  1 <1>   0.1000 
 19 C        0.5680    -1.7500    -1.7860 C.ar  1 <1>  -0.1500 
 20 C        0.6430    -3.1760     0.1340 C.ar  1 <1>  -0.1500 
 21 O       -3.7150    -3.8870     0.9900 O.3   1 <1>  -0.6800 
 22 N       -1.2110     6.5990     0.5210 N.pl3 1 <1>  -0.8380 
 23 C        1.2170    -2.7130    -1.0360 C.ar  1 <1>  -0.1500 
 24 C        0.1630     7.1260     0.7290 C.3   1 <1>   0.2090 
 25 C       -2.2930     7.6050     0.6730 C.3   1 <1>   0.2090 
 26 C        0.4200     8.2710    -0.2550 C.3   1 <1>  -0.1600 
 27 C       -2.0550     8.7580    -0.3080 C.3   1 <1>  -0.1600 
 28 C       -0.6530     9.3660    -0.1460 C.3   1 <1>  -0.1600 
 29 H       -2.6850    -1.4680     1.3320 H     1 <1>   0.0800 
 30 H       -4.1790     1.5540    -0.5180 H     1 <1>   0.0800 
 31 H       -2.7680     1.5270    -1.5310 H     1 <1>   0.0800 
 32 H       -0.5680     2.2430    -0.5650 H     1 <1>   0.1500 
 33 H       -3.1850     3.0940     2.6700 H     1 <1>   0.1500 
 34 H       -3.3200    -2.5630    -1.2370 H     1 <1>   0.0800 
 35 H       -3.4050    -0.5570    -2.5330 H     1 <1>   0.0800 
 36 H       -4.8860     0.3620    -2.4150 H     1 <1>   0.0800 
 37 H       -0.1790     4.6530    -0.8770 H     1 <1>   0.1500 
 38 H       -2.7760     5.4950     2.3680 H     1 <1>   0.1500 
 39 H       -1.1400    -0.5020    -1.9590 H     1 <1>   0.1500 
 40 H       -1.0140    -3.0460     1.4650 H     1 <1>   0.1500 
 41 H       -5.3460    -3.3550    -0.0520 H     1 <1>   0.0800 
 42 H       -4.9300    -2.3250     1.3110 H     1 <1>   0.0800 
 43 H        1.0150    -1.3850    -2.6930 H     1 <1>   0.1500 
 44 H        1.1470    -3.9220     0.7240 H     1 <1>   0.1500 
 45 H       -3.4240    -4.4960     0.2820 H     1 <1>   0.4000 
 46 H        2.1680    -3.0990    -1.3580 H     1 <1>   0.1500 
 47 H        0.2530     7.4830     1.7410 H     1 <1>   0.0800 
 48 H        0.8860     6.3430     0.5820 H     1 <1>   0.0800 
 49 H       -3.2460     7.1470     0.4710 H     1 <1>   0.0800 
 50 H       -2.2950     7.9760     1.6840 H     1 <1>   0.0800 
 51 H        1.3900     8.6930    -0.0640 H     1 <1>   0.0800 
 52 H        0.4270     7.8690    -1.2530 H     1 <1>   0.0800 
 53 H       -2.1710     8.3810    -1.3090 H     1 <1>   0.0800 
 54 H       -2.8000     9.5170    -0.1530 H     1 <1>   0.0800 
 55 H       -0.4900    10.1130    -0.9040 H     1 <1>   0.0800 
 56 H       -0.5800     9.8430     0.8160 H     1 <1>   0.0800 
@<TRIPOS>BOND
  1   1   2  2   
  2   2   3  am  
  3   2   4  1   
  4   3   5  1   
  5   3   6  1   
  6   4   7  ar  
  7   4   8  ar  
  8   5   9  1   
  9   5  10  1   
 10   5  29  1   
 11   6  11  1   
 12   6  30  1   
 13   6  31  1   
 14   7  12  ar  
 15   7  32  1   
 16   8  13  ar  
 17   8  33  1   
 18   9  14  ar  
 19   9  15  ar  
 20  10  16  1   
 21  10  17  1   
 22  10  34  1   
 23  11  16  1   
 24  11  35  1   
 25  11  36  1   
 26  12  18  ar  
 27  12  37  1   
 28  13  18  ar  
 29  13  38  1   
 30  14  19  ar  
 31  14  39  1   
 32  15  20  ar  
 33  15  40  1   
 34  17  21  1   
 35  17  41  1   
 36  17  42  1   
 37  18  22  1   
 38  19  23  ar  
 39  19  43  1   
 40  20  23  ar  
 41  20  44  1   
 42  21  45  1   
 43  22  24  1   
 44  22  25  1   
 45  23  46  1   
 46  24  26  1   
 47  24  47  1   
 48  24  48  1   
 49  25  27  1   
 50  25  49  1   
 51  25  50  1   
 52  26  28  1   
 53  26  51  1   
 54  26  52  1   
 55  27  28  1   
 56  27  53  1   
 57  27  54  1   
 58  28  55  1   
 59  28  56  1   
@<TRIPOS>SUBSTRUCTURE
  1 ****   4 GROUP 4 **** **** 0

# MOE 2024.06 (io_trps.svl 2023.06)
