@<TRIPOS>MOLECULE
NONAME
48 50 1 0 0 
SMALL
USER_CHARGES


@<TRIPOS>ATOM
  1 O        0.5920    -0.2760    -1.3400 O.2   1 <1>  -0.5700 
  2 C        1.4770    -0.6630    -0.5920 C.2   1 <1>   0.5440 
  3 N        2.2130     0.3060     0.0810 N.am  1 <1>  -0.6600 
  4 C        1.6710    -2.1110    -0.4330 C.ar  1 <1>   0.3960 
  5 C        3.1370    -0.0100     1.2110 C.3   1 <1>   0.1400 
  6 C        2.0050     1.7540    -0.2190 C.3   1 <1>   0.1400 
  7 N        2.9080    -2.6410    -0.3510 N.ar  1 <1>  -0.6200 
  8 C        0.5410    -2.9240    -0.3800 C.ar  1 <1>  -0.1500 
  9 C        4.6000    -0.0760     0.7420 C.3   1 <1>   0.1100 
 10 C        3.2440     2.6300     0.0040 C.3   1 <1>  -0.1600 
 11 C        2.9980    -3.9530    -0.2230 C.ar  1 <1>   0.1600 
 12 C        0.6460    -4.2890    -0.2400 C.ar  1 <1>   0.0830 
 13 N        5.2180     1.2490     0.5250 N.3   1 <1>  -0.8100 
 14 C        4.5430     2.0250    -0.5320 C.3   1 <1>   0.1100 
 15 C        1.9210    -4.8140    -0.1610 C.ar  1 <1>  -0.1500 
 16 O       -0.4910    -5.0170    -0.1920 O.3   1 <1>  -0.3630 
 17 C        6.6670     1.0960     0.2370 C.3   1 <1>   0.2900 
 18 C       -0.4670    -6.4230    -0.0870 C.3   1 <1>   0.0400 
 19 C        7.4990     2.3810     0.2990 C.2   1 <1>   0.2980 
 20 O        8.7180     2.3450    -0.1380 O.3   1 <1>  -0.2800 
 21 N        7.1840     3.5440     0.7350 N.2   1 <1>  -0.3380 
 22 C        9.1520     3.5500     0.0440 C.2   1 <1>   0.2980 
 23 N        8.2640     4.3090     0.5650 N.2   1 <1>  -0.3380 
 24 C       10.5770     3.8940    -0.3610 C.3   1 <1>   0.0200 
 25 C       10.9540     5.3580    -0.0910 C.3   1 <1>  -0.2400 
 26 H        2.8680    -0.9590     1.6370 H     1 <1>   0.0800 
 27 H        3.0390     0.7230     1.9920 H     1 <1>   0.0800 
 28 H        1.1920     2.1200     0.3850 H     1 <1>   0.0800 
 29 H        1.7110     1.8540    -1.2500 H     1 <1>   0.0800 
 30 H       -0.4350    -2.4790    -0.4550 H     1 <1>   0.1500 
 31 H        4.6610    -0.6660    -0.1570 H     1 <1>   0.0800 
 32 H        5.1550    -0.5860     1.5090 H     1 <1>   0.0800 
 33 H        3.3560     2.8730     1.0460 H     1 <1>   0.0800 
 34 H        3.0710     3.5580    -0.5090 H     1 <1>   0.0800 
 35 H        3.9900    -4.3680    -0.1640 H     1 <1>   0.1500 
 36 H        5.1740     2.8420    -0.8370 H     1 <1>   0.0800 
 37 H        4.3540     1.4110    -1.3980 H     1 <1>   0.0800 
 38 H        2.0940    -5.8680    -0.0550 H     1 <1>   0.1500 
 39 H        6.7860     0.6600    -0.7390 H     1 <1>   0.0800 
 40 H        7.0940     0.4170     0.9530 H     1 <1>   0.0800 
 41 H       -1.4830    -6.7740    -0.0790 H     1 <1>   0.0800 
 42 H        0.0210    -6.6980     0.8310 H     1 <1>   0.0800 
 43 H        0.0520    -6.8280    -0.9380 H     1 <1>   0.0800 
 44 H       10.6910     3.6870    -1.4100 H     1 <1>   0.0800 
 45 H       11.2470     3.2510     0.1800 H     1 <1>   0.0800 
 46 H       10.3020     6.0170    -0.6390 H     1 <1>   0.0800 
 47 H       11.9690     5.5440    -0.3950 H     1 <1>   0.0800 
 48 H       10.8600     5.5780     0.9580 H     1 <1>   0.0800 
@<TRIPOS>BOND
  1   1   2  2   
  2   2   3  am  
  3   2   4  1   
  4   3   5  1   
  5   3   6  1   
  6   4   7  ar  
  7   4   8  ar  
  8   5   9  1   
  9   5  26  1   
 10   5  27  1   
 11   6  10  1   
 12   6  28  1   
 13   6  29  1   
 14   7  11  ar  
 15   8  12  ar  
 16   8  30  1   
 17   9  13  1   
 18   9  31  1   
 19   9  32  1   
 20  10  14  1   
 21  10  33  1   
 22  10  34  1   
 23  11  15  ar  
 24  11  35  1   
 25  12  15  ar  
 26  12  16  1   
 27  13  14  1   
 28  13  17  1   
 29  14  36  1   
 30  14  37  1   
 31  15  38  1   
 32  16  18  1   
 33  17  19  1   
 34  17  39  1   
 35  17  40  1   
 36  18  41  1   
 37  18  42  1   
 38  18  43  1   
 39  19  20  1   
 40  19  21  2   
 41  20  22  1   
 42  21  23  1   
 43  22  23  2   
 44  22  24  1   
 45  24  25  1   
 46  24  44  1   
 47  24  45  1   
 48  25  46  1   
 49  25  47  1   
 50  25  48  1   
@<TRIPOS>SUBSTRUCTURE
  1 ****   9 GROUP 4 **** **** 0

# MOE 2024.06 (io_trps.svl 2023.06)
