@<TRIPOS>MOLECULE
NONAME
41 42 1 0 0 
SMALL
USER_CHARGES


@<TRIPOS>ATOM
  1 CL       3.1720     0.2900    -1.4740 Cl    1 <1>  -0.1770 
  2 C        2.3890    -0.9990    -0.5990 C.ar  1 <1>   0.1770 
  3 C        2.4170    -2.2810    -1.1150 C.ar  1 <1>  -0.1500 
  4 C        1.7560    -0.7100     0.5980 C.ar  1 <1>  -0.1500 
  5 C        1.8060    -3.3410    -0.4400 C.ar  1 <1>   0.0860 
  6 C        1.1340    -1.7350     1.2880 C.ar  1 <1>  -0.1500 
  7 C        1.1660    -3.0160     0.7620 C.ar  1 <1>   0.1900 
  8 C        1.8520    -4.6810    -0.9920 C.2   1 <1>   0.5440 
  9 F        0.5500    -3.9440     1.4420 F     1 <1>  -0.1900 
 10 O        1.8990    -4.8460    -2.1940 O.2   1 <1>  -0.5700 
 11 N        1.8540    -5.7890    -0.1980 N.am  1 <1>  -0.7300 
 12 C        1.9220    -7.1940    -0.6650 C.3   1 <1>   0.2200 
 13 C        0.5490    -7.8470    -0.6110 C.3   1 <1>  -0.0800 
 14 C        2.6640    -8.0210     0.3740 C.3   1 <1>   0.1200 
 15 C        0.4390    -8.2810     0.8560 C.3   1 <1>   0.1200 
 16 C       -0.6090    -6.9620    -1.1230 C.3   1 <1>  -0.0550 
 17 O        1.7330    -8.2450     1.3870 O.3   1 <1>  -0.5600 
 18 S       -2.1870    -7.8070    -1.2490 S.o2  1 <1>   1.3330 
 19 O       -1.9620    -9.0800    -1.8960 O.2   1 <1>  -0.6500 
 20 O       -3.1740    -6.8960    -1.7830 O.2   1 <1>  -0.6500 
 21 N       -2.6150    -8.1160     0.3670 N.am  1 <1>  -0.8490 
 22 C       -3.1990    -6.9540     1.0450 C.3   1 <1>   0.1160 
 23 C       -3.5180    -9.2640     0.4860 C.3   1 <1>   0.1160 
 24 H        2.9170    -2.4620    -2.0510 H     1 <1>   0.1500 
 25 H        1.7530     0.2980     0.9740 H     1 <1>   0.1500 
 26 H        0.6290    -1.5460     2.2190 H     1 <1>   0.1500 
 27 H        1.7400    -5.6970     0.8170 H     1 <1>   0.3700 
 28 H        2.3770    -7.2540    -1.6400 H     1 <1>   0.0800 
 29 H        0.5850    -8.7390    -1.2120 H     1 <1>   0.0800 
 30 H        3.5250    -7.5150     0.7750 H     1 <1>   0.0800 
 31 H        2.9510    -8.9760    -0.0300 H     1 <1>   0.0800 
 32 H        0.0470    -9.2800     0.9490 H     1 <1>   0.0800 
 33 H       -0.1640    -7.6000     1.4320 H     1 <1>   0.0800 
 34 H       -0.3430    -6.6040    -2.0990 H     1 <1>   0.0800 
 35 H       -0.7190    -6.1030    -0.4900 H     1 <1>   0.0800 
 36 H       -3.3710    -7.1800     2.0840 H     1 <1>   0.0800 
 37 H       -4.1360    -6.6810     0.5870 H     1 <1>   0.0800 
 38 H       -2.5300    -6.1130     0.9880 H     1 <1>   0.0800 
 39 H       -3.7610    -9.4430     1.5200 H     1 <1>   0.0800 
 40 H       -3.0450   -10.1490     0.0950 H     1 <1>   0.0800 
 41 H       -4.4260    -9.0850    -0.0670 H     1 <1>   0.0800 
@<TRIPOS>BOND
  1   1   2  1   
  2   2   3  ar  
  3   2   4  ar  
  4   3   5  ar  
  5   3  24  1   
  6   4   6  ar  
  7   4  25  1   
  8   5   7  ar  
  9   5   8  1   
 10   6   7  ar  
 11   6  26  1   
 12   7   9  1   
 13   8  10  2   
 14   8  11  am  
 15  11  12  1   
 16  11  27  1   
 17  12  13  1   
 18  12  14  1   
 19  12  28  1   
 20  13  15  1   
 21  13  16  1   
 22  13  29  1   
 23  14  17  1   
 24  14  30  1   
 25  14  31  1   
 26  15  17  1   
 27  15  32  1   
 28  15  33  1   
 29  16  18  1   
 30  16  34  1   
 31  16  35  1   
 32  18  19  2   
 33  18  20  2   
 34  18  21  am  
 35  21  22  1   
 36  21  23  1   
 37  22  36  1   
 38  22  37  1   
 39  22  38  1   
 40  23  39  1   
 41  23  40  1   
 42  23  41  1   
@<TRIPOS>SUBSTRUCTURE
  1 ****  11 GROUP 4 **** **** 0

# MOE 2024.06 (io_trps.svl 2023.06)
