@<TRIPOS>MOLECULE
NONAME
60 62 1 0 0 
SMALL
USER_CHARGES


@<TRIPOS>ATOM
  1 O       -0.7080     0.3780    -1.2390 O.2   1 <1>  -0.5700 
  2 C       -1.4380     0.9730    -0.4720 C.2   1 <1>   0.5440 
  3 N       -2.5040     0.2910     0.0850 N.am  1 <1>  -0.6600 
  4 C       -1.2200     2.3830    -0.2110 C.ar  1 <1>   0.0860 
  5 C       -3.8150     0.9490     0.3480 C.3   1 <1>   0.1400 
  6 C       -2.5110    -1.2000     0.1440 C.3   1 <1>   0.1400 
  7 C       -1.3290     2.9140     1.0750 C.ar  1 <1>  -0.1500 
  8 C       -0.9120     3.2660    -1.2470 C.ar  1 <1>  -0.1500 
  9 C       -4.8800     0.4070    -0.6400 C.3   1 <1>   0.4230 
 10 C       -3.5830    -1.7420    -0.8070 C.3   1 <1>  -0.1600 
 11 C       -1.1800     4.2670     1.3080 C.ar  1 <1>  -0.1500 
 12 C       -0.7590     4.6220    -1.0220 C.ar  1 <1>  -0.1500 
 13 N       -6.2400     1.0620    -0.5190 N.4   1 <1>  -0.9590 
 14 C       -4.9890    -1.1430    -0.5420 C.3   1 <1>   0.0000 
 15 C       -0.9040     5.1340     0.2640 C.ar  1 <1>   0.0820 
 16 C       -7.1560     0.6000    -1.6090 C.3   1 <1>   0.3430 
 17 C       -6.1980     2.5480    -0.5000 C.3   1 <1>   0.4810 
 18 C       -5.9490    -1.6350    -1.6510 C.3   1 <1>  -0.1600 
 19 C       -5.5030    -1.5730     0.8640 C.3   1 <1>   0.1200 
 20 O       -0.7900     6.4440     0.5720 O.3   1 <1>  -0.3630 
 21 C       -7.3080    -0.9220    -1.5910 C.3   1 <1>  -0.1600 
 22 C       -7.4970     3.0180     0.1090 C.2   1 <1>  -0.2880 
 23 O       -5.5410    -2.9510     0.9860 O.3   1 <1>  -0.6800 
 24 C       -0.4250     7.4060    -0.3910 C.3   1 <1>   0.1200 
 25 C       -7.6380     3.4770     1.3570 C.2   1 <1>  -0.3000 
 26 C       -0.3560     8.7690     0.2970 C.3   1 <1>  -0.1600 
 27 C        0.0380     9.8740    -0.6890 C.3   1 <1>  -0.2400 
 28 H       -4.1000     0.7670     1.3690 H     1 <1>   0.0800 
 29 H       -3.7030     2.0070     0.2120 H     1 <1>   0.0800 
 30 H       -1.5470    -1.5940    -0.1370 H     1 <1>   0.0800 
 31 H       -2.7030    -1.5190     1.1540 H     1 <1>   0.0800 
 32 H       -1.5270     2.2530     1.9010 H     1 <1>   0.1500 
 33 H       -0.7880     2.8730    -2.2420 H     1 <1>   0.1500 
 34 H       -4.5040     0.6290    -1.6250 H     1 <1>   0.0800 
 35 H       -3.2660    -1.5220    -1.8130 H     1 <1>   0.0800 
 36 H       -3.6070    -2.8150    -0.7200 H     1 <1>   0.0800 
 37 H       -1.2690     4.6670     2.3030 H     1 <1>   0.1500 
 38 H       -0.5240     5.2620    -1.8520 H     1 <1>   0.1500 
 39 H       -6.6610     0.7910     0.3770 H     1 <1>   0.4500 
 40 H       -8.1290     1.0500    -1.4940 H     1 <1>   0.0800 
 41 H       -6.7590     0.9010    -2.5650 H     1 <1>   0.0800 
 42 H       -5.3940     2.8970     0.1250 H     1 <1>   0.0800 
 43 H       -6.0630     2.9510    -1.4920 H     1 <1>   0.0800 
 44 H       -5.5070    -1.4420    -2.6150 H     1 <1>   0.0800 
 45 H       -6.0920    -2.7000    -1.5860 H     1 <1>   0.0800 
 46 H       -6.4920    -1.2040     1.0650 H     1 <1>   0.0800 
 47 H       -4.8540    -1.2210     1.6460 H     1 <1>   0.0800 
 48 H       -7.8600    -1.2200    -0.7170 H     1 <1>   0.0800 
 49 H       -7.8950    -1.2180    -2.4440 H     1 <1>   0.0800 
 50 H       -8.3320     2.9630    -0.5700 H     1 <1>   0.1500 
 51 H       -6.1830    -3.3590     0.3720 H     1 <1>   0.4000 
 52 H        0.5360     7.1350    -0.7950 H     1 <1>   0.0800 
 53 H       -1.1690     7.4110    -1.1680 H     1 <1>   0.0800 
 54 H       -8.5770     3.8150     1.7670 H     1 <1>   0.1500 
 55 H       -6.8450     3.5680     2.0810 H     1 <1>   0.1500 
 56 H       -1.3170     8.9990     0.7230 H     1 <1>   0.0800 
 57 H        0.3710     8.7270     1.0910 H     1 <1>   0.0800 
 58 H       -0.6850     9.9470    -1.4830 H     1 <1>   0.0800 
 59 H        1.0050     9.6730    -1.1150 H     1 <1>   0.0800 
 60 H        0.0800    10.8210    -0.1800 H     1 <1>   0.0800 
@<TRIPOS>BOND
  1   1   2  2   
  2   2   3  am  
  3   2   4  1   
  4   3   5  1   
  5   3   6  1   
  6   4   7  ar  
  7   4   8  ar  
  8   5   9  1   
  9   5  28  1   
 10   5  29  1   
 11   6  10  1   
 12   6  30  1   
 13   6  31  1   
 14   7  11  ar  
 15   7  32  1   
 16   8  12  ar  
 17   8  33  1   
 18   9  13  1   
 19   9  14  1   
 20   9  34  1   
 21  10  14  1   
 22  10  35  1   
 23  10  36  1   
 24  11  15  ar  
 25  11  37  1   
 26  12  15  ar  
 27  12  38  1   
 28  13  16  1   
 29  13  17  1   
 30  13  39  1   
 31  14  18  1   
 32  14  19  1   
 33  15  20  1   
 34  16  21  1   
 35  16  40  1   
 36  16  41  1   
 37  17  22  1   
 38  17  42  1   
 39  17  43  1   
 40  18  21  1   
 41  18  44  1   
 42  18  45  1   
 43  19  23  1   
 44  19  46  1   
 45  19  47  1   
 46  20  24  1   
 47  21  48  1   
 48  21  49  1   
 49  22  25  2   
 50  22  50  1   
 51  23  51  1   
 52  24  26  1   
 53  24  52  1   
 54  24  53  1   
 55  25  54  1   
 56  25  55  1   
 57  26  27  1   
 58  26  56  1   
 59  26  57  1   
 60  27  58  1   
 61  27  59  1   
 62  27  60  1   
@<TRIPOS>SUBSTRUCTURE
  1 ****   5 GROUP 4 **** **** 0

# MOE 2024.06 (io_trps.svl 2023.06)
