@<TRIPOS>MOLECULE
NONAME
47 49 1 0 0 
SMALL
USER_CHARGES


@<TRIPOS>ATOM
  1 O       -0.1040     1.4080     0.4960 O.2   1 <1>  -0.5700 
  2 C        0.6290     0.4470     0.5040 C.2   1 <1>   0.5690 
  3 N        1.6740     0.3780     1.3690 N.am  1 <1>  -0.7300 
  4 C        0.3650    -0.6730    -0.4980 C.3   1 <1>   0.2370 
  5 C        1.9630     1.3220     2.4710 C.3   1 <1>   0.3200 
  6 N        0.6170    -1.9930     0.1370 N.pl3 1 <1>   0.3140 
  7 C        1.1860    -0.4930    -1.7950 C.3   1 <1>  -0.1600 
  8 C        3.3250     1.9640     2.2790 C.2   1 <1>   0.0060 
  9 N        1.8470    -2.4100     0.5230 N.2   1 <1>  -0.7070 
 10 C       -0.3120    -2.9360     0.4030 C.2   1 <1>  -0.3020 
 11 C        0.8530    -1.5330    -2.8750 C.3   1 <1>  -0.2400 
 12 N        4.3440     1.7220     3.0320 N.2   1 <1>  -0.3380 
 13 N        3.6210     2.8510     1.3210 N.pl3 1 <1>   0.0480 
 14 C        1.6610    -3.5970     1.0150 C.2   1 <1>   0.1390 
 15 C        0.3280    -3.9810     0.9680 C.2   1 <1>  -0.1500 
 16 N        5.3570     2.4550     2.5710 N.2   1 <1>  -0.3380 
 17 C        4.9080     3.1120     1.5580 C.2   1 <1>   0.0360 
 18 C        2.7550     3.4040     0.2490 C.3   1 <1>   0.1760 
 19 C        3.1600     2.8220    -1.1140 C.3   1 <1>  -0.1600 
 20 C        2.8040     4.9420     0.2300 C.3   1 <1>  -0.1600 
 21 C        2.2630     3.3760    -2.2300 C.3   1 <1>  -0.1600 
 22 C        1.9120     5.5010    -0.8880 C.3   1 <1>  -0.1600 
 23 C        2.2950     4.9100    -2.2530 C.3   1 <1>  -0.1600 
 24 H        2.2490    -0.4810     1.3630 H     1 <1>   0.3700 
 25 H       -0.6770    -0.6320    -0.7510 H     1 <1>   0.0800 
 26 H        1.9550     0.7830     3.4020 H     1 <1>   0.0800 
 27 H        1.2050     2.0840     2.5210 H     1 <1>   0.0800 
 28 H        2.2370    -0.5410    -1.5610 H     1 <1>   0.0800 
 29 H        0.9860     0.4870    -2.1910 H     1 <1>   0.0800 
 30 H       -1.3570    -2.8170     0.1790 H     1 <1>   0.1500 
 31 H        1.1040    -2.5250    -2.5380 H     1 <1>   0.0800 
 32 H        1.4210    -1.3300    -3.7660 H     1 <1>   0.0800 
 33 H       -0.1930    -1.5040    -3.1240 H     1 <1>   0.0800 
 34 H        2.4570    -4.2060     1.4110 H     1 <1>   0.1500 
 35 H       -0.0750    -4.9170     1.3140 H     1 <1>   0.1500 
 36 H        5.4910     3.7920     0.9650 H     1 <1>   0.1500 
 37 H        1.7420     3.1140     0.4530 H     1 <1>   0.0800 
 38 H        3.0750     1.7500    -1.0850 H     1 <1>   0.0800 
 39 H        4.1840     3.0750    -1.3280 H     1 <1>   0.0800 
 40 H        3.8130     5.2770     0.0670 H     1 <1>   0.0800 
 41 H        2.4650     5.3250     1.1770 H     1 <1>   0.0800 
 42 H        1.2490     3.0450    -2.0720 H     1 <1>   0.0800 
 43 H        2.5900     2.9930    -3.1810 H     1 <1>   0.0800 
 44 H        2.0030     6.5730    -0.9220 H     1 <1>   0.0800 
 45 H        0.8820     5.2650    -0.6760 H     1 <1>   0.0800 
 46 H        1.6130     5.2720    -3.0040 H     1 <1>   0.0800 
 47 H        3.2830     5.2420    -2.5210 H     1 <1>   0.0800 
@<TRIPOS>BOND
  1   1   2  2   
  2   2   3  am  
  3   2   4  1   
  4   3   5  1   
  5   3  24  1   
  6   4   6  1   
  7   4   7  1   
  8   4  25  1   
  9   5   8  1   
 10   5  26  1   
 11   5  27  1   
 12   6   9  1   
 13   6  10  1   
 14   7  11  1   
 15   7  28  1   
 16   7  29  1   
 17   8  12  2   
 18   8  13  1   
 19   9  14  2   
 20  10  15  2   
 21  10  30  1   
 22  11  31  1   
 23  11  32  1   
 24  11  33  1   
 25  12  16  1   
 26  13  17  1   
 27  13  18  1   
 28  14  15  1   
 29  14  34  1   
 30  15  35  1   
 31  16  17  2   
 32  17  36  1   
 33  18  19  1   
 34  18  20  1   
 35  18  37  1   
 36  19  21  1   
 37  19  38  1   
 38  19  39  1   
 39  20  22  1   
 40  20  40  1   
 41  20  41  1   
 42  21  23  1   
 43  21  42  1   
 44  21  43  1   
 45  22  23  1   
 46  22  44  1   
 47  22  45  1   
 48  23  46  1   
 49  23  47  1   
@<TRIPOS>SUBSTRUCTURE
  1 ****   3 GROUP 4 **** **** 0

# MOE 2024.06 (io_trps.svl 2023.06)
