@<TRIPOS>MOLECULE
NONAME
39 40 1 0 0 
SMALL
USER_CHARGES


@<TRIPOS>ATOM
  1 O       -0.3840     0.2140     1.3540 O.2   1 <1>  -0.5700 
  2 C       -1.2540     0.7520     0.6920 C.2   1 <1>   0.5440 
  3 N       -2.2160    -0.0310     0.0960 N.am  1 <1>  -0.6600 
  4 C       -1.2480     2.1940     0.5500 C.ar  1 <1>   0.0860 
  5 C       -2.4560    -1.4450     0.5430 C.3   1 <1>   0.1400 
  6 C       -3.1090     0.4260    -1.0050 C.3   1 <1>   0.1400 
  7 C       -2.3660     2.9620     0.8790 C.ar  1 <1>  -0.1500 
  8 C       -0.1200     2.8670     0.0830 C.ar  1 <1>  -0.1500 
  9 C       -3.9260    -1.8940     0.3770 C.3   1 <1>   0.2000 
 10 C       -4.5790     0.4000    -0.5550 C.3   1 <1>  -0.1600 
 11 C       -2.3640     4.3350     0.7250 C.ar  1 <1>  -0.1500 
 12 C       -0.1080     4.2410    -0.0720 C.ar  1 <1>  -0.1500 
 13 O       -4.1050    -2.4790    -0.8670 O.3   1 <1>  -0.6800 
 14 C       -4.8910    -0.7050     0.4880 C.3   1 <1>  -0.1860 
 15 C       -1.2390     4.9870     0.2460 C.ar  1 <1>   0.0820 
 16 C       -6.3290    -1.1770     0.4160 C.2   1 <1>   0.9060 
 17 O       -1.3180     6.3300     0.1200 O.3   1 <1>  -0.3630 
 18 O       -7.1140    -0.8230     1.2980 O.co2 1 <1>  -0.9000 
 19 O       -6.6630    -1.9110    -0.5250 O.co2 1 <1>  -0.9000 
 20 C       -0.2270     7.1000    -0.3270 C.3   1 <1>   0.1200 
 21 C       -0.6540     8.5650    -0.3360 C.3   1 <1>  -0.2400 
 22 H       -1.8080    -2.1120     0.0040 H     1 <1>   0.0800 
 23 H       -2.2060    -1.5120     1.5870 H     1 <1>   0.0800 
 24 H       -2.8400     1.4080    -1.3510 H     1 <1>   0.0800 
 25 H       -2.9880    -0.2540    -1.8320 H     1 <1>   0.0800 
 26 H       -3.2420     2.4660     1.2600 H     1 <1>   0.1500 
 27 H        0.7560     2.2880    -0.1580 H     1 <1>   0.1500 
 28 H       -4.1690    -2.6420     1.1120 H     1 <1>   0.0800 
 29 H       -4.8600     1.3540    -0.1510 H     1 <1>   0.0800 
 30 H       -5.1850     0.2400    -1.4310 H     1 <1>   0.0800 
 31 H       -3.2350     4.9130     0.9780 H     1 <1>   0.1500 
 32 H        0.7850     4.7110    -0.4380 H     1 <1>   0.1500 
 33 H       -5.0960    -2.4700    -1.0200 H     1 <1>   0.4000 
 34 H       -4.7550    -0.2820     1.4650 H     1 <1>   0.0800 
 35 H        0.5970     6.9480     0.3490 H     1 <1>   0.0800 
 36 H        0.0370     6.7740    -1.3180 H     1 <1>   0.0800 
 37 H       -0.9310     8.8750     0.6550 H     1 <1>   0.0800 
 38 H       -1.4880     8.7020    -1.0010 H     1 <1>   0.0800 
 39 H        0.1600     9.1800    -0.6750 H     1 <1>   0.0800 
@<TRIPOS>BOND
  1   1   2  2   
  2   2   3  am  
  3   2   4  1   
  4   3   5  1   
  5   3   6  1   
  6   4   7  ar  
  7   4   8  ar  
  8   5   9  1   
  9   5  22  1   
 10   5  23  1   
 11   6  10  1   
 12   6  24  1   
 13   6  25  1   
 14   7  11  ar  
 15   7  26  1   
 16   8  12  ar  
 17   8  27  1   
 18   9  13  1   
 19   9  14  1   
 20   9  28  1   
 21  10  14  1   
 22  10  29  1   
 23  10  30  1   
 24  11  15  ar  
 25  11  31  1   
 26  12  15  ar  
 27  12  32  1   
 28  13  33  1   
 29  14  16  1   
 30  14  34  1   
 31  15  17  1   
 32  16  18  ar  
 33  16  19  ar  
 34  17  20  1   
 35  20  21  1   
 36  20  35  1   
 37  20  36  1   
 38  21  37  1   
 39  21  38  1   
 40  21  39  1   
@<TRIPOS>SUBSTRUCTURE
  1 ****   7 GROUP 4 **** **** 0

# MOE 2024.06 (io_trps.svl 2023.06)
