@<TRIPOS>MOLECULE
NONAME
48 50 1 0 0 
SMALL
USER_CHARGES


@<TRIPOS>ATOM
  1 CL      -0.6070    -2.1680     2.5160 Cl    1 <1>  -0.1770 
  2 C       -1.3630    -3.3460     1.4760 C.ar  1 <1>   0.1770 
  3 C       -2.3560    -4.1640     1.9790 C.ar  1 <1>  -0.1500 
  4 C       -0.9610    -3.4490     0.1590 C.ar  1 <1>  -0.1500 
  5 C       -2.9520    -5.0960     1.1490 C.ar  1 <1>  -0.1500 
  6 C       -1.5650    -4.3860    -0.6610 C.ar  1 <1>  -0.1500 
  7 C       -2.5730    -5.2340    -0.1900 C.ar  1 <1>   0.0530 
  8 C       -3.1810    -6.2060    -1.0710 C.2   1 <1>   0.0870 
  9 O       -3.1080    -6.0410    -2.3740 O.3   1 <1>  -0.0190 
 10 C       -3.8750    -7.3570    -0.8730 C.2   1 <1>  -0.2330 
 11 N       -3.6950    -6.9970    -3.0480 N.2   1 <1>  -0.4100 
 12 C       -4.1390    -7.8060    -2.1600 C.2   1 <1>   0.3720 
 13 C       -4.3920    -8.0600     0.2480 C.2   1 <1>   1.0330 
 14 N       -4.8280    -8.9810    -2.4290 N.pl3 1 <1>  -0.8520 
 15 O       -5.2070    -7.5290     1.0160 O.co2 1 <1>  -0.9000 
 16 O       -4.3220    -9.3040     0.3000 O.co2 1 <1>  -0.9000 
 17 C       -6.2780    -8.7840    -2.6940 C.3   1 <1>   0.2090 
 18 C       -7.1220    -8.5760    -1.4110 C.3   1 <1>   0.3430 
 19 N       -6.9510    -9.6360    -0.3610 N.4   1 <1>  -0.9590 
 20 C       -7.1070   -11.0440    -0.8240 C.3   1 <1>   0.3430 
 21 C       -7.6900    -9.3020     0.8780 C.3   1 <1>   0.3430 
 22 C       -7.2650   -12.0400     0.3400 C.3   1 <1>  -0.0800 
 23 C       -7.1600   -10.1510     2.0390 C.3   1 <1>  -0.1600 
 24 C       -6.5940   -11.5220     1.6270 C.3   1 <1>  -0.1600 
 25 C       -6.7080   -13.4020    -0.0950 C.3   1 <1>   0.1200 
 26 O       -7.0250   -14.3530     0.8560 O.3   1 <1>  -0.6800 
 27 H       -2.6580    -4.0710     3.0060 H     1 <1>   0.1500 
 28 H       -0.1870    -2.8030    -0.2150 H     1 <1>   0.1500 
 29 H       -3.7270    -5.7190     1.5530 H     1 <1>   0.1500 
 30 H       -1.2460    -4.4650    -1.6860 H     1 <1>   0.1500 
 31 H       -4.6760    -9.5850    -1.6000 H     1 <1>   0.4000 
 32 H       -6.6490    -9.6340    -3.2390 H     1 <1>   0.0800 
 33 H       -6.3990    -7.9240    -3.3310 H     1 <1>   0.0800 
 34 H       -8.1590    -8.5150    -1.6900 H     1 <1>   0.0800 
 35 H       -6.8450    -7.6240    -0.9850 H     1 <1>   0.0800 
 36 H       -5.9570    -9.5530    -0.0220 H     1 <1>   0.4500 
 37 H       -6.2300   -11.3080    -1.3940 H     1 <1>   0.0800 
 38 H       -7.9630   -11.1260    -1.4710 H     1 <1>   0.0800 
 39 H       -8.7410    -9.4900     0.7350 H     1 <1>   0.0800 
 40 H       -7.5500    -8.2590     1.1200 H     1 <1>   0.0800 
 41 H       -8.3200   -12.1610     0.5190 H     1 <1>   0.0800 
 42 H       -7.9570   -10.2810     2.7490 H     1 <1>   0.0800 
 43 H       -6.3830    -9.5930     2.5370 H     1 <1>   0.0800 
 44 H       -5.5350   -11.4190     1.4530 H     1 <1>   0.0800 
 45 H       -6.7250   -12.2160     2.4400 H     1 <1>   0.0800 
 46 H       -5.6360   -13.3750    -0.2050 H     1 <1>   0.0800 
 47 H       -7.1520   -13.7200    -1.0240 H     1 <1>   0.0800 
 48 H       -6.5380   -14.1880     1.6880 H     1 <1>   0.4000 
@<TRIPOS>BOND
  1   1   2  1   
  2   2   3  ar  
  3   2   4  ar  
  4   3   5  ar  
  5   3  27  1   
  6   4   6  ar  
  7   4  28  1   
  8   5   7  ar  
  9   5  29  1   
 10   6   7  ar  
 11   6  30  1   
 12   7   8  1   
 13   8   9  1   
 14   8  10  2   
 15   9  11  1   
 16  10  12  1   
 17  10  13  1   
 18  11  12  2   
 19  12  14  1   
 20  13  15  ar  
 21  13  16  ar  
 22  14  17  1   
 23  14  31  1   
 24  17  18  1   
 25  17  32  1   
 26  17  33  1   
 27  18  19  1   
 28  18  34  1   
 29  18  35  1   
 30  19  20  1   
 31  19  21  1   
 32  19  36  1   
 33  20  22  1   
 34  20  37  1   
 35  20  38  1   
 36  21  23  1   
 37  21  39  1   
 38  21  40  1   
 39  22  24  1   
 40  22  25  1   
 41  22  41  1   
 42  23  24  1   
 43  23  42  1   
 44  23  43  1   
 45  24  44  1   
 46  24  45  1   
 47  25  26  1   
 48  25  46  1   
 49  25  47  1   
 50  26  48  1   
@<TRIPOS>SUBSTRUCTURE
  1 ****  13 GROUP 4 **** **** 0

# MOE 2024.06 (io_trps.svl 2023.06)
