@<TRIPOS>MOLECULE
NONAME
47 50 1 0 0 
SMALL
USER_CHARGES


@<TRIPOS>ATOM
  1 O        3.3930    -1.5040     2.3390 O.2   1 <1>  -0.5700 
  2 C        3.0610    -1.3670     1.1770 C.2   1 <1>   0.5440 
  3 N        3.2120    -0.1230     0.5940 N.am  1 <1>  -0.6600 
  4 C        2.5340    -2.4910     0.4350 C.ar  1 <1>   0.0860 
  5 C        3.6780     1.0290     1.4560 C.3   1 <1>   0.2200 
  6 C        3.2490     0.0090    -0.9020 C.3   1 <1>   0.1400 
  7 C        1.1530    -2.6820     0.3270 C.ar  1 <1>  -0.1500 
  8 C        3.3850    -3.4000    -0.2050 C.ar  1 <1>  -0.1500 
  9 C        3.0520     2.3770     1.0630 C.3   1 <1>   0.1200 
 10 C        5.2220     1.0920     1.4970 C.3   1 <1>   0.3430 
 11 C        4.1420     1.1440    -1.4450 C.3   1 <1>  -0.0800 
 12 C        0.6620    -3.7430    -0.4070 C.ar  1 <1>  -0.1440 
 13 C        2.8860    -4.4610    -0.9420 C.ar  1 <1>  -0.1500 
 14 O        3.7760     3.0030     0.0480 O.3   1 <1>  -0.5600 
 15 N        5.8270     0.4270     0.3060 N.4   1 <1>  -0.9590 
 16 C        3.5320     2.5360    -1.2350 C.3   1 <1>   0.1200 
 17 C        5.6210     1.0850    -1.0130 C.3   1 <1>   0.3430 
 18 C        1.5150    -4.6130    -1.0310 C.ar  1 <1>   0.0830 
 19 C       -0.7470    -4.1770    -0.6820 C.3   1 <1>  -0.0170 
 20 C        7.2370    -0.1010     0.4620 C.3   1 <1>   0.2370 
 21 O        0.8770    -5.5810    -1.7000 O.3   1 <1>  -0.3630 
 22 C       -0.5270    -5.4280    -1.5520 C.3   1 <1>   0.1200 
 23 C        7.4700    -1.3130    -0.4490 C.2   1 <1>   0.9060 
 24 O        8.6160    -1.6320    -0.7580 O.co2 1 <1>  -0.9000 
 25 O        6.4510    -1.8760    -0.8860 O.co2 1 <1>  -0.9000 
 26 H        3.3410     0.8530     2.4630 H     1 <1>   0.0800 
 27 H        3.6120    -0.9130    -1.3250 H     1 <1>   0.0800 
 28 H        2.2410     0.1470    -1.2570 H     1 <1>   0.0800 
 29 H        0.4830    -2.0020     0.8200 H     1 <1>   0.1500 
 30 H        4.4530    -3.2690    -0.1280 H     1 <1>   0.1500 
 31 H        3.0880     3.0370     1.9120 H     1 <1>   0.0800 
 32 H        2.0220     2.2630     0.7710 H     1 <1>   0.0800 
 33 H        5.5470     0.5770     2.3850 H     1 <1>   0.0800 
 34 H        5.5500     2.1160     1.5640 H     1 <1>   0.0800 
 35 H        4.1500     1.0110    -2.5110 H     1 <1>   0.0800 
 36 H        3.5410    -5.1550    -1.4370 H     1 <1>   0.1500 
 37 H        5.3000    -0.4670     0.1960 H     1 <1>   0.4500 
 38 H        2.4700     2.5400    -1.4190 H     1 <1>   0.0800 
 39 H        3.9910     3.2370    -1.9110 H     1 <1>   0.0800 
 40 H        6.0380     2.0780    -0.9970 H     1 <1>   0.0800 
 41 H        6.1540     0.5130    -1.7570 H     1 <1>   0.0800 
 42 H       -1.2920    -3.4240    -1.2200 H     1 <1>   0.0800 
 43 H       -1.2640    -4.4270     0.2280 H     1 <1>   0.0800 
 44 H        7.9590     0.6560     0.2190 H     1 <1>   0.0800 
 45 H        7.3990    -0.4300     1.4710 H     1 <1>   0.0800 
 46 H       -0.9560    -5.3120    -2.5320 H     1 <1>   0.0800 
 47 H       -0.9110    -6.3140    -1.0780 H     1 <1>   0.0800 
@<TRIPOS>BOND
  1   1   2  2   
  2   2   3  am  
  3   2   4  1   
  4   3   5  1   
  5   3   6  1   
  6   4   7  ar  
  7   4   8  ar  
  8   5   9  1   
  9   5  10  1   
 10   5  26  1   
 11   6  11  1   
 12   6  27  1   
 13   6  28  1   
 14   7  12  ar  
 15   7  29  1   
 16   8  13  ar  
 17   8  30  1   
 18   9  14  1   
 19   9  31  1   
 20   9  32  1   
 21  10  15  1   
 22  10  33  1   
 23  10  34  1   
 24  11  16  1   
 25  11  17  1   
 26  11  35  1   
 27  12  18  ar  
 28  12  19  1   
 29  13  18  ar  
 30  13  36  1   
 31  14  16  1   
 32  15  17  1   
 33  15  20  1   
 34  15  37  1   
 35  16  38  1   
 36  16  39  1   
 37  17  40  1   
 38  17  41  1   
 39  18  21  1   
 40  19  22  1   
 41  19  42  1   
 42  19  43  1   
 43  20  23  1   
 44  20  44  1   
 45  20  45  1   
 46  21  22  1   
 47  22  46  1   
 48  22  47  1   
 49  23  24  ar  
 50  23  25  ar  
@<TRIPOS>SUBSTRUCTURE
  1 ****   3 GROUP 4 **** **** 0

# MOE 2024.06 (io_trps.svl 2023.06)
