@<TRIPOS>MOLECULE
NONAME
53 56 1 0 0 
SMALL
USER_CHARGES


@<TRIPOS>ATOM
  1 O        0.2030     3.8290    -1.8670 O.2   1 <1>  -0.5700 
  2 C        0.1110     3.3710    -0.7510 C.2   1 <1>   0.5690 
  3 N       -1.1120     2.9980    -0.2390 N.am  1 <1>  -0.6600 
  4 C        1.4100     3.2600     0.0370 C.3   1 <1>   0.1570 
  5 C       -2.3370     3.0070    -1.0980 C.3   1 <1>   0.1400 
  6 C       -1.3320     2.3660     1.1000 C.3   1 <1>   0.1400 
  7 N        1.6850     1.8940     0.5540 N.pl3 1 <1>   0.0480 
  8 C       -3.5590     3.5420    -0.3350 C.3   1 <1>   0.1100 
  9 C       -2.5990     2.9070     1.7860 C.3   1 <1>   0.1100 
 10 C        1.6410     0.7150    -0.1400 C.2   1 <1>  -0.3320 
 11 C        2.0460     1.5840     1.8370 C.2   1 <1>  -0.3320 
 12 N       -3.7900     2.7920     0.9220 N.3   1 <1>  -0.8100 
 13 C        1.9480    -0.3110     0.6940 C.2   1 <1>  -0.1500 
 14 C        1.3100     0.5950    -1.6190 C.3   1 <1>  -0.0600 
 15 C        2.2050     0.2400     1.9500 C.2   1 <1>  -0.1500 
 16 C        2.2540     2.6020     2.9480 C.3   1 <1>  -0.0600 
 17 C       -5.0010     3.3040     1.6260 C.3   1 <1>   0.1710 
 18 C       -6.3070     2.8670     0.9620 C.2   1 <1>   0.4390 
 19 N       -7.3630     3.5850     1.0580 N.2   1 <1>  -0.6610 
 20 N       -6.2620     1.6910     0.2840 N.pl3 1 <1>  -0.5500 
 21 C       -8.5100     3.1380     0.4470 C.2   1 <1>   0.6950 
 22 C       -7.3600     1.1610    -0.3620 C.ar  1 <1>   0.1000 
 23 O       -9.5050     3.8330     0.5470 O.2   1 <1>  -0.5700 
 24 C       -8.5430     1.8970    -0.2900 C.ar  1 <1>   0.0860 
 25 C       -7.3120    -0.0430    -1.0580 C.ar  1 <1>  -0.1500 
 26 C       -9.6770     1.3880    -0.9330 C.ar  1 <1>  -0.1500 
 27 C       -8.4410    -0.5250    -1.6850 C.ar  1 <1>  -0.1500 
 28 C       -9.6280     0.1940    -1.6220 C.ar  1 <1>  -0.1500 
 29 H        1.3690     3.9530     0.8520 H     1 <1>   0.0800 
 30 H        2.2270     3.5400    -0.6010 H     1 <1>   0.0800 
 31 H       -2.5380     2.0040    -1.4280 H     1 <1>   0.0800 
 32 H       -2.1800     3.6160    -1.9710 H     1 <1>   0.0800 
 33 H       -0.5000     2.5520     1.7510 H     1 <1>   0.0800 
 34 H       -1.4220     1.3010     0.9750 H     1 <1>   0.0800 
 35 H       -4.4230     3.4620    -0.9720 H     1 <1>   0.0800 
 36 H       -3.4050     4.5860    -0.1190 H     1 <1>   0.0800 
 37 H       -2.4390     3.9380     2.0540 H     1 <1>   0.0800 
 38 H       -2.7610     2.3490     2.6930 H     1 <1>   0.0800 
 39 H        2.0010    -1.3600     0.4610 H     1 <1>   0.1500 
 40 H        1.9200     1.2680    -2.1950 H     1 <1>   0.0800 
 41 H        0.2740     0.8230    -1.7920 H     1 <1>   0.0800 
 42 H        1.4960    -0.4070    -1.9580 H     1 <1>   0.0800 
 43 H        2.4860    -0.3250     2.8210 H     1 <1>   0.1500 
 44 H        3.0210     3.3010     2.6700 H     1 <1>   0.0800 
 45 H        2.5620     2.1030     3.8490 H     1 <1>   0.0800 
 46 H        1.3430     3.1350     3.1500 H     1 <1>   0.0800 
 47 H       -4.9730     4.3790     1.6860 H     1 <1>   0.0800 
 48 H       -5.0160     2.9190     2.6300 H     1 <1>   0.0800 
 49 H       -5.3320     1.2570     0.2360 H     1 <1>   0.4000 
 50 H       -6.3910    -0.5970    -1.1020 H     1 <1>   0.1500 
 51 H      -10.5970     1.9480    -0.8830 H     1 <1>   0.1500 
 52 H       -8.4100    -1.4570    -2.2240 H     1 <1>   0.1500 
 53 H      -10.5090    -0.1850    -2.1130 H     1 <1>   0.1500 
@<TRIPOS>BOND
  1   1   2  2   
  2   2   3  am  
  3   2   4  1   
  4   3   5  1   
  5   3   6  1   
  6   4   7  1   
  7   4  29  1   
  8   4  30  1   
  9   5   8  1   
 10   5  31  1   
 11   5  32  1   
 12   6   9  1   
 13   6  33  1   
 14   6  34  1   
 15   7  10  1   
 16   7  11  1   
 17   8  12  1   
 18   8  35  1   
 19   8  36  1   
 20   9  12  1   
 21   9  37  1   
 22   9  38  1   
 23  10  13  2   
 24  10  14  1   
 25  11  15  2   
 26  11  16  1   
 27  12  17  1   
 28  13  15  1   
 29  13  39  1   
 30  14  40  1   
 31  14  41  1   
 32  14  42  1   
 33  15  43  1   
 34  16  44  1   
 35  16  45  1   
 36  16  46  1   
 37  17  18  1   
 38  17  47  1   
 39  17  48  1   
 40  18  19  2   
 41  18  20  1   
 42  19  21  1   
 43  20  22  1   
 44  20  49  1   
 45  21  23  2   
 46  21  24  1   
 47  22  24  ar  
 48  22  25  ar  
 49  24  26  ar  
 50  25  27  ar  
 51  25  50  1   
 52  26  28  ar  
 53  26  51  1   
 54  27  28  ar  
 55  27  52  1   
 56  28  53  1   
@<TRIPOS>SUBSTRUCTURE
  1 ****  12 GROUP 4 **** **** 0

# MOE 2024.06 (io_trps.svl 2023.06)
