@<TRIPOS>MOLECULE
NONAME
43 45 1 0 0 
SMALL
USER_CHARGES


@<TRIPOS>ATOM
  1 O        6.1140    -0.7640    -0.0860 O.co2 1 <1>  -0.9000 
  2 C        5.0370    -0.7460     0.5180 C.2   1 <1>   0.9060 
  3 O        4.9450    -1.0880     1.6970 O.co2 1 <1>  -0.9000 
  4 C        3.8130    -0.1040    -0.1280 C.3   1 <1>  -0.1860 
  5 C        3.3720     1.1950     0.6000 C.3   1 <1>   0.2000 
  6 C        4.0410     0.2080    -1.6300 C.3   1 <1>  -0.1600 
  7 O        3.8300     1.2210     1.9070 O.3   1 <1>  -0.6800 
  8 C        3.8600     2.4850    -0.1040 C.3   1 <1>   0.3430 
  9 C        5.1700     1.2340    -1.8480 C.3   1 <1>   0.3430 
 10 N        5.1740     2.3110    -0.8080 N.4   1 <1>  -0.9590 
 11 C        6.2780     2.0840     0.1860 C.3   1 <1>   0.4860 
 12 C        6.6810     3.4260     0.7920 C.ar  1 <1>   0.1670 
 13 N        6.5820     4.4850     0.0380 N.ar  1 <1>  -0.6200 
 14 C        7.1190     3.4600     2.1230 C.ar  1 <1>  -0.1500 
 15 C        6.9220     5.6960     0.5670 C.ar  1 <1>   0.3100 
 16 C        7.4740     4.6490     2.6810 C.ar  1 <1>  -0.1500 
 17 C        6.8130     6.8760    -0.2180 C.ar  1 <1>   0.0820 
 18 C        7.3830     5.8140     1.8990 C.ar  1 <1>   0.0000 
 19 O        6.3520     6.7440    -1.4940 O.3   1 <1>  -0.3620 
 20 C        7.1620     8.1010     0.3120 C.ar  1 <1>  -0.1500 
 21 C        7.7310     7.0810     2.4020 C.ar  1 <1>  -0.1500 
 22 C        6.2600     7.8370    -2.3820 C.3   1 <1>   0.0400 
 23 C        7.6240     8.2010     1.6260 C.ar  1 <1>  -0.1500 
 24 H        3.0190    -0.8220    -0.0450 H     1 <1>   0.0800 
 25 H        2.2980     1.2260     0.6570 H     1 <1>   0.0800 
 26 H        3.1320     0.5750    -2.0720 H     1 <1>   0.0800 
 27 H        4.3030    -0.6990    -2.1470 H     1 <1>   0.0800 
 28 H        4.2110     0.3100     2.1220 H     1 <1>   0.4000 
 29 H        3.9240     3.2800     0.6210 H     1 <1>   0.0800 
 30 H        3.1220     2.7640    -0.8360 H     1 <1>   0.0800 
 31 H        5.0640     1.6710    -2.8270 H     1 <1>   0.0800 
 32 H        6.1170     0.7150    -1.8230 H     1 <1>   0.0800 
 33 H        5.4500     3.2240    -1.2100 H     1 <1>   0.4500 
 34 H        5.9700     1.4100     0.9640 H     1 <1>   0.0800 
 35 H        7.1330     1.6510    -0.3060 H     1 <1>   0.0800 
 36 H        7.1650     2.5440     2.6880 H     1 <1>   0.1500 
 37 H        7.8160     4.7150     3.6990 H     1 <1>   0.1500 
 38 H        7.0920     9.0090    -0.2560 H     1 <1>   0.1500 
 39 H        8.0850     7.1550     3.4160 H     1 <1>   0.1500 
 40 H        5.8980     7.4710    -3.3260 H     1 <1>   0.0800 
 41 H        7.2370     8.2670    -2.5090 H     1 <1>   0.0800 
 42 H        5.5690     8.5560    -1.9800 H     1 <1>   0.0800 
 43 H        7.8910     9.1680     2.0160 H     1 <1>   0.1500 
@<TRIPOS>BOND
  1   1   2  ar  
  2   2   3  ar  
  3   2   4  1   
  4   4   5  1   
  5   4   6  1   
  6   4  24  1   
  7   5   7  1   
  8   5   8  1   
  9   5  25  1   
 10   6   9  1   
 11   6  26  1   
 12   6  27  1   
 13   7  28  1   
 14   8  10  1   
 15   8  29  1   
 16   8  30  1   
 17   9  10  1   
 18   9  31  1   
 19   9  32  1   
 20  10  11  1   
 21  10  33  1   
 22  11  12  1   
 23  11  34  1   
 24  11  35  1   
 25  12  13  ar  
 26  12  14  ar  
 27  13  15  ar  
 28  14  16  ar  
 29  14  36  1   
 30  15  17  ar  
 31  15  18  ar  
 32  16  18  ar  
 33  16  37  1   
 34  17  19  1   
 35  17  20  ar  
 36  18  21  ar  
 37  19  22  1   
 38  20  23  ar  
 39  20  38  1   
 40  21  23  ar  
 41  21  39  1   
 42  22  40  1   
 43  22  41  1   
 44  22  42  1   
 45  23  43  1   
@<TRIPOS>SUBSTRUCTURE
  1 ****  12 GROUP 4 **** **** 0

# MOE 2024.06 (io_trps.svl 2023.06)
