@<TRIPOS>MOLECULE
NONAME
61 64 1 0 0 
SMALL
USER_CHARGES


@<TRIPOS>ATOM
  1 O       -1.0860     1.2070     1.6390 O.2   1 <1>  -0.5700 
  2 C       -1.6860     1.2090     0.5800 C.2   1 <1>   0.7160 
  3 N       -2.5010     0.1420     0.2620 N.am  1 <1>  -0.6600 
  4 C       -1.5190     2.3140    -0.3090 C.2   1 <1>  -0.0860 
  5 C       -2.7770    -0.9460     1.2440 C.3   1 <1>   0.1400 
  6 C       -3.2400     0.0960    -1.0340 C.3   1 <1>   0.1400 
  7 C       -2.4970     3.2630    -0.6220 C.2   1 <1>   0.3720 
  8 C       -0.4420     2.7060    -1.0390 C.2   1 <1>   0.0870 
  9 C       -4.2650    -1.3000     1.2000 C.3   1 <1>  -0.1600 
 10 C       -3.8030    -1.3030    -1.3170 C.3   1 <1>  -0.1600 
 11 N       -2.0490     4.1220    -1.4690 N.2   1 <1>  -0.4100 
 12 N       -3.7990     3.2880    -0.1000 N.pl3 1 <1>  -0.8210 
 13 O       -0.8110     3.7740    -1.7020 O.3   1 <1>  -0.0190 
 14 C        0.8950     2.1810    -1.1940 C.ar  1 <1>   0.0530 
 15 C       -4.6990    -1.8740    -0.1790 C.3   1 <1>   0.0610 
 16 C       -3.8760     3.5350     1.3730 C.3   1 <1>   0.2090 
 17 C       -4.7730     4.1650    -0.8220 C.3   1 <1>   0.2090 
 18 C        1.2210     0.8630    -0.8670 C.ar  1 <1>  -0.1500 
 19 C        1.9230     2.9850    -1.6920 C.ar  1 <1>  -0.1500 
 20 C       -4.4940    -3.4160    -0.1370 C.2   1 <1>   0.5690 
 21 C       -6.2000    -1.5230    -0.4380 C.3   1 <1>  -0.1600 
 22 C       -5.3270     3.4180     1.8720 C.3   1 <1>   0.1200 
 23 C       -6.1860     4.0230    -0.2270 C.3   1 <1>   0.1200 
 24 C        2.5050     0.3750    -1.0250 C.ar  1 <1>  -0.1500 
 25 C        3.2090     2.5030    -1.8540 C.ar  1 <1>  -0.1500 
 26 O       -3.4060    -3.8550     0.1570 O.2   1 <1>  -0.5700 
 27 N       -5.5230    -4.2670    -0.4160 N.am  1 <1>  -0.7300 
 28 C       -6.5620    -0.0420    -0.6610 C.3   1 <1>  -0.2400 
 29 O       -6.1790     4.2670     1.1530 O.3   1 <1>  -0.5600 
 30 C        3.5030     1.1940    -1.5200 C.ar  1 <1>  -0.1500 
 31 C       -5.4430    -5.7500    -0.4040 C.3   1 <1>   0.0600 
 32 H       -2.5170    -0.6290     2.2400 H     1 <1>   0.0800 
 33 H       -2.1740    -1.8060     1.0020 H     1 <1>   0.0800 
 34 H       -2.5770     0.3760    -1.8350 H     1 <1>   0.0800 
 35 H       -4.0370     0.8150    -0.9990 H     1 <1>   0.0800 
 36 H       -4.8100    -0.4120     1.4530 H     1 <1>   0.0800 
 37 H       -4.4750    -2.0200     1.9710 H     1 <1>   0.0800 
 38 H       -2.9540    -1.9470    -1.4720 H     1 <1>   0.0800 
 39 H       -4.3440    -1.2920    -2.2460 H     1 <1>   0.0800 
 40 H       -3.5030     4.5210     1.5930 H     1 <1>   0.0800 
 41 H       -3.2690     2.8240     1.9030 H     1 <1>   0.0800 
 42 H       -4.7950     3.8930    -1.8630 H     1 <1>   0.0800 
 43 H       -4.4600     5.1930    -0.7510 H     1 <1>   0.0800 
 44 H        0.4690     0.2000    -0.4830 H     1 <1>   0.1500 
 45 H        1.7140     4.0070    -1.9540 H     1 <1>   0.1500 
 46 H       -6.7820    -1.8850     0.3940 H     1 <1>   0.0800 
 47 H       -6.5350    -2.0470    -1.3160 H     1 <1>   0.0800 
 48 H       -5.3850     3.6970     2.9090 H     1 <1>   0.0800 
 49 H       -5.6780     2.4060     1.7650 H     1 <1>   0.0800 
 50 H       -6.5680     3.0330    -0.4000 H     1 <1>   0.0800 
 51 H       -6.8510     4.7360    -0.6820 H     1 <1>   0.0800 
 52 H        2.7280    -0.6450    -0.7620 H     1 <1>   0.1500 
 53 H        3.9810     3.1450    -2.2390 H     1 <1>   0.1500 
 54 H       -6.4380    -3.8770    -0.6430 H     1 <1>   0.3700 
 55 H       -6.2280     0.5820     0.1470 H     1 <1>   0.0800 
 56 H       -7.6310     0.0580    -0.7330 H     1 <1>   0.0800 
 57 H       -6.1390     0.3210    -1.5800 H     1 <1>   0.0800 
 58 H        4.5030     0.8150    -1.6430 H     1 <1>   0.1500 
 59 H       -4.4440    -6.0720    -0.1600 H     1 <1>   0.0800 
 60 H       -5.7020    -6.1370    -1.3740 H     1 <1>   0.0800 
 61 H       -6.1220    -6.1460     0.3300 H     1 <1>   0.0800 
@<TRIPOS>BOND
  1   1   2  2   
  2   2   3  am  
  3   2   4  1   
  4   3   5  1   
  5   3   6  1   
  6   4   7  1   
  7   4   8  2   
  8   5   9  1   
  9   5  32  1   
 10   5  33  1   
 11   6  10  1   
 12   6  34  1   
 13   6  35  1   
 14   7  11  2   
 15   7  12  1   
 16   8  13  1   
 17   8  14  1   
 18   9  15  1   
 19   9  36  1   
 20   9  37  1   
 21  10  15  1   
 22  10  38  1   
 23  10  39  1   
 24  11  13  1   
 25  12  16  1   
 26  12  17  1   
 27  14  18  ar  
 28  14  19  ar  
 29  15  20  1   
 30  15  21  1   
 31  16  22  1   
 32  16  40  1   
 33  16  41  1   
 34  17  23  1   
 35  17  42  1   
 36  17  43  1   
 37  18  24  ar  
 38  18  44  1   
 39  19  25  ar  
 40  19  45  1   
 41  20  26  2   
 42  20  27  am  
 43  21  28  1   
 44  21  46  1   
 45  21  47  1   
 46  22  29  1   
 47  22  48  1   
 48  22  49  1   
 49  23  29  1   
 50  23  50  1   
 51  23  51  1   
 52  24  30  ar  
 53  24  52  1   
 54  25  30  ar  
 55  25  53  1   
 56  27  31  1   
 57  27  54  1   
 58  28  55  1   
 59  28  56  1   
 60  28  57  1   
 61  30  58  1   
 62  31  59  1   
 63  31  60  1   
 64  31  61  1   
@<TRIPOS>SUBSTRUCTURE
  1 ****   3 GROUP 4 **** **** 0

# MOE 2024.06 (io_trps.svl 2023.06)
