@<TRIPOS>MOLECULE
NONAME
56 57 1 0 0 
SMALL
USER_CHARGES


@<TRIPOS>ATOM
  1 S        0.6720     0.4620     0.3650 S.o2  1 <1>   1.3330 
  2 O        0.0340     0.5580     1.6580 O.2   1 <1>  -0.6500 
  3 O        2.1150     0.4760     0.2770 O.2   1 <1>  -0.6500 
  4 N        0.1150    -0.9440    -0.4060 N.am  1 <1>  -0.8490 
  5 C        0.0110     1.7660    -0.6720 C.3   1 <1>  -0.0550 
  6 C       -0.1120    -2.0430     0.5370 C.3   1 <1>   0.1160 
  7 C        0.9830    -1.3950    -1.4990 C.3   1 <1>   0.1160 
  8 C        0.2650     3.1730    -0.1100 C.3   1 <1>  -0.0800 
  9 C       -0.3160     4.2700    -1.0020 C.3   1 <1>   0.2000 
 10 C        1.7480     3.5330     0.0070 C.3   1 <1>   0.1100 
 11 O       -1.4530     4.7890    -0.4060 O.3   1 <1>  -0.6800 
 12 C        0.7790     5.3380    -1.1020 C.3   1 <1>   0.1100 
 13 N        1.8190     4.9910    -0.1170 N.3   1 <1>  -0.8100 
 14 C        1.5930     5.6560     1.2050 C.3   1 <1>   0.1710 
 15 C        1.7990     7.1740     1.1950 C.2   1 <1>   0.5690 
 16 O        1.1920     7.8590     1.9830 O.2   1 <1>  -0.5700 
 17 N        2.6630     7.6960     0.2880 N.am  1 <1>  -0.7300 
 18 C        2.9800     9.1300     0.1080 C.3   1 <1>   0.1400 
 19 C        4.3610     9.4330     0.6880 C.3   1 <1>  -0.0170 
 20 C        4.7220    10.8920     0.4590 C.ar  1 <1>  -0.1440 
 21 C        4.2380    11.8690     1.3160 C.ar  1 <1>  -0.1500 
 22 C        5.5300    11.2610    -0.6050 C.ar  1 <1>  -0.1500 
 23 C        4.5590    13.1980     1.1090 C.ar  1 <1>  -0.1500 
 24 C        5.8530    12.5910    -0.8140 C.ar  1 <1>  -0.1500 
 25 C        5.3660    13.5710     0.0470 C.ar  1 <1>   0.0820 
 26 O        5.6340    14.8940    -0.0850 O.3   1 <1>  -0.3620 
 27 C        6.4530    15.3750    -1.1270 C.3   1 <1>   0.0400 
 28 H        0.4360     1.6900    -1.6530 H     1 <1>   0.0800 
 29 H       -1.0500     1.6250    -0.7620 H     1 <1>   0.0800 
 30 H       -0.4780    -2.9120     0.0170 H     1 <1>   0.0800 
 31 H       -0.8490    -1.7560     1.2690 H     1 <1>   0.0800 
 32 H        0.8030    -2.2940     1.0480 H     1 <1>   0.0800 
 33 H        0.5320    -2.2300    -2.0080 H     1 <1>   0.0800 
 34 H        1.9450    -1.6960    -1.1170 H     1 <1>   0.0800 
 35 H        1.1280    -0.6020    -2.2110 H     1 <1>   0.0800 
 36 H       -0.1650     3.2310     0.8760 H     1 <1>   0.0800 
 37 H       -0.5880     3.9150    -1.9810 H     1 <1>   0.0800 
 38 H        2.3000     3.0950    -0.8100 H     1 <1>   0.0800 
 39 H        2.1810     3.1850     0.9310 H     1 <1>   0.0800 
 40 H       -1.2250     5.2130     0.4430 H     1 <1>   0.4000 
 41 H        0.3920     6.3340    -0.9630 H     1 <1>   0.0800 
 42 H        1.2190     5.2810    -2.0830 H     1 <1>   0.0800 
 43 H        0.5990     5.4520     1.5610 H     1 <1>   0.0800 
 44 H        2.2850     5.2530     1.9220 H     1 <1>   0.0800 
 45 H        3.0840     7.0260    -0.3640 H     1 <1>   0.3700 
 46 H        2.9580     9.3730    -0.9400 H     1 <1>   0.0800 
 47 H        2.2400     9.7320     0.6090 H     1 <1>   0.0800 
 48 H        4.3560     9.2270     1.7440 H     1 <1>   0.0800 
 49 H        5.0960     8.8000     0.2230 H     1 <1>   0.0800 
 50 H        3.6080    11.5980     2.1460 H     1 <1>   0.1500 
 51 H        5.9130    10.5140    -1.2780 H     1 <1>   0.1500 
 52 H        4.1850    13.9580     1.7720 H     1 <1>   0.1500 
 53 H        6.4810    12.8440    -1.6470 H     1 <1>   0.1500 
 54 H        6.5250    16.4430    -1.0280 H     1 <1>   0.0800 
 55 H        6.0000    15.1250    -2.0700 H     1 <1>   0.0800 
 56 H        7.4280    14.9320    -1.0360 H     1 <1>   0.0800 
@<TRIPOS>BOND
  1   1   2  2   
  2   1   3  2   
  3   1   4  am  
  4   1   5  1   
  5   4   6  1   
  6   4   7  1   
  7   5   8  1   
  8   5  28  1   
  9   5  29  1   
 10   6  30  1   
 11   6  31  1   
 12   6  32  1   
 13   7  33  1   
 14   7  34  1   
 15   7  35  1   
 16   8   9  1   
 17   8  10  1   
 18   8  36  1   
 19   9  11  1   
 20   9  12  1   
 21   9  37  1   
 22  10  13  1   
 23  10  38  1   
 24  10  39  1   
 25  11  40  1   
 26  12  13  1   
 27  12  41  1   
 28  12  42  1   
 29  13  14  1   
 30  14  15  1   
 31  14  43  1   
 32  14  44  1   
 33  15  16  2   
 34  15  17  am  
 35  17  18  1   
 36  17  45  1   
 37  18  19  1   
 38  18  46  1   
 39  18  47  1   
 40  19  20  1   
 41  19  48  1   
 42  19  49  1   
 43  20  21  ar  
 44  20  22  ar  
 45  21  23  ar  
 46  21  50  1   
 47  22  24  ar  
 48  22  51  1   
 49  23  25  ar  
 50  23  52  1   
 51  24  25  ar  
 52  24  53  1   
 53  25  26  1   
 54  26  27  1   
 55  27  54  1   
 56  27  55  1   
 57  27  56  1   
@<TRIPOS>SUBSTRUCTURE
  1 ****  17 GROUP 4 **** **** 0

# MOE 2024.06 (io_trps.svl 2023.06)
