@<TRIPOS>MOLECULE
NONAME
57 59 1 0 0 
SMALL
USER_CHARGES


@<TRIPOS>ATOM
  1 O        1.1930    -0.9990    -2.3780 O.2   1 <1>  -0.5700 
  2 C        0.5950    -0.0790    -1.8750 C.2   1 <1>   0.5690 
  3 N       -0.4950    -0.2080    -1.0640 N.am  1 <1>  -0.5470 
  4 C        1.0750     1.3510    -2.1370 C.3   1 <1>   0.1710 
  5 C       -1.2110    -1.3110    -0.5750 C.ar  1 <1>   0.1170 
  6 N        0.6050     2.3440    -1.1180 N.3   1 <1>  -0.8100 
  7 C       -1.0360    -2.6070    -1.0470 C.ar  1 <1>  -0.1500 
  8 C       -2.1440    -1.0960     0.4280 C.ar  1 <1>  -0.1500 
  9 C        0.7050     3.7170    -1.6610 C.3   1 <1>   0.1100 
 10 C        1.3470     2.1810     0.1470 C.3   1 <1>   0.1100 
 11 C       -1.7700    -3.6620    -0.5310 C.ar  1 <1>   0.0820 
 12 C       -2.8860    -2.1370     0.9570 C.ar  1 <1>   0.0820 
 13 C        0.1150     4.8080    -0.7510 C.3   1 <1>   0.2090 
 14 C        0.5390     2.7620     1.3090 C.3   1 <1>  -0.1600 
 15 O       -1.5260    -4.8890    -1.0600 O.3   1 <1>  -0.3630 
 16 C       -2.7010    -3.4290     0.4770 C.ar  1 <1>  -0.1500 
 17 O       -3.7700    -1.8130     1.9360 O.3   1 <1>  -0.3630 
 18 N        1.0000     5.0920     0.4210 N.pl3 1 <1>  -0.8380 
 19 C        0.8410     4.2310     1.6270 C.3   1 <1>   0.2090 
 20 C       -2.2000    -6.0390    -0.6030 C.3   1 <1>   0.0400 
 21 C       -4.5890    -2.7900     2.5390 C.3   1 <1>   0.0400 
 22 C        1.8660     6.1340     0.4230 C.ar  1 <1>   0.1000 
 23 C        1.4560     7.4740     0.5550 C.ar  1 <1>  -0.1440 
 24 C        3.2360     5.8840     0.2990 C.ar  1 <1>  -0.1500 
 25 C        2.3960     8.4750     0.5430 C.ar  1 <1>   0.2110 
 26 C       -0.0210     7.8170     0.7310 C.3   1 <1>  -0.0970 
 27 C        4.1410     6.9100     0.2930 C.ar  1 <1>   0.2110 
 28 N        3.7170     8.1920     0.4110 N.ar  1 <1>  -0.1790 
 29 H       -0.7830     0.7080    -0.7060 H     1 <1>   0.3700 
 30 H        0.7000     1.6260    -3.1060 H     1 <1>   0.0800 
 31 H        2.1490     1.3540    -2.1870 H     1 <1>   0.0800 
 32 H       -0.3270    -2.8120    -1.8260 H     1 <1>   0.1500 
 33 H       -2.3020    -0.1060     0.8120 H     1 <1>   0.1500 
 34 H        0.1600     3.7500    -2.5890 H     1 <1>   0.0800 
 35 H        1.7320     3.9570    -1.8770 H     1 <1>   0.0800 
 36 H        2.3200     2.6380     0.0830 H     1 <1>   0.0800 
 37 H        1.4910     1.1310     0.3440 H     1 <1>   0.0800 
 38 H       -0.8690     4.5230    -0.4210 H     1 <1>   0.0800 
 39 H        0.0170     5.7060    -1.3340 H     1 <1>   0.0800 
 40 H        0.7650     2.1950     2.1940 H     1 <1>   0.0800 
 41 H       -0.5130     2.6340     1.1240 H     1 <1>   0.0800 
 42 H       -3.2700    -4.2400     0.8790 H     1 <1>   0.1500 
 43 H        1.7490     4.2800     2.2040 H     1 <1>   0.0800 
 44 H        0.0480     4.6280     2.2370 H     1 <1>   0.0800 
 45 H       -1.8360    -6.8820    -1.1620 H     1 <1>   0.0800 
 46 H       -3.2540    -5.9170    -0.7720 H     1 <1>   0.0800 
 47 H       -1.9870    -6.1760     0.4430 H     1 <1>   0.0800 
 48 H       -5.2040    -2.3020     3.2740 H     1 <1>   0.0800 
 49 H       -3.9640    -3.5250     3.0140 H     1 <1>   0.0800 
 50 H       -5.2100    -3.2390     1.7840 H     1 <1>   0.0800 
 51 H        3.5560     4.8610     0.2040 H     1 <1>   0.1500 
 52 H        2.1030     9.5080     0.6410 H     1 <1>   0.1500 
 53 H       -0.4590     7.1850     1.4840 H     1 <1>   0.0800 
 54 H       -0.5520     7.6640    -0.1910 H     1 <1>   0.0800 
 55 H       -0.1560     8.8390     1.0350 H     1 <1>   0.0800 
 56 H        5.1980     6.7180     0.1950 H     1 <1>   0.1500 
 57 H        4.4010     8.9570     0.4050 H     1 <1>   0.4570 
@<TRIPOS>BOND
  1   1   2  2   
  2   2   3  am  
  3   2   4  1   
  4   3   5  1   
  5   3  29  1   
  6   4   6  1   
  7   4  30  1   
  8   4  31  1   
  9   5   7  ar  
 10   5   8  ar  
 11   6   9  1   
 12   6  10  1   
 13   7  11  ar  
 14   7  32  1   
 15   8  12  ar  
 16   8  33  1   
 17   9  13  1   
 18   9  34  1   
 19   9  35  1   
 20  10  14  1   
 21  10  36  1   
 22  10  37  1   
 23  11  15  1   
 24  11  16  ar  
 25  12  16  ar  
 26  12  17  1   
 27  13  18  1   
 28  13  38  1   
 29  13  39  1   
 30  14  19  1   
 31  14  40  1   
 32  14  41  1   
 33  15  20  1   
 34  16  42  1   
 35  17  21  1   
 36  18  19  1   
 37  18  22  1   
 38  19  43  1   
 39  19  44  1   
 40  20  45  1   
 41  20  46  1   
 42  20  47  1   
 43  21  48  1   
 44  21  49  1   
 45  21  50  1   
 46  22  23  ar  
 47  22  24  ar  
 48  23  25  ar  
 49  23  26  1   
 50  24  27  ar  
 51  24  51  1   
 52  25  28  ar  
 53  25  52  1   
 54  26  53  1   
 55  26  54  1   
 56  26  55  1   
 57  27  28  ar  
 58  27  56  1   
 59  28  57  1   
@<TRIPOS>SUBSTRUCTURE
  1 ****   6 GROUP 4 **** **** 0

# MOE 2024.06 (io_trps.svl 2023.06)
