@<TRIPOS>MOLECULE
NONAME
47 49 1 0 0 
SMALL
USER_CHARGES


@<TRIPOS>ATOM
  1 O        0.0810    -2.6330     2.7940 O.co2 1 <1>  -0.9000 
  2 C       -1.0940    -2.9810     2.5460 C.2   1 <1>   0.9790 
  3 O       -1.8960    -2.9910     3.5000 O.co2 1 <1>  -0.9000 
  4 C       -1.4800    -3.3270     1.1700 C.ar  1 <1>   0.1310 
  5 N       -2.6070    -4.0120     0.8760 N.ar  1 <1>  -0.6200 
  6 C       -0.6130    -2.9070     0.1560 C.ar  1 <1>   0.1600 
  7 C       -2.7920    -4.2200    -0.4140 C.ar  1 <1>   0.4100 
  8 N       -0.7800    -3.1060    -1.1470 N.ar  1 <1>  -0.6200 
  9 N       -3.9330    -4.9180    -0.7690 N.pl3 1 <1>  -0.8380 
 10 C       -1.8910    -3.7710    -1.3870 C.ar  1 <1>   0.1600 
 11 C       -3.9180    -6.3620    -0.3850 C.3   1 <1>   0.2090 
 12 C       -5.2150    -4.2930    -0.3200 C.3   1 <1>   0.2090 
 13 C       -5.1810    -7.0930    -0.8860 C.3   1 <1>   0.3440 
 14 C       -6.4400    -5.0870    -0.8380 C.3   1 <1>   0.2000 
 15 O       -6.3420    -6.4360    -0.4470 O.3   1 <1>  -0.5600 
 16 C       -5.2120    -8.5350    -0.3910 C.ar  1 <1>  -0.1430 
 17 C       -7.8220    -4.5240    -0.3820 C.3   1 <1>   0.0000 
 18 C       -4.8830    -9.5760    -1.2480 C.ar  1 <1>  -0.1500 
 19 C       -5.5560    -8.8260     0.9220 C.ar  1 <1>  -0.1500 
 20 C       -7.9990    -3.0630    -0.8350 C.3   1 <1>  -0.2400 
 21 C       -7.9930    -4.5830     1.1480 C.3   1 <1>  -0.2400 
 22 C       -8.9520    -5.3500    -1.0250 C.3   1 <1>  -0.2400 
 23 C       -4.8940   -10.8860    -0.7980 C.ar  1 <1>  -0.1500 
 24 C       -5.5680   -10.1340     1.3740 C.ar  1 <1>  -0.1500 
 25 C       -5.2360   -11.1650     0.5130 C.ar  1 <1>  -0.1500 
 26 H        0.2740    -2.3690     0.4460 H     1 <1>   0.1500 
 27 H       -2.1320    -3.9910    -2.4090 H     1 <1>   0.1500 
 28 H       -3.0450    -6.8340    -0.8000 H     1 <1>   0.0800 
 29 H       -3.8600    -6.4490     0.6870 H     1 <1>   0.0800 
 30 H       -5.2340    -4.2570     0.7560 H     1 <1>   0.0800 
 31 H       -5.2490    -3.2830    -0.6840 H     1 <1>   0.0800 
 32 H       -5.1900    -7.0830    -1.9610 H     1 <1>   0.0800 
 33 H       -6.4130    -5.0640    -1.9140 H     1 <1>   0.0800 
 34 H       -4.6160    -9.3750    -2.2710 H     1 <1>   0.1500 
 35 H       -5.8200    -8.0260     1.5940 H     1 <1>   0.1500 
 36 H       -8.9900    -2.7160    -0.6040 H     1 <1>   0.0800 
 37 H       -7.8510    -2.9760    -1.8970 H     1 <1>   0.0800 
 38 H       -7.3020    -2.4130    -0.3360 H     1 <1>   0.0800 
 39 H       -8.9740    -4.2480     1.4320 H     1 <1>   0.0800 
 40 H       -7.2710    -3.9610     1.6460 H     1 <1>   0.0800 
 41 H       -7.8680    -5.5920     1.5000 H     1 <1>   0.0800 
 42 H       -9.9160    -4.9600    -0.7510 H     1 <1>   0.0800 
 43 H       -8.9020    -6.3750    -0.7010 H     1 <1>   0.0800 
 44 H       -8.8700    -5.3320    -2.0980 H     1 <1>   0.0800 
 45 H       -4.6380   -11.6870    -1.4680 H     1 <1>   0.1500 
 46 H       -5.8380   -10.3470     2.3930 H     1 <1>   0.1500 
 47 H       -5.2450   -12.1820     0.8630 H     1 <1>   0.1500 
@<TRIPOS>BOND
  1   1   2  ar  
  2   2   3  ar  
  3   2   4  1   
  4   4   5  ar  
  5   4   6  ar  
  6   5   7  ar  
  7   6   8  ar  
  8   6  26  1   
  9   7   9  1   
 10   7  10  ar  
 11   8  10  ar  
 12   9  11  1   
 13   9  12  1   
 14  10  27  1   
 15  11  13  1   
 16  11  28  1   
 17  11  29  1   
 18  12  14  1   
 19  12  30  1   
 20  12  31  1   
 21  13  15  1   
 22  13  16  1   
 23  13  32  1   
 24  14  15  1   
 25  14  17  1   
 26  14  33  1   
 27  16  18  ar  
 28  16  19  ar  
 29  17  20  1   
 30  17  21  1   
 31  17  22  1   
 32  18  23  ar  
 33  18  34  1   
 34  19  24  ar  
 35  19  35  1   
 36  20  36  1   
 37  20  37  1   
 38  20  38  1   
 39  21  39  1   
 40  21  40  1   
 41  21  41  1   
 42  22  42  1   
 43  22  43  1   
 44  22  44  1   
 45  23  25  ar  
 46  23  45  1   
 47  24  25  ar  
 48  24  46  1   
 49  25  47  1   
@<TRIPOS>SUBSTRUCTURE
  1 ****  11 GROUP 4 **** **** 0

# MOE 2024.06 (io_trps.svl 2023.06)
