@<TRIPOS>MOLECULE
NONAME
45 46 1 0 0 
SMALL
USER_CHARGES


@<TRIPOS>ATOM
  1 O       -0.5910     0.6830    -1.3260 O.co2 1 <1>  -0.9000 
  2 C       -1.0630     1.3020    -0.3700 C.2   1 <1>   0.9060 
  3 O       -1.5720     0.7340     0.6050 O.co2 1 <1>  -0.9000 
  4 C       -1.0390     2.8100    -0.4060 C.3   1 <1>  -0.1860 
  5 C       -2.4270     3.4200    -0.1720 C.3   1 <1>   0.2000 
  6 C       -0.0250     3.3570     0.5980 C.3   1 <1>   0.1400 
  7 O       -2.9660     2.8950     0.9850 O.3   1 <1>  -0.6800 
  8 C       -2.3890     4.9490    -0.0070 C.3   1 <1>  -0.1600 
  9 N        0.0430     4.8570     0.5570 N.am  1 <1>  -0.6600 
 10 C       -1.0020     5.5530    -0.2540 C.3   1 <1>   0.1400 
 11 C        1.0740     5.5050     1.1960 C.2   1 <1>   0.5690 
 12 O        1.9300     4.8990     1.8020 O.2   1 <1>  -0.5700 
 13 C        1.1840     7.0270     1.2040 C.3   1 <1>   0.1810 
 14 O        1.3250     7.5530    -0.1080 O.3   1 <1>  -0.3630 
 15 C        1.7660     8.8270    -0.1810 C.ar  1 <1>   0.0830 
 16 C        3.1340     9.0990    -0.1170 C.ar  1 <1>  -0.1430 
 17 C        0.8330     9.8500    -0.3210 C.ar  1 <1>  -0.1430 
 18 C        3.5610    10.4230    -0.1480 C.ar  1 <1>  -0.1430 
 19 C        4.1500     7.9590    -0.0190 C.3   1 <1>  -0.0970 
 20 C        1.2770    11.1590    -0.3600 C.ar  1 <1>  -0.1500 
 21 C       -0.6550     9.5560    -0.4360 C.3   1 <1>  -0.0970 
 22 C        2.6280    11.4410    -0.2690 C.ar  1 <1>  -0.1500 
 23 C        5.0340    10.7980    -0.0550 C.3   1 <1>  -0.0970 
 24 H       -0.7060     3.0770    -1.3900 H     1 <1>   0.0800 
 25 H       -3.0790     3.1380    -0.9820 H     1 <1>   0.0800 
 26 H        0.9480     2.9470     0.3830 H     1 <1>   0.0800 
 27 H       -0.3020     3.0460     1.5920 H     1 <1>   0.0800 
 28 H       -2.6120     1.9550     1.0580 H     1 <1>   0.4000 
 29 H       -3.0820     5.3870    -0.7010 H     1 <1>   0.0800 
 30 H       -2.7040     5.2250     0.9840 H     1 <1>   0.0800 
 31 H       -1.0390     6.5990    -0.0180 H     1 <1>   0.0800 
 32 H       -0.7450     5.4580    -1.2960 H     1 <1>   0.0800 
 33 H        2.0440     7.3140     1.7810 H     1 <1>   0.0800 
 34 H        0.3070     7.4560     1.6490 H     1 <1>   0.0800 
 35 H        4.9960     8.1500    -0.6530 H     1 <1>   0.0800 
 36 H        3.7260     7.0220    -0.3340 H     1 <1>   0.0800 
 37 H        4.4870     7.8570     0.9960 H     1 <1>   0.0800 
 38 H        0.5770    11.9690    -0.4620 H     1 <1>   0.1500 
 39 H       -1.2030    10.4410    -0.7040 H     1 <1>   0.0800 
 40 H       -1.0310     9.1900     0.5020 H     1 <1>   0.0800 
 41 H       -0.8210     8.8120    -1.1940 H     1 <1>   0.0800 
 42 H        2.9480    12.4670    -0.2970 H     1 <1>   0.1500 
 43 H        5.1550    11.8580     0.0790 H     1 <1>   0.0800 
 44 H        5.5420    10.5110    -0.9580 H     1 <1>   0.0800 
 45 H        5.4920    10.3020     0.7810 H     1 <1>   0.0800 
@<TRIPOS>BOND
  1   1   2  ar  
  2   2   3  ar  
  3   2   4  1   
  4   4   5  1   
  5   4   6  1   
  6   4  24  1   
  7   5   7  1   
  8   5   8  1   
  9   5  25  1   
 10   6   9  1   
 11   6  26  1   
 12   6  27  1   
 13   7  28  1   
 14   8  10  1   
 15   8  29  1   
 16   8  30  1   
 17   9  10  1   
 18   9  11  am  
 19  10  31  1   
 20  10  32  1   
 21  11  12  2   
 22  11  13  1   
 23  13  14  1   
 24  13  33  1   
 25  13  34  1   
 26  14  15  1   
 27  15  16  ar  
 28  15  17  ar  
 29  16  18  ar  
 30  16  19  1   
 31  17  20  ar  
 32  17  21  1   
 33  18  22  ar  
 34  18  23  1   
 35  19  35  1   
 36  19  36  1   
 37  19  37  1   
 38  20  22  ar  
 39  20  38  1   
 40  21  39  1   
 41  21  40  1   
 42  21  41  1   
 43  22  42  1   
 44  23  43  1   
 45  23  44  1   
 46  23  45  1   
@<TRIPOS>SUBSTRUCTURE
  1 ****  11 GROUP 4 **** **** 0

# MOE 2024.06 (io_trps.svl 2023.06)
