@<TRIPOS>MOLECULE
NONAME
57 60 1 0 0 
SMALL
USER_CHARGES


@<TRIPOS>ATOM
  1 S       -1.2460    -2.1960     0.2600 S.o2  1 <1>   1.2040 
  2 O       -2.5190    -2.4910    -0.3750 O.2   1 <1>  -0.6500 
  3 O       -0.2950    -3.2670     0.4390 O.2   1 <1>  -0.6500 
  4 C       -0.4460    -0.7980    -0.5630 C.ar  1 <1>  -0.0090 
  5 C       -1.6230    -1.5620     1.9000 C.3   1 <1>   0.0890 
  6 C       -1.1880     0.1510    -1.2580 C.ar  1 <1>  -0.1500 
  7 C        0.9310    -0.6200    -0.4880 C.ar  1 <1>  -0.1500 
  8 C       -2.6240    -0.4010     1.9140 C.ar  1 <1>  -0.1440 
  9 C       -0.5810     1.2420    -1.8530 C.ar  1 <1>  -0.1500 
 10 C        1.5460     0.4690    -1.0810 C.ar  1 <1>  -0.1500 
 11 C       -4.0050    -0.5630     2.0640 C.ar  1 <1>  -0.1440 
 12 C       -2.1040     0.8780     1.7690 C.ar  1 <1>  -0.1500 
 13 C        0.7890     1.4030    -1.7630 C.ar  1 <1>  -0.1500 
 14 C       -4.8230     0.5600     2.0670 C.ar  1 <1>  -0.1500 
 15 C       -4.6910    -1.9130     2.2500 C.3   1 <1>   0.4860 
 16 C       -2.9300     1.9850     1.7640 C.ar  1 <1>  -0.1500 
 17 C       -4.2920     1.8270     1.9140 C.ar  1 <1>  -0.1500 
 18 N       -4.9260    -2.5660     0.9390 N.4   1 <1>  -0.9590 
 19 C       -5.6880    -1.7500    -0.0600 C.3   1 <1>   0.3430 
 20 C       -5.6320    -3.8650     1.0380 C.3   1 <1>   0.3430 
 21 C       -6.6880    -2.7060    -0.7330 C.3   1 <1>   0.2000 
 22 C       -6.1950    -4.1040    -0.3620 C.3   1 <1>  -0.0800 
 23 O       -7.9220    -2.5210    -0.1250 O.3   1 <1>  -0.6800 
 24 C       -5.1420    -4.6260    -1.3660 C.3   1 <1>   0.0200 
 25 C       -4.4160    -5.8450    -0.8330 C.2   1 <1>  -0.0400 
 26 O       -3.5000    -5.7020     0.0880 O.3   1 <1>  -0.0190 
 27 C       -4.5110    -7.1530    -1.1180 C.2   1 <1>  -0.1500 
 28 N       -3.0010    -6.8410     0.4570 N.2   1 <1>  -0.4100 
 29 C       -3.5810    -7.7350    -0.2610 C.2   1 <1>   0.1080 
 30 C       -3.2860    -9.2170    -0.1760 C.3   1 <1>  -0.0590 
 31 H       -1.9960    -2.3630     2.5060 H     1 <1>   0.0800 
 32 H       -0.7100    -1.2350     2.3630 H     1 <1>   0.0800 
 33 H       -2.2560     0.0410    -1.3360 H     1 <1>   0.1500 
 34 H        1.5360    -1.3430     0.0340 H     1 <1>   0.1500 
 35 H       -1.1720     1.9670    -2.3880 H     1 <1>   0.1500 
 36 H        2.6140     0.5890    -1.0140 H     1 <1>   0.1500 
 37 H       -1.0430     1.0360     1.6570 H     1 <1>   0.1500 
 38 H        1.2660     2.2510    -2.2260 H     1 <1>   0.1500 
 39 H       -5.8880     0.4670     2.1960 H     1 <1>   0.1500 
 40 H       -5.6330    -1.7630     2.7500 H     1 <1>   0.0800 
 41 H       -4.0820    -2.5480     2.8720 H     1 <1>   0.0800 
 42 H       -2.5110     2.9710     1.6480 H     1 <1>   0.1500 
 43 H       -4.9360     2.6910     1.9170 H     1 <1>   0.1500 
 44 H       -4.0030    -2.7450     0.4950 H     1 <1>   0.4500 
 45 H       -6.2210    -0.9410     0.4110 H     1 <1>   0.0800 
 46 H       -5.0030    -1.3500    -0.7890 H     1 <1>   0.0800 
 47 H       -4.9820    -4.6570     1.3720 H     1 <1>   0.0800 
 48 H       -6.4550    -3.7750     1.7290 H     1 <1>   0.0800 
 49 H       -6.7910    -2.5280    -1.7900 H     1 <1>   0.0800 
 50 H       -7.0030    -4.8140    -0.3190 H     1 <1>   0.0800 
 51 H       -8.6380    -2.9710    -0.6230 H     1 <1>   0.4000 
 52 H       -4.4100    -3.8720    -1.5980 H     1 <1>   0.0800 
 53 H       -5.6320    -4.8900    -2.2870 H     1 <1>   0.0800 
 54 H       -5.1380    -7.6690    -1.8220 H     1 <1>   0.1500 
 55 H       -2.9210    -9.5700    -1.1230 H     1 <1>   0.0800 
 56 H       -4.1780    -9.7550     0.0840 H     1 <1>   0.0800 
 57 H       -2.5370    -9.4010     0.5740 H     1 <1>   0.0800 
@<TRIPOS>BOND
  1   1   2  2   
  2   1   3  2   
  3   1   4  1   
  4   1   5  1   
  5   4   6  ar  
  6   4   7  ar  
  7   5   8  1   
  8   5  31  1   
  9   5  32  1   
 10   6   9  ar  
 11   6  33  1   
 12   7  10  ar  
 13   7  34  1   
 14   8  11  ar  
 15   8  12  ar  
 16   9  13  ar  
 17   9  35  1   
 18  10  13  ar  
 19  10  36  1   
 20  11  14  ar  
 21  11  15  1   
 22  12  16  ar  
 23  12  37  1   
 24  13  38  1   
 25  14  17  ar  
 26  14  39  1   
 27  15  18  1   
 28  15  40  1   
 29  15  41  1   
 30  16  17  ar  
 31  16  42  1   
 32  17  43  1   
 33  18  19  1   
 34  18  20  1   
 35  18  44  1   
 36  19  21  1   
 37  19  45  1   
 38  19  46  1   
 39  20  22  1   
 40  20  47  1   
 41  20  48  1   
 42  21  22  1   
 43  21  23  1   
 44  21  49  1   
 45  22  24  1   
 46  22  50  1   
 47  23  51  1   
 48  24  25  1   
 49  24  52  1   
 50  24  53  1   
 51  25  26  1   
 52  25  27  2   
 53  26  28  1   
 54  27  29  1   
 55  27  54  1   
 56  28  29  2   
 57  29  30  1   
 58  30  55  1   
 59  30  56  1   
 60  30  57  1   
@<TRIPOS>SUBSTRUCTURE
  1 ****   2 GROUP 4 **** **** 0

# MOE 2024.06 (io_trps.svl 2023.06)
