@<TRIPOS>MOLECULE
NONAME
50 52 1 0 0 
SMALL
USER_CHARGES


@<TRIPOS>ATOM
  1 O       -1.8150    -1.2230    -0.0740 O.3   1 <1>  -0.5600 
  2 C       -0.6870    -1.7430    -0.7110 C.3   1 <1>   0.1200 
  3 C       -2.2820    -2.0070     0.9870 C.3   1 <1>   0.1200 
  4 C       -0.9970    -3.1270    -1.3130 C.3   1 <1>   0.2090 
  5 C       -2.6800    -3.4070     0.4900 C.3   1 <1>   0.2090 
  6 N       -1.5500    -4.0620    -0.2700 N.pl3 1 <1>  -0.8380 
  7 C       -1.1310    -5.3250     0.0180 C.ar  1 <1>   0.7710 
  8 N       -1.6230    -5.9460     1.0810 N.ar  1 <1>  -0.6200 
  9 N       -0.2340    -5.9180    -0.7920 N.ar  1 <1>  -0.1790 
 10 C       -1.2300    -7.1830     1.3150 C.ar  1 <1>   0.4100 
 11 C        0.2530    -7.1560    -0.5450 C.ar  1 <1>   0.2180 
 12 N       -1.8610    -7.8760     2.2960 N.pl3 1 <1>  -0.8380 
 13 C       -0.2290    -7.7960     0.5440 C.ar  1 <1>  -0.1500 
 14 C        1.2830    -7.7590    -1.4900 C.3   1 <1>  -0.0170 
 15 C       -2.4090    -9.2530     2.0580 C.3   1 <1>   0.3890 
 16 C       -2.3870    -7.1970     3.5160 C.3   1 <1>   0.1290 
 17 C        0.6830    -8.0420    -2.8730 C.3   1 <1>  -0.2400 
 18 C       -2.9160    -9.4070     0.6310 C.2   1 <1>  -0.0400 
 19 O       -2.1110    -9.8300    -0.3080 O.3   1 <1>  -0.0190 
 20 C       -4.1100    -9.1680     0.0680 C.2   1 <1>  -0.1500 
 21 N       -2.6890    -9.8580    -1.4710 N.2   1 <1>  -0.4100 
 22 C       -3.9010    -9.4730    -1.2750 C.2   1 <1>   0.1080 
 23 C       -4.9500    -9.3600    -2.3650 C.3   1 <1>   0.0210 
 24 C       -5.1400    -7.9040    -2.8030 C.3   1 <1>  -0.2400 
 25 H        0.1150    -1.8050     0.0040 H     1 <1>   0.0800 
 26 H       -0.4060    -1.0530    -1.4870 H     1 <1>   0.0800 
 27 H       -3.1350    -1.5080     1.4110 H     1 <1>   0.0800 
 28 H       -1.5120    -2.0730     1.7360 H     1 <1>   0.0800 
 29 H       -0.0960    -3.5110    -1.7520 H     1 <1>   0.0800 
 30 H       -1.7250    -3.0010    -2.0980 H     1 <1>   0.0800 
 31 H       -3.5330    -3.3110    -0.1600 H     1 <1>   0.0800 
 32 H       -2.9900    -3.9910     1.3380 H     1 <1>   0.0800 
 33 H        0.0330    -5.4020    -1.6160 H     1 <1>   0.4570 
 34 H        0.1070    -8.7760     0.8270 H     1 <1>   0.1500 
 35 H        1.6420    -8.6870    -1.0780 H     1 <1>   0.0800 
 36 H        2.1290    -7.1010    -1.5830 H     1 <1>   0.0800 
 37 H       -3.2330    -9.4290     2.7280 H     1 <1>   0.0800 
 38 H       -1.6520    -9.9890     2.2620 H     1 <1>   0.0800 
 39 H       -1.8800    -6.2600     3.6710 H     1 <1>   0.0800 
 40 H       -2.2270    -7.8170     4.3810 H     1 <1>   0.0800 
 41 H       -3.4400    -7.0060     3.4030 H     1 <1>   0.0800 
 42 H       -0.1650    -8.7020    -2.7840 H     1 <1>   0.0800 
 43 H        1.4150    -8.5240    -3.4980 H     1 <1>   0.0800 
 44 H        0.3660    -7.1380    -3.3620 H     1 <1>   0.0800 
 45 H       -5.0230    -8.8110     0.5080 H     1 <1>   0.1500 
 46 H       -5.8820    -9.7570    -2.0020 H     1 <1>   0.0800 
 47 H       -4.6450    -9.9540    -3.2100 H     1 <1>   0.0800 
 48 H       -5.4620    -7.3020    -1.9730 H     1 <1>   0.0800 
 49 H       -5.8810    -7.8470    -3.5810 H     1 <1>   0.0800 
 50 H       -4.2130    -7.5100    -3.1800 H     1 <1>   0.0800 
@<TRIPOS>BOND
  1   1   2  1   
  2   1   3  1   
  3   2   4  1   
  4   2  25  1   
  5   2  26  1   
  6   3   5  1   
  7   3  27  1   
  8   3  28  1   
  9   4   6  1   
 10   4  29  1   
 11   4  30  1   
 12   5   6  1   
 13   5  31  1   
 14   5  32  1   
 15   6   7  1   
 16   7   8  ar  
 17   7   9  ar  
 18   8  10  ar  
 19   9  11  ar  
 20   9  33  1   
 21  10  12  1   
 22  10  13  ar  
 23  11  13  ar  
 24  11  14  1   
 25  12  15  1   
 26  12  16  1   
 27  13  34  1   
 28  14  17  1   
 29  14  35  1   
 30  14  36  1   
 31  15  18  1   
 32  15  37  1   
 33  15  38  1   
 34  16  39  1   
 35  16  40  1   
 36  16  41  1   
 37  17  42  1   
 38  17  43  1   
 39  17  44  1   
 40  18  19  1   
 41  18  20  2   
 42  19  21  1   
 43  20  22  1   
 44  20  45  1   
 45  21  22  2   
 46  22  23  1   
 47  23  24  1   
 48  23  46  1   
 49  23  47  1   
 50  24  48  1   
 51  24  49  1   
 52  24  50  1   
@<TRIPOS>SUBSTRUCTURE
  1 ****   8 GROUP 4 **** **** 0

# MOE 2024.06 (io_trps.svl 2023.06)
