@<TRIPOS>MOLECULE
NONAME
53 54 1 0 0 
SMALL
USER_CHARGES


@<TRIPOS>ATOM
  1 S        0.7980    -0.0050    -0.9800 S.o2  1 <1>   1.3330 
  2 O        0.0860    -0.0490     0.2770 O.2   1 <1>  -0.6500 
  3 O        1.1580    -1.2410    -1.6380 O.2   1 <1>  -0.6500 
  4 N       -0.1170     0.9280    -2.0620 N.am  1 <1>  -0.8490 
  5 C        2.2930     0.9560    -0.7690 C.3   1 <1>  -0.0550 
  6 C       -0.8120     2.0510    -1.4230 C.3   1 <1>   0.1160 
  7 C       -1.0730     0.1150    -2.8200 C.3   1 <1>   0.1160 
  8 C        3.3640     0.2340     0.0730 C.3   1 <1>  -0.0800 
  9 C        4.6850     0.9770     0.2140 C.3   1 <1>   0.2200 
 10 C        2.9630    -0.0310     1.5310 C.3   1 <1>   0.1200 
 11 N        4.4510     2.4170     0.4690 N.am  1 <1>  -0.7300 
 12 C        5.2220     0.3430     1.4890 C.3   1 <1>   0.1200 
 13 O        4.1040     0.1970     2.3080 O.3   1 <1>  -0.5600 
 14 C        4.5340     3.4190    -0.4430 C.2   1 <1>   0.7150 
 15 O        4.8170     3.1320    -1.5890 O.2   1 <1>  -0.5700 
 16 C        4.2450     4.7590    -0.0250 C.2   1 <1>  -0.2370 
 17 N        4.4710     5.8900    -0.7510 N.pl3 1 <1>   0.3140 
 18 C        3.6970     5.1930     1.1450 C.2   1 <1>  -0.1500 
 19 N        4.0850     6.9940    -0.0910 N.2   1 <1>  -0.7070 
 20 C        5.0820     6.0260    -2.0950 C.3   1 <1>   0.0960 
 21 C        3.6220     6.5700     1.0450 C.2   1 <1>   0.1080 
 22 C        6.6100     5.9080    -2.0300 C.3   1 <1>  -0.2400 
 23 C        3.0730     7.5100     2.1110 C.3   1 <1>   0.1010 
 24 C        3.9090     7.4310     3.3930 C.3   1 <1>  -0.2400 
 25 C        1.6000     7.2020     2.4060 C.3   1 <1>  -0.2400 
 26 H        2.7070     1.1670    -1.7370 H     1 <1>   0.0800 
 27 H        2.0420     1.8920    -0.3120 H     1 <1>   0.0800 
 28 H       -1.3080     2.6500    -2.1680 H     1 <1>   0.0800 
 29 H       -0.1080     2.6760    -0.9010 H     1 <1>   0.0800 
 30 H       -1.5440     1.6900    -0.7190 H     1 <1>   0.0800 
 31 H       -1.6220     0.7310    -3.5110 H     1 <1>   0.0800 
 32 H       -1.7630    -0.3720    -2.1510 H     1 <1>   0.0800 
 33 H       -0.5490    -0.6380    -3.3850 H     1 <1>   0.0800 
 34 H        3.5670    -0.7190    -0.3860 H     1 <1>   0.0800 
 35 H        5.3420     0.8350    -0.6280 H     1 <1>   0.0800 
 36 H        2.6360    -1.0470     1.6770 H     1 <1>   0.0800 
 37 H        2.1970     0.6460     1.8690 H     1 <1>   0.0800 
 38 H        4.2080     2.6400     1.4340 H     1 <1>   0.3700 
 39 H        5.9600     0.9500     1.9820 H     1 <1>   0.0800 
 40 H        5.6210    -0.6370     1.2930 H     1 <1>   0.0800 
 41 H        3.3740     4.6150     1.9910 H     1 <1>   0.1500 
 42 H        4.6700     5.2800    -2.7490 H     1 <1>   0.0800 
 43 H        4.8140     6.9910    -2.4840 H     1 <1>   0.0800 
 44 H        6.8980     4.9370    -1.6700 H     1 <1>   0.0800 
 45 H        7.0110     6.6650    -1.3790 H     1 <1>   0.0800 
 46 H        7.0270     6.0440    -3.0110 H     1 <1>   0.0800 
 47 H        3.1380     8.5140     1.7270 H     1 <1>   0.0800 
 48 H        3.8560     6.4470     3.8230 H     1 <1>   0.0800 
 49 H        3.5560     8.1460     4.1140 H     1 <1>   0.0800 
 50 H        4.9370     7.6520     3.1670 H     1 <1>   0.0800 
 51 H        1.4910     6.2120     2.8110 H     1 <1>   0.0800 
 52 H        1.0290     7.2680     1.4960 H     1 <1>   0.0800 
 53 H        1.2050     7.9120     3.1100 H     1 <1>   0.0800 
@<TRIPOS>BOND
  1   1   2  2   
  2   1   3  2   
  3   1   4  am  
  4   1   5  1   
  5   4   6  1   
  6   4   7  1   
  7   5   8  1   
  8   5  26  1   
  9   5  27  1   
 10   6  28  1   
 11   6  29  1   
 12   6  30  1   
 13   7  31  1   
 14   7  32  1   
 15   7  33  1   
 16   8   9  1   
 17   8  10  1   
 18   8  34  1   
 19   9  11  1   
 20   9  12  1   
 21   9  35  1   
 22  10  13  1   
 23  10  36  1   
 24  10  37  1   
 25  11  14  am  
 26  11  38  1   
 27  12  13  1   
 28  12  39  1   
 29  12  40  1   
 30  14  15  2   
 31  14  16  1   
 32  16  17  1   
 33  16  18  2   
 34  17  19  1   
 35  17  20  1   
 36  18  21  1   
 37  18  41  1   
 38  19  21  2   
 39  20  22  1   
 40  20  42  1   
 41  20  43  1   
 42  21  23  1   
 43  22  44  1   
 44  22  45  1   
 45  22  46  1   
 46  23  24  1   
 47  23  25  1   
 48  23  47  1   
 49  24  48  1   
 50  24  49  1   
 51  24  50  1   
 52  25  51  1   
 53  25  52  1   
 54  25  53  1   
@<TRIPOS>SUBSTRUCTURE
  1 ****  14 GROUP 4 **** **** 0

# MOE 2024.06 (io_trps.svl 2023.06)
