@<TRIPOS>MOLECULE
NONAME
47 49 1 0 0 
SMALL
USER_CHARGES


@<TRIPOS>ATOM
  1 O        1.4150     0.0400    -1.5980 O.3   1 <1>  -0.6800 
  2 C        1.7280     0.6280    -0.3860 C.3   1 <1>   0.2800 
  3 C        3.2690     0.6250    -0.1650 C.3   1 <1>  -0.0800 
  4 C        1.0350    -0.2160     0.7010 C.3   1 <1>  -0.1600 
  5 C        1.1310     2.0520    -0.4080 C.3   1 <1>  -0.1600 
  6 C        3.8130    -0.5420     0.6720 C.3   1 <1>  -0.0800 
  7 C        4.1340     0.5970    -1.4280 C.3   1 <1>   0.2090 
  8 C        1.5340    -1.6760     0.7630 C.3   1 <1>  -0.1600 
  9 C        1.6860     2.9900    -1.4950 C.3   1 <1>  -0.2400 
 10 C        3.0220    -1.8320     0.3970 C.3   1 <1>  -0.1600 
 11 C        5.2900    -0.6530     0.2770 C.3   1 <1>   0.2090 
 12 N        5.4660     0.1080    -0.9870 N.pl3 1 <1>  -0.8380 
 13 C        6.4830     1.0500    -0.9970 C.ar  1 <1>   0.4100 
 14 N        6.3200     2.1090    -0.2150 N.ar  1 <1>  -0.6200 
 15 C        7.6130     0.8620    -1.8060 C.ar  1 <1>   0.1600 
 16 C        7.3340     2.9570    -0.2940 C.ar  1 <1>   0.4100 
 17 N        8.6380     1.6940    -1.8950 N.ar  1 <1>  -0.6200 
 18 N        7.2360     4.0990     0.4870 N.pl3 1 <1>  -0.8380 
 19 C        8.4520     2.7440    -1.1110 C.ar  1 <1>   0.1600 
 20 C        6.1690     5.0500     0.0830 C.3   1 <1>   0.1290 
 21 C        7.2800     3.8690     1.9540 C.3   1 <1>   0.1290 
 22 H        0.4480     0.0010    -1.6960 H     1 <1>   0.4000 
 23 H        3.5320     1.5210     0.3700 H     1 <1>   0.0800 
 24 H        1.2350     0.2470     1.6520 H     1 <1>   0.0800 
 25 H       -0.0320    -0.2020     0.5680 H     1 <1>   0.0800 
 26 H        0.0640     1.9820    -0.5280 H     1 <1>   0.0800 
 27 H        1.3050     2.5110     0.5500 H     1 <1>   0.0800 
 28 H        3.7450    -0.3150     1.7210 H     1 <1>   0.0800 
 29 H        4.2030     1.5710    -1.8810 H     1 <1>   0.0800 
 30 H        3.7510    -0.0980    -2.1530 H     1 <1>   0.0800 
 31 H        1.3660    -2.0540     1.7570 H     1 <1>   0.0800 
 32 H        0.9540    -2.2810     0.0870 H     1 <1>   0.0800 
 33 H        1.5880     2.5450    -2.4700 H     1 <1>   0.0800 
 34 H        2.7230     3.2100    -1.3160 H     1 <1>   0.0800 
 35 H        1.1430     3.9180    -1.4890 H     1 <1>   0.0800 
 36 H        3.0990    -2.0650    -0.6520 H     1 <1>   0.0800 
 37 H        3.4450    -2.6560     0.9440 H     1 <1>   0.0800 
 38 H        5.5790    -1.6790     0.1290 H     1 <1>   0.0800 
 39 H        5.9070    -0.2270     1.0500 H     1 <1>   0.0800 
 40 H        7.6400    -0.0320    -2.4000 H     1 <1>   0.1500 
 41 H        9.2160     3.4980    -1.0960 H     1 <1>   0.1500 
 42 H        6.3590     6.0190     0.5100 H     1 <1>   0.0800 
 43 H        5.2110     4.6910     0.4180 H     1 <1>   0.0800 
 44 H        6.1470     5.1400    -0.9900 H     1 <1>   0.0800 
 45 H        7.5190     4.7870     2.4630 H     1 <1>   0.0800 
 46 H        8.0320     3.1350     2.1860 H     1 <1>   0.0800 
 47 H        6.3260     3.5070     2.2970 H     1 <1>   0.0800 
@<TRIPOS>BOND
  1   1   2  1   
  2   1  22  1   
  3   2   3  1   
  4   2   4  1   
  5   2   5  1   
  6   3   6  1   
  7   3   7  1   
  8   3  23  1   
  9   4   8  1   
 10   4  24  1   
 11   4  25  1   
 12   5   9  1   
 13   5  26  1   
 14   5  27  1   
 15   6  10  1   
 16   6  11  1   
 17   6  28  1   
 18   7  12  1   
 19   7  29  1   
 20   7  30  1   
 21   8  10  1   
 22   8  31  1   
 23   8  32  1   
 24   9  33  1   
 25   9  34  1   
 26   9  35  1   
 27  10  36  1   
 28  10  37  1   
 29  11  12  1   
 30  11  38  1   
 31  11  39  1   
 32  12  13  1   
 33  13  14  ar  
 34  13  15  ar  
 35  14  16  ar  
 36  15  17  ar  
 37  15  40  1   
 38  16  18  1   
 39  16  19  ar  
 40  17  19  ar  
 41  18  20  1   
 42  18  21  1   
 43  19  41  1   
 44  20  42  1   
 45  20  43  1   
 46  20  44  1   
 47  21  45  1   
 48  21  46  1   
 49  21  47  1   
@<TRIPOS>SUBSTRUCTURE
  1 ****   7 GROUP 4 **** **** 0

# MOE 2024.06 (io_trps.svl 2023.06)
