@<TRIPOS>MOLECULE
NONAME
59 62 1 0 0 
SMALL
USER_CHARGES


@<TRIPOS>ATOM
  1 O        0.7670    -0.0540     1.6390 O.2   1 <1>  -0.5700 
  2 C        1.5360     0.5000     0.8680 C.2   1 <1>   0.5440 
  3 N        1.1210     1.6650     0.2610 N.am  1 <1>  -0.6600 
  4 C        2.8350    -0.0750     0.6000 C.ar  1 <1>   0.0860 
  5 C        1.6740     2.1930    -1.0070 C.3   1 <1>   0.1400 
  6 C       -0.1900     2.2850     0.5600 C.3   1 <1>   0.1400 
  7 C        2.9730    -1.4480     0.3180 C.ar  1 <1>   0.4100 
  8 C        3.9890     0.6970     0.6170 C.ar  1 <1>  -0.1500 
  9 C        0.5140     2.9400    -1.6540 C.3   1 <1>  -0.1600 
 10 C       -0.3540     3.3870    -0.4810 C.3   1 <1>  -0.1600 
 11 N        4.1330    -2.0410     0.0380 N.ar  1 <1>  -0.6200 
 12 N        1.8680    -2.2690     0.3230 N.pl3 1 <1>  -0.8690 
 13 C        5.1880     0.0850     0.3330 C.ar  1 <1>  -0.1500 
 14 C        5.2020    -1.2690     0.0500 C.ar  1 <1>   0.1600 
 15 C        1.9390    -3.7110     0.5480 C.3   1 <1>   0.2890 
 16 C        1.9390    -4.4090    -0.8070 C.3   1 <1>  -0.1600 
 17 C        0.7340    -4.1330     1.3800 C.3   1 <1>  -0.1600 
 18 C        1.8920    -5.9180    -0.6250 C.3   1 <1>   0.3430 
 19 C        0.7020    -5.6500     1.5270 C.3   1 <1>   0.3430 
 20 N        0.6850    -6.2930     0.1780 N.4   1 <1>  -0.9590 
 21 C        0.5360    -7.7750     0.3180 C.3   1 <1>   0.3430 
 22 C        0.1790    -8.4510    -1.0070 C.3   1 <1>  -0.0170 
 23 C       -0.0330    -9.9290    -0.7450 C.ar  1 <1>  -0.1440 
 24 C        1.0390   -10.8080    -0.7950 C.ar  1 <1>  -0.1500 
 25 C       -1.2970   -10.4110    -0.4400 C.ar  1 <1>  -0.1500 
 26 C        0.8490   -12.1540    -0.5370 C.ar  1 <1>  -0.1500 
 27 C       -1.4860   -11.7570    -0.1820 C.ar  1 <1>  -0.1500 
 28 C       -0.4130   -12.6290    -0.2280 C.ar  1 <1>  -0.1500 
 29 H        2.0310     1.3990    -1.6420 H     1 <1>   0.0800 
 30 H        2.4760     2.8760    -0.7860 H     1 <1>   0.0800 
 31 H       -0.2060     2.6750     1.5630 H     1 <1>   0.0800 
 32 H       -0.9640     1.5440     0.4500 H     1 <1>   0.0800 
 33 H        3.9400     1.7460     0.8500 H     1 <1>   0.1500 
 34 H       -0.0380     2.2580    -2.2770 H     1 <1>   0.0800 
 35 H        0.8530     3.7670    -2.2530 H     1 <1>   0.0800 
 36 H        0.0240     4.3090    -0.0740 H     1 <1>   0.0800 
 37 H       -1.3840     3.5220    -0.7590 H     1 <1>   0.0800 
 38 H        1.0500    -1.8120     0.7610 H     1 <1>   0.4000 
 39 H        6.1060     0.6450     0.3320 H     1 <1>   0.1500 
 40 H        6.1460    -1.7370    -0.1740 H     1 <1>   0.1500 
 41 H        2.8450    -3.9510     1.0840 H     1 <1>   0.0800 
 42 H        2.8380    -4.1470    -1.3350 H     1 <1>   0.0800 
 43 H        1.1000    -4.0830    -1.3950 H     1 <1>   0.0800 
 44 H       -0.1780    -3.7950     0.9200 H     1 <1>   0.0800 
 45 H        0.8060    -3.6870     2.3570 H     1 <1>   0.0800 
 46 H        2.7860    -6.2470    -0.1180 H     1 <1>   0.0800 
 47 H        1.8590    -6.3880    -1.5940 H     1 <1>   0.0800 
 48 H       -0.1770    -5.9360     2.0840 H     1 <1>   0.0800 
 49 H        1.5710    -5.9770     2.0760 H     1 <1>   0.0800 
 50 H       -0.1410    -5.9300    -0.3190 H     1 <1>   0.4500 
 51 H       -0.2480    -7.9930     1.0250 H     1 <1>   0.0800 
 52 H        1.4490    -8.2030     0.7020 H     1 <1>   0.0800 
 53 H        0.9700    -8.3350    -1.7260 H     1 <1>   0.0800 
 54 H       -0.7220    -8.0270    -1.4120 H     1 <1>   0.0800 
 55 H        2.0280   -10.4610    -1.0380 H     1 <1>   0.1500 
 56 H       -2.1470    -9.7520    -0.4030 H     1 <1>   0.1500 
 57 H        1.6810   -12.8350    -0.5770 H     1 <1>   0.1500 
 58 H       -2.4680   -12.1300     0.0540 H     1 <1>   0.1500 
 59 H       -0.5610   -13.6770    -0.0280 H     1 <1>   0.1500 
@<TRIPOS>BOND
  1   1   2  2   
  2   2   3  am  
  3   2   4  1   
  4   3   5  1   
  5   3   6  1   
  6   4   7  ar  
  7   4   8  ar  
  8   5   9  1   
  9   5  29  1   
 10   5  30  1   
 11   6  10  1   
 12   6  31  1   
 13   6  32  1   
 14   7  11  ar  
 15   7  12  1   
 16   8  13  ar  
 17   8  33  1   
 18   9  10  1   
 19   9  34  1   
 20   9  35  1   
 21  10  36  1   
 22  10  37  1   
 23  11  14  ar  
 24  12  15  1   
 25  12  38  1   
 26  13  14  ar  
 27  13  39  1   
 28  14  40  1   
 29  15  16  1   
 30  15  17  1   
 31  15  41  1   
 32  16  18  1   
 33  16  42  1   
 34  16  43  1   
 35  17  19  1   
 36  17  44  1   
 37  17  45  1   
 38  18  20  1   
 39  18  46  1   
 40  18  47  1   
 41  19  20  1   
 42  19  48  1   
 43  19  49  1   
 44  20  21  1   
 45  20  50  1   
 46  21  22  1   
 47  21  51  1   
 48  21  52  1   
 49  22  23  1   
 50  22  53  1   
 51  22  54  1   
 52  23  24  ar  
 53  23  25  ar  
 54  24  26  ar  
 55  24  55  1   
 56  25  27  ar  
 57  25  56  1   
 58  26  28  ar  
 59  26  57  1   
 60  27  28  ar  
 61  27  58  1   
 62  28  59  1   
@<TRIPOS>SUBSTRUCTURE
  1 ****  15 GROUP 4 **** **** 0

# MOE 2024.06 (io_trps.svl 2023.06)
