@<TRIPOS>MOLECULE
NONAME
46 48 1 0 0 
SMALL
USER_CHARGES


@<TRIPOS>ATOM
  1 O        0.0710    -0.1750     1.2070 O.2   1 <1>  -0.5700 
  2 C       -0.0820    -1.3130     0.8070 C.2   1 <1>   0.7800 
  3 O        0.9470    -1.9950     0.2910 O.3   1 <1>  -0.4300 
  4 N       -1.2900    -1.9600     0.8820 N.am  1 <1>  -0.6600 
  5 C        2.2680    -1.5380     0.0950 C.3   1 <1>   0.2800 
  6 C       -2.4910    -1.2830     1.4510 C.3   1 <1>   0.1400 
  7 C       -1.4610    -3.3920     0.5120 C.3   1 <1>   0.1400 
  8 C        2.2790    -0.3550    -0.8800 C.3   1 <1>  -0.2400 
  9 C        3.0080    -2.7180    -0.5370 C.3   1 <1>  -0.2400 
 10 C        2.9200    -1.1980     1.4410 C.3   1 <1>  -0.2400 
 11 C       -3.7170    -1.5030     0.5590 C.3   1 <1>  -0.1600 
 12 C       -2.7260    -3.6000    -0.3310 C.3   1 <1>  -0.1600 
 13 C       -4.0050    -2.9960     0.2950 C.3   1 <1>   0.0000 
 14 C       -5.2130    -3.2750    -0.6530 C.3   1 <1>  -0.0190 
 15 C       -4.3810    -3.7250     1.6020 C.3   1 <1>  -0.1600 
 16 C       -6.3260    -2.2440    -0.6890 C.2   1 <1>   0.2420 
 17 C       -5.9730    -4.4480    -0.0390 C.3   1 <1>   0.2000 
 18 C       -5.1720    -4.9500     1.1570 C.3   1 <1>  -0.1600 
 19 N       -7.3520    -2.6490    -0.0370 N.2   1 <1>  -0.5130 
 20 C       -6.0970    -1.0230    -1.4590 C.2   1 <1>   0.9470 
 21 O       -7.1650    -3.8600     0.4280 O.3   1 <1>  -0.2170 
 22 O       -5.2330    -1.0120    -2.3650 O.co2 1 <1>  -0.9000 
 23 O       -6.7130     0.0430    -1.2490 O.co2 1 <1>  -0.9000 
 24 H       -2.6780    -1.6700     2.4360 H     1 <1>   0.0800 
 25 H       -2.3160    -0.2240     1.5400 H     1 <1>   0.0800 
 26 H       -0.6140    -3.7400    -0.0530 H     1 <1>   0.0800 
 27 H       -1.5110    -3.9770     1.4130 H     1 <1>   0.0800 
 28 H        3.2900    -0.1020    -1.1400 H     1 <1>   0.0800 
 29 H        1.8300     0.5150    -0.4380 H     1 <1>   0.0800 
 30 H        1.7470    -0.6070    -1.7790 H     1 <1>   0.0800 
 31 H        4.0350    -2.4600    -0.7220 H     1 <1>   0.0800 
 32 H        2.5510    -2.9860    -1.4730 H     1 <1>   0.0800 
 33 H        2.9850    -3.5680     0.1210 H     1 <1>   0.0800 
 34 H        3.9650    -0.9900     1.3000 H     1 <1>   0.0800 
 35 H        2.8250    -2.0240     2.1210 H     1 <1>   0.0800 
 36 H        2.4720    -0.3260     1.8790 H     1 <1>   0.0800 
 37 H       -4.5670    -1.0320     1.0210 H     1 <1>   0.0800 
 38 H       -3.5400    -0.9950    -0.3740 H     1 <1>   0.0800 
 39 H       -2.5580    -3.1360    -1.2880 H     1 <1>   0.0800 
 40 H       -2.8540    -4.6520    -0.5100 H     1 <1>   0.0800 
 41 H       -4.8960    -3.5050    -1.6540 H     1 <1>   0.0800 
 42 H       -3.5420    -3.9910     2.2170 H     1 <1>   0.0800 
 43 H       -5.0370    -3.0950     2.1810 H     1 <1>   0.0800 
 44 H       -6.2300    -5.2130    -0.7490 H     1 <1>   0.0800 
 45 H       -5.8100    -5.3340     1.9330 H     1 <1>   0.0800 
 46 H       -4.4970    -5.7230     0.8360 H     1 <1>   0.0800 
@<TRIPOS>BOND
  1   1   2  2   
  2   2   3  1   
  3   2   4  am  
  4   3   5  1   
  5   4   6  1   
  6   4   7  1   
  7   5   8  1   
  8   5   9  1   
  9   5  10  1   
 10   6  11  1   
 11   6  24  1   
 12   6  25  1   
 13   7  12  1   
 14   7  26  1   
 15   7  27  1   
 16   8  28  1   
 17   8  29  1   
 18   8  30  1   
 19   9  31  1   
 20   9  32  1   
 21   9  33  1   
 22  10  34  1   
 23  10  35  1   
 24  10  36  1   
 25  11  13  1   
 26  11  37  1   
 27  11  38  1   
 28  12  13  1   
 29  12  39  1   
 30  12  40  1   
 31  13  14  1   
 32  13  15  1   
 33  14  16  1   
 34  14  17  1   
 35  14  41  1   
 36  15  18  1   
 37  15  42  1   
 38  15  43  1   
 39  16  19  2   
 40  16  20  1   
 41  17  18  1   
 42  17  21  1   
 43  17  44  1   
 44  18  45  1   
 45  18  46  1   
 46  19  21  1   
 47  20  22  ar  
 48  20  23  ar  
@<TRIPOS>SUBSTRUCTURE
  1 ****  11 GROUP 4 **** **** 0

# MOE 2024.06 (io_trps.svl 2023.06)
