@<TRIPOS>MOLECULE
NONAME
51 52 1 0 0 
SMALL
USER_CHARGES


@<TRIPOS>ATOM
  1 O       -0.4670    -0.5590     0.3410 O.2   1 <1>  -0.5700 
  2 C        0.1840    -1.5600     0.0970 C.2   1 <1>   0.6900 
  3 N        1.3960    -1.4850    -0.5420 N.am  1 <1>  -0.6600 
  4 N       -0.3090    -2.7690     0.4470 N.am  1 <1>  -0.7300 
  5 C        1.9020    -0.1980    -1.0950 C.3   1 <1>   0.0600 
  6 C        2.3240    -2.6390    -0.6910 C.3   1 <1>   0.0600 
  7 C       -1.6920    -3.0040     0.9490 C.3   1 <1>   0.2010 
  8 C       -2.3130    -4.3050     0.4170 C.2   1 <1>   0.5690 
  9 O       -1.5690    -5.1230    -0.0810 O.2   1 <1>  -0.5700 
 10 N       -3.6690    -4.5270     0.5020 N.am  1 <1>  -0.6600 
 11 C       -4.2780    -5.7730    -0.0600 C.3   1 <1>   0.1400 
 12 C       -4.6390    -3.5540     1.0790 C.3   1 <1>   0.1400 
 13 C       -5.2350    -5.4720    -1.2240 C.3   1 <1>   0.1400 
 14 C       -5.2380    -2.7070    -0.0490 C.3   1 <1>  -0.1600 
 15 N       -6.4920    -4.8120    -0.7450 N.am  1 <1>  -0.6600 
 16 C       -6.4780    -3.3160    -0.7240 C.3   1 <1>   0.1400 
 17 C       -7.6310    -5.4990    -0.3980 C.2   1 <1>   0.5690 
 18 O       -8.6430    -4.9270    -0.0660 O.2   1 <1>  -0.5700 
 19 C       -7.6590    -7.0170    -0.4320 C.3   1 <1>  -0.0990 
 20 C       -8.8470    -7.5980     0.3480 C.3   1 <1>   0.0960 
 21 N       -8.8300    -9.0710     0.2950 N.pl3 1 <1>   0.3140 
 22 N       -7.7990    -9.7930     0.7750 N.2   1 <1>  -0.7070 
 23 C       -9.7850    -9.8710    -0.2220 C.2   1 <1>  -0.3020 
 24 C       -8.1260   -11.0300     0.5560 C.2   1 <1>   0.1390 
 25 C       -9.3620   -11.1430    -0.0690 C.2   1 <1>  -0.1500 
 26 H        0.1020    -3.5930     0.0070 H     1 <1>   0.3700 
 27 H        1.1280     0.5500    -1.0940 H     1 <1>   0.0800 
 28 H        2.2350    -0.3430    -2.1070 H     1 <1>   0.0800 
 29 H        2.7220     0.1540    -0.4950 H     1 <1>   0.0800 
 30 H        2.1640    -3.3600     0.0920 H     1 <1>   0.0800 
 31 H        3.3440    -2.3000    -0.6310 H     1 <1>   0.0800 
 32 H        2.1650    -3.1090    -1.6460 H     1 <1>   0.0800 
 33 H       -2.3120    -2.1760     0.6590 H     1 <1>   0.0800 
 34 H       -1.6640    -3.0500     2.0220 H     1 <1>   0.0800 
 35 H       -4.8000    -6.2970     0.7200 H     1 <1>   0.0800 
 36 H       -3.5060    -6.4290    -0.4210 H     1 <1>   0.0800 
 37 H       -4.1430    -2.9140     1.7870 H     1 <1>   0.0800 
 38 H       -5.4160    -4.0770     1.6140 H     1 <1>   0.0800 
 39 H       -5.4760    -6.3930    -1.7240 H     1 <1>   0.0800 
 40 H       -4.7380    -4.8440    -1.9430 H     1 <1>   0.0800 
 41 H       -4.4860    -2.5020    -0.7900 H     1 <1>   0.0800 
 42 H       -5.5330    -1.7570     0.3580 H     1 <1>   0.0800 
 43 H       -6.5510    -2.9520    -1.7350 H     1 <1>   0.0800 
 44 H       -7.3460    -2.9600    -0.1970 H     1 <1>   0.0800 
 45 H       -6.7550    -7.3960     0.0040 H     1 <1>   0.0800 
 46 H       -7.7170    -7.3330    -1.4560 H     1 <1>   0.0800 
 47 H       -9.7740    -7.2460    -0.0670 H     1 <1>   0.0800 
 48 H       -8.7950    -7.2970     1.3780 H     1 <1>   0.0800 
 49 H      -10.6920    -9.4980    -0.6600 H     1 <1>   0.1500 
 50 H       -7.5030   -11.8640     0.8300 H     1 <1>   0.1500 
 51 H       -9.8480   -12.0590    -0.3540 H     1 <1>   0.1500 
@<TRIPOS>BOND
  1   1   2  2   
  2   2   3  am  
  3   2   4  am  
  4   3   5  1   
  5   3   6  1   
  6   4   7  1   
  7   4  26  1   
  8   5  27  1   
  9   5  28  1   
 10   5  29  1   
 11   6  30  1   
 12   6  31  1   
 13   6  32  1   
 14   7   8  1   
 15   7  33  1   
 16   7  34  1   
 17   8   9  2   
 18   8  10  am  
 19  10  11  1   
 20  10  12  1   
 21  11  13  1   
 22  11  35  1   
 23  11  36  1   
 24  12  14  1   
 25  12  37  1   
 26  12  38  1   
 27  13  15  1   
 28  13  39  1   
 29  13  40  1   
 30  14  16  1   
 31  14  41  1   
 32  14  42  1   
 33  15  16  1   
 34  15  17  am  
 35  16  43  1   
 36  16  44  1   
 37  17  18  2   
 38  17  19  1   
 39  19  20  1   
 40  19  45  1   
 41  19  46  1   
 42  20  21  1   
 43  20  47  1   
 44  20  48  1   
 45  21  22  1   
 46  21  23  1   
 47  22  24  2   
 48  23  25  2   
 49  23  49  1   
 50  24  25  1   
 51  24  50  1   
 52  25  51  1   
@<TRIPOS>SUBSTRUCTURE
  1 ****  11 GROUP 4 **** **** 0

# MOE 2024.06 (io_trps.svl 2023.06)
