@<TRIPOS>MOLECULE
NONAME
48 50 1 0 0 
SMALL
USER_CHARGES


@<TRIPOS>ATOM
  1 O       -1.9960     1.5110    -2.2690 O.3   1 <1>  -0.3630 
  2 C       -2.9980     1.4750    -1.3550 C.ar  1 <1>   0.0830 
  3 C       -2.1950     2.0720    -3.5480 C.3   1 <1>   0.0400 
  4 C       -4.2530     2.0410    -1.5570 C.ar  1 <1>  -0.1500 
  5 C       -2.7270     0.8300    -0.1600 C.ar  1 <1>  -0.1500 
  6 C       -5.2200     1.9500    -0.5710 C.ar  1 <1>  -0.1500 
  7 C       -3.6950     0.7370     0.8230 C.ar  1 <1>  -0.1500 
  8 C       -4.9550     1.2890     0.6230 C.ar  1 <1>  -0.0230 
  9 N       -5.9590     1.1720     1.6170 N.pl3 1 <1>   0.3260 
 10 C       -6.6870     0.0820     1.9930 C.2   1 <1>   0.0060 
 11 C       -6.4110     2.1560     2.4230 C.2   1 <1>  -0.3020 
 12 N       -7.5290     0.3150     2.9540 N.2   1 <1>  -0.5650 
 13 C       -6.5010    -1.2860     1.3300 C.3   1 <1>   0.2900 
 14 C       -7.3550     1.6220     3.2230 C.2   1 <1>   0.0770 
 15 N       -7.5350    -1.5980     0.3180 N.3   1 <1>  -0.8100 
 16 C       -8.8640    -1.6690     0.9530 C.3   1 <1>   0.2900 
 17 C       -7.4770    -0.6460    -0.8140 C.3   1 <1>   0.1100 
 18 C       -9.7250    -2.7140     0.2720 C.2   1 <1>  -0.3320 
 19 C       -8.1980    -1.1470    -2.0700 C.3   1 <1>   0.1200 
 20 N      -11.0640    -2.7590     0.3890 N.pl3 1 <1>   0.0330 
 21 C       -9.3850    -3.7550    -0.5200 C.2   1 <1>   0.0770 
 22 O       -8.0960    -0.1790    -3.0630 O.3   1 <1>  -0.6800 
 23 C      -11.4540    -3.8200    -0.3500 C.2   1 <1>   0.0060 
 24 N      -10.4740    -4.4430    -0.9150 N.2   1 <1>  -0.5650 
 25 C      -12.9030    -4.2310    -0.4950 C.3   1 <1>  -0.0600 
 26 H       -1.2830     1.9590    -4.1070 H     1 <1>   0.0800 
 27 H       -2.4290     3.1160    -3.4390 H     1 <1>   0.0800 
 28 H       -2.9930     1.5460    -4.0400 H     1 <1>   0.0800 
 29 H       -4.4930     2.5530    -2.4700 H     1 <1>   0.1500 
 30 H       -1.7520     0.4010    -0.0090 H     1 <1>   0.1500 
 31 H       -6.1880     2.3910    -0.7350 H     1 <1>   0.1500 
 32 H       -3.4680     0.2340     1.7480 H     1 <1>   0.1500 
 33 H       -6.0310     3.1590     2.3760 H     1 <1>   0.1500 
 34 H       -6.5290    -2.0420     2.0960 H     1 <1>   0.0800 
 35 H       -5.5320    -1.3490     0.8690 H     1 <1>   0.0800 
 36 H       -7.9270     2.1140     3.9930 H     1 <1>   0.1500 
 37 H       -9.3390    -0.7030     0.9240 H     1 <1>   0.0800 
 38 H       -8.7670    -1.9540     1.9880 H     1 <1>   0.0800 
 39 H       -6.4460    -0.4990    -1.0860 H     1 <1>   0.0800 
 40 H       -7.8920     0.3000    -0.5120 H     1 <1>   0.0800 
 41 H       -9.2430    -1.3270    -1.8910 H     1 <1>   0.0800 
 42 H       -7.7310    -2.0460    -2.4320 H     1 <1>   0.0800 
 43 H      -11.6680    -2.1310     0.9260 H     1 <1>   0.2700 
 44 H       -8.3930    -4.0420    -0.8280 H     1 <1>   0.1500 
 45 H       -8.7280     0.5460    -2.8970 H     1 <1>   0.4000 
 46 H      -13.4700    -3.4350    -0.9410 H     1 <1>   0.0800 
 47 H      -13.3160    -4.4720     0.4670 H     1 <1>   0.0800 
 48 H      -12.9700    -5.0990    -1.1260 H     1 <1>   0.0800 
@<TRIPOS>BOND
  1   1   2  1   
  2   1   3  1   
  3   2   4  ar  
  4   2   5  ar  
  5   3  26  1   
  6   3  27  1   
  7   3  28  1   
  8   4   6  ar  
  9   4  29  1   
 10   5   7  ar  
 11   5  30  1   
 12   6   8  ar  
 13   6  31  1   
 14   7   8  ar  
 15   7  32  1   
 16   8   9  1   
 17   9  10  1   
 18   9  11  1   
 19  10  12  2   
 20  10  13  1   
 21  11  14  2   
 22  11  33  1   
 23  12  14  1   
 24  13  15  1   
 25  13  34  1   
 26  13  35  1   
 27  14  36  1   
 28  15  16  1   
 29  15  17  1   
 30  16  18  1   
 31  16  37  1   
 32  16  38  1   
 33  17  19  1   
 34  17  39  1   
 35  17  40  1   
 36  18  20  1   
 37  18  21  2   
 38  19  22  1   
 39  19  41  1   
 40  19  42  1   
 41  20  23  1   
 42  20  43  1   
 43  21  24  1   
 44  21  44  1   
 45  22  45  1   
 46  23  24  2   
 47  23  25  1   
 48  25  46  1   
 49  25  47  1   
 50  25  48  1   
@<TRIPOS>SUBSTRUCTURE
  1 ****  17 GROUP 4 **** **** 0

# MOE 2024.06 (io_trps.svl 2023.06)
