@<TRIPOS>MOLECULE
NONAME
42 44 1 0 0 
SMALL
USER_CHARGES


@<TRIPOS>ATOM
  1 S        0.1360     0.4490    -0.5880 S.3   1 <1>  -0.0800 
  2 C       -1.4390     1.1400    -0.1680 C.2   1 <1>  -0.0450 
  3 C       -0.4850    -1.1810    -0.5630 C.2   1 <1>  -0.1100 
  4 C       -2.3350     0.1230    -0.0310 C.2   1 <1>  -0.1810 
  5 C       -1.5350     2.5740    -0.0220 C.2   1 <1>   0.7150 
  6 C       -1.7950    -1.1840    -0.2630 C.2   1 <1>  -0.1810 
  7 C       -3.7930     0.3080     0.3780 C.3   1 <1>   0.0210 
  8 O       -2.5780     3.1030     0.3160 O.2   1 <1>  -0.5700 
  9 N       -0.4240     3.3470    -0.2600 N.am  1 <1>  -0.4940 
 10 C       -2.6530    -2.4370    -0.1900 C.3   1 <1>   0.0210 
 11 C       -4.6500    -0.9400     0.1250 C.3   1 <1>  -0.1600 
 12 C       -0.1780     4.7370    -0.1510 C.2   1 <1>  -0.0880 
 13 C       -3.9350    -2.2050     0.6160 C.3   1 <1>  -0.1600 
 14 N       -1.0320     5.7690    -0.4080 N.pl3 1 <1>   0.3140 
 15 C        1.0010     5.3020     0.2070 C.2   1 <1>  -0.1810 
 16 N       -0.4260     6.9640    -0.2260 N.2   1 <1>  -0.7070 
 17 C       -2.4070     5.7260    -0.9200 C.3   1 <1>   0.0160 
 18 C        0.7800     6.6750     0.1410 C.2   1 <1>   0.1080 
 19 C        2.2890     4.6000     0.6030 C.3   1 <1>   0.0210 
 20 C        1.7950     7.7510     0.4520 C.3   1 <1>  -0.0590 
 21 C        3.1570     4.3360    -0.6280 C.3   1 <1>  -0.2400 
 22 H        0.2000    -1.9800    -0.7860 H     1 <1>   0.1500 
 23 H       -4.2210     1.1420    -0.1500 H     1 <1>   0.0800 
 24 H       -3.8170     0.5400     1.4280 H     1 <1>   0.0800 
 25 H        0.4100     2.7890    -0.4360 H     1 <1>   0.3700 
 26 H       -2.0890    -3.2430     0.2440 H     1 <1>   0.0800 
 27 H       -2.9200    -2.7210    -1.1930 H     1 <1>   0.0800 
 28 H       -4.8460    -1.0270    -0.9300 H     1 <1>   0.0800 
 29 H       -5.5940    -0.8310     0.6310 H     1 <1>   0.0800 
 30 H       -3.6890    -2.0980     1.6590 H     1 <1>   0.0800 
 31 H       -4.5840    -3.0570     0.5110 H     1 <1>   0.0800 
 32 H       -2.5060     4.9100    -1.6090 H     1 <1>   0.0800 
 33 H       -2.6260     6.6500    -1.4210 H     1 <1>   0.0800 
 34 H       -3.0820     5.5940    -0.0960 H     1 <1>   0.0800 
 35 H        2.0550     3.6690     1.0880 H     1 <1>   0.0800 
 36 H        2.8280     5.2060     1.3100 H     1 <1>   0.0800 
 37 H        2.7400     7.5110     0.0050 H     1 <1>   0.0800 
 38 H        1.9110     7.8390     1.5160 H     1 <1>   0.0800 
 39 H        1.4550     8.6930     0.0600 H     1 <1>   0.0800 
 40 H        2.6270     3.7190    -1.3310 H     1 <1>   0.0800 
 41 H        4.0650     3.8370    -0.3420 H     1 <1>   0.0800 
 42 H        3.4080     5.2650    -1.1100 H     1 <1>   0.0800 
@<TRIPOS>BOND
  1   1   2  1   
  2   1   3  1   
  3   2   4  2   
  4   2   5  1   
  5   3   6  2   
  6   3  22  1   
  7   4   6  1   
  8   4   7  1   
  9   5   8  2   
 10   5   9  am  
 11   6  10  1   
 12   7  11  1   
 13   7  23  1   
 14   7  24  1   
 15   9  12  1   
 16   9  25  1   
 17  10  13  1   
 18  10  26  1   
 19  10  27  1   
 20  11  13  1   
 21  11  28  1   
 22  11  29  1   
 23  12  14  1   
 24  12  15  2   
 25  13  30  1   
 26  13  31  1   
 27  14  16  1   
 28  14  17  1   
 29  15  18  1   
 30  15  19  1   
 31  16  18  2   
 32  17  32  1   
 33  17  33  1   
 34  17  34  1   
 35  18  20  1   
 36  19  21  1   
 37  19  35  1   
 38  19  36  1   
 39  20  37  1   
 40  20  38  1   
 41  20  39  1   
 42  21  40  1   
 43  21  41  1   
 44  21  42  1   
@<TRIPOS>SUBSTRUCTURE
  1 ****   5 GROUP 4 **** **** 0

# MOE 2024.06 (io_trps.svl 2023.06)
