@<TRIPOS>MOLECULE
NONAME
52 55 1 0 0 
SMALL
USER_CHARGES


@<TRIPOS>ATOM
  1 O        0.8280     1.4200    -1.4890 O.co2 1 <1>  -0.9000 
  2 C       -0.3820     1.6840    -1.4760 C.2   1 <1>   0.9060 
  3 O       -1.0820     1.5640    -2.4970 O.co2 1 <1>  -0.9000 
  4 C       -1.0400     2.0300    -0.1120 C.3   1 <1>   0.2280 
  5 N       -2.3190     1.3060     0.1420 N.3   1 <1>  -0.6890 
  6 C       -1.3310     3.5200     0.0810 C.ar  1 <1>  -0.1440 
  7 C       -2.6460     1.0410     1.5640 C.3   1 <1>   0.2100 
  8 C       -2.1590    -0.1670    -0.0120 C.3   1 <1>   0.2100 
  9 C       -1.9650     4.2500    -0.8900 C.ar  1 <1>  -0.1500 
 10 C       -0.9650     4.1520     1.2790 C.ar  1 <1>  -0.1500 
 11 C       -3.3340    -0.2440     1.0030 C.3   1 <1>   0.4720 
 12 C       -2.2690     5.6140    -0.7140 C.ar  1 <1>   0.0000 
 13 C       -1.2480     5.4750     1.4790 C.ar  1 <1>  -0.1500 
 14 N       -4.6600     0.0400     0.3500 N.4   1 <1>  -0.9280 
 15 C       -1.9100     6.2390     0.4980 C.ar  1 <1>   0.0000 
 16 C       -2.9200     6.3770    -1.7030 C.ar  1 <1>  -0.1500 
 17 C       -5.7160     0.4260     1.3200 C.3   1 <1>   0.3430 
 18 C       -5.0730    -1.0290    -0.5970 C.3   1 <1>   0.3430 
 19 C       -2.2260     7.5990     0.6760 C.ar  1 <1>  -0.1500 
 20 C       -3.2160     7.6980    -1.5060 C.ar  1 <1>  -0.1500 
 21 C       -6.9600     0.8970     0.5640 C.3   1 <1>  -0.1600 
 22 C       -6.3110    -0.5780    -1.3730 C.3   1 <1>  -0.1600 
 23 C       -2.8660     8.3240    -0.2940 C.ar  1 <1>   0.0830 
 24 C       -7.4530    -0.1570    -0.4380 C.3   1 <1>  -0.1600 
 25 O       -3.1310     9.6270    -0.0310 O.3   1 <1>  -0.3620 
 26 C       -3.7880    10.4540    -0.9650 C.3   1 <1>   0.0400 
 27 H       -0.3170     1.7300     0.6240 H     1 <1>   0.0800 
 28 H       -3.3130     1.7750     1.9780 H     1 <1>   0.0000 
 29 H       -1.7730     0.8460     2.1650 H     1 <1>   0.0000 
 30 H       -1.2210    -0.5290     0.3760 H     1 <1>   0.0000 
 31 H       -2.3840    -0.5070    -1.0070 H     1 <1>   0.0000 
 32 H       -2.2440     3.7790    -1.8170 H     1 <1>   0.1500 
 33 H       -0.4560     3.5830     2.0370 H     1 <1>   0.1500 
 34 H       -3.3380    -1.1000     1.6530 H     1 <1>   0.0000 
 35 H       -0.9650     5.9580     2.3960 H     1 <1>   0.1500 
 36 H       -4.4170     0.8740    -0.2180 H     1 <1>   0.4500 
 37 H       -3.1780     5.8890    -2.6260 H     1 <1>   0.1500 
 38 H       -5.3630     1.2220     1.9550 H     1 <1>   0.0800 
 39 H       -5.9680    -0.4210     1.9380 H     1 <1>   0.0800 
 40 H       -5.2960    -1.9320    -0.0520 H     1 <1>   0.0800 
 41 H       -4.2760    -1.2370    -1.2930 H     1 <1>   0.0800 
 42 H       -1.9550     8.0770     1.5980 H     1 <1>   0.1500 
 43 H       -3.7140     8.2460    -2.2820 H     1 <1>   0.1500 
 44 H       -6.7320     1.8140     0.0480 H     1 <1>   0.0800 
 45 H       -7.7420     1.1120     1.2710 H     1 <1>   0.0800 
 46 H       -6.6430    -1.3830    -2.0050 H     1 <1>   0.0800 
 47 H       -6.0420     0.2430    -2.0160 H     1 <1>   0.0800 
 48 H       -8.2700     0.2430    -1.0160 H     1 <1>   0.0800 
 49 H       -7.8190    -1.0180     0.0950 H     1 <1>   0.0800 
 50 H       -3.8850    11.4330    -0.5330 H     1 <1>   0.0800 
 51 H       -4.7620    10.0450    -1.1680 H     1 <1>   0.0800 
 52 H       -3.1950    10.5070    -1.8610 H     1 <1>   0.0800 
@<TRIPOS>BOND
  1   1   2  ar  
  2   2   3  ar  
  3   2   4  1   
  4   4   5  1   
  5   4   6  1   
  6   4  27  1   
  7   5   7  1   
  8   5   8  1   
  9   6   9  ar  
 10   6  10  ar  
 11   7  11  1   
 12   7  28  1   
 13   7  29  1   
 14   8  11  1   
 15   8  30  1   
 16   8  31  1   
 17   9  12  ar  
 18   9  32  1   
 19  10  13  ar  
 20  10  33  1   
 21  11  14  1   
 22  11  34  1   
 23  12  15  ar  
 24  12  16  ar  
 25  13  15  ar  
 26  13  35  1   
 27  14  17  1   
 28  14  18  1   
 29  14  36  1   
 30  15  19  ar  
 31  16  20  ar  
 32  16  37  1   
 33  17  21  1   
 34  17  38  1   
 35  17  39  1   
 36  18  22  1   
 37  18  40  1   
 38  18  41  1   
 39  19  23  ar  
 40  19  42  1   
 41  20  23  ar  
 42  20  43  1   
 43  21  24  1   
 44  21  44  1   
 45  21  45  1   
 46  22  24  1   
 47  22  46  1   
 48  22  47  1   
 49  23  25  1   
 50  24  48  1   
 51  24  49  1   
 52  25  26  1   
 53  26  50  1   
 54  26  51  1   
 55  26  52  1   
@<TRIPOS>SUBSTRUCTURE
  1 ****   9 GROUP 4 **** **** 0

# MOE 2024.06 (io_trps.svl 2023.06)
