@<TRIPOS>MOLECULE
NONAME
35 37 1 0 0 
SMALL
USER_CHARGES


@<TRIPOS>ATOM
  1 F       -1.1800    -0.1180     0.6450 F     1 <1>  -0.1900 
  2 C       -2.0590    -0.9420     0.1290 C.ar  1 <1>   0.1900 
  3 C       -1.9870    -2.2990     0.4250 C.ar  1 <1>   0.0820 
  4 C       -3.0280    -0.4110    -0.6970 C.ar  1 <1>  -0.1500 
  5 O       -1.0370    -2.7620     1.2670 O.3   1 <1>  -0.3630 
  6 C       -2.9290    -3.1690    -0.1360 C.ar  1 <1>   0.0860 
  7 C       -3.9650    -1.2670    -1.2520 C.ar  1 <1>  -0.1500 
  8 C        0.2010    -3.1200     0.6960 C.3   1 <1>   0.0400 
  9 C       -2.9130    -4.5940     0.1080 C.2   1 <1>   0.5440 
 10 C       -3.9070    -2.6220    -0.9720 C.ar  1 <1>  -0.1500 
 11 O       -2.0430    -5.2760    -0.4060 O.2   1 <1>  -0.5700 
 12 N       -3.8860    -5.1990     0.8610 N.am  1 <1>  -0.6600 
 13 C       -5.0240    -4.5060     1.5320 C.3   1 <1>   0.2350 
 14 C       -4.2090    -6.6510     0.7540 C.3   1 <1>   0.2350 
 15 C       -6.2370    -5.3660     1.2360 C.3   1 <1>  -0.2420 
 16 C       -5.7300    -6.7130     0.7770 C.3   1 <1>  -0.2420 
 17 C       -7.4120    -4.9420     2.1200 C.2   1 <1>   0.9470 
 18 C       -6.5370    -5.8510    -0.1620 C.3   1 <1>  -0.2000 
 19 C       -6.2180    -8.1290     1.0950 C.2   1 <1>   0.9470 
 20 O       -8.4580    -4.5430     1.5890 O.co2 1 <1>  -0.9000 
 21 O       -7.2330    -4.8310     3.3400 O.co2 1 <1>  -0.9000 
 22 O       -5.7230    -8.7300     2.0590 O.co2 1 <1>  -0.9000 
 23 O       -6.9770    -8.7070     0.3050 O.co2 1 <1>  -0.9000 
 24 H       -3.0500     0.6450    -0.8990 H     1 <1>   0.1500 
 25 H       -4.7370    -0.8820    -1.8970 H     1 <1>   0.1500 
 26 H        0.8340    -3.4970     1.4780 H     1 <1>   0.0800 
 27 H        0.6440    -2.2480     0.2480 H     1 <1>   0.0800 
 28 H        0.0400    -3.8830    -0.0450 H     1 <1>   0.0800 
 29 H       -4.6390    -3.2860    -1.4020 H     1 <1>   0.1500 
 30 H       -4.8450    -4.4830     2.5940 H     1 <1>   0.0800 
 31 H       -5.1760    -3.5050     1.1750 H     1 <1>   0.0800 
 32 H       -3.8220    -7.0780    -0.1540 H     1 <1>   0.0800 
 33 H       -3.8000    -7.1700     1.6040 H     1 <1>   0.0800 
 34 H       -6.0540    -5.3970    -1.0050 H     1 <1>   0.1000 
 35 H       -7.5450    -6.1610    -0.3810 H     1 <1>   0.1000 
@<TRIPOS>BOND
  1   1   2  1   
  2   2   3  ar  
  3   2   4  ar  
  4   3   5  1   
  5   3   6  ar  
  6   4   7  ar  
  7   4  24  1   
  8   5   8  1   
  9   6   9  1   
 10   6  10  ar  
 11   7  10  ar  
 12   7  25  1   
 13   8  26  1   
 14   8  27  1   
 15   8  28  1   
 16   9  11  2   
 17   9  12  am  
 18  10  29  1   
 19  12  13  1   
 20  12  14  1   
 21  13  15  1   
 22  13  30  1   
 23  13  31  1   
 24  14  16  1   
 25  14  32  1   
 26  14  33  1   
 27  15  16  1   
 28  15  17  1   
 29  15  18  1   
 30  16  18  1   
 31  16  19  1   
 32  17  20  ar  
 33  17  21  ar  
 34  18  34  1   
 35  18  35  1   
 36  19  22  ar  
 37  19  23  ar  
@<TRIPOS>SUBSTRUCTURE
  1 ****  12 GROUP 4 **** **** 0

# MOE 2024.06 (io_trps.svl 2023.06)
