@<TRIPOS>MOLECULE
NONAME
51 53 1 0 0 
SMALL
USER_CHARGES


@<TRIPOS>ATOM
  1 O        0.0070    -0.2480     0.3070 O.2   1 <1>  -0.5700 
  2 C        1.0740    -0.8120     0.1530 C.2   1 <1>   0.5440 
  3 N        2.2210    -0.0780    -0.0520 N.am  1 <1>  -0.4940 
  4 C        1.1490    -2.2560     0.1710 C.ar  1 <1>   0.0860 
  5 C        2.4690     1.3170    -0.0310 C.2   1 <1>  -0.0880 
  6 C        0.0990    -3.0350    -0.3200 C.ar  1 <1>  -0.1500 
  7 C        2.2630    -2.9340     0.6730 C.ar  1 <1>  -0.1500 
  8 N        1.6570     2.3160    -0.4800 N.pl3 1 <1>   0.3140 
  9 C        3.5970     1.9200     0.4170 C.2   1 <1>  -0.1810 
 10 C        0.1530    -4.4160    -0.3380 C.ar  1 <1>  -0.1430 
 11 C        2.3270    -4.3120     0.6600 C.ar  1 <1>  -0.1500 
 12 N        2.2400     3.5260    -0.3330 N.2   1 <1>  -0.7070 
 13 C        0.3570     2.2190    -1.1560 C.3   1 <1>   0.0160 
 14 C        3.3910     3.2810     0.2050 C.2   1 <1>   0.1080 
 15 C        4.8340     1.2850     1.0280 C.3   1 <1>  -0.0590 
 16 C        1.2810    -5.0740     0.1530 C.ar  1 <1>   0.1000 
 17 C       -1.0200    -5.2140    -0.8900 C.3   1 <1>  -0.0970 
 18 C        4.3680     4.3930     0.5430 C.3   1 <1>   0.0210 
 19 N        1.3630    -6.4560     0.1480 N.pl3 1 <1>  -0.8380 
 20 C        5.3270     4.6600    -0.6210 C.3   1 <1>  -0.2400 
 21 C        1.2280    -7.1580     1.4560 C.3   1 <1>   0.2090 
 22 C        2.3730    -7.0960    -0.7420 C.3   1 <1>   0.2090 
 23 C        1.0550    -8.6730     1.2470 C.3   1 <1>   0.1200 
 24 C        2.1360    -8.6140    -0.8320 C.3   1 <1>   0.1200 
 25 O        2.0820    -9.1910     0.4440 O.3   1 <1>  -0.5600 
 26 H        3.0600    -0.6410    -0.1700 H     1 <1>   0.3700 
 27 H       -0.7740    -2.5290    -0.6950 H     1 <1>   0.1500 
 28 H        3.0840    -2.3810     1.0890 H     1 <1>   0.1500 
 29 H        3.1910    -4.8170     1.0500 H     1 <1>   0.1500 
 30 H        0.3360     1.3360    -1.7640 H     1 <1>   0.0800 
 31 H        0.2130     3.0870    -1.7710 H     1 <1>   0.0800 
 32 H       -0.4170     2.1710    -0.4140 H     1 <1>   0.0800 
 33 H        4.7230     0.2190     1.0970 H     1 <1>   0.0800 
 34 H        4.9910     1.6750     2.0170 H     1 <1>   0.0800 
 35 H        5.6940     1.5050     0.4230 H     1 <1>   0.0800 
 36 H       -1.8030    -4.5670    -1.2410 H     1 <1>   0.0800 
 37 H       -1.4170    -5.8520    -0.1210 H     1 <1>   0.0800 
 38 H       -0.6870    -5.8280    -1.7070 H     1 <1>   0.0800 
 39 H        4.9230     4.1310     1.4250 H     1 <1>   0.0800 
 40 H        3.8090     5.2860     0.7590 H     1 <1>   0.0800 
 41 H        5.8990     3.7770    -0.8440 H     1 <1>   0.0800 
 42 H        6.0000     5.4610    -0.3730 H     1 <1>   0.0800 
 43 H        4.7650     4.9360    -1.4960 H     1 <1>   0.0800 
 44 H        0.3760    -6.7660     1.9830 H     1 <1>   0.0800 
 45 H        2.1050    -6.9800     2.0540 H     1 <1>   0.0800 
 46 H        3.3620    -6.9140    -0.3570 H     1 <1>   0.0800 
 47 H        2.3080    -6.6610    -1.7240 H     1 <1>   0.0800 
 48 H        0.1120    -8.8780     0.7720 H     1 <1>   0.0800 
 49 H        1.0860    -9.1850     2.1920 H     1 <1>   0.0800 
 50 H        2.9390    -9.0840    -1.3720 H     1 <1>   0.0800 
 51 H        1.2100    -8.8160    -1.3410 H     1 <1>   0.0800 
@<TRIPOS>BOND
  1   1   2  2   
  2   2   3  am  
  3   2   4  1   
  4   3   5  1   
  5   3  26  1   
  6   4   6  ar  
  7   4   7  ar  
  8   5   8  1   
  9   5   9  2   
 10   6  10  ar  
 11   6  27  1   
 12   7  11  ar  
 13   7  28  1   
 14   8  12  1   
 15   8  13  1   
 16   9  14  1   
 17   9  15  1   
 18  10  16  ar  
 19  10  17  1   
 20  11  16  ar  
 21  11  29  1   
 22  12  14  2   
 23  13  30  1   
 24  13  31  1   
 25  13  32  1   
 26  14  18  1   
 27  15  33  1   
 28  15  34  1   
 29  15  35  1   
 30  16  19  1   
 31  17  36  1   
 32  17  37  1   
 33  17  38  1   
 34  18  20  1   
 35  18  39  1   
 36  18  40  1   
 37  19  21  1   
 38  19  22  1   
 39  20  41  1   
 40  20  42  1   
 41  20  43  1   
 42  21  23  1   
 43  21  44  1   
 44  21  45  1   
 45  22  24  1   
 46  22  46  1   
 47  22  47  1   
 48  23  25  1   
 49  23  48  1   
 50  23  49  1   
 51  24  25  1   
 52  24  50  1   
 53  24  51  1   
@<TRIPOS>SUBSTRUCTURE
  1 ****   4 GROUP 4 **** **** 0

# MOE 2024.06 (io_trps.svl 2023.06)
