@<TRIPOS>MOLECULE
NONAME
47 49 1 0 0 
SMALL
USER_CHARGES


@<TRIPOS>ATOM
  1 O       -1.1790     0.0450    -0.6100 O.2   1 <1>  -0.5700 
  2 C       -2.0150     0.9260    -0.4820 C.2   1 <1>   0.5440 
  3 N       -3.3440     0.5380    -0.6080 N.am  1 <1>  -0.6600 
  4 C       -1.5660     2.2930    -0.2010 C.ar  1 <1>   0.3960 
  5 C       -3.7020    -0.8130    -1.1050 C.3   1 <1>   0.1400 
  6 C       -4.4280     1.1470     0.2250 C.3   1 <1>   0.1400 
  7 N       -2.2760     3.1190     0.5860 N.ar  1 <1>  -0.6200 
  8 C       -0.3570     2.7110    -0.7700 C.ar  1 <1>   0.1600 
  9 C       -4.3900    -1.4920     0.0940 C.3   1 <1>   0.4230 
 10 C       -5.7560     0.3180     0.1890 C.3   1 <1>  -0.1600 
 11 C       -1.7210     4.3080     0.7360 C.ar  1 <1>   0.1600 
 12 N        0.1970     3.9030    -0.6210 N.ar  1 <1>  -0.6200 
 13 N       -3.6770    -2.7360     0.5530 N.4   1 <1>  -0.9590 
 14 C       -5.9650    -1.2890    -0.0370 C.3   1 <1>   0.0000 
 15 C       -0.5190     4.6960     0.1510 C.ar  1 <1>   0.1670 
 16 C       -3.9340    -3.8470    -0.3420 C.3   1 <1>   0.3430 
 17 C       -2.2110    -2.5140     0.7910 C.3   1 <1>   0.2630 
 18 C       -6.2730    -2.8550    -0.3320 C.3   1 <1>  -0.1600 
 19 C       -7.5510    -1.0110    -0.1000 C.3   1 <1>   0.1200 
 20 C        0.0430     6.0850     0.3780 C.3   1 <1>  -0.0970 
 21 C       -5.3910    -4.1000    -0.1000 C.3   1 <1>  -0.1600 
 22 O       -8.0690    -1.1740     1.1840 O.3   1 <1>  -0.6800 
 23 H       -4.3850    -0.7130    -1.9300 H     1 <1>   0.0800 
 24 H       -2.8450    -1.3550    -1.4600 H     1 <1>   0.0800 
 25 H       -4.0810     1.2150     1.2440 H     1 <1>   0.0800 
 26 H       -4.6200     2.1520    -0.1170 H     1 <1>   0.0800 
 27 H        0.1780     2.0090    -1.3850 H     1 <1>   0.1500 
 28 H       -4.1480    -0.8770     0.9400 H     1 <1>   0.0800 
 29 H       -6.2870     0.6370     1.0740 H     1 <1>   0.0800 
 30 H       -6.2050     0.8250    -0.6510 H     1 <1>   0.0800 
 31 H       -2.2440     5.0160     1.3550 H     1 <1>   0.1500 
 32 H       -4.1090    -2.9780     1.4550 H     1 <1>   0.4500 
 33 H       -3.7420    -3.5780    -1.3680 H     1 <1>   0.0800 
 34 H       -3.3480    -4.7120    -0.0710 H     1 <1>   0.0800 
 35 H       -1.6950    -2.3240    -0.1370 H     1 <1>   0.0800 
 36 H       -1.7690    -3.3790     1.2560 H     1 <1>   0.0800 
 37 H       -2.0610    -1.6620     1.4350 H     1 <1>   0.0800 
 38 H       -7.1650    -3.2010     0.1720 H     1 <1>   0.0800 
 39 H       -6.4930    -2.8970    -1.3880 H     1 <1>   0.0800 
 40 H       -8.1110    -1.6570    -0.7600 H     1 <1>   0.0800 
 41 H       -7.8930    -0.0420    -0.4240 H     1 <1>   0.0800 
 42 H       -0.5970     6.6670     1.0150 H     1 <1>   0.0800 
 43 H        0.1460     6.5890    -0.5660 H     1 <1>   0.0800 
 44 H        1.0130     6.0090     0.8350 H     1 <1>   0.0800 
 45 H       -5.7190    -4.8960    -0.7470 H     1 <1>   0.0800 
 46 H       -5.5210    -4.4540     0.9090 H     1 <1>   0.0800 
 47 H       -9.0350    -1.0130     1.2000 H     1 <1>   0.4000 
@<TRIPOS>BOND
  1   1   2  2   
  2   2   3  am  
  3   2   4  1   
  4   3   5  1   
  5   3   6  1   
  6   4   7  ar  
  7   4   8  ar  
  8   5   9  1   
  9   5  23  1   
 10   5  24  1   
 11   6  10  1   
 12   6  25  1   
 13   6  26  1   
 14   7  11  ar  
 15   8  12  ar  
 16   8  27  1   
 17   9  13  1   
 18   9  14  1   
 19   9  28  1   
 20  10  14  1   
 21  10  29  1   
 22  10  30  1   
 23  11  15  ar  
 24  11  31  1   
 25  12  15  ar  
 26  13  16  1   
 27  13  17  1   
 28  13  32  1   
 29  14  18  1   
 30  14  19  1   
 31  15  20  1   
 32  16  21  1   
 33  16  33  1   
 34  16  34  1   
 35  17  35  1   
 36  17  36  1   
 37  17  37  1   
 38  18  21  1   
 39  18  38  1   
 40  18  39  1   
 41  19  22  1   
 42  19  40  1   
 43  19  41  1   
 44  20  42  1   
 45  20  43  1   
 46  20  44  1   
 47  21  45  1   
 48  21  46  1   
 49  22  47  1   
@<TRIPOS>SUBSTRUCTURE
  1 ****   3 GROUP 4 **** **** 0

# MOE 2024.06 (io_trps.svl 2023.06)
