@<TRIPOS>MOLECULE
NONAME
38 39 1 0 0 
SMALL
USER_CHARGES


@<TRIPOS>ATOM
  1 CL      -4.1480    -1.6710     2.4670 Cl    1 <1>  -0.1770 
  2 C       -3.2410    -0.5780     1.4400 C.ar  1 <1>   0.1770 
  3 C       -2.4110     0.3750     2.0080 C.ar  1 <1>   0.1770 
  4 C       -3.3760    -0.6690     0.0610 C.ar  1 <1>  -0.1440 
  5 CL      -2.2510     0.4960     3.7430 Cl    1 <1>  -0.1770 
  6 C       -1.7010     1.2510     1.2080 C.ar  1 <1>  -0.1500 
  7 C       -2.6590     0.2120    -0.7400 C.ar  1 <1>  -0.1500 
  8 C       -4.2840    -1.7150    -0.5600 C.3   1 <1>   0.4870 
  9 C       -1.8280     1.1660    -0.1690 C.ar  1 <1>  -0.1500 
 10 N       -5.7090    -1.4260    -0.2100 N.4   1 <1>  -0.9590 
 11 C       -6.6090    -2.5110    -0.7160 C.3   1 <1>   0.5240 
 12 C       -6.1420    -0.0650    -0.6630 C.3   1 <1>   0.3430 
 13 C       -6.2790    -3.8380    -0.0460 C.2   1 <1>   0.0460 
 14 C       -7.4170     0.4170     0.0430 C.3   1 <1>   0.1200 
 15 N       -5.2250    -4.5720    -0.4540 N.2   1 <1>  -0.5650 
 16 C       -6.9210    -4.4480     0.9750 C.2   1 <1>  -0.3020 
 17 O       -7.7740     1.6260    -0.5230 O.3   1 <1>  -0.6800 
 18 C       -5.2440    -5.6080     0.3190 C.2   1 <1>   0.0060 
 19 N       -6.2550    -5.5930     1.2140 N.pl3 1 <1>   0.0330 
 20 C       -4.2400    -6.7390     0.2410 C.3   1 <1>  -0.0600 
 21 H       -1.0580     1.9870     1.6590 H     1 <1>   0.1500 
 22 H       -2.7320     0.1670    -1.8150 H     1 <1>   0.1500 
 23 H       -3.9920    -2.6780    -0.1770 H     1 <1>   0.0800 
 24 H       -4.1580    -1.7280    -1.6300 H     1 <1>   0.0800 
 25 H       -1.2750     1.8450    -0.7990 H     1 <1>   0.1500 
 26 H       -5.7370    -1.4790     0.8180 H     1 <1>   0.4500 
 27 H       -6.5060    -2.6210    -1.7830 H     1 <1>   0.0800 
 28 H       -7.6350    -2.2690    -0.4980 H     1 <1>   0.0800 
 29 H       -6.3120    -0.0740    -1.7280 H     1 <1>   0.0800 
 30 H       -5.3660     0.6530    -0.4550 H     1 <1>   0.0800 
 31 H       -7.2380     0.5780     1.0930 H     1 <1>   0.0800 
 32 H       -8.2370    -0.2650    -0.1000 H     1 <1>   0.0800 
 33 H       -7.7910    -4.1550     1.5370 H     1 <1>   0.1500 
 34 H       -8.5560     2.0220    -0.0800 H     1 <1>   0.4000 
 35 H       -6.4630    -6.3100     1.9180 H     1 <1>   0.2700 
 36 H       -3.5350    -6.5510    -0.5490 H     1 <1>   0.0800 
 37 H       -4.7430    -7.6670     0.0360 H     1 <1>   0.0800 
 38 H       -3.7030    -6.8240     1.1680 H     1 <1>   0.0800 
@<TRIPOS>BOND
  1   1   2  1   
  2   2   3  ar  
  3   2   4  ar  
  4   3   5  1   
  5   3   6  ar  
  6   4   7  ar  
  7   4   8  1   
  8   6   9  ar  
  9   6  21  1   
 10   7   9  ar  
 11   7  22  1   
 12   8  10  1   
 13   8  23  1   
 14   8  24  1   
 15   9  25  1   
 16  10  11  1   
 17  10  12  1   
 18  10  26  1   
 19  11  13  1   
 20  11  27  1   
 21  11  28  1   
 22  12  14  1   
 23  12  29  1   
 24  12  30  1   
 25  13  15  1   
 26  13  16  2   
 27  14  17  1   
 28  14  31  1   
 29  14  32  1   
 30  15  18  2   
 31  16  19  1   
 32  16  33  1   
 33  17  34  1   
 34  18  19  1   
 35  18  20  1   
 36  19  35  1   
 37  20  36  1   
 38  20  37  1   
 39  20  38  1   
@<TRIPOS>SUBSTRUCTURE
  1 ****   8 GROUP 4 **** **** 0

# MOE 2024.06 (io_trps.svl 2023.06)
