@<TRIPOS>MOLECULE
NONAME
55 57 1 0 0 
SMALL
USER_CHARGES


@<TRIPOS>ATOM
  1 O       -1.4990    -0.5320    -1.5050 O.2   1 <1>  -0.5700 
  2 C       -1.4910    -0.9370    -0.3640 C.2   1 <1>   0.5440 
  3 N       -1.4590     0.0050     0.6050 N.am  1 <1>  -0.8000 
  4 C       -1.5040    -2.3590    -0.0670 C.ar  1 <1>   0.0860 
  5 C       -0.9660    -3.2770    -0.9670 C.ar  1 <1>  -0.1500 
  6 C       -2.0560    -2.8690     1.1080 C.ar  1 <1>  -0.1500 
  7 C       -0.9790    -4.6360    -0.7160 C.ar  1 <1>  -0.1500 
  8 C       -2.0760    -4.2270     1.3690 C.ar  1 <1>  -0.1500 
  9 C       -1.5460    -5.1230     0.4520 C.ar  1 <1>  -0.1430 
 10 C       -1.6030    -6.6170     0.7140 C.3   1 <1>   0.4860 
 11 N       -2.6320    -7.2080    -0.1840 N.4   1 <1>  -0.9590 
 12 C       -2.6790    -8.7140    -0.0740 C.3   1 <1>   0.3430 
 13 C       -3.9980    -6.6170     0.0690 C.3   1 <1>   0.3430 
 14 C       -3.8620    -9.3450    -0.8430 C.3   1 <1>   0.3430 
 15 C       -5.1080    -7.3250    -0.7420 C.3   1 <1>   0.2000 
 16 O       -5.0540    -8.7040    -0.4830 O.3   1 <1>  -0.5600 
 17 C       -3.9530   -10.8240    -0.5010 C.ar  1 <1>  -0.1430 
 18 C       -6.5340    -6.7930    -0.4220 C.3   1 <1>   0.0000 
 19 C       -4.6240   -11.2600     0.6340 C.ar  1 <1>  -0.1500 
 20 C       -3.3400   -11.7600    -1.3230 C.ar  1 <1>  -0.1500 
 21 C       -6.9200    -7.0230     1.0520 C.3   1 <1>  -0.2400 
 22 C       -7.5640    -7.5150    -1.3100 C.3   1 <1>  -0.2400 
 23 C       -6.6300    -5.2860    -0.7230 C.3   1 <1>  -0.2400 
 24 C       -4.6730   -12.6070     0.9480 C.ar  1 <1>  -0.1500 
 25 C       -3.3880   -13.1080    -1.0090 C.ar  1 <1>  -0.1500 
 26 C       -4.0530   -13.5320     0.1270 C.ar  1 <1>  -0.1500 
 27 H       -1.4140     0.9850     0.3210 H     1 <1>   0.3700 
 28 H       -1.2820    -0.1890     1.5890 H     1 <1>   0.3700 
 29 H       -0.5300    -2.9050    -1.8810 H     1 <1>   0.1500 
 30 H       -2.4830    -2.1880     1.8250 H     1 <1>   0.1500 
 31 H       -0.5410    -5.2990    -1.4440 H     1 <1>   0.1500 
 32 H       -2.5120    -4.5720     2.2920 H     1 <1>   0.1500 
 33 H       -1.8560    -6.8010     1.7460 H     1 <1>   0.0800 
 34 H       -0.6370    -7.0530     0.5150 H     1 <1>   0.0800 
 35 H       -2.3700    -6.9500    -1.1430 H     1 <1>   0.4500 
 36 H       -1.7610    -9.1430    -0.4370 H     1 <1>   0.0800 
 37 H       -2.7830    -8.9980     0.9600 H     1 <1>   0.0800 
 38 H       -4.2410    -6.7000     1.1140 H     1 <1>   0.0800 
 39 H       -3.9930    -5.5690    -0.1840 H     1 <1>   0.0800 
 40 H       -3.7290    -9.2300    -1.9050 H     1 <1>   0.0800 
 41 H       -4.9260    -7.1800    -1.7930 H     1 <1>   0.0800 
 42 H       -5.1220   -10.5570     1.2800 H     1 <1>   0.1500 
 43 H       -2.8210   -11.4580    -2.2160 H     1 <1>   0.1500 
 44 H       -7.9310    -6.6970     1.2270 H     1 <1>   0.0800 
 45 H       -6.2800    -6.4800     1.7220 H     1 <1>   0.0800 
 46 H       -6.8680    -8.0700     1.2980 H     1 <1>   0.0800 
 47 H       -8.5560    -7.1410    -1.1260 H     1 <1>   0.0800 
 48 H       -7.5680    -8.5720    -1.1080 H     1 <1>   0.0800 
 49 H       -7.3390    -7.3730    -2.3520 H     1 <1>   0.0800 
 50 H       -7.6410    -4.9430    -0.5810 H     1 <1>   0.0800 
 51 H       -6.3560    -5.0810    -1.7430 H     1 <1>   0.0800 
 52 H       -6.0000    -4.7070    -0.0730 H     1 <1>   0.0800 
 53 H       -5.1970   -12.9380     1.8280 H     1 <1>   0.1500 
 54 H       -2.9130   -13.8300    -1.6500 H     1 <1>   0.1500 
 55 H       -4.0920   -14.5800     0.3700 H     1 <1>   0.1500 
@<TRIPOS>BOND
  1   1   2  2   
  2   2   3  am  
  3   2   4  1   
  4   3  27  1   
  5   3  28  1   
  6   4   5  ar  
  7   4   6  ar  
  8   5   7  ar  
  9   5  29  1   
 10   6   8  ar  
 11   6  30  1   
 12   7   9  ar  
 13   7  31  1   
 14   8   9  ar  
 15   8  32  1   
 16   9  10  1   
 17  10  11  1   
 18  10  33  1   
 19  10  34  1   
 20  11  12  1   
 21  11  13  1   
 22  11  35  1   
 23  12  14  1   
 24  12  36  1   
 25  12  37  1   
 26  13  15  1   
 27  13  38  1   
 28  13  39  1   
 29  14  16  1   
 30  14  17  1   
 31  14  40  1   
 32  15  16  1   
 33  15  18  1   
 34  15  41  1   
 35  17  19  ar  
 36  17  20  ar  
 37  18  21  1   
 38  18  22  1   
 39  18  23  1   
 40  19  24  ar  
 41  19  42  1   
 42  20  25  ar  
 43  20  43  1   
 44  21  44  1   
 45  21  45  1   
 46  21  46  1   
 47  22  47  1   
 48  22  48  1   
 49  22  49  1   
 50  23  50  1   
 51  23  51  1   
 52  23  52  1   
 53  24  26  ar  
 54  24  53  1   
 55  25  26  ar  
 56  25  54  1   
 57  26  55  1   
@<TRIPOS>SUBSTRUCTURE
  1 ****  13 GROUP 4 **** **** 0

# MOE 2024.06 (io_trps.svl 2023.06)
