@<TRIPOS>MOLECULE
NONAME
56 58 1 0 0 
SMALL
USER_CHARGES


@<TRIPOS>ATOM
  1 O        0.9160    -1.1330     1.2350 O.2   1 <1>  -0.5700 
  2 C        1.7710    -0.4520     0.6910 C.2   1 <1>   0.5440 
  3 N        1.9260     0.8490     1.0820 N.am  1 <1>  -0.7300 
  4 C        2.6000    -1.0180    -0.3450 C.ar  1 <1>   0.0860 
  5 C        1.1650     1.5330     2.1610 C.3   1 <1>   0.0600 
  6 C        2.0560    -1.8920    -1.3070 C.ar  1 <1>   0.4100 
  7 C        3.9650    -0.7670    -0.4010 C.ar  1 <1>  -0.1500 
  8 N        2.7820    -2.5590    -2.1980 N.ar  1 <1>  -0.6200 
  9 N        0.7000    -2.1300    -1.3640 N.pl3 1 <1>  -0.8690 
 10 C        4.7050    -1.4080    -1.3680 C.ar  1 <1>  -0.1500 
 11 C        4.0720    -2.2880    -2.2280 C.ar  1 <1>   0.1600 
 12 C        0.0860    -3.4770    -1.6080 C.3   1 <1>   0.2090 
 13 C       -0.3410    -4.1750    -0.2690 C.3   1 <1>   0.5030 
 14 N        0.8230    -4.0420     0.6820 N.4   1 <1>  -0.9590 
 15 C       -1.5520    -3.4380     0.3730 C.3   1 <1>  -0.1600 
 16 C       -0.6100    -5.6880    -0.4990 C.3   1 <1>  -0.1600 
 17 C        2.0910    -4.7240     0.2410 C.3   1 <1>   0.3430 
 18 C        0.5830    -4.2540     2.1490 C.3   1 <1>   0.3430 
 19 C       -2.7230    -3.0180    -0.5410 C.3   1 <1>  -0.1600 
 20 C       -2.0540    -6.1610    -0.7470 C.3   1 <1>  -0.1600 
 21 C        3.2960    -4.3380     1.1260 C.3   1 <1>   0.1200 
 22 C        1.8720    -4.0550     2.9820 C.3   1 <1>   0.1200 
 23 C       -3.6040    -4.1630    -1.0560 C.3   1 <1>  -0.1600 
 24 C       -2.8640    -5.3200    -1.7400 C.3   1 <1>  -0.1600 
 25 O        2.9170    -3.5320     2.2070 O.3   1 <1>  -0.5600 
 26 H        2.5880     1.4420     0.5750 H     1 <1>   0.3700 
 27 H        0.5040     0.8430     2.6560 H     1 <1>   0.0800 
 28 H        0.5800     2.3340     1.7420 H     1 <1>   0.0800 
 29 H        1.8480     1.9380     2.8870 H     1 <1>   0.0800 
 30 H        4.4350    -0.1010     0.3030 H     1 <1>   0.1500 
 31 H        0.1150    -1.4970    -0.8000 H     1 <1>   0.4000 
 32 H        5.7640    -1.2370    -1.4540 H     1 <1>   0.1500 
 33 H        4.6630    -2.7910    -2.9770 H     1 <1>   0.1500 
 34 H        0.7930    -4.0990    -2.1270 H     1 <1>   0.0800 
 35 H       -0.7450    -3.3700    -2.2770 H     1 <1>   0.0800 
 36 H        1.0520    -3.0280     0.6330 H     1 <1>   0.4500 
 37 H       -1.1950    -2.5240     0.8120 H     1 <1>   0.0800 
 38 H       -1.9560    -4.0340     1.1710 H     1 <1>   0.0800 
 39 H       -0.2720    -6.2440     0.3570 H     1 <1>   0.0800 
 40 H       -0.0180    -6.0220    -1.3320 H     1 <1>   0.0800 
 41 H        2.3220    -4.4670    -0.7780 H     1 <1>   0.0800 
 42 H        1.9630    -5.7920     0.2810 H     1 <1>   0.0800 
 43 H        0.1950    -5.2430     2.3260 H     1 <1>   0.0800 
 44 H       -0.1510    -3.5480     2.4990 H     1 <1>   0.0800 
 45 H       -2.3800    -2.4230    -1.3680 H     1 <1>   0.0800 
 46 H       -3.3630    -2.3670     0.0320 H     1 <1>   0.0800 
 47 H       -2.5840    -6.2190     0.1890 H     1 <1>   0.0800 
 48 H       -2.0040    -7.1680    -1.1260 H     1 <1>   0.0800 
 49 H        4.0120    -3.7830     0.5450 H     1 <1>   0.0800 
 50 H        3.7840    -5.2190     1.5080 H     1 <1>   0.0800 
 51 H        2.1960    -4.9890     3.4090 H     1 <1>   0.0800 
 52 H        1.6840    -3.3650     3.7860 H     1 <1>   0.0800 
 53 H       -4.3070    -3.7490    -1.7590 H     1 <1>   0.0800 
 54 H       -4.1850    -4.5530    -0.2370 H     1 <1>   0.0800 
 55 H       -3.6170    -5.9620    -2.1680 H     1 <1>   0.0800 
 56 H       -2.2580    -4.9750    -2.5570 H     1 <1>   0.0800 
@<TRIPOS>BOND
  1   1   2  2   
  2   2   3  am  
  3   2   4  1   
  4   3   5  1   
  5   3  26  1   
  6   4   6  ar  
  7   4   7  ar  
  8   5  27  1   
  9   5  28  1   
 10   5  29  1   
 11   6   8  ar  
 12   6   9  1   
 13   7  10  ar  
 14   7  30  1   
 15   8  11  ar  
 16   9  12  1   
 17   9  31  1   
 18  10  11  ar  
 19  10  32  1   
 20  11  33  1   
 21  12  13  1   
 22  12  34  1   
 23  12  35  1   
 24  13  14  1   
 25  13  15  1   
 26  13  16  1   
 27  14  17  1   
 28  14  18  1   
 29  14  36  1   
 30  15  19  1   
 31  15  37  1   
 32  15  38  1   
 33  16  20  1   
 34  16  39  1   
 35  16  40  1   
 36  17  21  1   
 37  17  41  1   
 38  17  42  1   
 39  18  22  1   
 40  18  43  1   
 41  18  44  1   
 42  19  23  1   
 43  19  45  1   
 44  19  46  1   
 45  20  24  1   
 46  20  47  1   
 47  20  48  1   
 48  21  25  1   
 49  21  49  1   
 50  21  50  1   
 51  22  25  1   
 52  22  51  1   
 53  22  52  1   
 54  23  24  1   
 55  23  53  1   
 56  23  54  1   
 57  24  55  1   
 58  24  56  1   
@<TRIPOS>SUBSTRUCTURE
  1 ****  14 GROUP 4 **** **** 0

# MOE 2024.06 (io_trps.svl 2023.06)
