@<TRIPOS>MOLECULE
NONAME
50 53 1 0 0 
SMALL
USER_CHARGES


@<TRIPOS>ATOM
  1 S       -0.5090     0.2600    -0.0740 S.o2  1 <1>   1.0900 
  2 O        0.8460    -0.1030    -0.4180 O.2   1 <1>  -0.6500 
  3 O       -0.8140     1.4600     0.6680 O.2   1 <1>  -0.6500 
  4 C       -1.2620    -1.1510     0.6810 C.3   1 <1>  -0.0550 
  5 C       -1.4960     0.1710    -1.5610 C.3   1 <1>  -0.0550 
  6 C       -1.5680    -2.0800    -0.4920 C.3   1 <1>   0.1760 
  7 C       -2.1700    -1.2120    -1.6160 C.3   1 <1>  -0.1600 
  8 N       -2.4870    -3.1770    -0.1000 N.pl3 1 <1>   0.3140 
  9 N       -3.6050    -2.9250     0.6050 N.2   1 <1>  -0.7070 
 10 C       -2.3850    -4.4940    -0.4150 C.2   1 <1>  -0.3320 
 11 C       -4.1970    -4.0730     0.7180 C.2   1 <1>   0.1080 
 12 C       -3.4800    -5.0990     0.0960 C.2   1 <1>   0.0630 
 13 C       -1.2410    -5.1030    -1.2140 C.3   1 <1>  -0.0600 
 14 C       -5.5070    -4.2180     1.4600 C.3   1 <1>  -0.0590 
 15 N       -3.7810    -6.4820     0.0130 N.am  1 <1>  -0.4930 
 16 C       -4.9560    -7.0920    -0.3410 C.2   1 <1>   0.5440 
 17 O       -5.9330    -6.4160    -0.6030 O.2   1 <1>  -0.5700 
 18 C       -5.0310    -8.5400    -0.3910 C.ar  1 <1>   0.0860 
 19 C       -6.2230    -9.2010    -0.0860 C.ar  1 <1>  -0.1500 
 20 C       -3.9310    -9.3290    -0.7380 C.ar  1 <1>  -0.1500 
 21 C       -6.3210   -10.5810    -0.1040 C.ar  1 <1>  -0.1430 
 22 C       -4.0150   -10.7080    -0.7600 C.ar  1 <1>  -0.1500 
 23 C       -5.2050   -11.3390    -0.4450 C.ar  1 <1>   0.0830 
 24 C       -7.6360   -11.2600     0.2440 C.3   1 <1>  -0.0170 
 25 O       -5.2360   -12.6900    -0.4750 O.3   1 <1>  -0.3630 
 26 C       -7.3950   -12.7260     0.6110 C.3   1 <1>  -0.1600 
 27 C       -6.4720   -13.3750    -0.4250 C.3   1 <1>   0.1200 
 28 H       -2.1740    -0.8550     1.1640 H     1 <1>   0.0800 
 29 H       -0.6070    -1.6150     1.3920 H     1 <1>   0.0800 
 30 H       -0.8720     0.3210    -2.4220 H     1 <1>   0.0800 
 31 H       -2.2490     0.9360    -1.5510 H     1 <1>   0.0800 
 32 H       -0.6420    -2.5070    -0.8350 H     1 <1>   0.0800 
 33 H       -2.0260    -1.6760    -2.5760 H     1 <1>   0.0800 
 34 H       -3.2270    -1.0860    -1.4450 H     1 <1>   0.0800 
 35 H       -1.1640    -4.6260    -2.1750 H     1 <1>   0.0800 
 36 H       -1.4090    -6.1520    -1.3760 H     1 <1>   0.0800 
 37 H       -0.3110    -4.9840    -0.6860 H     1 <1>   0.0800 
 38 H       -5.5840    -3.4610     2.2190 H     1 <1>   0.0800 
 39 H       -5.5690    -5.1850     1.9210 H     1 <1>   0.0800 
 40 H       -6.3220    -4.1050     0.7690 H     1 <1>   0.0800 
 41 H       -2.9980    -7.0950     0.2230 H     1 <1>   0.3700 
 42 H       -7.0850    -8.6090     0.1710 H     1 <1>   0.1500 
 43 H       -2.9990    -8.8650    -1.0050 H     1 <1>   0.1500 
 44 H       -3.1630   -11.3090    -1.0250 H     1 <1>   0.1500 
 45 H       -8.2880   -11.2040    -0.6110 H     1 <1>   0.0800 
 46 H       -8.1110   -10.7540     1.0660 H     1 <1>   0.0800 
 47 H       -8.3310   -13.2530     0.6480 H     1 <1>   0.0800 
 48 H       -6.9330   -12.7930     1.5800 H     1 <1>   0.0800 
 49 H       -6.2680   -14.4000    -0.1700 H     1 <1>   0.0800 
 50 H       -6.9090   -13.3350    -1.4070 H     1 <1>   0.0800 
@<TRIPOS>BOND
  1   1   2  2   
  2   1   3  2   
  3   1   4  1   
  4   1   5  1   
  5   4   6  1   
  6   4  28  1   
  7   4  29  1   
  8   5   7  1   
  9   5  30  1   
 10   5  31  1   
 11   6   7  1   
 12   6   8  1   
 13   6  32  1   
 14   7  33  1   
 15   7  34  1   
 16   8   9  1   
 17   8  10  1   
 18   9  11  2   
 19  10  12  2   
 20  10  13  1   
 21  11  12  1   
 22  11  14  1   
 23  12  15  1   
 24  13  35  1   
 25  13  36  1   
 26  13  37  1   
 27  14  38  1   
 28  14  39  1   
 29  14  40  1   
 30  15  16  am  
 31  15  41  1   
 32  16  17  2   
 33  16  18  1   
 34  18  19  ar  
 35  18  20  ar  
 36  19  21  ar  
 37  19  42  1   
 38  20  22  ar  
 39  20  43  1   
 40  21  23  ar  
 41  21  24  1   
 42  22  23  ar  
 43  22  44  1   
 44  23  25  1   
 45  24  26  1   
 46  24  45  1   
 47  24  46  1   
 48  25  27  1   
 49  26  27  1   
 50  26  47  1   
 51  26  48  1   
 52  27  49  1   
 53  27  50  1   
@<TRIPOS>SUBSTRUCTURE
  1 ****  15 GROUP 4 **** **** 0

# MOE 2024.06 (io_trps.svl 2023.06)
