@<TRIPOS>MOLECULE
NONAME
48 51 1 0 0 
SMALL
USER_CHARGES


@<TRIPOS>ATOM
  1 CL      -1.1200     0.0930    -1.4720 Cl    1 <1>  -0.1770 
  2 C       -2.2230    -0.8710    -0.5240 C.ar  1 <1>   0.1770 
  3 C       -2.3360    -2.2220    -0.7870 C.ar  1 <1>  -0.1500 
  4 C       -2.9670    -0.2610     0.4720 C.ar  1 <1>  -0.1500 
  5 C       -3.2120    -3.0010    -0.0390 C.ar  1 <1>   0.0280 
  6 C       -3.8400    -1.0280     1.2240 C.ar  1 <1>  -0.1500 
  7 C       -3.9560    -2.3860     0.9750 C.ar  1 <1>   0.0830 
  8 C       -3.4140    -4.4050    -0.2700 C.2   1 <1>  -0.1780 
  9 O       -4.8240    -3.1100     1.7260 O.3   1 <1>  -0.3630 
 10 C       -4.1080    -5.1420     0.6110 C.2   1 <1>  -0.2760 
 11 C       -4.6180    -4.5010     1.9030 C.3   1 <1>   0.2580 
 12 C       -4.4510    -6.6050     0.4410 C.3   1 <1>   0.4810 
 13 N       -5.4250    -6.7080    -0.6790 N.4   1 <1>  -0.9590 
 14 C       -6.6570    -5.9010    -0.4210 C.3   1 <1>   0.4230 
 15 C       -5.6630    -8.1380    -1.0580 C.3   1 <1>   0.2630 
 16 C       -7.6200    -6.4920     0.6060 C.3   1 <1>  -0.1600 
 17 C       -7.5180    -5.7000    -1.6600 C.3   1 <1>  -0.1600 
 18 C       -8.9180    -5.7140     0.3640 C.3   1 <1>  -0.0800 
 19 C       -8.8570    -5.2130    -1.0920 C.3   1 <1>  -0.0800 
 20 C       -9.0500    -4.4650     1.2480 C.3   1 <1>  -0.1600 
 21 C       -8.9690    -3.6810    -1.0280 C.3   1 <1>  -0.1600 
 22 C       -9.6060    -3.3950     0.3220 C.3   1 <1>   0.2000 
 23 O       -9.2420    -2.1450     0.7680 O.3   1 <1>  -0.6800 
 24 H       -1.7430    -2.6570    -1.5710 H     1 <1>   0.1500 
 25 H       -2.8590     0.7940     0.6510 H     1 <1>   0.1500 
 26 H       -4.4290    -0.5770     2.0040 H     1 <1>   0.1500 
 27 H       -2.9900    -4.7980    -1.1790 H     1 <1>   0.1500 
 28 H       -3.9030    -4.6290     2.6970 H     1 <1>   0.0800 
 29 H       -5.5600    -4.9160     2.2120 H     1 <1>   0.0800 
 30 H       -4.8700    -7.0090     1.3490 H     1 <1>   0.0800 
 31 H       -3.5550    -7.1560     0.2000 H     1 <1>   0.0800 
 32 H       -4.9670    -6.2390    -1.4700 H     1 <1>   0.4500 
 33 H       -6.3770    -4.9170    -0.0800 H     1 <1>   0.0800 
 34 H       -6.1140    -8.6760    -0.2410 H     1 <1>   0.0800 
 35 H       -4.7310    -8.6180    -1.3110 H     1 <1>   0.0800 
 36 H       -6.3170    -8.1990    -1.9120 H     1 <1>   0.0800 
 37 H       -7.8140    -7.5290     0.4020 H     1 <1>   0.0800 
 38 H       -7.2720    -6.3850     1.6170 H     1 <1>   0.0800 
 39 H       -7.0870    -4.9890    -2.3430 H     1 <1>   0.0800 
 40 H       -7.6860    -6.6320    -2.1690 H     1 <1>   0.0800 
 41 H       -9.7800    -6.3470     0.5050 H     1 <1>   0.0800 
 42 H       -9.6840    -5.6110    -1.6590 H     1 <1>   0.0800 
 43 H       -8.0890    -4.1550     1.6190 H     1 <1>   0.0800 
 44 H       -9.7150    -4.6380     2.0770 H     1 <1>   0.0800 
 45 H       -9.5780    -3.2990    -1.8280 H     1 <1>   0.0800 
 46 H       -7.9950    -3.2260    -1.0720 H     1 <1>   0.0800 
 47 H      -10.6820    -3.4490     0.2660 H     1 <1>   0.0800 
 48 H       -8.2720    -2.0590     0.8140 H     1 <1>   0.4000 
@<TRIPOS>BOND
  1   1   2  1   
  2   2   3  ar  
  3   2   4  ar  
  4   3   5  ar  
  5   3  24  1   
  6   4   6  ar  
  7   4  25  1   
  8   5   7  ar  
  9   5   8  1   
 10   6   7  ar  
 11   6  26  1   
 12   7   9  1   
 13   8  10  2   
 14   8  27  1   
 15   9  11  1   
 16  10  11  1   
 17  10  12  1   
 18  11  28  1   
 19  11  29  1   
 20  12  13  1   
 21  12  30  1   
 22  12  31  1   
 23  13  14  1   
 24  13  15  1   
 25  13  32  1   
 26  14  16  1   
 27  14  17  1   
 28  14  33  1   
 29  15  34  1   
 30  15  35  1   
 31  15  36  1   
 32  16  18  1   
 33  16  37  1   
 34  16  38  1   
 35  17  19  1   
 36  17  39  1   
 37  17  40  1   
 38  18  19  1   
 39  18  20  1   
 40  18  41  1   
 41  19  21  1   
 42  19  42  1   
 43  20  22  1   
 44  20  43  1   
 45  20  44  1   
 46  21  22  1   
 47  21  45  1   
 48  21  46  1   
 49  22  23  1   
 50  22  47  1   
 51  23  48  1   
@<TRIPOS>SUBSTRUCTURE
  1 ****  10 GROUP 4 **** **** 0

# MOE 2024.06 (io_trps.svl 2023.06)
