@<TRIPOS>MOLECULE
NONAME
51 53 1 0 0 
SMALL
USER_CHARGES


@<TRIPOS>ATOM
  1 O        2.5390     2.1600    -0.6170 O.2   1 <1>  -0.5700 
  2 C        2.4510     0.9340    -0.6380 C.2   1 <1>   0.6160 
  3 N        3.3970     0.1510     0.0150 N.am  1 <1>  -0.4690 
  4 C        1.4030     0.2940    -1.3510 C.2   1 <1>  -0.1360 
  5 C        3.3350    -1.2360    -0.0900 C.2   1 <1>  -0.0290 
  6 C        4.4450     0.8510     0.8190 C.3   1 <1>   0.1400 
  7 C        1.3340    -1.0580    -1.4340 C.2   1 <1>  -0.1500 
  8 C        2.3310    -1.8300    -0.7930 C.2   1 <1>  -0.1500 
  9 C        4.3990    -2.0950     0.5800 C.3   1 <1>  -0.1020 
 10 C        5.5600     1.3760    -0.0950 C.3   1 <1>  -0.0990 
 11 C        5.8320     2.8380     0.1750 C.2   1 <1>   0.5690 
 12 O        6.8840     3.1380     0.6880 O.2   1 <1>  -0.5700 
 13 N        4.8620     3.7380    -0.1700 N.am  1 <1>  -0.4940 
 14 C        4.7170     5.1350     0.0190 C.2   1 <1>  -0.0880 
 15 N        5.6670     6.1150     0.0720 N.pl3 1 <1>   0.3140 
 16 C        3.5270     5.7600     0.1780 C.2   1 <1>  -0.1500 
 17 N        5.1050     7.3330     0.2800 N.2   1 <1>  -0.7070 
 18 C        7.1380     5.9900    -0.0830 C.3   1 <1>   0.1760 
 19 C        3.8300     7.1050     0.3380 C.2   1 <1>   0.1390 
 20 C        7.8100     6.0660     1.2950 C.3   1 <1>  -0.1600 
 21 C        7.7180     7.0710    -1.0090 C.3   1 <1>  -0.1600 
 22 C        9.3170     5.9130     1.1540 C.3   1 <1>   0.3430 
 23 C        9.2340     6.9280    -1.1080 C.3   1 <1>   0.3430 
 24 N        9.8400     6.9860     0.2550 N.4   1 <1>  -0.9590 
 25 C       11.3310     6.9340     0.1810 C.3   1 <1>   0.2630 
 26 H        0.6800     0.9350    -1.8180 H     1 <1>   0.1500 
 27 H        4.8610     0.2010     1.5660 H     1 <1>   0.0800 
 28 H        3.9800     1.6630     1.3530 H     1 <1>   0.0800 
 29 H        0.5490    -1.5620    -1.9710 H     1 <1>   0.1500 
 30 H        2.2640    -2.9000    -0.8840 H     1 <1>   0.1500 
 31 H        5.3780    -1.8080     0.2440 H     1 <1>   0.0800 
 32 H        4.2560    -3.1330     0.3400 H     1 <1>   0.0800 
 33 H        4.3410    -1.9920     1.6490 H     1 <1>   0.0800 
 34 H        5.2960     1.2640    -1.1310 H     1 <1>   0.0800 
 35 H        6.4580     0.8130     0.0810 H     1 <1>   0.0800 
 36 H        3.9840     3.2830    -0.4790 H     1 <1>   0.3700 
 37 H        2.5430     5.3270     0.1870 H     1 <1>   0.1500 
 38 H        7.3410     5.0440    -0.5430 H     1 <1>   0.0800 
 39 H        3.0960     7.8780     0.4930 H     1 <1>   0.1500 
 40 H        7.4380     5.2790     1.9270 H     1 <1>   0.0800 
 41 H        7.5810     7.0040     1.7710 H     1 <1>   0.0800 
 42 H        7.4790     8.0550    -0.6430 H     1 <1>   0.0800 
 43 H        7.2880     6.9680    -1.9900 H     1 <1>   0.0800 
 44 H        9.5420     4.9410     0.7430 H     1 <1>   0.0800 
 45 H        9.7760     5.9850     2.1270 H     1 <1>   0.0800 
 46 H        9.6280     7.7220    -1.7230 H     1 <1>   0.0800 
 47 H        9.4760     5.9870    -1.5750 H     1 <1>   0.0800 
 48 H        9.5640     7.8890     0.6720 H     1 <1>   0.4500 
 49 H       11.6530     5.9990    -0.2490 H     1 <1>   0.0800 
 50 H       11.7590     7.0250     1.1670 H     1 <1>   0.0800 
 51 H       11.7050     7.7410    -0.4290 H     1 <1>   0.0800 
@<TRIPOS>BOND
  1   1   2  2   
  2   2   3  am  
  3   2   4  1   
  4   3   5  1   
  5   3   6  1   
  6   4   7  2   
  7   4  26  1   
  8   5   8  2   
  9   5   9  1   
 10   6  10  1   
 11   6  27  1   
 12   6  28  1   
 13   7   8  1   
 14   7  29  1   
 15   8  30  1   
 16   9  31  1   
 17   9  32  1   
 18   9  33  1   
 19  10  11  1   
 20  10  34  1   
 21  10  35  1   
 22  11  12  2   
 23  11  13  am  
 24  13  14  1   
 25  13  36  1   
 26  14  15  1   
 27  14  16  2   
 28  15  17  1   
 29  15  18  1   
 30  16  19  1   
 31  16  37  1   
 32  17  19  2   
 33  18  20  1   
 34  18  21  1   
 35  18  38  1   
 36  19  39  1   
 37  20  22  1   
 38  20  40  1   
 39  20  41  1   
 40  21  23  1   
 41  21  42  1   
 42  21  43  1   
 43  22  24  1   
 44  22  44  1   
 45  22  45  1   
 46  23  24  1   
 47  23  46  1   
 48  23  47  1   
 49  24  25  1   
 50  24  48  1   
 51  25  49  1   
 52  25  50  1   
 53  25  51  1   
@<TRIPOS>SUBSTRUCTURE
  1 ****  13 GROUP 4 **** **** 0

# MOE 2024.06 (io_trps.svl 2023.06)
