@<TRIPOS>MOLECULE
NONAME
48 49 1 0 0 
SMALL
USER_CHARGES


@<TRIPOS>ATOM
  1 O       -2.5740     0.8640     2.7020 O.2   1 <1>  -0.5700 
  2 C       -2.5560     0.9440     1.4940 C.2   1 <1>   0.5690 
  3 N       -2.6070    -0.2030     0.7270 N.am  1 <1>  -0.6600 
  4 C       -2.5150     2.3490     0.8520 C.3   1 <1>   0.1250 
  5 C       -2.8610    -1.5190     1.3780 C.3   1 <1>   0.3200 
  6 C       -2.3360    -0.2790    -0.7430 C.3   1 <1>   0.1400 
  7 C       -1.2190     2.6050     0.0700 C.ar  1 <1>  -0.1440 
  8 C       -2.8520     3.5170     1.8290 C.3   1 <1>  -0.0800 
  9 C       -4.2750    -1.9660     1.0650 C.2   1 <1>  -0.3320 
 10 C       -3.5840     0.0210    -1.5820 C.3   1 <1>   0.1200 
 11 C        0.0100     2.2010     0.5730 C.ar  1 <1>  -0.1500 
 12 C       -1.2650     3.2270    -1.1710 C.ar  1 <1>  -0.1500 
 13 C       -3.2820     4.7860     1.0740 C.3   1 <1>  -0.2400 
 14 C       -1.7080     3.8860     2.7920 C.3   1 <1>  -0.2400 
 15 N       -4.6510    -2.8360     0.1030 N.pl3 1 <1>   0.0480 
 16 C       -5.4070    -1.5740     1.6910 C.2   1 <1>   0.0770 
 17 O       -3.3510    -0.3860    -2.8890 O.3   1 <1>  -0.6800 
 18 C        1.1710     2.4110    -0.1510 C.ar  1 <1>  -0.1500 
 19 C       -0.1060     3.4390    -1.8960 C.ar  1 <1>  -0.1500 
 20 C       -5.9970    -2.9030     0.2150 C.2   1 <1>   0.0360 
 21 C       -3.8240    -3.5580    -0.8810 C.3   1 <1>   0.0160 
 22 N       -6.4900    -2.1630     1.1540 N.2   1 <1>  -0.5650 
 23 C        1.1130     3.0290    -1.3870 C.ar  1 <1>  -0.1500 
 24 H       -3.3200     2.3350     0.1440 H     1 <1>   0.0800 
 25 H       -2.7530    -1.4440     2.4460 H     1 <1>   0.0800 
 26 H       -2.1420    -2.2440     1.0400 H     1 <1>   0.0800 
 27 H       -1.9940    -1.2710    -0.9780 H     1 <1>   0.0800 
 28 H       -1.5450     0.3960    -1.0110 H     1 <1>   0.0800 
 29 H       -3.6930     3.2040     2.4260 H     1 <1>   0.0800 
 30 H       -3.8140     1.0700    -1.5930 H     1 <1>   0.0800 
 31 H       -4.4350    -0.5250    -1.2180 H     1 <1>   0.0800 
 32 H        0.0710     1.7200     1.5350 H     1 <1>   0.1500 
 33 H       -2.2050     3.5560    -1.5790 H     1 <1>   0.1500 
 34 H       -2.4660     5.1810     0.4960 H     1 <1>   0.0800 
 35 H       -3.5970     5.5410     1.7720 H     1 <1>   0.0800 
 36 H       -4.1060     4.5760     0.4160 H     1 <1>   0.0800 
 37 H       -0.8680     4.2890     2.2550 H     1 <1>   0.0800 
 38 H       -1.3800     3.0250     3.3460 H     1 <1>   0.0800 
 39 H       -2.0430     4.6240     3.4980 H     1 <1>   0.0800 
 40 H       -5.4950    -0.8810     2.5120 H     1 <1>   0.1500 
 41 H       -2.7080     0.2050    -3.3290 H     1 <1>   0.4000 
 42 H        2.1180     2.0950     0.2500 H     1 <1>   0.1500 
 43 H       -0.1500     3.9250    -2.8550 H     1 <1>   0.1500 
 44 H       -6.5920    -3.5230    -0.4330 H     1 <1>   0.1500 
 45 H       -2.9000    -3.8600    -0.4270 H     1 <1>   0.0800 
 46 H       -3.6260    -2.9150    -1.7190 H     1 <1>   0.0800 
 47 H       -4.3520    -4.4300    -1.2210 H     1 <1>   0.0800 
 48 H        2.0160     3.1940    -1.9490 H     1 <1>   0.1500 
@<TRIPOS>BOND
  1   1   2  2   
  2   2   3  am  
  3   2   4  1   
  4   3   5  1   
  5   3   6  1   
  6   4   7  1   
  7   4   8  1   
  8   4  24  1   
  9   5   9  1   
 10   5  25  1   
 11   5  26  1   
 12   6  10  1   
 13   6  27  1   
 14   6  28  1   
 15   7  11  ar  
 16   7  12  ar  
 17   8  13  1   
 18   8  14  1   
 19   8  29  1   
 20   9  15  1   
 21   9  16  2   
 22  10  17  1   
 23  10  30  1   
 24  10  31  1   
 25  11  18  ar  
 26  11  32  1   
 27  12  19  ar  
 28  12  33  1   
 29  13  34  1   
 30  13  35  1   
 31  13  36  1   
 32  14  37  1   
 33  14  38  1   
 34  14  39  1   
 35  15  20  1   
 36  15  21  1   
 37  16  22  1   
 38  16  40  1   
 39  17  41  1   
 40  18  23  ar  
 41  18  42  1   
 42  19  23  ar  
 43  19  43  1   
 44  20  22  2   
 45  20  44  1   
 46  21  45  1   
 47  21  46  1   
 48  21  47  1   
 49  23  48  1   
@<TRIPOS>SUBSTRUCTURE
  1 ****   3 GROUP 4 **** **** 0

# MOE 2024.06 (io_trps.svl 2023.06)
