@<TRIPOS>MOLECULE
NONAME
45 47 1 0 0 
SMALL
USER_CHARGES


@<TRIPOS>ATOM
  1 S       -0.4790     0.2030     1.6140 S.o2  1 <1>   1.4470 
  2 O       -1.0770     1.2510     2.4040 O.2   1 <1>  -0.6500 
  3 O       -0.3160    -1.1110     2.1920 O.2   1 <1>  -0.6500 
  4 N       -1.5180     0.0620     0.2990 N.am  1 <1>  -0.9140 
  5 C        1.0750     0.7810     0.8860 C.ar  1 <1>  -0.0090 
  6 C       -1.5800    -1.1800    -0.4770 C.3   1 <1>   0.2760 
  7 C        1.0870     1.7600    -0.0900 C.ar  1 <1>  -0.1500 
  8 C        2.3040     0.2370     1.3060 C.ar  1 <1>  -0.1500 
  9 C       -2.2890    -2.3290     0.2470 C.3   1 <1>  -0.0800 
 10 C       -0.2420    -1.7810    -0.9280 C.3   1 <1>   0.1200 
 11 C        2.2890     2.1810    -0.6490 C.ar  1 <1>   0.2270 
 12 C        3.5030     0.6450     0.7660 C.ar  1 <1>  -0.1500 
 13 C       -1.2450    -3.4500     0.2070 C.3   1 <1>   0.1200 
 14 C       -3.5800    -2.7300    -0.4930 C.3   1 <1>  -0.0550 
 15 O       -0.4450    -3.1550    -0.8900 O.3   1 <1>  -0.5600 
 16 N        2.5130     3.1090    -1.6180 N.2   1 <1>  -0.5650 
 17 C        3.4810     1.6280    -0.2230 C.ar  1 <1>  -0.1520 
 18 S       -4.6470    -3.8170     0.4520 S.o2  1 <1>   1.3330 
 19 C        3.7920     3.1130    -1.7640 C.2   1 <1>   0.0360 
 20 N        4.4440     2.2430    -0.9530 N.pl3 1 <1>   0.0330 
 21 O       -5.1160    -3.0640     1.5930 O.2   1 <1>  -0.6500 
 22 O       -4.0050    -5.0970     0.6470 O.2   1 <1>  -0.6500 
 23 N       -5.9560    -4.0480    -0.6030 N.am  1 <1>  -0.8490 
 24 C       -7.2080    -4.3060     0.1150 C.3   1 <1>   0.1160 
 25 C       -5.7250    -5.1080    -1.5920 C.3   1 <1>   0.1160 
 26 H       -2.4350     0.2510     0.7010 H     1 <1>   0.4200 
 27 H       -2.1240    -0.9530    -1.3780 H     1 <1>   0.0800 
 28 H        0.1770     2.2140    -0.4400 H     1 <1>   0.1500 
 29 H        2.2960    -0.5230     2.0710 H     1 <1>   0.1500 
 30 H       -2.5240    -2.0840     1.2690 H     1 <1>   0.0800 
 31 H        0.5700    -1.5620    -0.2610 H     1 <1>   0.0800 
 32 H        0.0130    -1.4960    -1.9330 H     1 <1>   0.0800 
 33 H        4.4370     0.2210     1.0940 H     1 <1>   0.1500 
 34 H       -1.6610    -4.4350     0.0830 H     1 <1>   0.0800 
 35 H       -0.6240    -3.4330     1.0880 H     1 <1>   0.0800 
 36 H       -3.3230    -3.1950    -1.4250 H     1 <1>   0.0800 
 37 H       -4.1390    -1.8420    -0.7160 H     1 <1>   0.0800 
 38 H        4.3210     3.7410    -2.4600 H     1 <1>   0.1500 
 39 H        5.4530     2.0810    -0.8980 H     1 <1>   0.2700 
 40 H       -8.0200    -4.4330    -0.5810 H     1 <1>   0.0800 
 41 H       -7.4440    -3.4730     0.7570 H     1 <1>   0.0800 
 42 H       -7.1170    -5.1930     0.7200 H     1 <1>   0.0800 
 43 H       -6.5440    -5.1480    -2.2900 H     1 <1>   0.0800 
 44 H       -5.6340    -6.0660    -1.1040 H     1 <1>   0.0800 
 45 H       -4.8200    -4.9150    -2.1410 H     1 <1>   0.0800 
@<TRIPOS>BOND
  1   1   2  2   
  2   1   3  2   
  3   1   4  am  
  4   1   5  1   
  5   4   6  1   
  6   4  26  1   
  7   5   7  ar  
  8   5   8  ar  
  9   6   9  1   
 10   6  10  1   
 11   6  27  1   
 12   7  11  ar  
 13   7  28  1   
 14   8  12  ar  
 15   8  29  1   
 16   9  13  1   
 17   9  14  1   
 18   9  30  1   
 19  10  15  1   
 20  10  31  1   
 21  10  32  1   
 22  11  16  1   
 23  11  17  ar  
 24  12  17  ar  
 25  12  33  1   
 26  13  15  1   
 27  13  34  1   
 28  13  35  1   
 29  14  18  1   
 30  14  36  1   
 31  14  37  1   
 32  16  19  2   
 33  17  20  1   
 34  18  21  2   
 35  18  22  2   
 36  18  23  am  
 37  19  20  1   
 38  19  38  1   
 39  20  39  1   
 40  23  24  1   
 41  23  25  1   
 42  24  40  1   
 43  24  41  1   
 44  24  42  1   
 45  25  43  1   
 46  25  44  1   
 47  25  45  1   
@<TRIPOS>SUBSTRUCTURE
  1 ****   6 GROUP 4 **** **** 0

# MOE 2024.06 (io_trps.svl 2023.06)
