@<TRIPOS>MOLECULE
NONAME
51 53 1 0 0 
SMALL
USER_CHARGES


@<TRIPOS>ATOM
  1 O       -0.2150    -0.0300     0.0450 O.2   1 <1>  -0.5700 
  2 C       -1.2230     0.6390     0.1620 C.2   1 <1>   0.7160 
  3 N       -2.3400     0.0370     0.6550 N.am  1 <1>  -0.7300 
  4 C       -1.2600     2.0230    -0.2130 C.2   1 <1>  -0.0860 
  5 C       -2.5210    -1.3890     0.9840 C.3   1 <1>   0.1400 
  6 C       -2.4040     2.8350    -0.2530 C.2   1 <1>   0.3720 
  7 C       -0.2730     2.8630    -0.6370 C.2   1 <1>   0.0870 
  8 C       -3.5820    -1.9720     0.0510 C.3   1 <1>  -0.1600 
  9 N       -2.1240     4.0190    -0.6720 N.2   1 <1>  -0.4100 
 10 N       -3.7050     2.4480     0.1060 N.pl3 1 <1>  -0.8210 
 11 O       -0.8390     4.0140    -0.8980 O.3   1 <1>  -0.0190 
 12 C        1.1490     2.7290    -0.8280 C.ar  1 <1>   0.0530 
 13 C       -3.8200    -3.4600     0.3420 C.3   1 <1>  -0.1600 
 14 C       -4.6940     2.5670    -1.0030 C.3   1 <1>   0.2090 
 15 C       -4.2390     3.1750     1.2930 C.3   1 <1>   0.2090 
 16 C        1.9610     2.0460     0.0780 C.ar  1 <1>  -0.1500 
 17 C        1.7720     3.3080    -1.9340 C.ar  1 <1>  -0.1500 
 18 C       -4.8780    -4.0370    -0.5970 C.3   1 <1>   0.1200 
 19 C       -5.7490     3.5560    -0.5270 C.3   1 <1>  -0.1600 
 20 C       -5.7050     3.4470     0.9880 C.3   1 <1>  -0.1600 
 21 C        3.3260     1.9340    -0.1120 C.ar  1 <1>  -0.1500 
 22 C        3.1360     3.2030    -2.1300 C.ar  1 <1>  -0.1500 
 23 O       -5.0720    -5.3630    -0.2680 O.3   1 <1>  -0.6800 
 24 C        3.9270     2.5150    -1.2250 C.ar  1 <1>   0.0830 
 25 O        5.2530     2.4530    -1.4870 O.3   1 <1>  -0.3620 
 26 C        6.1350     1.7360    -0.6530 C.3   1 <1>   0.0400 
 27 H       -3.1800     0.6340     0.6560 H     1 <1>   0.3700 
 28 H       -2.8330    -1.4780     2.0100 H     1 <1>   0.0800 
 29 H       -1.5890    -1.9170     0.8620 H     1 <1>   0.0800 
 30 H       -3.2520    -1.8560    -0.9670 H     1 <1>   0.0800 
 31 H       -4.5030    -1.4310     0.1800 H     1 <1>   0.0800 
 32 H       -4.1540    -3.5750     1.3590 H     1 <1>   0.0800 
 33 H       -2.8960    -3.9980     0.2150 H     1 <1>   0.0800 
 34 H       -5.1410     1.6030    -1.1720 H     1 <1>   0.0800 
 35 H       -4.2340     2.9040    -1.9180 H     1 <1>   0.0800 
 36 H       -3.7160     4.1080     1.4270 H     1 <1>   0.0800 
 37 H       -4.1310     2.5790     2.1830 H     1 <1>   0.0800 
 38 H        1.5150     1.5950     0.9460 H     1 <1>   0.1500 
 39 H        1.1760     3.8460    -2.6500 H     1 <1>   0.1500 
 40 H       -4.5640    -3.9830    -1.6260 H     1 <1>   0.0800 
 41 H       -5.8190    -3.5260    -0.4820 H     1 <1>   0.0800 
 42 H       -6.7200     3.3330    -0.9310 H     1 <1>   0.0800 
 43 H       -5.4580     4.5460    -0.8320 H     1 <1>   0.0800 
 44 H       -6.0550     4.3400     1.4750 H     1 <1>   0.0800 
 45 H       -6.2950     2.6090     1.3170 H     1 <1>   0.0800 
 46 H        3.9030     1.3920     0.6130 H     1 <1>   0.1500 
 47 H        3.6000     3.6530    -2.9890 H     1 <1>   0.1500 
 48 H       -4.2400    -5.8650    -0.3660 H     1 <1>   0.4000 
 49 H        7.1240     1.8130    -1.0680 H     1 <1>   0.0800 
 50 H        5.8290     0.7050    -0.6270 H     1 <1>   0.0800 
 51 H        6.1160     2.1700     0.3300 H     1 <1>   0.0800 
@<TRIPOS>BOND
  1   1   2  2   
  2   2   3  am  
  3   2   4  1   
  4   3   5  1   
  5   3  27  1   
  6   4   6  1   
  7   4   7  2   
  8   5   8  1   
  9   5  28  1   
 10   5  29  1   
 11   6   9  2   
 12   6  10  1   
 13   7  11  1   
 14   7  12  1   
 15   8  13  1   
 16   8  30  1   
 17   8  31  1   
 18   9  11  1   
 19  10  14  1   
 20  10  15  1   
 21  12  16  ar  
 22  12  17  ar  
 23  13  18  1   
 24  13  32  1   
 25  13  33  1   
 26  14  19  1   
 27  14  34  1   
 28  14  35  1   
 29  15  20  1   
 30  15  36  1   
 31  15  37  1   
 32  16  21  ar  
 33  16  38  1   
 34  17  22  ar  
 35  17  39  1   
 36  18  23  1   
 37  18  40  1   
 38  18  41  1   
 39  19  20  1   
 40  19  42  1   
 41  19  43  1   
 42  20  44  1   
 43  20  45  1   
 44  21  24  ar  
 45  21  46  1   
 46  22  24  ar  
 47  22  47  1   
 48  23  48  1   
 49  24  25  1   
 50  25  26  1   
 51  26  49  1   
 52  26  50  1   
 53  26  51  1   
@<TRIPOS>SUBSTRUCTURE
  1 ****   4 GROUP 4 **** **** 0

# MOE 2024.06 (io_trps.svl 2023.06)
