@<TRIPOS>MOLECULE
NONAME
48 51 1 0 0 
SMALL
USER_CHARGES


@<TRIPOS>ATOM
  1 O       -2.6870     2.9880    -0.6680 O.co2 1 <1>  -0.9000 
  2 C       -2.1570     2.6160     0.3850 C.2   1 <1>   0.9060 
  3 O       -1.0630     2.0720     0.4450 O.co2 1 <1>  -0.9000 
  4 C       -3.0200     2.6140     1.6010 C.3   1 <1>  -0.2660 
  5 C       -3.9070     1.3900     1.4890 C.3   1 <1>   0.3430 
  6 N       -4.7250     1.4900     0.2530 N.4   1 <1>  -0.9590 
  7 C       -5.9040     2.4000     0.4010 C.3   1 <1>   0.3430 
  8 C       -5.0430     0.1620    -0.3220 C.3   1 <1>   0.3430 
  9 C       -6.6720     2.5850    -0.9200 C.3   1 <1>   0.1430 
 10 C       -5.7730     0.3280    -1.6580 C.3   1 <1>  -0.1600 
 11 C       -7.8940     3.4130    -0.5920 C.ar  1 <1>   0.1670 
 12 C       -7.0270     1.2090    -1.5210 C.3   1 <1>  -0.1600 
 13 C       -5.9140     3.4870    -1.9330 C.3   1 <1>  -0.1600 
 14 N       -8.9230     2.9890     0.0980 N.ar  1 <1>  -0.6200 
 15 C       -7.7880     4.6830    -1.0690 C.ar  1 <1>  -0.1440 
 16 C       -6.4850     4.9090    -1.7940 C.3   1 <1>  -0.0170 
 17 C       -9.9010     3.8850     0.2930 C.ar  1 <1>   0.6200 
 18 C       -8.8270     5.5420    -0.8230 C.ar  1 <1>   0.1600 
 19 N       -9.8810     5.1520    -0.1440 N.ar  1 <1>  -0.6200 
 20 C      -11.0700     3.4480     1.0440 C.ar  1 <1>   0.0000 
 21 C      -11.8110     4.3360     1.8300 C.ar  1 <1>  -0.1500 
 22 C      -11.5060     2.1200     1.0150 C.ar  1 <1>  -0.1500 
 23 C      -12.9190     3.9240     2.5480 C.ar  1 <1>  -0.1500 
 24 C      -12.6120     1.7000     1.7310 C.ar  1 <1>  -0.1500 
 25 C      -13.3220     2.6020     2.5000 C.ar  1 <1>  -0.1500 
 26 H       -3.5820     3.5250     1.6570 H     1 <1>   0.0800 
 27 H       -2.3910     2.5370     2.4670 H     1 <1>   0.0800 
 28 H       -4.5390     1.2940     2.3560 H     1 <1>   0.0800 
 29 H       -3.2670     0.5230     1.4290 H     1 <1>   0.0800 
 30 H       -4.0730     1.9710    -0.4230 H     1 <1>   0.4500 
 31 H       -5.5760     3.3660     0.7480 H     1 <1>   0.0800 
 32 H       -6.5800     1.9920     1.1340 H     1 <1>   0.0800 
 33 H       -5.6670    -0.3880     0.3630 H     1 <1>   0.0800 
 34 H       -4.1310    -0.3930    -0.4770 H     1 <1>   0.0800 
 35 H       -6.0560    -0.6430    -2.0230 H     1 <1>   0.0800 
 36 H       -5.0930     0.7540    -2.3760 H     1 <1>   0.0800 
 37 H       -7.5030     1.3330    -2.4790 H     1 <1>   0.0800 
 38 H       -7.7320     0.7130    -0.8760 H     1 <1>   0.0800 
 39 H       -6.1100     3.1500    -2.9360 H     1 <1>   0.0800 
 40 H       -4.8490     3.4810    -1.7880 H     1 <1>   0.0800 
 41 H       -6.6360     5.3690    -2.7550 H     1 <1>   0.0800 
 42 H       -5.8330     5.5220    -1.1950 H     1 <1>   0.0800 
 43 H       -8.7940     6.5570    -1.1810 H     1 <1>   0.1500 
 44 H      -11.5130     5.3690     1.8780 H     1 <1>   0.1500 
 45 H      -10.9690     1.4030     0.4180 H     1 <1>   0.1500 
 46 H      -13.4680     4.6320     3.1430 H     1 <1>   0.1500 
 47 H      -12.9220     0.6700     1.6880 H     1 <1>   0.1500 
 48 H      -14.1840     2.2790     3.0580 H     1 <1>   0.1500 
@<TRIPOS>BOND
  1   1   2  ar  
  2   2   3  ar  
  3   2   4  1   
  4   4   5  1   
  5   4  26  1   
  6   4  27  1   
  7   5   6  1   
  8   5  28  1   
  9   5  29  1   
 10   6   7  1   
 11   6   8  1   
 12   6  30  1   
 13   7   9  1   
 14   7  31  1   
 15   7  32  1   
 16   8  10  1   
 17   8  33  1   
 18   8  34  1   
 19   9  11  1   
 20   9  12  1   
 21   9  13  1   
 22  10  12  1   
 23  10  35  1   
 24  10  36  1   
 25  11  14  ar  
 26  11  15  ar  
 27  12  37  1   
 28  12  38  1   
 29  13  16  1   
 30  13  39  1   
 31  13  40  1   
 32  14  17  ar  
 33  15  16  1   
 34  15  18  ar  
 35  16  41  1   
 36  16  42  1   
 37  17  19  ar  
 38  17  20  1   
 39  18  19  ar  
 40  18  43  1   
 41  20  21  ar  
 42  20  22  ar  
 43  21  23  ar  
 44  21  44  1   
 45  22  24  ar  
 46  22  45  1   
 47  23  25  ar  
 48  23  46  1   
 49  24  25  ar  
 50  24  47  1   
 51  25  48  1   
@<TRIPOS>SUBSTRUCTURE
  1 ****  11 GROUP 4 **** **** 0

# MOE 2024.06 (io_trps.svl 2023.06)
