@<TRIPOS>MOLECULE
NONAME
52 55 1 0 0 
SMALL
USER_CHARGES


@<TRIPOS>ATOM
  1 O        0.2450     0.9940    -0.2660 O.3   1 <1>  -0.6800 
  2 C        1.4180     1.6880    -0.0110 C.3   1 <1>   0.2000 
  3 C        1.2700     3.1480    -0.4750 C.3   1 <1>   0.2090 
  4 C        2.5500     0.9810    -0.7620 C.3   1 <1>  -0.1600 
  5 N        2.5720     3.8840    -0.3260 N.pl3 1 <1>  -0.8380 
  6 C        3.8550     1.7880    -0.6580 C.3   1 <1>  -0.1600 
  7 C        2.7290     5.0680     0.3220 C.ar  1 <1>   0.4100 
  8 C        3.6740     3.2420    -1.1120 C.3   1 <1>   0.2090 
  9 N        3.6730     5.8860    -0.1100 N.ar  1 <1>  -0.6200 
 10 C        1.9150     5.4150     1.4200 C.ar  1 <1>  -0.1500 
 11 C        3.8130     7.0470     0.4920 C.ar  1 <1>   0.7710 
 12 C        2.0880     6.6160     2.0220 C.ar  1 <1>   0.2110 
 13 N        3.0530     7.4310     1.5320 N.ar  1 <1>  -0.1790 
 14 N        4.7750     7.8420     0.0110 N.pl3 1 <1>  -0.8690 
 15 C        5.2240     9.2110     0.3920 C.3   1 <1>   0.2090 
 16 C        5.6320    10.0180    -0.8420 C.3   1 <1>   0.0960 
 17 N        5.8630    11.4110    -0.4190 N.pl3 1 <1>   0.0480 
 18 C        6.9310    11.8260     0.3430 C.ar  1 <1>  -0.1520 
 19 C        4.9650    12.4460    -0.4840 C.2   1 <1>  -0.3320 
 20 C        6.6910    13.1300     0.7600 C.ar  1 <1>   0.0000 
 21 C        8.1100    11.1690     0.7160 C.ar  1 <1>  -0.1500 
 22 C        5.4440    13.5000     0.2190 C.2   1 <1>  -0.1500 
 23 C        3.6510    12.3910    -1.2460 C.3   1 <1>  -0.0600 
 24 C        7.6240    13.7890     1.5660 C.ar  1 <1>  -0.1500 
 25 C        9.0200    11.8270     1.5110 C.ar  1 <1>  -0.1500 
 26 C        8.7770    13.1380     1.9370 C.ar  1 <1>  -0.1500 
 27 H       -0.4570     1.2410     0.3660 H     1 <1>   0.4000 
 28 H        1.6010     1.6550     1.0490 H     1 <1>   0.0800 
 29 H        0.4850     3.6310     0.0750 H     1 <1>   0.0800 
 30 H        0.9970     3.1520    -1.5170 H     1 <1>   0.0800 
 31 H        2.2800     0.8810    -1.7990 H     1 <1>   0.0800 
 32 H        2.6980    -0.0020    -0.3500 H     1 <1>   0.0800 
 33 H        4.6120     1.3220    -1.2620 H     1 <1>   0.0800 
 34 H        4.2040     1.7860     0.3600 H     1 <1>   0.0800 
 35 H        4.6040     3.7670    -0.9760 H     1 <1>   0.0800 
 36 H        3.4250     3.2710    -2.1600 H     1 <1>   0.0800 
 37 H        1.1820     4.7170     1.7730 H     1 <1>   0.1500 
 38 H        1.5000     6.9390     2.8670 H     1 <1>   0.1500 
 39 H        3.2570     8.3420     1.9310 H     1 <1>   0.4570 
 40 H        5.3150     7.4060    -0.7470 H     1 <1>   0.4000 
 41 H        6.0680     9.1350     1.0590 H     1 <1>   0.0800 
 42 H        4.4310     9.7350     0.8970 H     1 <1>   0.0800 
 43 H        4.8540    10.0000    -1.5810 H     1 <1>   0.0800 
 44 H        6.5390     9.6310    -1.2690 H     1 <1>   0.0800 
 45 H        8.3070    10.1680     0.3810 H     1 <1>   0.1500 
 46 H        4.9950    14.4660     0.3650 H     1 <1>   0.1500 
 47 H        3.0130    11.6230    -0.8490 H     1 <1>   0.0800 
 48 H        3.8350    12.1960    -2.2880 H     1 <1>   0.0800 
 49 H        3.1400    13.3340    -1.1660 H     1 <1>   0.0800 
 50 H        7.4240    14.7970     1.8820 H     1 <1>   0.1500 
 51 H        9.9330    11.3430     1.8100 H     1 <1>   0.1500 
 52 H        9.5050    13.6320     2.5570 H     1 <1>   0.1500 
@<TRIPOS>BOND
  1   1   2  1   
  2   1  27  1   
  3   2   3  1   
  4   2   4  1   
  5   2  28  1   
  6   3   5  1   
  7   3  29  1   
  8   3  30  1   
  9   4   6  1   
 10   4  31  1   
 11   4  32  1   
 12   5   7  1   
 13   5   8  1   
 14   6   8  1   
 15   6  33  1   
 16   6  34  1   
 17   7   9  ar  
 18   7  10  ar  
 19   8  35  1   
 20   8  36  1   
 21   9  11  ar  
 22  10  12  ar  
 23  10  37  1   
 24  11  13  ar  
 25  11  14  1   
 26  12  13  ar  
 27  12  38  1   
 28  13  39  1   
 29  14  15  1   
 30  14  40  1   
 31  15  16  1   
 32  15  41  1   
 33  15  42  1   
 34  16  17  1   
 35  16  43  1   
 36  16  44  1   
 37  17  18  1   
 38  17  19  1   
 39  18  20  ar  
 40  18  21  ar  
 41  19  22  2   
 42  19  23  1   
 43  20  22  1   
 44  20  24  ar  
 45  21  25  ar  
 46  21  45  1   
 47  22  46  1   
 48  23  47  1   
 49  23  48  1   
 50  23  49  1   
 51  24  26  ar  
 52  24  50  1   
 53  25  26  ar  
 54  25  51  1   
 55  26  52  1   
@<TRIPOS>SUBSTRUCTURE
  1 ****  14 GROUP 4 **** **** 0

# MOE 2024.06 (io_trps.svl 2023.06)
