@<TRIPOS>MOLECULE
NONAME
44 45 1 0 0 
SMALL
USER_CHARGES


@<TRIPOS>ATOM
  1 S       -0.3250     0.9350    -2.0230 S.o2  1 <1>   1.4470 
  2 O        0.3340     0.2680    -3.1290 O.2   1 <1>  -0.6500 
  3 O       -1.1540     2.0790    -2.3410 O.2   1 <1>  -0.6500 
  4 N       -1.3280    -0.2180    -1.2810 N.am  1 <1>  -0.8490 
  5 C        0.9260     1.3250    -0.7610 C.ar  1 <1>  -0.0090 
  6 C       -0.7650    -1.5830    -1.3110 C.3   1 <1>   0.1960 
  7 C       -1.7930     0.1960     0.0420 C.3   1 <1>   0.1960 
  8 C        0.8170     2.4130     0.1050 C.ar  1 <1>   0.0820 
  9 C        2.0280     0.4950    -0.5960 C.ar  1 <1>  -0.1500 
 10 C       -1.3300    -2.5260    -0.2380 C.3   1 <1>  -0.1860 
 11 C       -2.9610    -0.6870     0.4870 C.3   1 <1>  -0.1600 
 12 O       -0.2490     3.2380     0.0570 O.3   1 <1>  -0.3620 
 13 C        1.7750     2.6660     1.0770 C.ar  1 <1>  -0.1500 
 14 C        2.9730     0.7240     0.3930 C.ar  1 <1>   0.0820 
 15 C       -0.4010    -2.5530     0.9630 C.2   1 <1>   0.9060 
 16 C       -2.7860    -2.1560     0.0750 C.3   1 <1>   0.2000 
 17 C       -0.0630     4.4570    -0.6270 C.3   1 <1>   0.0400 
 18 C        2.8640     1.8280     1.2270 C.ar  1 <1>  -0.1440 
 19 O        3.9970    -0.1430     0.5660 O.3   1 <1>  -0.3630 
 20 O        0.8050    -2.7310     0.7640 O.co2 1 <1>  -0.9000 
 21 O       -0.8560    -2.4170     2.1060 O.co2 1 <1>  -0.9000 
 22 O       -3.2330    -2.9520     1.1040 O.3   1 <1>  -0.6800 
 23 C        3.9040     2.0940     2.3030 C.3   1 <1>  -0.0970 
 24 C        3.6300    -1.4780     0.8590 C.3   1 <1>   0.0400 
 25 H       -0.9830    -1.9980    -2.2800 H     1 <1>   0.0800 
 26 H        0.3070    -1.5500    -1.2300 H     1 <1>   0.0800 
 27 H       -0.9880     0.1140     0.7560 H     1 <1>   0.0800 
 28 H       -2.1180     1.2230     0.0190 H     1 <1>   0.0800 
 29 H        2.1540    -0.3540    -1.2430 H     1 <1>   0.1500 
 30 H       -1.3120    -3.5200    -0.6370 H     1 <1>   0.0800 
 31 H       -3.8660    -0.3120     0.0480 H     1 <1>   0.0800 
 32 H       -3.0470    -0.6030     1.5560 H     1 <1>   0.0800 
 33 H        1.6490     3.5150     1.7230 H     1 <1>   0.1500 
 34 H       -3.3990    -2.3580    -0.7870 H     1 <1>   0.0800 
 35 H       -1.0000     4.9840    -0.6310 H     1 <1>   0.0800 
 36 H        0.2400     4.2470    -1.6380 H     1 <1>   0.0800 
 37 H        0.6880     5.0350    -0.1200 H     1 <1>   0.0800 
 38 H       -2.5160    -2.8970     1.8000 H     1 <1>   0.4000 
 39 H        3.7100     3.0200     2.8130 H     1 <1>   0.0800 
 40 H        4.8830     2.1420     1.8590 H     1 <1>   0.0800 
 41 H        3.8910     1.2940     3.0210 H     1 <1>   0.0800 
 42 H        4.5070    -2.0150     1.1650 H     1 <1>   0.0800 
 43 H        3.2060    -1.9370    -0.0160 H     1 <1>   0.0800 
 44 H        2.9030    -1.4780     1.6550 H     1 <1>   0.0800 
@<TRIPOS>BOND
  1   1   2  2   
  2   1   3  2   
  3   1   4  am  
  4   1   5  1   
  5   4   6  1   
  6   4   7  1   
  7   5   8  ar  
  8   5   9  ar  
  9   6  10  1   
 10   6  25  1   
 11   6  26  1   
 12   7  11  1   
 13   7  27  1   
 14   7  28  1   
 15   8  12  1   
 16   8  13  ar  
 17   9  14  ar  
 18   9  29  1   
 19  10  15  1   
 20  10  16  1   
 21  10  30  1   
 22  11  16  1   
 23  11  31  1   
 24  11  32  1   
 25  12  17  1   
 26  13  18  ar  
 27  13  33  1   
 28  14  18  ar  
 29  14  19  1   
 30  15  20  ar  
 31  15  21  ar  
 32  16  22  1   
 33  16  34  1   
 34  17  35  1   
 35  17  36  1   
 36  17  37  1   
 37  18  23  1   
 38  19  24  1   
 39  22  38  1   
 40  23  39  1   
 41  23  40  1   
 42  23  41  1   
 43  24  42  1   
 44  24  43  1   
 45  24  44  1   
@<TRIPOS>SUBSTRUCTURE
  1 ****   5 GROUP 4 **** **** 0

# MOE 2024.06 (io_trps.svl 2023.06)
