@<TRIPOS>MOLECULE
NONAME
52 54 1 0 0 
SMALL
USER_CHARGES


@<TRIPOS>ATOM
  1 F       -3.4170    -0.5530    -3.1830 F     1 <1>  -0.1900 
  2 C       -3.8160     0.3010    -2.2730 C.ar  1 <1>   0.1900 
  3 C       -4.2700     1.5510    -2.6720 C.ar  1 <1>   0.0830 
  4 C       -3.7810    -0.0740    -0.9440 C.ar  1 <1>  -0.1500 
  5 O       -4.3160     1.8990    -3.9720 O.3   1 <1>  -0.5330 
  6 C       -4.6840     2.4510    -1.7060 C.ar  1 <1>  -0.1500 
  7 C       -4.2140     0.8260     0.0210 C.ar  1 <1>  -0.1440 
  8 C       -4.6520     2.0890    -0.3680 C.ar  1 <1>  -0.1500 
  9 C       -4.2160     0.4270     1.4950 C.3   1 <1>   0.0440 
 10 C       -4.8590    -0.9310     1.7640 C.2   1 <1>   0.5690 
 11 O       -4.1380    -1.7760     2.2420 O.2   1 <1>  -0.5700 
 12 N       -6.1880    -1.1920     1.4930 N.am  1 <1>  -0.6600 
 13 C       -7.1200    -0.1840     0.9010 C.3   1 <1>   0.2200 
 14 C       -6.7290    -2.5620     1.7690 C.3   1 <1>   0.0600 
 15 C       -8.4970    -0.1120     1.5640 C.3   1 <1>  -0.1600 
 16 C       -7.4240    -0.4590    -0.5700 C.3   1 <1>  -0.1600 
 17 C       -9.3810     0.5710     0.5100 C.3   1 <1>  -0.0800 
 18 C       -8.7070     0.3340    -0.8460 C.3   1 <1>  -0.0800 
 19 C      -10.8050     0.0070     0.3720 C.3   1 <1>  -0.1600 
 20 C       -9.7490    -0.3850    -1.7140 C.3   1 <1>  -0.1600 
 21 C      -11.1070     0.0180    -1.1310 C.3   1 <1>   0.4230 
 22 N      -11.4940     1.3930    -1.5870 N.4   1 <1>  -0.9590 
 23 C      -12.7540     1.8840    -0.9400 C.3   1 <1>   0.2630 
 24 C      -11.6590     1.4850    -3.0740 C.3   1 <1>   0.2630 
 25 H       -3.4260    -1.0540    -0.6750 H     1 <1>   0.1500 
 26 H       -3.9540     1.1960    -4.5460 H     1 <1>   0.4500 
 27 H       -5.0230     3.4270    -2.0060 H     1 <1>   0.1500 
 28 H       -4.9730     2.8020     0.3720 H     1 <1>   0.1500 
 29 H       -4.7210     1.1640     2.0900 H     1 <1>   0.0800 
 30 H       -3.1960     0.3940     1.8360 H     1 <1>   0.0800 
 31 H       -6.6940     0.7990     0.9720 H     1 <1>   0.0800 
 32 H       -7.4450    -2.8500     1.0220 H     1 <1>   0.0800 
 33 H       -7.1990    -2.5740     2.7360 H     1 <1>   0.0800 
 34 H       -5.9370    -3.2910     1.7670 H     1 <1>   0.0800 
 35 H       -8.8700    -1.0970     1.7740 H     1 <1>   0.0800 
 36 H       -8.4590     0.4550     2.4770 H     1 <1>   0.0800 
 37 H       -6.6220    -0.1300    -1.2050 H     1 <1>   0.0800 
 38 H       -7.5820    -1.5100    -0.7240 H     1 <1>   0.0800 
 39 H       -9.4150     1.6310     0.7020 H     1 <1>   0.0800 
 40 H       -8.4510     1.2870    -1.2820 H     1 <1>   0.0800 
 41 H      -11.5140     0.5340     0.9820 H     1 <1>   0.0800 
 42 H      -10.8160    -1.0210     0.6900 H     1 <1>   0.0800 
 43 H       -9.6510    -1.4490    -1.5830 H     1 <1>   0.0800 
 44 H       -9.6220    -0.1820    -2.7600 H     1 <1>   0.0800 
 45 H      -11.8750    -0.6950    -1.3860 H     1 <1>   0.0800 
 46 H      -10.7200     2.0120    -1.3080 H     1 <1>   0.4500 
 47 H      -13.5670     1.2050    -1.1400 H     1 <1>   0.0800 
 48 H      -13.0160     2.8560    -1.3260 H     1 <1>   0.0800 
 49 H      -12.6290     1.9710     0.1260 H     1 <1>   0.0800 
 50 H      -12.3970     0.7770    -3.4140 H     1 <1>   0.0800 
 51 H      -10.7280     1.2830    -3.5760 H     1 <1>   0.0800 
 52 H      -11.9800     2.4760    -3.3530 H     1 <1>   0.0800 
@<TRIPOS>BOND
  1   1   2  1   
  2   2   3  ar  
  3   2   4  ar  
  4   3   5  1   
  5   3   6  ar  
  6   4   7  ar  
  7   4  25  1   
  8   5  26  1   
  9   6   8  ar  
 10   6  27  1   
 11   7   8  ar  
 12   7   9  1   
 13   8  28  1   
 14   9  10  1   
 15   9  29  1   
 16   9  30  1   
 17  10  11  2   
 18  10  12  am  
 19  12  13  1   
 20  12  14  1   
 21  13  15  1   
 22  13  16  1   
 23  13  31  1   
 24  14  32  1   
 25  14  33  1   
 26  14  34  1   
 27  15  17  1   
 28  15  35  1   
 29  15  36  1   
 30  16  18  1   
 31  16  37  1   
 32  16  38  1   
 33  17  18  1   
 34  17  19  1   
 35  17  39  1   
 36  18  20  1   
 37  18  40  1   
 38  19  21  1   
 39  19  41  1   
 40  19  42  1   
 41  20  21  1   
 42  20  43  1   
 43  20  44  1   
 44  21  22  1   
 45  21  45  1   
 46  22  23  1   
 47  22  24  1   
 48  22  46  1   
 49  23  47  1   
 50  23  48  1   
 51  23  49  1   
 52  24  50  1   
 53  24  51  1   
 54  24  52  1   
@<TRIPOS>SUBSTRUCTURE
  1 ****  16 GROUP 4 **** **** 0

# MOE 2024.06 (io_trps.svl 2023.06)
