@<TRIPOS>MOLECULE
NONAME
37 38 1 0 0 
SMALL
USER_CHARGES


@<TRIPOS>ATOM
  1 S       -0.3670    -0.2170     1.0980 S.3   1 <1>  -0.0800 
  2 C       -1.5380    -0.8830     0.0060 C.2   1 <1>   0.4420 
  3 C       -0.5830     1.2950     0.2870 C.2   1 <1>   0.1980 
  4 N       -1.9760    -0.0060    -0.8240 N.2   1 <1>  -0.3380 
  5 N       -1.8400    -2.2170     0.1570 N.am  1 <1>  -0.4940 
  6 N       -1.4280     1.2330    -0.6580 N.2   1 <1>  -0.3380 
  7 C        0.2120     2.4920     0.7550 C.3   1 <1>   0.0200 
  8 C       -2.7170    -3.0120    -0.5220 C.2   1 <1>   0.5690 
  9 C       -0.1870     3.7080    -0.0910 C.3   1 <1>   0.3430 
 10 O       -3.4260    -2.6240    -1.4170 O.2   1 <1>  -0.5700 
 11 C       -2.7830    -4.4830    -0.0920 C.3   1 <1>   0.2610 
 12 N        0.5020     4.9730     0.3340 N.4   1 <1>  -0.9590 
 13 O       -1.9590    -4.7340     1.0180 O.3   1 <1>  -0.5600 
 14 C       -2.2820    -5.4640    -1.1470 C.3   1 <1>  -0.1600 
 15 C       -0.1400     6.1420    -0.3470 C.3   1 <1>   0.2630 
 16 C        1.9710     4.9550     0.0390 C.3   1 <1>   0.2630 
 17 C       -1.6920    -6.0980     1.1030 C.3   1 <1>   0.1200 
 18 C       -1.7540    -6.6320    -0.3270 C.3   1 <1>  -0.1600 
 19 H       -1.3510    -2.7250     0.8960 H     1 <1>   0.3700 
 20 H        1.2570     2.2720     0.6390 H     1 <1>   0.0800 
 21 H       -0.0090     2.6700     1.7910 H     1 <1>   0.0800 
 22 H       -1.2550     3.8360    -0.0070 H     1 <1>   0.0800 
 23 H        0.0300     3.5020    -1.1270 H     1 <1>   0.0800 
 24 H       -3.7920    -4.7250     0.1910 H     1 <1>   0.0800 
 25 H        0.3680     5.0950     1.3510 H     1 <1>   0.4500 
 26 H       -1.4850    -5.0120    -1.7120 H     1 <1>   0.0800 
 27 H       -3.0710    -5.7490    -1.8210 H     1 <1>   0.0800 
 28 H       -0.0320     6.0590    -1.4170 H     1 <1>   0.0800 
 29 H        0.3190     7.0630    -0.0250 H     1 <1>   0.0800 
 30 H       -1.1910     6.1830    -0.1100 H     1 <1>   0.0800 
 31 H        2.1400     4.8160    -1.0170 H     1 <1>   0.0800 
 32 H        2.4560     4.1560     0.5750 H     1 <1>   0.0800 
 33 H        2.4240     5.8870     0.3390 H     1 <1>   0.0800 
 34 H       -2.4510    -6.5500     1.7200 H     1 <1>   0.0800 
 35 H       -0.7230    -6.2360     1.5500 H     1 <1>   0.0800 
 36 H       -0.7780    -6.9360    -0.6640 H     1 <1>   0.0800 
 37 H       -2.4180    -7.4780    -0.3730 H     1 <1>   0.0800 
@<TRIPOS>BOND
  1   1   2  1   
  2   1   3  1   
  3   2   4  2   
  4   2   5  1   
  5   3   6  2   
  6   3   7  1   
  7   4   6  1   
  8   5   8  am  
  9   5  19  1   
 10   7   9  1   
 11   7  20  1   
 12   7  21  1   
 13   8  10  2   
 14   8  11  1   
 15   9  12  1   
 16   9  22  1   
 17   9  23  1   
 18  11  13  1   
 19  11  14  1   
 20  11  24  1   
 21  12  15  1   
 22  12  16  1   
 23  12  25  1   
 24  13  17  1   
 25  14  18  1   
 26  14  26  1   
 27  14  27  1   
 28  15  28  1   
 29  15  29  1   
 30  15  30  1   
 31  16  31  1   
 32  16  32  1   
 33  16  33  1   
 34  17  18  1   
 35  17  34  1   
 36  17  35  1   
 37  18  36  1   
 38  18  37  1   
@<TRIPOS>SUBSTRUCTURE
  1 ****   2 GROUP 4 **** **** 0

# MOE 2024.06 (io_trps.svl 2023.06)
