@<TRIPOS>MOLECULE
NONAME
42 43 1 0 0 
SMALL
USER_CHARGES


@<TRIPOS>ATOM
  1 S        0.3050     0.2500    -0.5750 S.o2  1 <1>   1.3330 
  2 O        0.2110    -0.7700    -1.5960 O.2   1 <1>  -0.6500 
  3 O        0.2770    -0.1320     0.8190 O.2   1 <1>  -0.6500 
  4 N       -0.9410     1.3740    -0.8280 N.am  1 <1>  -0.8490 
  5 C        1.7880     1.2050    -0.8840 C.3   1 <1>  -0.0550 
  6 C       -1.1560     2.2760     0.3080 C.3   1 <1>   0.1160 
  7 C       -2.2030     0.7250    -1.1970 C.3   1 <1>   0.1160 
  8 C        3.0720     0.3520    -0.8780 C.3   1 <1>  -0.0800 
  9 C        4.3540     1.1110    -1.1830 C.3   1 <1>   0.2200 
 10 C        3.3900    -0.3300     0.4600 C.3   1 <1>   0.1200 
 11 N        4.3940     2.4020    -0.4510 N.am  1 <1>  -0.7300 
 12 C        5.3780     0.1740    -0.5620 C.3   1 <1>   0.1200 
 13 O        4.7800    -0.2730     0.6170 O.3   1 <1>  -0.5600 
 14 C        4.1060     3.6270    -0.9810 C.2   1 <1>   0.5440 
 15 O        3.7020     3.6630    -2.1270 O.2   1 <1>  -0.5700 
 16 C        4.2410     4.8390    -0.2020 C.ar  1 <1>   0.0860 
 17 C        3.6570     6.0290    -0.6390 C.ar  1 <1>   0.1600 
 18 C        4.9390     4.8970     1.0040 C.ar  1 <1>  -0.1500 
 19 N        3.6910     7.1940    -0.0120 N.ar  1 <1>  -0.6200 
 20 C        4.9870     6.0990     1.6680 C.ar  1 <1>  -0.1500 
 21 C        4.3510     7.2110     1.1300 C.ar  1 <1>   0.4100 
 22 N        4.3730     8.4130     1.7470 N.pl3 1 <1>  -0.9000 
 23 H        1.7010     1.6800    -1.8430 H     1 <1>   0.0800 
 24 H        1.8620     1.9770    -0.1460 H     1 <1>   0.0800 
 25 H       -1.8990     3.0140     0.0580 H     1 <1>   0.0800 
 26 H       -0.2420     2.7890     0.5540 H     1 <1>   0.0800 
 27 H       -1.4870     1.7230     1.1720 H     1 <1>   0.0800 
 28 H       -2.9660     1.4640    -1.3720 H     1 <1>   0.0800 
 29 H       -2.5250     0.0600    -0.4130 H     1 <1>   0.0800 
 30 H       -2.0730     0.1560    -2.1020 H     1 <1>   0.0800 
 31 H        2.9610    -0.4240    -1.6170 H     1 <1>   0.0800 
 32 H        4.5150     1.2610    -2.2380 H     1 <1>   0.0800 
 33 H        3.0780    -1.3610     0.4690 H     1 <1>   0.0800 
 34 H        2.9470     0.1890     1.2930 H     1 <1>   0.0800 
 35 H        4.6250     2.2950     0.5390 H     1 <1>   0.3700 
 36 H        6.3120     0.6600    -0.3380 H     1 <1>   0.0800 
 37 H        5.5500    -0.6810    -1.1930 H     1 <1>   0.0800 
 38 H        3.1220     6.0090    -1.5740 H     1 <1>   0.1500 
 39 H        5.4320     4.0310     1.4070 H     1 <1>   0.1500 
 40 H        5.5070     6.1970     2.6020 H     1 <1>   0.1500 
 41 H        3.9780     9.1750     1.1920 H     1 <1>   0.4000 
 42 H        5.1750     8.6770     2.3160 H     1 <1>   0.4000 
@<TRIPOS>BOND
  1   1   2  2   
  2   1   3  2   
  3   1   4  am  
  4   1   5  1   
  5   4   6  1   
  6   4   7  1   
  7   5   8  1   
  8   5  23  1   
  9   5  24  1   
 10   6  25  1   
 11   6  26  1   
 12   6  27  1   
 13   7  28  1   
 14   7  29  1   
 15   7  30  1   
 16   8   9  1   
 17   8  10  1   
 18   8  31  1   
 19   9  11  1   
 20   9  12  1   
 21   9  32  1   
 22  10  13  1   
 23  10  33  1   
 24  10  34  1   
 25  11  14  am  
 26  11  35  1   
 27  12  13  1   
 28  12  36  1   
 29  12  37  1   
 30  14  15  2   
 31  14  16  1   
 32  16  17  ar  
 33  16  18  ar  
 34  17  19  ar  
 35  17  38  1   
 36  18  20  ar  
 37  18  39  1   
 38  19  21  ar  
 39  20  21  ar  
 40  20  40  1   
 41  21  22  1   
 42  22  41  1   
 43  22  42  1   
@<TRIPOS>SUBSTRUCTURE
  1 ****  11 GROUP 4 **** **** 0

# MOE 2024.06 (io_trps.svl 2023.06)
