@<TRIPOS>MOLECULE
NONAME
41 42 1 0 0 
SMALL
USER_CHARGES


@<TRIPOS>ATOM
  1 O        0.0180    -0.3760    -0.6140 O.2   1 <1>  -0.5700 
  2 C        1.0370    -0.7520    -0.0570 C.2   1 <1>   0.7160 
  3 N        2.0640     0.1210     0.2060 N.am  1 <1>  -0.4940 
  4 C        1.2320    -2.1340     0.3390 C.2   1 <1>   0.2030 
  5 C        2.2270     1.5040    -0.0530 C.2   1 <1>  -0.0880 
  6 N        2.3340    -2.6130     0.8960 N.2   1 <1>  -0.7070 
  7 C        0.2850    -3.1540     0.1850 C.2   1 <1>  -0.1500 
  8 N        3.4060     2.0690    -0.4290 N.pl3 1 <1>   0.3140 
  9 C        1.3300     2.5180     0.0160 C.2   1 <1>  -0.1810 
 10 N        2.0870    -3.9170     1.0950 N.pl3 1 <1>   0.3000 
 11 C        0.8570    -4.2720     0.6720 C.2   1 <1>  -0.3320 
 12 N        3.2890     3.4030    -0.6050 N.2   1 <1>  -0.7070 
 13 C        4.6860     1.3750    -0.6860 C.3   1 <1>   0.0960 
 14 C        2.0460     3.6570    -0.3390 C.2   1 <1>   0.1390 
 15 C       -0.1370     2.4900     0.4010 C.3   1 <1>  -0.0590 
 16 C        0.2870    -5.6790     0.7700 C.3   1 <1>   0.0200 
 17 C        5.4610     1.1340     0.6160 C.3   1 <1>  -0.2400 
 18 C        0.7290    -6.5860    -0.3940 C.3   1 <1>  -0.0800 
 19 C        0.0040    -7.9360    -0.3110 C.3   1 <1>  -0.2400 
 20 C        2.2460    -6.8240    -0.4220 C.3   1 <1>  -0.2400 
 21 H        2.8530    -0.3770     0.6280 H     1 <1>   0.3700 
 22 H       -0.6940    -3.0220    -0.2430 H     1 <1>   0.1500 
 23 H        2.7740    -4.5550     1.5180 H     1 <1>   0.2700 
 24 H        5.2680     1.9880    -1.3500 H     1 <1>   0.0800 
 25 H        4.4770     0.4430    -1.1790 H     1 <1>   0.0800 
 26 H        1.6240     4.6460    -0.3890 H     1 <1>   0.1500 
 27 H       -0.3250     1.6870     1.0890 H     1 <1>   0.0800 
 28 H       -0.7390     2.3410    -0.4780 H     1 <1>   0.0800 
 29 H       -0.4190     3.4160     0.8690 H     1 <1>   0.0800 
 30 H       -0.7870    -5.6040     0.7580 H     1 <1>   0.0800 
 31 H        0.5650    -6.1200     1.7110 H     1 <1>   0.0800 
 32 H        5.6720     2.0740     1.0950 H     1 <1>   0.0800 
 33 H        6.3930     0.6440     0.4000 H     1 <1>   0.0800 
 34 H        4.8940     0.5130     1.2870 H     1 <1>   0.0800 
 35 H        0.4430    -6.1090    -1.3180 H     1 <1>   0.0800 
 36 H        0.2630    -8.4540     0.5960 H     1 <1>   0.0800 
 37 H        0.2740    -8.5570    -1.1480 H     1 <1>   0.0800 
 38 H       -1.0620    -7.7930    -0.3330 H     1 <1>   0.0800 
 39 H        2.5870    -7.2270     0.5150 H     1 <1>   0.0800 
 40 H        2.7700    -5.9080    -0.6260 H     1 <1>   0.0800 
 41 H        2.4970    -7.5200    -1.2030 H     1 <1>   0.0800 
@<TRIPOS>BOND
  1   1   2  2   
  2   2   3  am  
  3   2   4  1   
  4   3   5  1   
  5   3  21  1   
  6   4   6  2   
  7   4   7  1   
  8   5   8  1   
  9   5   9  2   
 10   6  10  1   
 11   7  11  2   
 12   7  22  1   
 13   8  12  1   
 14   8  13  1   
 15   9  14  1   
 16   9  15  1   
 17  10  11  1   
 18  10  23  1   
 19  11  16  1   
 20  12  14  2   
 21  13  17  1   
 22  13  24  1   
 23  13  25  1   
 24  14  26  1   
 25  15  27  1   
 26  15  28  1   
 27  15  29  1   
 28  16  18  1   
 29  16  30  1   
 30  16  31  1   
 31  17  32  1   
 32  17  33  1   
 33  17  34  1   
 34  18  19  1   
 35  18  20  1   
 36  18  35  1   
 37  19  36  1   
 38  19  37  1   
 39  19  38  1   
 40  20  39  1   
 41  20  40  1   
 42  20  41  1   
@<TRIPOS>SUBSTRUCTURE
  1 ****   2 GROUP 4 **** **** 0

# MOE 2024.06 (io_trps.svl 2023.06)
