@<TRIPOS>MOLECULE
NONAME
52 55 1 0 0 
SMALL
USER_CHARGES


@<TRIPOS>ATOM
  1 O        0.5810     1.3700    -1.1740 O.2   1 <1>  -0.5700 
  2 C        1.1800     2.3650    -0.8640 C.2   1 <1>   0.4230 
  3 C        2.4290     2.4700    -0.1780 C.ar  1 <1>   0.0860 
  4 C        0.6690     3.7520    -1.1780 C.3   1 <1>  -0.0990 
  5 C        2.8150     3.7900    -0.0340 C.ar  1 <1>  -0.1440 
  6 C        3.2250     1.4530     0.3300 C.ar  1 <1>  -0.1500 
  7 C        1.7680     4.7030    -0.6600 C.3   1 <1>  -0.0160 
  8 C        3.9980     4.1480     0.6200 C.ar  1 <1>   0.0860 
  9 C        4.3960     1.7730     0.9880 C.ar  1 <1>  -0.1500 
 10 C        4.4530     5.5210     0.7890 C.2   1 <1>   0.5440 
 11 C        4.7690     3.0990     1.1310 C.ar  1 <1>  -0.1500 
 12 O        5.1390     5.8450     1.7420 O.2   1 <1>  -0.5700 
 13 N        4.2430     6.4910    -0.1590 N.am  1 <1>  -0.6600 
 14 C        5.1290     6.5310    -1.3630 C.3   1 <1>   0.1400 
 15 C        3.5830     7.7790     0.1980 C.3   1 <1>   0.1400 
 16 C        6.5840     6.9040    -0.9950 C.3   1 <1>   0.3430 
 17 C        4.5310     8.7690     0.8950 C.3   1 <1>  -0.1600 
 18 N        6.6620     7.7230     0.2580 N.4   1 <1>  -0.9590 
 19 C        5.8820     8.9850     0.2100 C.3   1 <1>   0.3430 
 20 C        8.0330     7.8930     0.8360 C.3   1 <1>   0.3430 
 21 C        9.1490     8.1830    -0.1880 C.3   1 <1>  -0.0800 
 22 C       10.4140     8.4670     0.6050 C.3   1 <1>   0.1200 
 23 C        9.0050     9.5050    -0.9430 C.3   1 <1>  -0.1600 
 24 O       10.2420     9.7800     1.0090 O.3   1 <1>  -0.5600 
 25 C        9.6940    10.5230    -0.0330 C.3   1 <1>   0.1200 
 26 H       -0.2620     3.9160    -0.6670 H     1 <1>   0.0800 
 27 H        0.5240     3.8570    -2.2380 H     1 <1>   0.0800 
 28 H        2.9150     0.4280     0.2080 H     1 <1>   0.1500 
 29 H        1.3680     5.3810     0.0740 H     1 <1>   0.0800 
 30 H        2.1890     5.2590    -1.4780 H     1 <1>   0.0800 
 31 H        5.0150     0.9890     1.3920 H     1 <1>   0.1500 
 32 H        5.6800     3.3260     1.6580 H     1 <1>   0.1500 
 33 H        4.7450     7.2460    -2.0690 H     1 <1>   0.0800 
 34 H        5.1220     5.5690    -1.8480 H     1 <1>   0.0800 
 35 H        2.7530     7.5730     0.8550 H     1 <1>   0.0800 
 36 H        3.1800     8.2270    -0.6950 H     1 <1>   0.0800 
 37 H        7.0420     7.4280    -1.8170 H     1 <1>   0.0800 
 38 H        7.1340     5.9900    -0.8450 H     1 <1>   0.0800 
 39 H        4.6910     8.4560     1.9120 H     1 <1>   0.0800 
 40 H        4.0290     9.7180     0.9490 H     1 <1>   0.0800 
 41 H        6.1320     7.1440     0.9510 H     1 <1>   0.4500 
 42 H        6.4170     9.7610     0.7350 H     1 <1>   0.0800 
 43 H        5.7400     9.3030    -0.8100 H     1 <1>   0.0800 
 44 H        8.2960     6.9900     1.3630 H     1 <1>   0.0800 
 45 H        8.0170     8.6870     1.5660 H     1 <1>   0.0800 
 46 H        9.3040     7.3430    -0.8410 H     1 <1>   0.0800 
 47 H       11.2940     8.4190    -0.0160 H     1 <1>   0.0800 
 48 H       10.5400     7.8390     1.4710 H     1 <1>   0.0800 
 49 H        7.9970     9.7900    -1.1690 H     1 <1>   0.0800 
 50 H        9.5510     9.4590    -1.8700 H     1 <1>   0.0800 
 51 H        9.0060    11.2360     0.3870 H     1 <1>   0.0800 
 52 H       10.4930    11.0380    -0.5420 H     1 <1>   0.0800 
@<TRIPOS>BOND
  1   1   2  2   
  2   2   3  1   
  3   2   4  1   
  4   3   5  ar  
  5   3   6  ar  
  6   4   7  1   
  7   4  26  1   
  8   4  27  1   
  9   5   7  1   
 10   5   8  ar  
 11   6   9  ar  
 12   6  28  1   
 13   7  29  1   
 14   7  30  1   
 15   8  10  1   
 16   8  11  ar  
 17   9  11  ar  
 18   9  31  1   
 19  10  12  2   
 20  10  13  am  
 21  11  32  1   
 22  13  14  1   
 23  13  15  1   
 24  14  16  1   
 25  14  33  1   
 26  14  34  1   
 27  15  17  1   
 28  15  35  1   
 29  15  36  1   
 30  16  18  1   
 31  16  37  1   
 32  16  38  1   
 33  17  19  1   
 34  17  39  1   
 35  17  40  1   
 36  18  19  1   
 37  18  20  1   
 38  18  41  1   
 39  19  42  1   
 40  19  43  1   
 41  20  21  1   
 42  20  44  1   
 43  20  45  1   
 44  21  22  1   
 45  21  23  1   
 46  21  46  1   
 47  22  24  1   
 48  22  47  1   
 49  22  48  1   
 50  23  25  1   
 51  23  49  1   
 52  23  50  1   
 53  24  25  1   
 54  25  51  1   
 55  25  52  1   
@<TRIPOS>SUBSTRUCTURE
  1 ****  10 GROUP 4 **** **** 0

# MOE 2024.06 (io_trps.svl 2023.06)
