@<TRIPOS>MOLECULE
NONAME
37 37 1 0 0 
SMALL
USER_CHARGES


@<TRIPOS>ATOM
  1 O        0.8900    -0.3050     0.1170 O.3   1 <1>  -0.8500 
  2 C        0.5600    -1.4750    -0.2570 C.2   1 <1>  -0.1620 
  3 N        1.4890    -2.5490    -0.2360 N.2   1 <1>   1.5900 
  4 C       -0.7320    -1.7360    -0.6940 C.2   1 <1>  -0.0380 
  5 O        2.6830    -2.3870     0.1880 O.2   1 <1>  -0.5640 
  6 C        1.0780    -3.8110    -0.6240 C.2   1 <1>  -0.1510 
  7 N       -1.0730    -2.9840    -1.0840 N.pl3 1 <1>  -0.6000 
  8 C       -1.8110    -0.6570    -0.7570 C.3   1 <1>  -0.0220 
  9 C       -0.1960    -4.0230    -1.0550 C.2   1 <1>  -0.0500 
 10 C        2.0610    -4.9660    -0.5670 C.3   1 <1>   0.3380 
 11 C       -2.9660    -0.9040     0.2340 C.3   1 <1>  -0.0800 
 12 O        3.1420    -4.6640    -1.3690 O.3   1 <1>  -0.6800 
 13 C        2.5350    -5.3820     0.8490 C.3   1 <1>  -0.0800 
 14 C       -4.0520     0.1650     0.0590 C.3   1 <1>  -0.2400 
 15 C       -2.4660    -0.8980     1.6850 C.3   1 <1>  -0.2400 
 16 C        3.4200    -6.6400     0.8010 C.3   1 <1>  -0.2400 
 17 C        1.3430    -5.6500     1.7840 C.3   1 <1>  -0.2400 
 18 H       -2.0410    -3.1350    -1.4070 H     1 <1>   0.4000 
 19 H       -1.3750     0.3060    -0.5540 H     1 <1>   0.0800 
 20 H       -2.1950    -0.6190    -1.7600 H     1 <1>   0.0800 
 21 H       -0.5550    -4.9900    -1.3770 H     1 <1>   0.1500 
 22 H        1.5930    -5.8250    -1.0200 H     1 <1>   0.0800 
 23 H       -3.4040    -1.8650     0.0280 H     1 <1>   0.0800 
 24 H        3.8390    -4.2060    -0.8530 H     1 <1>   0.4000 
 25 H        3.1170    -4.5900     1.2870 H     1 <1>   0.0800 
 26 H       -3.6530     1.1430     0.2650 H     1 <1>   0.0800 
 27 H       -4.8700    -0.0200     0.7320 H     1 <1>   0.0800 
 28 H       -4.4320     0.1540    -0.9470 H     1 <1>   0.0800 
 29 H       -1.9760     0.0350     1.9070 H     1 <1>   0.0800 
 30 H       -1.7570    -1.6910     1.8420 H     1 <1>   0.0800 
 31 H       -3.2830    -1.0340     2.3690 H     1 <1>   0.0800 
 32 H        2.8800    -7.4720     0.3840 H     1 <1>   0.0800 
 33 H        3.7450    -6.9070     1.7920 H     1 <1>   0.0800 
 34 H        4.2960    -6.4690     0.2010 H     1 <1>   0.0800 
 35 H        0.7140    -6.4290     1.3890 H     1 <1>   0.0800 
 36 H        0.7470    -4.7650     1.9250 H     1 <1>   0.0800 
 37 H        1.6950    -5.9610     2.7530 H     1 <1>   0.0800 
@<TRIPOS>BOND
  1   1   2  1   
  2   2   3  1   
  3   2   4  2   
  4   3   5  2   
  5   3   6  1   
  6   4   7  1   
  7   4   8  1   
  8   6   9  2   
  9   6  10  1   
 10   7   9  1   
 11   7  18  1   
 12   8  11  1   
 13   8  19  1   
 14   8  20  1   
 15   9  21  1   
 16  10  12  1   
 17  10  13  1   
 18  10  22  1   
 19  11  14  1   
 20  11  15  1   
 21  11  23  1   
 22  12  24  1   
 23  13  16  1   
 24  13  17  1   
 25  13  25  1   
 26  14  26  1   
 27  14  27  1   
 28  14  28  1   
 29  15  29  1   
 30  15  30  1   
 31  15  31  1   
 32  16  32  1   
 33  16  33  1   
 34  16  34  1   
 35  17  35  1   
 36  17  36  1   
 37  17  37  1   
@<TRIPOS>SUBSTRUCTURE
  1 ****   3 GROUP 4 **** **** 0

# MOE 2024.06 (io_trps.svl 2023.06)
