@<TRIPOS>MOLECULE
NONAME
46 50 1 0 0 
SMALL
USER_CHARGES


@<TRIPOS>ATOM
  1 S        0.0480     0.8800    -2.3180 S.3   1 <1>  -0.0800 
  2 C       -1.0140     1.3380    -0.9950 C.2   1 <1>  -0.1400 
  3 C       -1.1040    -0.3320    -2.8650 C.2   1 <1>  -0.1100 
  4 C       -2.1400     0.6130    -1.0190 C.2   1 <1>  -0.1810 
  5 C       -0.6560     2.4230     0.0150 C.3   1 <1>   0.4600 
  6 C       -2.1970    -0.3470    -2.0780 C.2   1 <1>  -0.1500 
  7 C       -3.2060     0.8570     0.0250 C.3   1 <1>   0.0210 
  8 O       -1.6430     2.4390     1.0290 O.3   1 <1>  -0.5600 
  9 C        0.6720     2.1070     0.7100 C.3   1 <1>  -0.1600 
 10 C       -0.5940     3.8080    -0.6430 C.3   1 <1>  -0.1600 
 11 C       -2.9870     2.2480     0.6510 C.3   1 <1>   0.1200 
 12 C        1.0640     3.2040     1.7000 C.3   1 <1>   0.1400 
 13 C       -0.1960     4.8930     0.3600 C.3   1 <1>   0.1400 
 14 N        1.0960     4.5190     0.9970 N.am  1 <1>  -0.6600 
 15 C        2.2730     5.2230     0.8290 C.2   1 <1>   0.5440 
 16 O        3.3310     4.6660     1.0520 O.2   1 <1>  -0.5700 
 17 C        2.2890     6.6040     0.3870 C.ar  1 <1>   0.0860 
 18 C        3.0720     7.0010    -0.6950 C.ar  1 <1>  -0.1500 
 19 C        1.5450     7.5920     1.0310 C.ar  1 <1>  -0.1500 
 20 C        3.1000     8.3150    -1.1240 C.ar  1 <1>  -0.1500 
 21 C        1.5690     8.9090     0.6090 C.ar  1 <1>  -0.1500 
 22 C        2.3460     9.2940    -0.4820 C.ar  1 <1>  -0.0230 
 23 N        2.3780    10.6490    -0.9290 N.pl3 1 <1>   0.5930 
 24 N        3.4020    11.2260    -1.5430 N.2   1 <1>  -0.4180 
 25 C        1.4340    11.5780    -0.8470 C.2   1 <1>   0.0360 
 26 N        3.0590    12.4360    -1.7960 N.2   1 <1>   0.0000 
 27 N        1.8260    12.6750    -1.3660 N.2   1 <1>  -0.3380 
 28 H       -0.8350    -0.9120    -3.7290 H     1 <1>   0.1500 
 29 H       -3.0470    -0.9970    -2.1990 H     1 <1>   0.1500 
 30 H       -3.1490     0.1000     0.7870 H     1 <1>   0.0800 
 31 H       -4.1810     0.8170    -0.4250 H     1 <1>   0.0800 
 32 H        1.4550     2.0160    -0.0200 H     1 <1>   0.0800 
 33 H        0.5910     1.1640     1.2190 H     1 <1>   0.0800 
 34 H       -1.5390     4.0460    -1.0920 H     1 <1>   0.0800 
 35 H        0.1350     3.7890    -1.4320 H     1 <1>   0.0800 
 36 H       -3.5940     2.3570     1.5320 H     1 <1>   0.0800 
 37 H       -3.2570     3.0190    -0.0490 H     1 <1>   0.0800 
 38 H        2.0240     2.9770     2.1320 H     1 <1>   0.0800 
 39 H        0.3450     3.2500     2.5000 H     1 <1>   0.0800 
 40 H       -0.9510     4.9840     1.1220 H     1 <1>   0.0800 
 41 H       -0.1160     5.8340    -0.1530 H     1 <1>   0.0800 
 42 H        3.6690     6.2580    -1.1970 H     1 <1>   0.1500 
 43 H        0.9470     7.3120     1.8820 H     1 <1>   0.1500 
 44 H        3.7210     8.5800    -1.9650 H     1 <1>   0.1500 
 45 H        0.9840     9.6350     1.1470 H     1 <1>   0.1500 
 46 H        0.4740    11.4060    -0.4030 H     1 <1>   0.1500 
@<TRIPOS>BOND
  1   1   2  1   
  2   1   3  1   
  3   2   4  2   
  4   2   5  1   
  5   3   6  2   
  6   3  28  1   
  7   4   6  1   
  8   4   7  1   
  9   5   8  1   
 10   5   9  1   
 11   5  10  1   
 12   6  29  1   
 13   7  11  1   
 14   7  30  1   
 15   7  31  1   
 16   8  11  1   
 17   9  12  1   
 18   9  32  1   
 19   9  33  1   
 20  10  13  1   
 21  10  34  1   
 22  10  35  1   
 23  11  36  1   
 24  11  37  1   
 25  12  14  1   
 26  12  38  1   
 27  12  39  1   
 28  13  14  1   
 29  13  40  1   
 30  13  41  1   
 31  14  15  am  
 32  15  16  2   
 33  15  17  1   
 34  17  18  ar  
 35  17  19  ar  
 36  18  20  ar  
 37  18  42  1   
 38  19  21  ar  
 39  19  43  1   
 40  20  22  ar  
 41  20  44  1   
 42  21  22  ar  
 43  21  45  1   
 44  22  23  1   
 45  23  24  1   
 46  23  25  1   
 47  24  26  2   
 48  25  27  2   
 49  25  46  1   
 50  26  27  1   
@<TRIPOS>SUBSTRUCTURE
  1 ****  13 GROUP 4 **** **** 0

# MOE 2024.06 (io_trps.svl 2023.06)
