@<TRIPOS>MOLECULE
NONAME
59 62 1 0 0 
SMALL
USER_CHARGES


@<TRIPOS>ATOM
  1 O       -0.9640     3.1110     2.9630 O.2   1 <1>  -0.5700 
  2 C       -0.7770     3.6240     1.8700 C.2   1 <1>   0.5440 
  3 N       -1.8700     4.2070     1.2440 N.am  1 <1>  -0.6600 
  4 C        0.5690     3.5600     1.2880 C.ar  1 <1>   0.3960 
  5 C       -3.0950     4.5940     1.9930 C.3   1 <1>   0.1400 
  6 C       -1.9490     4.5070    -0.2080 C.3   1 <1>   0.1400 
  7 N        1.0490     4.6040     0.5400 N.ar  1 <1>  -0.6200 
  8 C        1.3570     2.4530     1.5110 C.ar  1 <1>  -0.1500 
  9 C       -4.3040     3.8650     1.4050 C.3   1 <1>  -0.1600 
 10 C       -3.1560     3.7840    -0.8120 C.3   1 <1>  -0.1600 
 11 C        2.2500     4.5100     0.0570 C.ar  1 <1>   0.1600 
 12 C        2.6530     2.3340     0.9910 C.ar  1 <1>   0.0000 
 13 C       -4.4890     4.1310    -0.1040 C.3   1 <1>   0.2800 
 14 C        3.1200     3.4130     0.2280 C.ar  1 <1>   0.0000 
 15 C        3.4890     1.2180     1.1900 C.ar  1 <1>  -0.1500 
 16 O       -4.6990     5.5210    -0.2290 O.3   1 <1>  -0.5600 
 17 C       -5.7270     3.3250    -0.6450 C.3   1 <1>   0.2000 
 18 C        4.4160     3.3450    -0.3190 C.ar  1 <1>  -0.1500 
 19 C        4.7440     1.1760     0.6480 C.ar  1 <1>  -0.1500 
 20 C       -5.2810     5.9880    -1.4050 C.3   1 <1>   0.1200 
 21 O       -5.4730     2.7790    -1.9150 O.3   1 <1>  -0.6800 
 22 C       -7.0160     4.2000    -0.7100 C.3   1 <1>   0.3000 
 23 C        5.2130     2.2510    -0.1150 C.ar  1 <1>  -0.1500 
 24 C       -6.7170     5.4580    -1.5520 C.3   1 <1>  -0.1600 
 25 N       -7.3920     4.6900     0.6370 N.am  1 <1>  -0.7300 
 26 C       -8.2200     3.4700    -1.3320 C.3   1 <1>  -0.2400 
 27 C       -7.9390     4.1340     1.7440 C.2   1 <1>   0.5690 
 28 O       -8.0110     4.8090     2.7390 O.2   1 <1>  -0.5700 
 29 C       -8.4370     2.6920     1.7840 C.3   1 <1>  -0.0990 
 30 C       -8.6100     2.1160     3.2000 C.3   1 <1>  -0.2400 
 31 H       -2.9980     4.3540     3.0380 H     1 <1>   0.0800 
 32 H       -3.2340     5.6590     1.9110 H     1 <1>   0.0800 
 33 H       -2.0450     5.5720    -0.3420 H     1 <1>   0.0800 
 34 H       -1.0620     4.1800    -0.7190 H     1 <1>   0.0800 
 35 H        0.9730     1.6470     2.1090 H     1 <1>   0.1500 
 36 H       -5.1750     4.1690     1.9500 H     1 <1>   0.0800 
 37 H       -4.1710     2.8120     1.5740 H     1 <1>   0.0800 
 38 H       -2.9840     2.7250    -0.7340 H     1 <1>   0.0800 
 39 H       -3.2050     4.0190    -1.8570 H     1 <1>   0.0800 
 40 H        2.6200     5.3360    -0.5260 H     1 <1>   0.1500 
 41 H        3.1220     0.3970     1.7800 H     1 <1>   0.1500 
 42 H       -5.9030     2.4790    -0.0070 H     1 <1>   0.0800 
 43 H        4.7750     4.1740    -0.9050 H     1 <1>   0.1500 
 44 H        5.3830     0.3230     0.8000 H     1 <1>   0.1500 
 45 H       -5.2830     7.0640    -1.3630 H     1 <1>   0.0800 
 46 H       -4.6670     5.6840    -2.2340 H     1 <1>   0.0800 
 47 H       -5.2610     3.4890    -2.5480 H     1 <1>   0.4000 
 48 H        6.2030     2.2020    -0.5350 H     1 <1>   0.1500 
 49 H       -7.4180     6.2380    -1.3090 H     1 <1>   0.0800 
 50 H       -6.8610     5.2450    -2.5950 H     1 <1>   0.0800 
 51 H       -6.9770     5.6070     0.8240 H     1 <1>   0.3700 
 52 H       -8.0610     3.3070    -2.3830 H     1 <1>   0.0800 
 53 H       -9.1170     4.0520    -1.2150 H     1 <1>   0.0800 
 54 H       -8.3590     2.5010    -0.8940 H     1 <1>   0.0800 
 55 H       -9.3830     2.6530     1.2770 H     1 <1>   0.0800 
 56 H       -7.7420     2.0680     1.2580 H     1 <1>   0.0800 
 57 H       -9.3350     2.6920     3.7490 H     1 <1>   0.0800 
 58 H       -7.6750     2.1510     3.7320 H     1 <1>   0.0800 
 59 H       -8.9440     1.0950     3.1510 H     1 <1>   0.0800 
@<TRIPOS>BOND
  1   1   2  2   
  2   2   3  am  
  3   2   4  1   
  4   3   5  1   
  5   3   6  1   
  6   4   7  ar  
  7   4   8  ar  
  8   5   9  1   
  9   5  31  1   
 10   5  32  1   
 11   6  10  1   
 12   6  33  1   
 13   6  34  1   
 14   7  11  ar  
 15   8  12  ar  
 16   8  35  1   
 17   9  13  1   
 18   9  36  1   
 19   9  37  1   
 20  10  13  1   
 21  10  38  1   
 22  10  39  1   
 23  11  14  ar  
 24  11  40  1   
 25  12  14  ar  
 26  12  15  ar  
 27  13  16  1   
 28  13  17  1   
 29  14  18  ar  
 30  15  19  ar  
 31  15  41  1   
 32  16  20  1   
 33  17  21  1   
 34  17  22  1   
 35  17  42  1   
 36  18  23  ar  
 37  18  43  1   
 38  19  23  ar  
 39  19  44  1   
 40  20  24  1   
 41  20  45  1   
 42  20  46  1   
 43  21  47  1   
 44  22  24  1   
 45  22  25  1   
 46  22  26  1   
 47  23  48  1   
 48  24  49  1   
 49  24  50  1   
 50  25  27  am  
 51  25  51  1   
 52  26  52  1   
 53  26  53  1   
 54  26  54  1   
 55  27  28  2   
 56  27  29  1   
 57  29  30  1   
 58  29  55  1   
 59  29  56  1   
 60  30  57  1   
 61  30  58  1   
 62  30  59  1   
@<TRIPOS>SUBSTRUCTURE
  1 ****   3 GROUP 4 **** **** 0

# MOE 2024.06 (io_trps.svl 2023.06)
