@<TRIPOS>MOLECULE
NONAME
46 48 1 0 0 
SMALL
USER_CHARGES


@<TRIPOS>ATOM
  1 O        3.6900    -2.3160    -1.3210 O.2   1 <1>  -0.5700 
  2 C        3.0180    -1.6810    -0.5360 C.2   1 <1>   0.5690 
  3 N        3.6610    -0.9290     0.4230 N.am  1 <1>  -0.6600 
  4 C        1.4770    -1.7170    -0.7010 C.3   1 <1>   0.2610 
  5 C        5.0760    -1.2450     0.7620 C.3   1 <1>   0.1400 
  6 C        3.0600     0.2440     1.1100 C.3   1 <1>   0.1400 
  7 O        0.7740    -1.4950     0.5000 O.3   1 <1>  -0.5600 
  8 C        0.9330    -3.0430    -1.2270 C.3   1 <1>  -0.1600 
  9 C        6.0220    -0.6120    -0.2710 C.3   1 <1>   0.3430 
 10 C        3.9870     1.4630     1.0350 C.3   1 <1>  -0.1600 
 11 C       -0.4000    -2.2470     0.5690 C.3   1 <1>   0.1200 
 12 C       -0.4970    -3.0350    -0.7300 C.3   1 <1>  -0.1600 
 13 N        6.0680     0.8950    -0.2370 N.4   1 <1>  -0.9590 
 14 C        4.7310     1.5750    -0.3000 C.3   1 <1>   0.3430 
 15 C        6.9550     1.3860    -1.3210 C.3   1 <1>   0.5240 
 16 C        7.2450     2.8440    -1.0550 C.2   1 <1>  -0.1810 
 17 C        6.7640     3.9090    -1.8060 C.2   1 <1>   0.1390 
 18 C        7.9820     3.4190    -0.0770 C.2   1 <1>  -0.3020 
 19 N        7.1490     5.0480    -1.3300 N.2   1 <1>  -0.7070 
 20 N        7.9130     4.7520    -0.2680 N.pl3 1 <1>   0.3140 
 21 C        8.5590     5.8060     0.5260 C.3   1 <1>   0.0160 
 22 H        1.1890    -0.9310    -1.3750 H     1 <1>   0.0800 
 23 H        5.3150    -0.9180     1.7590 H     1 <1>   0.0800 
 24 H        5.2040    -2.3150     0.7340 H     1 <1>   0.0800 
 25 H        2.1290     0.5020     0.6340 H     1 <1>   0.0800 
 26 H        2.8430    -0.0080     2.1350 H     1 <1>   0.0800 
 27 H        1.0050    -3.1130    -2.2980 H     1 <1>   0.0800 
 28 H        1.4780    -3.8580    -0.7820 H     1 <1>   0.0800 
 29 H        5.7070    -0.9450    -1.2470 H     1 <1>   0.0800 
 30 H        7.0130    -1.0000    -0.1010 H     1 <1>   0.0800 
 31 H        4.6750     1.4660     1.8600 H     1 <1>   0.0800 
 32 H        3.3690     2.3360     1.1500 H     1 <1>   0.0800 
 33 H       -0.3150    -2.9070     1.4160 H     1 <1>   0.0800 
 34 H       -1.2370    -1.5830     0.7050 H     1 <1>   0.0800 
 35 H       -0.8870    -4.0260    -0.5730 H     1 <1>   0.0800 
 36 H       -1.1340    -2.5100    -1.4200 H     1 <1>   0.0800 
 37 H        6.5100     1.2010     0.6370 H     1 <1>   0.4500 
 38 H        4.8760     2.6240    -0.5060 H     1 <1>   0.0800 
 39 H        4.1330     1.1590    -1.0950 H     1 <1>   0.0800 
 40 H        7.8830     0.8370    -1.3210 H     1 <1>   0.0800 
 41 H        6.4820     1.2650    -2.2820 H     1 <1>   0.0800 
 42 H        6.1400     3.8290    -2.6830 H     1 <1>   0.1500 
 43 H        8.5480     2.9830     0.7270 H     1 <1>   0.1500 
 44 H        9.2170     5.3660     1.2510 H     1 <1>   0.0800 
 45 H        7.8020     6.3850     1.0200 H     1 <1>   0.0800 
 46 H        9.1200     6.4430    -0.1330 H     1 <1>   0.0800 
@<TRIPOS>BOND
  1   1   2  2   
  2   2   3  am  
  3   2   4  1   
  4   3   5  1   
  5   3   6  1   
  6   4   7  1   
  7   4   8  1   
  8   4  22  1   
  9   5   9  1   
 10   5  23  1   
 11   5  24  1   
 12   6  10  1   
 13   6  25  1   
 14   6  26  1   
 15   7  11  1   
 16   8  12  1   
 17   8  27  1   
 18   8  28  1   
 19   9  13  1   
 20   9  29  1   
 21   9  30  1   
 22  10  14  1   
 23  10  31  1   
 24  10  32  1   
 25  11  12  1   
 26  11  33  1   
 27  11  34  1   
 28  12  35  1   
 29  12  36  1   
 30  13  14  1   
 31  13  15  1   
 32  13  37  1   
 33  14  38  1   
 34  14  39  1   
 35  15  16  1   
 36  15  40  1   
 37  15  41  1   
 38  16  17  1   
 39  16  18  2   
 40  17  19  2   
 41  17  42  1   
 42  18  20  1   
 43  18  43  1   
 44  19  20  1   
 45  20  21  1   
 46  21  44  1   
 47  21  45  1   
 48  21  46  1   
@<TRIPOS>SUBSTRUCTURE
  1 ****  14 GROUP 4 **** **** 0

# MOE 2024.06 (io_trps.svl 2023.06)
