@<TRIPOS>MOLECULE
NONAME
58 62 1 0 0 
SMALL
USER_CHARGES


@<TRIPOS>ATOM
  1 S       -0.4310    -2.5810    -3.6920 S.3   1 <1>  -0.0800 
  2 C       -1.2010    -3.8190    -2.7270 C.2   1 <1>   0.2280 
  3 C       -0.7450    -1.4410    -2.4170 C.2   1 <1>  -0.1100 
  4 N       -1.6390    -3.4170    -1.6010 N.2   1 <1>  -0.5650 
  5 C       -1.3790    -2.0660    -1.4120 C.2   1 <1>   0.0460 
  6 C       -1.8110    -1.3840    -0.1150 C.3   1 <1>   0.0210 
  7 C       -3.3330    -1.4050     0.1920 C.3   1 <1>   0.0610 
  8 C       -3.6540    -2.7390     0.8820 C.2   1 <1>   0.5690 
  9 C       -3.7230    -0.2020     1.0960 C.3   1 <1>   0.2890 
 10 C       -4.1930    -1.0920    -1.0760 C.3   1 <1>  -0.1600 
 11 O       -3.6030    -2.8180     2.0890 O.2   1 <1>  -0.5700 
 12 N       -3.9430    -3.8290     0.1290 N.am  1 <1>  -0.7300 
 13 N       -3.8890     0.8650     0.1070 N.pl3 1 <1>  -0.8380 
 14 C       -5.1870    -0.2670     1.5770 C.3   1 <1>  -0.1600 
 15 C       -4.8850     0.2340    -0.7450 C.3   1 <1>   0.2890 
 16 C       -4.2600    -5.1700     0.6520 C.3   1 <1>   0.1400 
 17 C       -3.1640     2.0340    -0.0130 C.ar  1 <1>   0.4100 
 18 C       -5.9890    -0.0270     0.2840 C.3   1 <1>  -0.1600 
 19 C       -5.4620    -5.7230    -0.1080 C.3   1 <1>  -0.1600 
 20 N       -1.9640     2.0050     0.4920 N.ar  1 <1>  -0.6200 
 21 C       -3.6640     3.1990    -0.6580 C.ar  1 <1>   0.0000 
 22 C       -5.8500    -7.0980     0.4300 C.3   1 <1>   0.1200 
 23 C       -1.1780     3.0560     0.2590 C.ar  1 <1>   0.4760 
 24 C       -2.7270     4.2160    -0.8800 C.ar  1 <1>   0.3100 
 25 C       -4.9970     3.4400    -1.0550 C.ar  1 <1>  -0.1500 
 26 O       -6.9190    -7.5650    -0.3080 O.3   1 <1>  -0.6800 
 27 N       -1.4690     4.1220    -0.4100 N.ar  1 <1>  -0.6200 
 28 C        0.2100     2.9510     0.8420 C.3   1 <1>  -0.0970 
 29 C       -3.1080     5.3730    -1.5740 C.ar  1 <1>  -0.1500 
 30 C       -5.3570     4.5840    -1.7190 C.ar  1 <1>  -0.1500 
 31 C       -4.3980     5.5590    -1.9960 C.ar  1 <1>  -0.1500 
 32 H       -1.2460    -4.8070    -3.1490 H     1 <1>   0.1500 
 33 H       -0.4210    -0.4250    -2.5530 H     1 <1>   0.1500 
 34 H       -1.2760    -1.8310     0.7040 H     1 <1>   0.0800 
 35 H       -1.4740    -0.3700    -0.1800 H     1 <1>   0.0800 
 36 H       -3.0160     0.0220     1.8780 H     1 <1>   0.0800 
 37 H       -4.9180    -1.8540    -1.2930 H     1 <1>   0.0800 
 38 H       -3.5940    -0.9410    -1.9530 H     1 <1>   0.0800 
 39 H       -3.5700    -3.8140    -0.8300 H     1 <1>   0.3700 
 40 H       -5.4540    -1.1870     2.0590 H     1 <1>   0.0800 
 41 H       -5.3570     0.5370     2.2720 H     1 <1>   0.0800 
 42 H       -5.1750     0.7990    -1.6130 H     1 <1>   0.0800 
 43 H       -3.4040    -5.8110     0.5230 H     1 <1>   0.0800 
 44 H       -4.4850    -5.1080     1.7050 H     1 <1>   0.0800 
 45 H       -6.6200     0.8370     0.3860 H     1 <1>   0.0800 
 46 H       -6.5930    -0.8760     0.0150 H     1 <1>   0.0800 
 47 H       -5.2120    -5.8090    -1.1500 H     1 <1>   0.0800 
 48 H       -6.2890    -5.0450     0.0120 H     1 <1>   0.0800 
 49 H       -6.1450    -7.0480     1.4650 H     1 <1>   0.0800 
 50 H       -5.0400    -7.8000     0.3200 H     1 <1>   0.0800 
 51 H       -5.7510     2.7170    -0.8180 H     1 <1>   0.1500 
 52 H       -7.6820    -6.9610    -0.2280 H     1 <1>   0.4000 
 53 H        0.7790     3.8350     0.6240 H     1 <1>   0.0800 
 54 H        0.7100     2.0980     0.4240 H     1 <1>   0.0800 
 55 H        0.1410     2.8330     1.9070 H     1 <1>   0.0800 
 56 H       -2.3540     6.1160    -1.7580 H     1 <1>   0.1500 
 57 H       -6.3760     4.7480    -2.0260 H     1 <1>   0.1500 
 58 H       -4.6840     6.4510    -2.5270 H     1 <1>   0.1500 
@<TRIPOS>BOND
  1   1   2  1   
  2   1   3  1   
  3   2   4  2   
  4   2  32  1   
  5   3   5  2   
  6   3  33  1   
  7   4   5  1   
  8   5   6  1   
  9   6   7  1   
 10   6  34  1   
 11   6  35  1   
 12   7   8  1   
 13   7   9  1   
 14   7  10  1   
 15   8  11  2   
 16   8  12  am  
 17   9  13  1   
 18   9  14  1   
 19   9  36  1   
 20  10  15  1   
 21  10  37  1   
 22  10  38  1   
 23  12  16  1   
 24  12  39  1   
 25  13  15  1   
 26  13  17  1   
 27  14  18  1   
 28  14  40  1   
 29  14  41  1   
 30  15  18  1   
 31  15  42  1   
 32  16  19  1   
 33  16  43  1   
 34  16  44  1   
 35  17  20  ar  
 36  17  21  ar  
 37  18  45  1   
 38  18  46  1   
 39  19  22  1   
 40  19  47  1   
 41  19  48  1   
 42  20  23  ar  
 43  21  24  ar  
 44  21  25  ar  
 45  22  26  1   
 46  22  49  1   
 47  22  50  1   
 48  23  27  ar  
 49  23  28  1   
 50  24  27  ar  
 51  24  29  ar  
 52  25  30  ar  
 53  25  51  1   
 54  26  52  1   
 55  28  53  1   
 56  28  54  1   
 57  28  55  1   
 58  29  31  ar  
 59  29  56  1   
 60  30  31  ar  
 61  30  57  1   
 62  31  58  1   
@<TRIPOS>SUBSTRUCTURE
  1 ****   7 GROUP 4 **** **** 0

# MOE 2024.06 (io_trps.svl 2023.06)
