@<TRIPOS>MOLECULE
NONAME
47 48 1 0 0 
SMALL
USER_CHARGES


@<TRIPOS>ATOM
  1 O       -0.1290    -0.4870     0.7740 O.3   1 <1>  -0.6800 
  2 C       -0.2860    -1.6690     0.0780 C.3   1 <1>   0.1200 
  3 C        0.9950    -2.4920     0.2820 C.3   1 <1>   0.3430 
  4 N        0.8860    -3.8960    -0.2470 N.4   1 <1>  -0.9590 
  5 C       -0.0840    -4.7220     0.5540 C.3   1 <1>   0.3430 
  6 C        2.2390    -4.5130    -0.3070 C.3   1 <1>   0.3430 
  7 C        0.1320    -6.2480     0.3980 C.3   1 <1>  -0.0800 
  8 C        2.1580    -5.8350    -1.0830 C.3   1 <1>  -0.1600 
  9 C        0.8140    -6.5780    -0.9470 C.3   1 <1>  -0.1600 
 10 C       -1.2140    -6.9840     0.5880 C.3   1 <1>   0.3430 
 11 N       -1.0930    -8.4760     0.4710 N.4   1 <1>  -0.9590 
 12 C       -2.4680    -9.0860     0.3470 C.3   1 <1>   0.3430 
 13 C       -0.3350    -9.0750     1.6260 C.3   1 <1>   0.2630 
 14 C       -2.4480   -10.5690    -0.0470 C.3   1 <1>   0.0960 
 15 N       -3.8380   -11.0050    -0.2280 N.pl3 1 <1>   0.0480 
 16 C       -4.6360   -11.6320     0.6650 C.2   1 <1>   0.0360 
 17 C       -4.6240   -10.7860    -1.2970 C.2   1 <1>  -0.3020 
 18 N       -5.8440   -11.8120     0.2480 N.2   1 <1>  -0.5650 
 19 C       -5.8410   -11.2860    -0.9900 C.2   1 <1>   0.0770 
 20 H       -0.8920     0.1190     0.6500 H     1 <1>   0.4000 
 21 H       -0.4320    -1.4290    -0.9620 H     1 <1>   0.0800 
 22 H       -1.1510    -2.1660     0.4770 H     1 <1>   0.0800 
 23 H        1.2210    -2.5210     1.3360 H     1 <1>   0.0800 
 24 H        1.8020    -1.9790    -0.2170 H     1 <1>   0.0800 
 25 H        0.5600    -3.8380    -1.2220 H     1 <1>   0.4500 
 26 H       -1.0840    -4.4660     0.2430 H     1 <1>   0.0800 
 27 H        0.0050    -4.4670     1.5990 H     1 <1>   0.0800 
 28 H        2.5940    -4.7010     0.6940 H     1 <1>   0.0800 
 29 H        2.9400    -3.8520    -0.7930 H     1 <1>   0.0800 
 30 H        0.7890    -6.5470     1.1960 H     1 <1>   0.0800 
 31 H        2.9580    -6.4660    -0.7320 H     1 <1>   0.0800 
 32 H        2.3570    -5.6460    -2.1250 H     1 <1>   0.0800 
 33 H        0.1680    -6.2830    -1.7580 H     1 <1>   0.0800 
 34 H        1.0000    -7.6340    -1.0480 H     1 <1>   0.0800 
 35 H       -1.9030    -6.6310    -0.1630 H     1 <1>   0.0800 
 36 H       -1.6290    -6.7360     1.5530 H     1 <1>   0.0800 
 37 H       -0.5790    -8.6850    -0.3990 H     1 <1>   0.4500 
 38 H       -3.0250    -8.5530    -0.4080 H     1 <1>   0.0800 
 39 H       -2.9960    -8.9810     1.2820 H     1 <1>   0.0800 
 40 H       -0.8460    -8.8770     2.5550 H     1 <1>   0.0800 
 41 H        0.6580    -8.6600     1.6840 H     1 <1>   0.0800 
 42 H       -0.2430   -10.1420     1.5070 H     1 <1>   0.0800 
 43 H       -1.9990   -11.1710     0.7210 H     1 <1>   0.0800 
 44 H       -1.9250   -10.7130    -0.9750 H     1 <1>   0.0800 
 45 H       -4.2920   -11.9460     1.6360 H     1 <1>   0.1500 
 46 H       -4.3020   -10.3080    -2.2040 H     1 <1>   0.1500 
 47 H       -6.7290   -11.2990    -1.6030 H     1 <1>   0.1500 
@<TRIPOS>BOND
  1   1   2  1   
  2   1  20  1   
  3   2   3  1   
  4   2  21  1   
  5   2  22  1   
  6   3   4  1   
  7   3  23  1   
  8   3  24  1   
  9   4   5  1   
 10   4   6  1   
 11   4  25  1   
 12   5   7  1   
 13   5  26  1   
 14   5  27  1   
 15   6   8  1   
 16   6  28  1   
 17   6  29  1   
 18   7   9  1   
 19   7  10  1   
 20   7  30  1   
 21   8   9  1   
 22   8  31  1   
 23   8  32  1   
 24   9  33  1   
 25   9  34  1   
 26  10  11  1   
 27  10  35  1   
 28  10  36  1   
 29  11  12  1   
 30  11  13  1   
 31  11  37  1   
 32  12  14  1   
 33  12  38  1   
 34  12  39  1   
 35  13  40  1   
 36  13  41  1   
 37  13  42  1   
 38  14  15  1   
 39  14  43  1   
 40  14  44  1   
 41  15  16  1   
 42  15  17  1   
 43  16  18  2   
 44  16  45  1   
 45  17  19  2   
 46  17  46  1   
 47  18  19  1   
 48  19  47  1   
@<TRIPOS>SUBSTRUCTURE
  1 ****  10 GROUP 4 **** **** 0

# MOE 2024.06 (io_trps.svl 2023.06)
