@<TRIPOS>MOLECULE
NONAME
54 58 1 0 0 
SMALL
USER_CHARGES


@<TRIPOS>ATOM
  1 O       -0.2590    -0.4120    -1.1460 O.2   1 <1>  -0.5700 
  2 C       -0.3940     0.7800    -0.9150 C.2   1 <1>   0.7160 
  3 N       -1.6270     1.2120    -0.4470 N.am  1 <1>  -0.6600 
  4 C        0.7270     1.6880    -1.1610 C.2   1 <1>   0.1410 
  5 C       -2.0600     2.6460    -0.4500 C.3   1 <1>   0.1400 
  6 C       -2.6840     0.2630     0.0020 C.3   1 <1>   0.1400 
  7 N        1.0980     2.6810    -0.3000 N.2   1 <1>  -0.5650 
  8 C        1.5810     1.7090    -2.2300 C.2   1 <1>  -0.3320 
  9 C       -2.5470     3.0870     0.9440 C.3   1 <1>   0.1430 
 10 C       -3.2010     0.6660     1.3900 C.3   1 <1>  -0.1600 
 11 C        2.1210     3.2720    -0.8440 C.2   1 <1>   0.1330 
 12 N        2.4530     2.7010    -2.0250 N.pl3 1 <1>   0.0330 
 13 C        1.6260     0.8190    -3.4630 C.3   1 <1>  -0.0600 
 14 C       -3.0030     4.5320     0.8470 C.ar  1 <1>   0.1670 
 15 C       -3.6610     2.1350     1.4290 C.3   1 <1>  -0.1600 
 16 C       -1.3820     3.1850     1.9630 C.3   1 <1>  -0.1600 
 17 C        2.8370     4.3910    -0.2760 C.ar  1 <1>   0.0530 
 18 N       -4.1270     4.9500     0.3060 N.ar  1 <1>  -0.6200 
 19 C       -2.0810     5.3810     1.3840 C.ar  1 <1>  -0.1440 
 20 C       -0.8830     4.6390     1.9210 C.3   1 <1>  -0.0170 
 21 C        3.0070     4.4940     1.1040 C.ar  1 <1>  -0.1500 
 22 C        3.3770     5.4030    -1.0700 C.ar  1 <1>  -0.1500 
 23 C       -4.2920     6.2650     0.3330 C.ar  1 <1>   0.4770 
 24 C       -2.3540     6.7260     1.3550 C.ar  1 <1>   0.1600 
 25 C        3.6940     5.5530     1.6690 C.ar  1 <1>  -0.1500 
 26 C        4.0670     6.4640    -0.5110 C.ar  1 <1>  -0.1500 
 27 N       -3.4710     7.1830     0.8280 N.ar  1 <1>  -0.6200 
 28 C       -5.5750     6.7820    -0.2710 C.3   1 <1>  -0.0970 
 29 C        4.2280     6.5410     0.8610 C.ar  1 <1>  -0.1500 
 30 H       -2.8710     2.7530    -1.1480 H     1 <1>   0.0800 
 31 H       -1.2720     3.2950    -0.7820 H     1 <1>   0.0800 
 32 H       -2.3020    -0.7430     0.0440 H     1 <1>   0.0800 
 33 H       -3.4920     0.2820    -0.7100 H     1 <1>   0.0800 
 34 H       -2.4170     0.5060     2.1090 H     1 <1>   0.0800 
 35 H       -4.0220     0.0260     1.6580 H     1 <1>   0.0800 
 36 H        3.2380     2.9810    -2.6170 H     1 <1>   0.2700 
 37 H        0.8060     0.1230    -3.4620 H     1 <1>   0.0800 
 38 H        2.5440     0.2580    -3.4810 H     1 <1>   0.0800 
 39 H        1.5620     1.4150    -4.3560 H     1 <1>   0.0800 
 40 H       -4.5170     2.2470     0.7850 H     1 <1>   0.0800 
 41 H       -3.9700     2.4030     2.4230 H     1 <1>   0.0800 
 42 H       -0.5930     2.4820     1.7630 H     1 <1>   0.0800 
 43 H       -1.7570     2.9930     2.9520 H     1 <1>   0.0800 
 44 H       -0.0590     4.7390     1.2360 H     1 <1>   0.0800 
 45 H       -0.5940     4.9890     2.8970 H     1 <1>   0.0800 
 46 H        2.5930     3.7260     1.7340 H     1 <1>   0.1500 
 47 H        3.2500     5.3680    -2.1360 H     1 <1>   0.1500 
 48 H       -1.6530     7.4330     1.7650 H     1 <1>   0.1500 
 49 H        3.8150     5.6080     2.7370 H     1 <1>   0.1500 
 50 H        4.4760     7.2350    -1.1410 H     1 <1>   0.1500 
 51 H       -5.8930     6.1360    -1.0680 H     1 <1>   0.0800 
 52 H       -5.4270     7.7710    -0.6620 H     1 <1>   0.0800 
 53 H       -6.3340     6.8110     0.4870 H     1 <1>   0.0800 
 54 H        4.7640     7.3660     1.2980 H     1 <1>   0.1500 
@<TRIPOS>BOND
  1   1   2  2   
  2   2   3  am  
  3   2   4  1   
  4   3   5  1   
  5   3   6  1   
  6   4   7  1   
  7   4   8  2   
  8   5   9  1   
  9   5  30  1   
 10   5  31  1   
 11   6  10  1   
 12   6  32  1   
 13   6  33  1   
 14   7  11  2   
 15   8  12  1   
 16   8  13  1   
 17   9  14  1   
 18   9  15  1   
 19   9  16  1   
 20  10  15  1   
 21  10  34  1   
 22  10  35  1   
 23  11  12  1   
 24  11  17  1   
 25  12  36  1   
 26  13  37  1   
 27  13  38  1   
 28  13  39  1   
 29  14  18  ar  
 30  14  19  ar  
 31  15  40  1   
 32  15  41  1   
 33  16  20  1   
 34  16  42  1   
 35  16  43  1   
 36  17  21  ar  
 37  17  22  ar  
 38  18  23  ar  
 39  19  20  1   
 40  19  24  ar  
 41  20  44  1   
 42  20  45  1   
 43  21  25  ar  
 44  21  46  1   
 45  22  26  ar  
 46  22  47  1   
 47  23  27  ar  
 48  23  28  1   
 49  24  27  ar  
 50  24  48  1   
 51  25  29  ar  
 52  25  49  1   
 53  26  29  ar  
 54  26  50  1   
 55  28  51  1   
 56  28  52  1   
 57  28  53  1   
 58  29  54  1   
@<TRIPOS>SUBSTRUCTURE
  1 ****   7 GROUP 4 **** **** 0

# MOE 2024.06 (io_trps.svl 2023.06)
