@<TRIPOS>MOLECULE
NONAME
53 55 1 0 0 
SMALL
USER_CHARGES


@<TRIPOS>ATOM
  1 O        4.4860     1.3750     2.0160 O.co2 1 <1>  -0.9000 
  2 C        3.4720     0.8090     1.5870 C.2   1 <1>   0.9060 
  3 O        3.3540    -0.4140     1.6420 O.co2 1 <1>  -0.9000 
  4 C        2.4850     1.5940     0.7100 C.3   1 <1>  -0.1060 
  5 C        2.6600     0.9630    -0.6900 C.3   1 <1>   0.2000 
  6 C        2.8840     3.1040     0.6060 C.3   1 <1>  -0.1600 
  7 C        1.0700     1.4000     1.3220 C.3   1 <1>  -0.0160 
  8 O        1.9360     1.6850    -1.6410 O.3   1 <1>  -0.6800 
  9 C        4.1560     0.9960    -1.0980 C.3   1 <1>   0.3430 
 10 C        4.0260     3.3870    -0.3910 C.3   1 <1>   0.3430 
 11 C       -0.0950     1.8720     0.4560 C.ar  1 <1>  -0.1440 
 12 N        4.8940     2.1870    -0.5330 N.4   1 <1>  -0.9590 
 13 C       -0.7090     0.9870    -0.4180 C.ar  1 <1>  -0.1500 
 14 C       -0.5610     3.1750     0.5360 C.ar  1 <1>  -0.1500 
 15 C        6.2060     2.4060    -1.1830 C.3   1 <1>   0.4860 
 16 C       -1.7540     1.4070    -1.2220 C.ar  1 <1>  -0.1500 
 17 C       -1.6060     3.5970    -0.2670 C.ar  1 <1>  -0.1500 
 18 C        6.8780     3.6620    -0.6510 C.ar  1 <1>  -0.1430 
 19 C       -2.2010     2.7140    -1.1500 C.ar  1 <1>  -0.1500 
 20 C        7.5750     3.6750     0.5560 C.ar  1 <1>  -0.1430 
 21 C        6.7880     4.8250    -1.4040 C.ar  1 <1>  -0.1500 
 22 C        8.1550     4.8580     0.9880 C.ar  1 <1>  -0.1500 
 23 C        7.7420     2.4360     1.4340 C.3   1 <1>  -0.0170 
 24 C        7.3720     5.9980    -0.9630 C.ar  1 <1>  -0.1500 
 25 C        8.0550     6.0140     0.2370 C.ar  1 <1>  -0.1500 
 26 C        9.0060     1.6670     1.0440 C.3   1 <1>  -0.2400 
 27 H        2.3010    -0.0530    -0.7040 H     1 <1>   0.0800 
 28 H        3.1620     3.4750     1.5780 H     1 <1>   0.0800 
 29 H        2.0480     3.6930     0.2820 H     1 <1>   0.0800 
 30 H        0.9190     0.3550     1.5350 H     1 <1>   0.0800 
 31 H        1.0310     1.9050     2.2720 H     1 <1>   0.0800 
 32 H        1.0100     1.7930    -1.3160 H     1 <1>   0.4000 
 33 H        4.2160     0.9840    -2.1720 H     1 <1>   0.0800 
 34 H        4.6220     0.1000    -0.7210 H     1 <1>   0.0800 
 35 H        4.5980     4.2300    -0.0380 H     1 <1>   0.0800 
 36 H        3.6060     3.6320    -1.3520 H     1 <1>   0.0800 
 37 H        5.0830     1.9340     0.4720 H     1 <1>   0.4500 
 38 H       -0.3760    -0.0360    -0.4760 H     1 <1>   0.1500 
 39 H       -0.1130     3.8690     1.2270 H     1 <1>   0.1500 
 40 H        6.8440     1.5570    -1.0040 H     1 <1>   0.0800 
 41 H        6.0680     2.5060    -2.2460 H     1 <1>   0.0800 
 42 H       -2.2220     0.7150    -1.9020 H     1 <1>   0.1500 
 43 H       -1.9600     4.6110    -0.2020 H     1 <1>   0.1500 
 44 H       -3.0130     3.0410    -1.7750 H     1 <1>   0.1500 
 45 H        6.2610     4.8310    -2.3430 H     1 <1>   0.1500 
 46 H        8.6950     4.8830     1.9190 H     1 <1>   0.1500 
 47 H        7.8100     2.7320     2.4670 H     1 <1>   0.0800 
 48 H        6.8920     1.7840     1.3630 H     1 <1>   0.0800 
 49 H        7.2980     6.8970    -1.5510 H     1 <1>   0.1500 
 50 H        8.5110     6.9240     0.5870 H     1 <1>   0.1500 
 51 H        9.8720     2.2950     1.1630 H     1 <1>   0.0800 
 52 H        8.9530     1.3430     0.0210 H     1 <1>   0.0800 
 53 H        9.1180     0.8040     1.6760 H     1 <1>   0.0800 
@<TRIPOS>BOND
  1   1   2  ar  
  2   2   3  ar  
  3   2   4  1   
  4   4   5  1   
  5   4   6  1   
  6   4   7  1   
  7   5   8  1   
  8   5   9  1   
  9   5  27  1   
 10   6  10  1   
 11   6  28  1   
 12   6  29  1   
 13   7  11  1   
 14   7  30  1   
 15   7  31  1   
 16   8  32  1   
 17   9  12  1   
 18   9  33  1   
 19   9  34  1   
 20  10  12  1   
 21  10  35  1   
 22  10  36  1   
 23  11  13  ar  
 24  11  14  ar  
 25  12  15  1   
 26  12  37  1   
 27  13  16  ar  
 28  13  38  1   
 29  14  17  ar  
 30  14  39  1   
 31  15  18  1   
 32  15  40  1   
 33  15  41  1   
 34  16  19  ar  
 35  16  42  1   
 36  17  19  ar  
 37  17  43  1   
 38  18  20  ar  
 39  18  21  ar  
 40  19  44  1   
 41  20  22  ar  
 42  20  23  1   
 43  21  24  ar  
 44  21  45  1   
 45  22  25  ar  
 46  22  46  1   
 47  23  26  1   
 48  23  47  1   
 49  23  48  1   
 50  24  25  ar  
 51  24  49  1   
 52  25  50  1   
 53  26  51  1   
 54  26  52  1   
 55  26  53  1   
@<TRIPOS>SUBSTRUCTURE
  1 ****  10 GROUP 4 **** **** 0

# MOE 2024.06 (io_trps.svl 2023.06)
