@<TRIPOS>MOLECULE
NONAME
47 50 1 0 0 
SMALL
USER_CHARGES


@<TRIPOS>ATOM
  1 O        3.6100     1.2630     2.0740 O.3   1 <1>  -0.5160 
  2 C        3.0500     2.0320     1.0310 C.3   1 <1>   0.2580 
  3 C        2.6360     0.2310     1.9260 C.3   1 <1>   0.2580 
  4 C        3.8400     1.8280    -0.2660 C.3   1 <1>  -0.1600 
  5 C        2.9810     3.4950     1.4670 C.3   1 <1>  -0.1600 
  6 C        1.7460     1.2300     1.1780 C.3   1 <1>   0.0000 
  7 C        3.2910     2.7350    -1.3630 C.3   1 <1>   0.3430 
  8 C        2.4730     4.3720     0.3280 C.3   1 <1>   0.3430 
  9 N        3.3090     4.1450    -0.8870 N.4   1 <1>  -0.9590 
 10 C        3.0040     5.1290    -1.9580 C.3   1 <1>   0.5240 
 11 C        3.6020     6.4630    -1.5550 C.2   1 <1>  -0.1810 
 12 C        4.7890     6.7110    -0.9350 C.2   1 <1>  -0.2050 
 13 C        3.0240     7.7070    -1.7560 C.2   1 <1>   0.1390 
 14 N        4.8570     8.0580    -0.8030 N.pl3 1 <1>   0.3000 
 15 C        5.7860     5.7820    -0.4840 C.ar  1 <1>   0.0530 
 16 N        3.7670     8.6680    -1.3010 N.2   1 <1>  -0.7070 
 17 C        6.0160     5.5820     0.8740 C.ar  1 <1>  -0.1500 
 18 C        6.4780     4.9940    -1.3970 C.ar  1 <1>  -0.1500 
 19 C        6.8680     4.5850     1.3110 C.ar  1 <1>  -0.1500 
 20 C        7.3310     3.9970    -0.9650 C.ar  1 <1>  -0.1500 
 21 C        7.5200     3.7730     0.3880 C.ar  1 <1>   0.0820 
 22 O        8.3400     2.7510     0.7260 O.3   1 <1>  -0.3620 
 23 C        8.5680     2.4000     2.0740 C.3   1 <1>   0.0400 
 24 H        2.2660    -0.0760     2.8880 H     1 <1>   0.0000 
 25 H        3.0320    -0.5640     1.3180 H     1 <1>   0.0000 
 26 H        3.7820     0.8050    -0.5900 H     1 <1>   0.0800 
 27 H        4.8760     2.0650    -0.0960 H     1 <1>   0.0800 
 28 H        3.9620     3.8240     1.7570 H     1 <1>   0.0800 
 29 H        2.3330     3.6010     2.3190 H     1 <1>   0.0800 
 30 H        1.3420     0.8530     0.2550 H     1 <1>   0.0000 
 31 H        1.0090     1.6910     1.8110 H     1 <1>   0.0000 
 32 H        2.2830     2.4410    -1.6090 H     1 <1>   0.0800 
 33 H        3.9030     2.6340    -2.2460 H     1 <1>   0.0800 
 34 H        2.5260     5.4080     0.6240 H     1 <1>   0.0800 
 35 H        1.4440     4.1300     0.1160 H     1 <1>   0.0800 
 36 H        4.2820     4.3580    -0.6120 H     1 <1>   0.4500 
 37 H        1.9390     5.2180    -2.0960 H     1 <1>   0.0800 
 38 H        3.4500     4.8160    -2.8880 H     1 <1>   0.0800 
 39 H        2.0720     7.8910    -2.2290 H     1 <1>   0.1500 
 40 H        5.6380     8.5820    -0.3850 H     1 <1>   0.2700 
 41 H        5.5120     6.2020     1.5960 H     1 <1>   0.1500 
 42 H        6.3470     5.1610    -2.4520 H     1 <1>   0.1500 
 43 H        7.0150     4.4500     2.3670 H     1 <1>   0.1500 
 44 H        7.8640     3.3840    -1.6710 H     1 <1>   0.1500 
 45 H        9.2330     1.5550     2.0910 H     1 <1>   0.0800 
 46 H        7.6310     2.1350     2.5310 H     1 <1>   0.0800 
 47 H        9.0240     3.2320     2.5810 H     1 <1>   0.0800 
@<TRIPOS>BOND
  1   1   2  1   
  2   1   3  1   
  3   2   4  1   
  4   2   5  1   
  5   2   6  1   
  6   3   6  1   
  7   3  24  1   
  8   3  25  1   
  9   4   7  1   
 10   4  26  1   
 11   4  27  1   
 12   5   8  1   
 13   5  28  1   
 14   5  29  1   
 15   6  30  1   
 16   6  31  1   
 17   7   9  1   
 18   7  32  1   
 19   7  33  1   
 20   8   9  1   
 21   8  34  1   
 22   8  35  1   
 23   9  10  1   
 24   9  36  1   
 25  10  11  1   
 26  10  37  1   
 27  10  38  1   
 28  11  12  2   
 29  11  13  1   
 30  12  14  1   
 31  12  15  1   
 32  13  16  2   
 33  13  39  1   
 34  14  16  1   
 35  14  40  1   
 36  15  17  ar  
 37  15  18  ar  
 38  17  19  ar  
 39  17  41  1   
 40  18  20  ar  
 41  18  42  1   
 42  19  21  ar  
 43  19  43  1   
 44  20  21  ar  
 45  20  44  1   
 46  21  22  1   
 47  22  23  1   
 48  23  45  1   
 49  23  46  1   
 50  23  47  1   
@<TRIPOS>SUBSTRUCTURE
  1 ****   9 GROUP 4 **** **** 0

# MOE 2024.06 (io_trps.svl 2023.06)
