@<TRIPOS>MOLECULE
NONAME
43 44 1 0 0 
SMALL
USER_CHARGES


@<TRIPOS>ATOM
  1 O       -0.7930     1.1880    -2.4960 O.co2 1 <1>  -0.9000 
  2 C       -1.1340     1.0450    -1.3160 C.2   1 <1>   0.9060 
  3 O       -1.8870     0.1170    -0.9740 O.co2 1 <1>  -0.9000 
  4 C       -0.6430     2.0220    -0.2400 C.3   1 <1>  -0.1060 
  5 C       -1.9070     2.4640     0.5350 C.3   1 <1>   0.2000 
  6 C       -0.0620     3.2600    -0.9630 C.3   1 <1>   0.2090 
  7 C        0.4570     1.2640     0.5770 C.3   1 <1>  -0.1600 
  8 O       -2.3720     1.4260     1.3180 O.3   1 <1>  -0.6800 
  9 C       -1.7600     3.7120     1.4050 C.3   1 <1>  -0.1600 
 10 N        0.0510     4.4780    -0.0870 N.pl3 1 <1>  -0.8380 
 11 C        1.0160     1.9150     1.8510 C.3   1 <1>  -0.1600 
 12 C       -1.2080     4.8770     0.5900 C.3   1 <1>   0.2090 
 13 C        1.1700     5.2840    -0.1390 C.ar  1 <1>   0.4100 
 14 C        2.2340     1.1470     2.3710 C.3   1 <1>  -0.2400 
 15 N        2.3510     4.6790    -0.2340 N.ar  1 <1>  -0.6200 
 16 C        1.0690     6.6760    -0.0980 C.ar  1 <1>  -0.1500 
 17 C        3.4190     5.4470    -0.2760 C.ar  1 <1>   0.1600 
 18 C        2.1940     7.4620    -0.1420 C.ar  1 <1>  -0.1500 
 19 C        3.4380     6.8430    -0.2340 C.ar  1 <1>   0.0860 
 20 C        4.6530     7.6200    -0.2850 C.2   1 <1>   0.4230 
 21 O        4.6630     8.8240    -0.2610 O.2   1 <1>  -0.5700 
 22 C        6.0050     6.9380    -0.3740 C.3   1 <1>  -0.1790 
 23 H       -2.6800     2.6630    -0.1900 H     1 <1>   0.0800 
 24 H       -0.7080     3.5180    -1.7850 H     1 <1>   0.0800 
 25 H        0.8920     3.0050    -1.3920 H     1 <1>   0.0800 
 26 H        0.0640     0.3000     0.8540 H     1 <1>   0.0800 
 27 H        1.2760     1.0740    -0.0950 H     1 <1>   0.0800 
 28 H       -2.3660     0.6340     0.7100 H     1 <1>   0.4000 
 29 H       -2.7250     3.9840     1.7910 H     1 <1>   0.0800 
 30 H       -1.1120     3.5340     2.2370 H     1 <1>   0.0800 
 31 H        1.3010     2.9320     1.6550 H     1 <1>   0.0800 
 32 H        0.2590     1.9070     2.6130 H     1 <1>   0.0800 
 33 H       -1.0300     5.7070     1.2500 H     1 <1>   0.0800 
 34 H       -1.9260     5.1730    -0.1560 H     1 <1>   0.0800 
 35 H        3.0210     1.1610     1.6370 H     1 <1>   0.0800 
 36 H        1.9690     0.1250     2.5800 H     1 <1>   0.0800 
 37 H        2.5970     1.6030     3.2740 H     1 <1>   0.0800 
 38 H        0.1010     7.1310    -0.0450 H     1 <1>   0.1500 
 39 H        4.3520     4.9210    -0.3510 H     1 <1>   0.1500 
 40 H        2.1250     8.5360    -0.1110 H     1 <1>   0.1500 
 41 H        6.1570     6.3050     0.4810 H     1 <1>   0.0800 
 42 H        6.7850     7.6780    -0.3910 H     1 <1>   0.0800 
 43 H        6.0680     6.3570    -1.2750 H     1 <1>   0.0800 
@<TRIPOS>BOND
  1   1   2  ar  
  2   2   3  ar  
  3   2   4  1   
  4   4   5  1   
  5   4   6  1   
  6   4   7  1   
  7   5   8  1   
  8   5   9  1   
  9   5  23  1   
 10   6  10  1   
 11   6  24  1   
 12   6  25  1   
 13   7  11  1   
 14   7  26  1   
 15   7  27  1   
 16   8  28  1   
 17   9  12  1   
 18   9  29  1   
 19   9  30  1   
 20  10  12  1   
 21  10  13  1   
 22  11  14  1   
 23  11  31  1   
 24  11  32  1   
 25  12  33  1   
 26  12  34  1   
 27  13  15  ar  
 28  13  16  ar  
 29  14  35  1   
 30  14  36  1   
 31  14  37  1   
 32  15  17  ar  
 33  16  18  ar  
 34  16  38  1   
 35  17  19  ar  
 36  17  39  1   
 37  18  19  ar  
 38  18  40  1   
 39  19  20  1   
 40  20  21  2   
 41  20  22  1   
 42  22  41  1   
 43  22  42  1   
 44  22  43  1   
@<TRIPOS>SUBSTRUCTURE
  1 ****  10 GROUP 4 **** **** 0

# MOE 2024.06 (io_trps.svl 2023.06)
