@<TRIPOS>MOLECULE
NONAME
48 50 1 0 0 
SMALL
USER_CHARGES


@<TRIPOS>ATOM
  1 O       -1.5600     0.6890    -0.0850 O.2   1 <1>  -0.5700 
  2 C       -1.1570     1.7630     0.2840 C.2   1 <1>   0.5690 
  3 N       -1.9620     2.8470     0.2580 N.am  1 <1>  -0.7300 
  4 C        0.2940     1.9190     0.7510 C.3   1 <1>   0.1810 
  5 C       -1.5400     4.1950     0.7100 C.3   1 <1>   0.3640 
  6 O        0.5190     3.0990     1.4920 O.3   1 <1>  -0.5600 
  7 C       -2.0020     5.2280    -0.3170 C.ar  1 <1>  -0.1440 
  8 C       -0.0050     4.2830     0.9060 C.3   1 <1>   0.2610 
  9 C       -1.8780     5.0010    -1.6830 C.ar  1 <1>  -0.1500 
 10 C       -2.5430     6.4300     0.1160 C.ar  1 <1>  -0.1500 
 11 C        0.3850     5.5260     1.7250 C.2   1 <1>   0.5690 
 12 C       -2.2890     5.9560    -2.5950 C.ar  1 <1>  -0.1500 
 13 C       -2.9540     7.3870    -0.7950 C.ar  1 <1>  -0.1500 
 14 O       -0.4190     5.9740     2.5150 O.2   1 <1>  -0.5700 
 15 N        1.6090     6.1330     1.5470 N.am  1 <1>  -0.6600 
 16 C       -2.8280     7.1510    -2.1520 C.ar  1 <1>  -0.1500 
 17 C        2.7420     5.5670     0.7690 C.3   1 <1>   0.1400 
 18 C        1.9030     7.4740     2.1200 C.3   1 <1>   0.1400 
 19 C        3.0520     6.5000    -0.4060 C.3   1 <1>  -0.1600 
 20 C        2.2210     8.4460     0.9790 C.3   1 <1>  -0.1600 
 21 C        3.3620     7.9290     0.0800 C.3   1 <1>  -0.0800 
 22 C        3.6060     8.8610    -1.1140 C.3   1 <1>   0.1200 
 23 O        3.9760    10.1160    -0.6400 O.3   1 <1>  -0.5600 
 24 C        4.1940    11.0570    -1.6400 C.3   1 <1>   0.0400 
 25 H       -2.9290     2.7410    -0.0510 H     1 <1>   0.3700 
 26 H        0.9440     1.9270    -0.1040 H     1 <1>   0.0800 
 27 H        0.5550     1.0860     1.3780 H     1 <1>   0.0800 
 28 H       -2.0290     4.3870     1.6500 H     1 <1>   0.0800 
 29 H        0.4380     4.3800    -0.0670 H     1 <1>   0.0800 
 30 H       -1.4620     4.0770    -2.0480 H     1 <1>   0.1500 
 31 H       -2.6420     6.6340     1.1700 H     1 <1>   0.1500 
 32 H       -2.1920     5.7700    -3.6510 H     1 <1>   0.1500 
 33 H       -3.3710     8.3160    -0.4470 H     1 <1>   0.1500 
 34 H       -3.1490     7.8940    -2.8610 H     1 <1>   0.1500 
 35 H        3.6030     5.4980     1.4130 H     1 <1>   0.0800 
 36 H        2.5240     4.5770     0.4140 H     1 <1>   0.0800 
 37 H        1.0630     7.8450     2.6840 H     1 <1>   0.0800 
 38 H        2.7440     7.3980     2.7870 H     1 <1>   0.0800 
 39 H        3.8960     6.1120    -0.9480 H     1 <1>   0.0800 
 40 H        2.2070     6.5130    -1.0720 H     1 <1>   0.0800 
 41 H        1.3300     8.5940     0.3950 H     1 <1>   0.0800 
 42 H        2.4950     9.3970     1.4000 H     1 <1>   0.0800 
 43 H        4.2680     7.8950     0.6610 H     1 <1>   0.0800 
 44 H        2.7100     8.9640    -1.7020 H     1 <1>   0.0800 
 45 H        4.4040     8.4820    -1.7300 H     1 <1>   0.0800 
 46 H        4.4770    11.9830    -1.1720 H     1 <1>   0.0800 
 47 H        3.2870    11.1960    -2.2020 H     1 <1>   0.0800 
 48 H        4.9900    10.7170    -2.2810 H     1 <1>   0.0800 
@<TRIPOS>BOND
  1   1   2  2   
  2   2   3  am  
  3   2   4  1   
  4   3   5  1   
  5   3  25  1   
  6   4   6  1   
  7   4  26  1   
  8   4  27  1   
  9   5   7  1   
 10   5   8  1   
 11   5  28  1   
 12   6   8  1   
 13   7   9  ar  
 14   7  10  ar  
 15   8  11  1   
 16   8  29  1   
 17   9  12  ar  
 18   9  30  1   
 19  10  13  ar  
 20  10  31  1   
 21  11  14  2   
 22  11  15  am  
 23  12  16  ar  
 24  12  32  1   
 25  13  16  ar  
 26  13  33  1   
 27  15  17  1   
 28  15  18  1   
 29  16  34  1   
 30  17  19  1   
 31  17  35  1   
 32  17  36  1   
 33  18  20  1   
 34  18  37  1   
 35  18  38  1   
 36  19  21  1   
 37  19  39  1   
 38  19  40  1   
 39  20  21  1   
 40  20  41  1   
 41  20  42  1   
 42  21  22  1   
 43  21  43  1   
 44  22  23  1   
 45  22  44  1   
 46  22  45  1   
 47  23  24  1   
 48  24  46  1   
 49  24  47  1   
 50  24  48  1   
@<TRIPOS>SUBSTRUCTURE
  1 ****  11 GROUP 4 **** **** 0

# MOE 2024.06 (io_trps.svl 2023.06)
