@<TRIPOS>MOLECULE
NONAME
57 58 1 0 0 
SMALL
USER_CHARGES


@<TRIPOS>ATOM
  1 S        0.6540     0.2610     0.6350 S.o2  1 <1>   1.3330 
  2 O        1.9600     0.1360     0.0290 O.2   1 <1>  -0.6500 
  3 O        0.5410     0.4870     2.0580 O.2   1 <1>  -0.6500 
  4 N       -0.2440    -1.1240     0.2370 N.am  1 <1>  -0.8490 
  5 C       -0.2440     1.5720    -0.1930 C.3   1 <1>  -0.0550 
  6 C        0.1160    -1.6970    -1.0650 C.3   1 <1>   0.1160 
  7 C       -0.1630    -2.1550     1.2750 C.3   1 <1>   0.1160 
  8 C        0.3170     2.9720     0.1080 C.3   1 <1>  -0.0800 
  9 C       -0.5130     4.0800    -0.5330 C.3   1 <1>   0.2000 
 10 C        1.7300     3.2160    -0.4270 C.3   1 <1>   0.1400 
 11 O       -1.6050     4.3770     0.2640 O.3   1 <1>  -0.6800 
 12 C        0.4330     5.2730    -0.6710 C.3   1 <1>   0.1400 
 13 N        1.7950     4.6770    -0.6720 N.am  1 <1>  -0.6600 
 14 C        2.9810     5.3450    -0.8000 C.2   1 <1>   0.5690 
 15 O        4.0420     4.7710    -0.7690 O.2   1 <1>  -0.5700 
 16 C        3.0100     6.8520    -0.9550 C.3   1 <1>  -0.0990 
 17 C        3.1210     7.5360     0.4150 C.3   1 <1>  -0.0990 
 18 C        3.1170     9.0410     0.2750 C.2   1 <1>   0.5690 
 19 O        2.0540     9.6070     0.3240 O.2   1 <1>  -0.5700 
 20 N        4.3220     9.6600     0.0950 N.am  1 <1>  -0.5470 
 21 C        4.6660    11.0140    -0.0700 C.ar  1 <1>   0.1170 
 22 C        5.9660    11.4430     0.2300 C.ar  1 <1>  -0.1440 
 23 C        3.7440    11.9400    -0.5490 C.ar  1 <1>  -0.1500 
 24 C        6.2980    12.7790     0.0400 C.ar  1 <1>  -0.1500 
 25 C        6.9910    10.4290     0.7620 C.3   1 <1>  -0.0170 
 26 C        4.0860    13.2660    -0.7290 C.ar  1 <1>  -0.1500 
 27 C        5.3680    13.6860    -0.4340 C.ar  1 <1>  -0.1500 
 28 C        8.3470    11.0030     1.1920 C.3   1 <1>  -0.2400 
 29 H       -0.2330     1.4010    -1.2510 H     1 <1>   0.0800 
 30 H       -1.2670     1.5400     0.1320 H     1 <1>   0.0800 
 31 H       -0.5430    -2.5150    -1.3040 H     1 <1>   0.0800 
 32 H        1.1320    -2.0580    -1.0500 H     1 <1>   0.0800 
 33 H        0.0260    -0.9530    -1.8370 H     1 <1>   0.0800 
 34 H       -0.7540    -3.0110     0.9990 H     1 <1>   0.0800 
 35 H       -0.5430    -1.7710     2.2070 H     1 <1>   0.0800 
 36 H        0.8600    -2.4620     1.4200 H     1 <1>   0.0800 
 37 H        0.3500     3.1210     1.1740 H     1 <1>   0.0800 
 38 H       -0.8730     3.7900    -1.5060 H     1 <1>   0.0800 
 39 H        1.8910     2.6990    -1.3580 H     1 <1>   0.0800 
 40 H        2.4830     2.9100     0.2810 H     1 <1>   0.0800 
 41 H       -1.3220     4.5860     1.1760 H     1 <1>   0.4000 
 42 H        0.3350     5.9420     0.1660 H     1 <1>   0.0800 
 43 H        0.2480     5.7950    -1.5930 H     1 <1>   0.0800 
 44 H        3.8600     7.1130    -1.5590 H     1 <1>   0.0800 
 45 H        2.1330     7.1940    -1.4710 H     1 <1>   0.0800 
 46 H        4.0200     7.2180     0.9110 H     1 <1>   0.0800 
 47 H        2.2880     7.2480     1.0310 H     1 <1>   0.0800 
 48 H        5.1250     9.0380     0.1210 H     1 <1>   0.3700 
 49 H        2.7440    11.6310    -0.7910 H     1 <1>   0.1500 
 50 H        7.2830    13.1490     0.2560 H     1 <1>   0.1500 
 51 H        6.5630     9.9320     1.6160 H     1 <1>   0.0800 
 52 H        7.1670     9.6890     0.0010 H     1 <1>   0.0800 
 53 H        3.3580    13.9670    -1.0970 H     1 <1>   0.1500 
 54 H        5.6410    14.7180    -0.5730 H     1 <1>   0.1500 
 55 H        8.2140    11.7420     1.9620 H     1 <1>   0.0800 
 56 H        8.8520    11.4480     0.3530 H     1 <1>   0.0800 
 57 H        8.9690    10.2170     1.5820 H     1 <1>   0.0800 
@<TRIPOS>BOND
  1   1   2  2   
  2   1   3  2   
  3   1   4  am  
  4   1   5  1   
  5   4   6  1   
  6   4   7  1   
  7   5   8  1   
  8   5  29  1   
  9   5  30  1   
 10   6  31  1   
 11   6  32  1   
 12   6  33  1   
 13   7  34  1   
 14   7  35  1   
 15   7  36  1   
 16   8   9  1   
 17   8  10  1   
 18   8  37  1   
 19   9  11  1   
 20   9  12  1   
 21   9  38  1   
 22  10  13  1   
 23  10  39  1   
 24  10  40  1   
 25  11  41  1   
 26  12  13  1   
 27  12  42  1   
 28  12  43  1   
 29  13  14  am  
 30  14  15  2   
 31  14  16  1   
 32  16  17  1   
 33  16  44  1   
 34  16  45  1   
 35  17  18  1   
 36  17  46  1   
 37  17  47  1   
 38  18  19  2   
 39  18  20  am  
 40  20  21  1   
 41  20  48  1   
 42  21  22  ar  
 43  21  23  ar  
 44  22  24  ar  
 45  22  25  1   
 46  23  26  ar  
 47  23  49  1   
 48  24  27  ar  
 49  24  50  1   
 50  25  28  1   
 51  25  51  1   
 52  25  52  1   
 53  26  27  ar  
 54  26  53  1   
 55  27  54  1   
 56  28  55  1   
 57  28  56  1   
 58  28  57  1   
@<TRIPOS>SUBSTRUCTURE
  1 ****  14 GROUP 4 **** **** 0

# MOE 2024.06 (io_trps.svl 2023.06)
