@<TRIPOS>MOLECULE
NONAME
39 41 1 0 0 
SMALL
USER_CHARGES


@<TRIPOS>ATOM
  1 O       -1.5180    -1.8980    -0.6230 O.2   1 <1>  -0.5700 
  2 C       -0.5000    -2.4330    -0.2710 C.2   1 <1>   0.5690 
  3 N       -0.5130    -3.5190     0.5310 N.am  1 <1>  -0.7300 
  4 C        0.8490    -1.9000    -0.7030 C.3   1 <1>  -0.0990 
  5 C        0.7150    -4.1890     1.0040 C.3   1 <1>   0.1400 
  6 C        1.7890    -3.0570    -1.0960 C.3   1 <1>  -0.0800 
  7 C        1.7390    -4.2760    -0.1460 C.3   1 <1>  -0.0800 
  8 C        3.2610    -2.6340    -1.1750 C.3   1 <1>  -0.1600 
  9 C        3.1770    -4.4730     0.3500 C.3   1 <1>  -0.1600 
 10 C        4.0600    -3.8620    -0.7390 C.3   1 <1>   0.2200 
 11 N        5.4240    -3.4930    -0.2560 N.am  1 <1>  -0.6600 
 12 C        6.2370    -2.7250    -1.0600 C.2   1 <1>   0.7150 
 13 C        6.0710    -4.4490     0.6920 C.3   1 <1>   0.0600 
 14 O        6.1260    -2.7980    -2.2690 O.2   1 <1>  -0.5700 
 15 C        7.2170    -1.8490    -0.4780 C.2   1 <1>  -0.2370 
 16 N        7.1490    -1.4030     0.8110 N.pl3 1 <1>   0.0330 
 17 C        8.3320    -1.2880    -1.0430 C.2   1 <1>  -0.1500 
 18 C        8.2050    -0.5910     1.0430 C.2   1 <1>  -0.3020 
 19 C        8.9700    -0.4920    -0.0870 C.2   1 <1>   0.0190 
 20 C       10.1750     0.2610    -0.2910 C.1   1 <1>   0.5380 
 21 N       11.1350     0.8580    -0.4500 N.1   1 <1>  -0.5570 
 22 H       -1.4220    -3.8590     0.8500 H     1 <1>   0.3700 
 23 H        0.7220    -1.2280    -1.5320 H     1 <1>   0.0800 
 24 H        1.2560    -1.3460     0.1220 H     1 <1>   0.0800 
 25 H        1.1170    -3.6140     1.8210 H     1 <1>   0.0800 
 26 H        0.4790    -5.1760     1.3630 H     1 <1>   0.0800 
 27 H        1.4860    -3.4030    -2.0710 H     1 <1>   0.0800 
 28 H        1.4780    -5.1340    -0.7430 H     1 <1>   0.0800 
 29 H        3.4520    -1.8260    -0.4910 H     1 <1>   0.0800 
 30 H        3.5210    -2.3250    -2.1730 H     1 <1>   0.0800 
 31 H        3.3940    -5.5150     0.5050 H     1 <1>   0.0800 
 32 H        3.3190    -3.9270     1.2660 H     1 <1>   0.0800 
 33 H        4.1430    -4.5480    -1.5670 H     1 <1>   0.0800 
 34 H        5.6730    -4.3140     1.6820 H     1 <1>   0.0800 
 35 H        7.1360    -4.2930     0.7210 H     1 <1>   0.0800 
 36 H        5.8900    -5.4600     0.3710 H     1 <1>   0.0800 
 37 H        6.3980    -1.6500     1.4680 H     1 <1>   0.2700 
 38 H        8.6680    -1.4290    -2.0570 H     1 <1>   0.1500 
 39 H        8.3730    -0.1140     1.9930 H     1 <1>   0.1500 
@<TRIPOS>BOND
  1   1   2  2   
  2   2   3  am  
  3   2   4  1   
  4   3   5  1   
  5   3  22  1   
  6   4   6  1   
  7   4  23  1   
  8   4  24  1   
  9   5   7  1   
 10   5  25  1   
 11   5  26  1   
 12   6   7  1   
 13   6   8  1   
 14   6  27  1   
 15   7   9  1   
 16   7  28  1   
 17   8  10  1   
 18   8  29  1   
 19   8  30  1   
 20   9  10  1   
 21   9  31  1   
 22   9  32  1   
 23  10  11  1   
 24  10  33  1   
 25  11  12  am  
 26  11  13  1   
 27  12  14  2   
 28  12  15  1   
 29  13  34  1   
 30  13  35  1   
 31  13  36  1   
 32  15  16  1   
 33  15  17  2   
 34  16  18  1   
 35  16  37  1   
 36  17  19  1   
 37  17  38  1   
 38  18  19  2   
 39  18  39  1   
 40  19  20  1   
 41  20  21  3   
@<TRIPOS>SUBSTRUCTURE
  1 ****  11 GROUP 4 **** **** 0

# MOE 2024.06 (io_trps.svl 2023.06)
