@<TRIPOS>MOLECULE
NONAME
50 52 1 0 0 
SMALL
USER_CHARGES


@<TRIPOS>ATOM
  1 F       -0.7300    -0.6820     0.0470 F     1 <1>  -0.1900 
  2 C       -1.9590    -1.1200     0.0190 C.ar  1 <1>   0.1900 
  3 C       -2.4450    -1.8240     1.1020 C.ar  1 <1>  -0.1500 
  4 C       -2.7350    -0.8660    -1.0950 C.ar  1 <1>  -0.1500 
  5 C       -3.7500    -2.2830     1.0630 C.ar  1 <1>  -0.1500 
  6 C       -4.0380    -1.3330    -1.1170 C.ar  1 <1>  -0.1500 
  7 C       -4.5720    -2.0460    -0.0410 C.ar  1 <1>   0.0280 
  8 C       -5.9320    -2.5410    -0.0400 C.2   1 <1>  -0.1780 
  9 C       -6.9410    -2.1850    -0.8540 C.2   1 <1>  -0.2880 
 10 C       -8.3380    -2.7530    -0.7920 C.3   1 <1>   0.4810 
 11 N       -9.2070    -1.7250    -0.1740 N.4   1 <1>  -0.9590 
 12 C      -10.4640    -2.3250     0.3550 C.3   1 <1>   0.3430 
 13 C       -9.4700    -0.5780    -1.0930 C.3   1 <1>   0.3430 
 14 C      -11.2750    -1.2640     1.0920 C.3   1 <1>  -0.1600 
 15 C      -10.2590     0.4970    -0.3530 C.3   1 <1>  -0.1600 
 16 C      -11.5790    -0.0490     0.2040 C.3   1 <1>   0.2800 
 17 O      -12.0480     0.9380     1.0720 O.3   1 <1>  -0.5600 
 18 C      -12.5760    -0.3680    -0.9420 C.3   1 <1>  -0.1600 
 19 C      -13.3230     1.4850     0.8910 C.3   1 <1>   0.1200 
 20 C      -14.0530    -0.4580    -0.5090 C.3   1 <1>   0.2800 
 21 C      -14.3330     0.3480     0.7640 C.3   1 <1>  -0.1600 
 22 O      -14.7750     0.1200    -1.5240 O.3   1 <1>  -0.6800 
 23 C      -14.5710    -1.8930    -0.4010 C.3   1 <1>  -0.2400 
 24 H       -1.8110    -2.0050     1.9520 H     1 <1>   0.1500 
 25 H       -2.3210    -0.3170    -1.9220 H     1 <1>   0.1500 
 26 H       -4.1310    -2.8320     1.9060 H     1 <1>   0.1500 
 27 H       -4.6340    -1.1420    -1.9890 H     1 <1>   0.1500 
 28 H       -6.1030    -3.2800     0.7260 H     1 <1>   0.1500 
 29 H       -6.8220    -1.4530    -1.6330 H     1 <1>   0.1500 
 30 H       -8.3290    -3.6380    -0.1760 H     1 <1>   0.0800 
 31 H       -8.6900    -3.0210    -1.7750 H     1 <1>   0.0800 
 32 H       -8.6740    -1.3520     0.6240 H     1 <1>   0.4500 
 33 H      -11.0480    -2.7290    -0.4560 H     1 <1>   0.0800 
 34 H      -10.2310    -3.1290     1.0360 H     1 <1>   0.0800 
 35 H       -8.5400    -0.1560    -1.4370 H     1 <1>   0.0800 
 36 H      -10.0310    -0.9120    -1.9510 H     1 <1>   0.0800 
 37 H      -10.7200    -0.9440     1.9560 H     1 <1>   0.0800 
 38 H      -12.1890    -1.7000     1.4460 H     1 <1>   0.0800 
 39 H      -10.4580     1.3130    -1.0240 H     1 <1>   0.0800 
 40 H       -9.6560     0.8810     0.4510 H     1 <1>   0.0800 
 41 H      -12.4870     0.4270    -1.6630 H     1 <1>   0.0800 
 42 H      -12.2970    -1.2670    -1.4560 H     1 <1>   0.0800 
 43 H      -13.5420     2.0970     1.7490 H     1 <1>   0.0800 
 44 H      -13.3150     2.1070     0.0100 H     1 <1>   0.0800 
 45 H      -15.3340     0.7400     0.7570 H     1 <1>   0.0800 
 46 H      -14.2370    -0.2740     1.6350 H     1 <1>   0.0800 
 47 H      -15.7290     0.0480    -1.3360 H     1 <1>   0.4000 
 48 H      -14.0430    -2.4340     0.3590 H     1 <1>   0.0800 
 49 H      -14.4450    -2.4100    -1.3360 H     1 <1>   0.0800 
 50 H      -15.6150    -1.8960    -0.1390 H     1 <1>   0.0800 
@<TRIPOS>BOND
  1   1   2  1   
  2   2   3  ar  
  3   2   4  ar  
  4   3   5  ar  
  5   3  24  1   
  6   4   6  ar  
  7   4  25  1   
  8   5   7  ar  
  9   5  26  1   
 10   6   7  ar  
 11   6  27  1   
 12   7   8  1   
 13   8   9  2   
 14   8  28  1   
 15   9  10  1   
 16   9  29  1   
 17  10  11  1   
 18  10  30  1   
 19  10  31  1   
 20  11  12  1   
 21  11  13  1   
 22  11  32  1   
 23  12  14  1   
 24  12  33  1   
 25  12  34  1   
 26  13  15  1   
 27  13  35  1   
 28  13  36  1   
 29  14  16  1   
 30  14  37  1   
 31  14  38  1   
 32  15  16  1   
 33  15  39  1   
 34  15  40  1   
 35  16  17  1   
 36  16  18  1   
 37  17  19  1   
 38  18  20  1   
 39  18  41  1   
 40  18  42  1   
 41  19  21  1   
 42  19  43  1   
 43  19  44  1   
 44  20  21  1   
 45  20  22  1   
 46  20  23  1   
 47  21  45  1   
 48  21  46  1   
 49  22  47  1   
 50  23  48  1   
 51  23  49  1   
 52  23  50  1   
@<TRIPOS>SUBSTRUCTURE
  1 ****  11 GROUP 4 **** **** 0

# MOE 2024.06 (io_trps.svl 2023.06)
