@<TRIPOS>MOLECULE
NONAME
52 54 1 0 0 
SMALL
USER_CHARGES


@<TRIPOS>ATOM
  1 O       -1.1140    -2.1430    -0.0790 O.2   1 <1>  -0.5700 
  2 C       -0.0610    -2.7070    -0.2220 C.2   1 <1>   0.5690 
  3 N        0.1840    -3.4880    -1.2940 N.am  1 <1>  -0.7300 
  4 C        1.0380    -2.5710     0.8100 C.3   1 <1>  -0.0990 
  5 C        1.4500    -4.2240    -1.4870 C.3   1 <1>   0.1400 
  6 C        2.4030    -2.3830     0.1200 C.3   1 <1>  -0.0800 
  7 C        2.6440    -3.3330    -1.0810 C.3   1 <1>  -0.0800 
  8 C        3.5890    -2.5710     1.0760 C.3   1 <1>  -0.1600 
  9 C        3.8990    -4.1410    -0.7270 C.3   1 <1>  -0.1600 
 10 C        4.6700    -3.2320     0.2290 C.3   1 <1>   0.2200 
 11 N        5.6990    -3.9270     1.0630 N.am  1 <1>  -0.6600 
 12 C        6.9600    -3.4210     1.2820 C.2   1 <1>   0.5690 
 13 C        5.3240    -5.2380     1.6820 C.3   1 <1>   0.0600 
 14 O        7.7990    -4.0560     1.8770 O.2   1 <1>  -0.5700 
 15 C        7.3390    -2.0340     0.7770 C.3   1 <1>  -0.0990 
 16 C        8.6760    -1.5090     1.3220 C.3   1 <1>  -0.0170 
 17 C        8.9550    -0.1120     0.7760 C.ar  1 <1>  -0.1430 
 18 C        9.6830     0.1090    -0.3900 C.ar  1 <1>  -0.1430 
 19 C        8.4520     0.9740     1.4770 C.ar  1 <1>  -0.1500 
 20 C        9.8890     1.4090    -0.8290 C.ar  1 <1>  -0.1500 
 21 C       10.2720    -1.0340    -1.2050 C.3   1 <1>  -0.0970 
 22 C        8.6620     2.2660     1.0300 C.ar  1 <1>  -0.1500 
 23 C        9.3820     2.4910    -0.1290 C.ar  1 <1>  -0.1430 
 24 C        9.6210     3.9050    -0.6250 C.3   1 <1>  -0.0970 
 25 H       -0.5720    -3.6110    -1.9720 H     1 <1>   0.3700 
 26 H        0.8270    -1.7350     1.4510 H     1 <1>   0.0800 
 27 H        1.0350    -3.4650     1.4060 H     1 <1>   0.0800 
 28 H        1.4190    -5.1100    -0.8760 H     1 <1>   0.0800 
 29 H        1.5470    -4.5240    -2.5170 H     1 <1>   0.0800 
 30 H        2.4330    -1.3750    -0.2640 H     1 <1>   0.0800 
 31 H        2.8840    -2.7160    -1.9310 H     1 <1>   0.0800 
 32 H        3.3120    -3.2190     1.8880 H     1 <1>   0.0800 
 33 H        3.9250    -1.6300     1.4750 H     1 <1>   0.0800 
 34 H        4.4810    -4.3760    -1.6010 H     1 <1>   0.0800 
 35 H        3.6030    -5.0490    -0.2370 H     1 <1>   0.0800 
 36 H        5.1310    -2.4700    -0.3740 H     1 <1>   0.0800 
 37 H        4.3030    -5.2220     2.0180 H     1 <1>   0.0800 
 38 H        5.9500    -5.4500     2.5320 H     1 <1>   0.0800 
 39 H        5.4500    -6.0260     0.9610 H     1 <1>   0.0800 
 40 H        7.3900    -2.0650    -0.2950 H     1 <1>   0.0800 
 41 H        6.5680    -1.3420     1.0590 H     1 <1>   0.0800 
 42 H        9.4710    -2.1850     1.0640 H     1 <1>   0.0800 
 43 H        8.6330    -1.4740     2.3970 H     1 <1>   0.0800 
 44 H        7.8910     0.8190     2.3810 H     1 <1>   0.1500 
 45 H       10.4530     1.5870    -1.7270 H     1 <1>   0.1500 
 46 H       10.6980    -0.6750    -2.1240 H     1 <1>   0.0800 
 47 H        9.5110    -1.7520    -1.4490 H     1 <1>   0.0800 
 48 H       11.0470    -1.5220    -0.6420 H     1 <1>   0.0800 
 49 H        8.2650     3.0920     1.5910 H     1 <1>   0.1500 
 50 H        8.8480     4.5640    -0.2750 H     1 <1>   0.0800 
 51 H        9.6260     3.9280    -1.7000 H     1 <1>   0.0800 
 52 H       10.5700     4.2600    -0.2650 H     1 <1>   0.0800 
@<TRIPOS>BOND
  1   1   2  2   
  2   2   3  am  
  3   2   4  1   
  4   3   5  1   
  5   3  25  1   
  6   4   6  1   
  7   4  26  1   
  8   4  27  1   
  9   5   7  1   
 10   5  28  1   
 11   5  29  1   
 12   6   7  1   
 13   6   8  1   
 14   6  30  1   
 15   7   9  1   
 16   7  31  1   
 17   8  10  1   
 18   8  32  1   
 19   8  33  1   
 20   9  10  1   
 21   9  34  1   
 22   9  35  1   
 23  10  11  1   
 24  10  36  1   
 25  11  12  am  
 26  11  13  1   
 27  12  14  2   
 28  12  15  1   
 29  13  37  1   
 30  13  38  1   
 31  13  39  1   
 32  15  16  1   
 33  15  40  1   
 34  15  41  1   
 35  16  17  1   
 36  16  42  1   
 37  16  43  1   
 38  17  18  ar  
 39  17  19  ar  
 40  18  20  ar  
 41  18  21  1   
 42  19  22  ar  
 43  19  44  1   
 44  20  23  ar  
 45  20  45  1   
 46  21  46  1   
 47  21  47  1   
 48  21  48  1   
 49  22  23  ar  
 50  22  49  1   
 51  23  24  1   
 52  24  50  1   
 53  24  51  1   
 54  24  52  1   
@<TRIPOS>SUBSTRUCTURE
  1 ****  10 GROUP 4 **** **** 0

# MOE 2024.06 (io_trps.svl 2023.06)
