@<TRIPOS>MOLECULE
NONAME
54 58 1 0 0 
SMALL
USER_CHARGES


@<TRIPOS>ATOM
  1 O        1.3630    -0.9030    -1.6730 O.3   1 <1>  -0.5600 
  2 C        2.1460    -1.1420    -0.5220 C.3   1 <1>   0.4600 
  3 C       -0.0310    -1.0750    -1.5750 C.3   1 <1>   0.1200 
  4 C        1.6050    -2.3640     0.2110 C.2   1 <1>  -0.3320 
  5 C        3.5650    -1.4080    -1.0270 C.3   1 <1>  -0.1600 
  6 C        2.1210     0.1020     0.3710 C.3   1 <1>  -0.1600 
  7 C       -0.3890    -2.5390    -1.2720 C.3   1 <1>   0.0210 
  8 N        2.1710    -2.9840     1.2910 N.pl3 1 <1>   0.0330 
  9 C        0.4670    -3.0050    -0.1220 C.2   1 <1>  -0.1810 
 10 C        4.1480    -0.1740    -1.7160 C.3   1 <1>   0.2090 
 11 C        2.7310     1.3030    -0.3450 C.3   1 <1>   0.2090 
 12 C        1.3710    -4.0450     1.6390 C.ar  1 <1>  -0.1520 
 13 C        0.2880    -4.0880     0.7640 C.ar  1 <1>   0.0000 
 14 N        4.1380     0.9720    -0.7520 N.pl3 1 <1>  -0.8380 
 15 C        1.5020    -4.9890     2.6610 C.ar  1 <1>  -0.1500 
 16 C       -0.6780    -5.0880     0.9060 C.ar  1 <1>  -0.1500 
 17 C        5.2220     1.6580    -0.3060 C.ar  1 <1>   0.4100 
 18 C        0.5430    -5.9670     2.7900 C.ar  1 <1>  -0.1500 
 19 C       -0.5470    -6.0170     1.9130 C.ar  1 <1>  -0.1500 
 20 N        5.0170     2.5760     0.6520 N.ar  1 <1>  -0.6200 
 21 C        6.5240     1.4580    -0.7910 C.ar  1 <1>  -0.1500 
 22 C        6.0220     3.2590     1.1060 C.ar  1 <1>   0.5280 
 23 C        7.5610     2.1900    -0.2940 C.ar  1 <1>   0.2180 
 24 N        7.2850     3.0950     0.6640 N.ar  1 <1>  -0.1790 
 25 C        5.7630     4.2960     2.1920 C.3   1 <1>  -0.0170 
 26 C        8.9940     2.0330    -0.7740 C.3   1 <1>  -0.0970 
 27 C        6.1260     5.7270     1.7620 C.3   1 <1>  -0.2400 
 28 H       -0.4660    -0.7730    -2.5110 H     1 <1>   0.0800 
 29 H       -0.4030    -0.4310    -0.7980 H     1 <1>   0.0800 
 30 H        3.5420    -2.2350    -1.7110 H     1 <1>   0.0800 
 31 H        4.2020    -1.6770    -0.2060 H     1 <1>   0.0800 
 32 H        2.6860    -0.0850     1.2640 H     1 <1>   0.0800 
 33 H        1.1140     0.3200     0.6710 H     1 <1>   0.0800 
 34 H       -0.2020    -3.1500    -2.1360 H     1 <1>   0.0800 
 35 H       -1.4290    -2.6120    -1.0140 H     1 <1>   0.0800 
 36 H        3.0370    -2.7210     1.7680 H     1 <1>   0.2700 
 37 H        3.5480     0.0800    -2.5750 H     1 <1>   0.0800 
 38 H        5.1320    -0.4080    -2.0660 H     1 <1>   0.0800 
 39 H        2.6850     2.1620     0.3000 H     1 <1>   0.0800 
 40 H        2.1550     1.5340    -1.2260 H     1 <1>   0.0800 
 41 H        2.3430    -4.9440     3.3300 H     1 <1>   0.1500 
 42 H       -1.5080    -5.1140     0.2250 H     1 <1>   0.1500 
 43 H        0.6220    -6.7060     3.5690 H     1 <1>   0.1500 
 44 H       -1.2830    -6.7920     2.0350 H     1 <1>   0.1500 
 45 H        6.7060     0.7360    -1.5590 H     1 <1>   0.1500 
 46 H        8.0210     3.6740     1.0650 H     1 <1>   0.4570 
 47 H        6.3120     4.0300     3.0780 H     1 <1>   0.0800 
 48 H        4.7170     4.2720     2.4490 H     1 <1>   0.0800 
 49 H        9.0560     1.2780    -1.5380 H     1 <1>   0.0800 
 50 H        9.6340     1.7380     0.0390 H     1 <1>   0.0800 
 51 H        9.3570     2.9570    -1.1890 H     1 <1>   0.0800 
 52 H        7.1790     5.8330     1.5700 H     1 <1>   0.0800 
 53 H        5.8580     6.4190     2.5430 H     1 <1>   0.0800 
 54 H        5.5790     6.0000     0.8750 H     1 <1>   0.0800 
@<TRIPOS>BOND
  1   1   2  1   
  2   1   3  1   
  3   2   4  1   
  4   2   5  1   
  5   2   6  1   
  6   3   7  1   
  7   3  28  1   
  8   3  29  1   
  9   4   8  1   
 10   4   9  2   
 11   5  10  1   
 12   5  30  1   
 13   5  31  1   
 14   6  11  1   
 15   6  32  1   
 16   6  33  1   
 17   7   9  1   
 18   7  34  1   
 19   7  35  1   
 20   8  12  1   
 21   8  36  1   
 22   9  13  1   
 23  10  14  1   
 24  10  37  1   
 25  10  38  1   
 26  11  14  1   
 27  11  39  1   
 28  11  40  1   
 29  12  13  ar  
 30  12  15  ar  
 31  13  16  ar  
 32  14  17  1   
 33  15  18  ar  
 34  15  41  1   
 35  16  19  ar  
 36  16  42  1   
 37  17  20  ar  
 38  17  21  ar  
 39  18  19  ar  
 40  18  43  1   
 41  19  44  1   
 42  20  22  ar  
 43  21  23  ar  
 44  21  45  1   
 45  22  24  ar  
 46  22  25  1   
 47  23  24  ar  
 48  23  26  1   
 49  24  46  1   
 50  25  27  1   
 51  25  47  1   
 52  25  48  1   
 53  26  49  1   
 54  26  50  1   
 55  26  51  1   
 56  27  52  1   
 57  27  53  1   
 58  27  54  1   
@<TRIPOS>SUBSTRUCTURE
  1 ****   6 GROUP 4 **** **** 0

# MOE 2024.06 (io_trps.svl 2023.06)
