@<TRIPOS>MOLECULE
NONAME
48 49 1 0 0 
SMALL
USER_CHARGES


@<TRIPOS>ATOM
  1 S        0.2310     0.2310     0.3570 S.o2  1 <1>   1.3330 
  2 O       -0.2170     1.2840     1.2400 O.2   1 <1>  -0.6500 
  3 O        0.2970    -1.1280     0.8460 O.2   1 <1>  -0.6500 
  4 N       -0.7550     0.2350    -1.0250 N.am  1 <1>  -0.8490 
  5 C        1.8380     0.6930    -0.2870 C.3   1 <1>  -0.0550 
  6 C       -2.1540     0.5390    -0.7090 C.3   1 <1>   0.1160 
  7 C       -0.6760    -1.0040    -1.8050 C.3   1 <1>   0.1160 
  8 C        2.8980     0.8860     0.8100 C.3   1 <1>  -0.0800 
  9 C        4.2570     1.2700     0.2370 C.3   1 <1>   0.2200 
 10 C        3.2080    -0.3620     1.6320 C.3   1 <1>   0.1200 
 11 N        4.4900     2.7150     0.4440 N.am  1 <1>  -0.7300 
 12 C        5.2500     0.4050     1.0160 C.3   1 <1>   0.1200 
 13 O        4.5240    -0.1930     2.0420 O.3   1 <1>  -0.5600 
 14 C        4.2620     3.6780    -0.4950 C.2   1 <1>   0.5440 
 15 O        3.8810     3.3300    -1.5970 O.2   1 <1>  -0.5700 
 16 C        4.4590     5.0750    -0.1580 C.ar  1 <1>   0.0860 
 17 C        5.2960     5.9290    -0.8900 C.ar  1 <1>  -0.1440 
 18 C        3.8010     5.6050     0.9540 C.ar  1 <1>  -0.1500 
 19 C        5.4590     7.2510    -0.5090 C.ar  1 <1>  -0.1500 
 20 C        6.0440     5.4210    -2.1180 C.3   1 <1>  -0.0970 
 21 C        3.9690     6.9230     1.3320 C.ar  1 <1>  -0.1500 
 22 C        4.7990     7.7580     0.6070 C.ar  1 <1>   0.0820 
 23 O        4.9140     9.0330     1.0390 O.3   1 <1>  -0.3620 
 24 C        5.7110     9.9790     0.3620 C.3   1 <1>   0.0400 
 25 H        2.1720    -0.0550    -0.9800 H     1 <1>   0.0800 
 26 H        1.7400     1.6160    -0.8270 H     1 <1>   0.0800 
 27 H       -2.7460     0.5510    -1.6080 H     1 <1>   0.0800 
 28 H       -2.2240     1.5110    -0.2480 H     1 <1>   0.0800 
 29 H       -2.5530    -0.1950    -0.0290 H     1 <1>   0.0800 
 30 H       -1.2500    -0.9080    -2.7110 H     1 <1>   0.0800 
 31 H       -1.0590    -1.8350    -1.2340 H     1 <1>   0.0800 
 32 H        0.3460    -1.2100    -2.0720 H     1 <1>   0.0800 
 33 H        2.5580     1.6440     1.4950 H     1 <1>   0.0800 
 34 H        4.3320     1.0320    -0.8110 H     1 <1>   0.0800 
 35 H        3.1540    -1.2590     1.0380 H     1 <1>   0.0800 
 36 H        2.5750    -0.4560     2.4990 H     1 <1>   0.0800 
 37 H        4.7570     2.9880     1.3920 H     1 <1>   0.3700 
 38 H        6.0580     0.9750     1.4410 H     1 <1>   0.0800 
 39 H        5.6400    -0.3790     0.3910 H     1 <1>   0.0800 
 40 H        3.1430     4.9750     1.5250 H     1 <1>   0.1500 
 41 H        6.1040     7.8840    -1.0880 H     1 <1>   0.1500 
 42 H        6.7520     6.1460    -2.4730 H     1 <1>   0.0800 
 43 H        5.3450     5.2120    -2.9090 H     1 <1>   0.0800 
 44 H        6.5760     4.5170    -1.8830 H     1 <1>   0.0800 
 45 H        3.4550     7.3160     2.1910 H     1 <1>   0.1500 
 46 H        5.6340    10.9160     0.8840 H     1 <1>   0.0800 
 47 H        5.3420    10.0900    -0.6430 H     1 <1>   0.0800 
 48 H        6.7320     9.6420     0.3640 H     1 <1>   0.0800 
@<TRIPOS>BOND
  1   1   2  2   
  2   1   3  2   
  3   1   4  am  
  4   1   5  1   
  5   4   6  1   
  6   4   7  1   
  7   5   8  1   
  8   5  25  1   
  9   5  26  1   
 10   6  27  1   
 11   6  28  1   
 12   6  29  1   
 13   7  30  1   
 14   7  31  1   
 15   7  32  1   
 16   8   9  1   
 17   8  10  1   
 18   8  33  1   
 19   9  11  1   
 20   9  12  1   
 21   9  34  1   
 22  10  13  1   
 23  10  35  1   
 24  10  36  1   
 25  11  14  am  
 26  11  37  1   
 27  12  13  1   
 28  12  38  1   
 29  12  39  1   
 30  14  15  2   
 31  14  16  1   
 32  16  17  ar  
 33  16  18  ar  
 34  17  19  ar  
 35  17  20  1   
 36  18  21  ar  
 37  18  40  1   
 38  19  22  ar  
 39  19  41  1   
 40  20  42  1   
 41  20  43  1   
 42  20  44  1   
 43  21  22  ar  
 44  21  45  1   
 45  22  23  1   
 46  23  24  1   
 47  24  46  1   
 48  24  47  1   
 49  24  48  1   
@<TRIPOS>SUBSTRUCTURE
  1 ****  14 GROUP 4 **** **** 0

# MOE 2024.06 (io_trps.svl 2023.06)
