@<TRIPOS>MOLECULE
NONAME
54 57 1 0 0 
SMALL
USER_CHARGES


@<TRIPOS>ATOM
  1 O       -1.3030    -0.2740     1.1550 O.2   1 <1>  -0.5700 
  2 C       -2.3250     0.2930     0.8150 C.2   1 <1>   0.5440 
  3 N       -2.5180     1.6000     1.2090 N.am  1 <1>  -0.6600 
  4 C       -3.2960    -0.4250     0.0270 C.ar  1 <1>   0.0860 
  5 C       -1.4220     2.4040     1.8280 C.3   1 <1>   0.1400 
  6 C       -3.8430     2.2870     1.2630 C.3   1 <1>   0.1400 
  7 C       -3.7560    -1.6700     0.4440 C.ar  1 <1>   0.1600 
  8 C       -3.8090     0.0650    -1.1690 C.ar  1 <1>  -0.1500 
  9 C       -1.4390     3.8460     1.2930 C.3   1 <1>   0.1200 
 10 C       -3.7220     3.7320     0.7480 C.3   1 <1>   0.1200 
 11 N       -4.6620    -2.4080    -0.1710 N.ar  1 <1>  -0.6200 
 12 C       -4.7470    -0.6930    -1.8260 C.ar  1 <1>  -0.1500 
 13 O       -2.7110     4.4160     1.4330 O.3   1 <1>  -0.5600 
 14 C       -5.1660    -1.9140    -1.2980 C.ar  1 <1>   0.4100 
 15 N       -6.1380    -2.6560    -1.9400 N.pl3 1 <1>  -0.8380 
 16 C       -6.1690    -4.1380    -1.7980 C.3   1 <1>   0.2090 
 17 C       -7.4370    -2.0310    -2.3020 C.3   1 <1>   0.2090 
 18 C       -7.2360    -4.5470    -0.7800 C.3   1 <1>  -0.1600 
 19 C       -8.5010    -2.4290    -1.2810 C.3   1 <1>  -0.1600 
 20 C       -8.5960    -3.9480    -1.1530 C.3   1 <1>   0.2000 
 21 O       -9.5270    -4.2140    -0.1530 O.3   1 <1>  -0.5600 
 22 C      -10.0880    -5.4910    -0.1670 C.3   1 <1>   0.2630 
 23 C      -11.1780    -5.5730     0.8900 C.ar  1 <1>  -0.1430 
 24 C      -11.2620    -6.6780     1.7250 C.ar  1 <1>   0.1600 
 25 C      -12.1120    -4.5650     1.0330 C.ar  1 <1>  -0.1500 
 26 N      -12.1810    -6.8600     2.6600 N.ar  1 <1>  -0.6200 
 27 C      -13.0740    -4.7330     2.0050 C.ar  1 <1>  -0.1500 
 28 C      -13.0640    -5.8810     2.7790 C.ar  1 <1>   0.1600 
 29 H       -0.4640     1.9600     1.6140 H     1 <1>   0.0800 
 30 H       -1.5510     2.4160     2.8960 H     1 <1>   0.0800 
 31 H       -4.1820     2.3110     2.2840 H     1 <1>   0.0800 
 32 H       -4.5800     1.7600     0.6860 H     1 <1>   0.0800 
 33 H       -3.3390    -2.0720     1.3520 H     1 <1>   0.1500 
 34 H       -3.4690     1.0070    -1.5610 H     1 <1>   0.1500 
 35 H       -1.1650     3.8640     0.2530 H     1 <1>   0.0800 
 36 H       -0.7440     4.4530     1.8450 H     1 <1>   0.0800 
 37 H       -4.6430     4.2620     0.9090 H     1 <1>   0.0800 
 38 H       -3.4940     3.7430    -0.3040 H     1 <1>   0.0800 
 39 H       -5.1630    -0.3630    -2.7570 H     1 <1>   0.1500 
 40 H       -5.2050    -4.5030    -1.4850 H     1 <1>   0.0800 
 41 H       -6.3880    -4.5740    -2.7570 H     1 <1>   0.0800 
 42 H       -7.7240    -2.3610    -3.2860 H     1 <1>   0.0800 
 43 H       -7.3480    -0.9590    -2.3200 H     1 <1>   0.0800 
 44 H       -6.9360    -4.1910     0.1890 H     1 <1>   0.0800 
 45 H       -7.2850    -5.6180    -0.7530 H     1 <1>   0.0800 
 46 H       -9.4520    -2.0320    -1.5840 H     1 <1>   0.0800 
 47 H       -8.2390    -2.0040    -0.3280 H     1 <1>   0.0800 
 48 H       -8.9510    -4.3610    -2.0840 H     1 <1>   0.0800 
 49 H       -9.3140    -6.2100     0.0340 H     1 <1>   0.0800 
 50 H      -10.5130    -5.6720    -1.1390 H     1 <1>   0.0800 
 51 H      -10.5330    -7.4630     1.6190 H     1 <1>   0.1500 
 52 H      -12.0820    -3.6840     0.4150 H     1 <1>   0.1500 
 53 H      -13.8250    -3.9810     2.1650 H     1 <1>   0.1500 
 54 H      -13.8210    -6.0000     3.5340 H     1 <1>   0.1500 
@<TRIPOS>BOND
  1   1   2  2   
  2   2   3  am  
  3   2   4  1   
  4   3   5  1   
  5   3   6  1   
  6   4   7  ar  
  7   4   8  ar  
  8   5   9  1   
  9   5  29  1   
 10   5  30  1   
 11   6  10  1   
 12   6  31  1   
 13   6  32  1   
 14   7  11  ar  
 15   7  33  1   
 16   8  12  ar  
 17   8  34  1   
 18   9  13  1   
 19   9  35  1   
 20   9  36  1   
 21  10  13  1   
 22  10  37  1   
 23  10  38  1   
 24  11  14  ar  
 25  12  14  ar  
 26  12  39  1   
 27  14  15  1   
 28  15  16  1   
 29  15  17  1   
 30  16  18  1   
 31  16  40  1   
 32  16  41  1   
 33  17  19  1   
 34  17  42  1   
 35  17  43  1   
 36  18  20  1   
 37  18  44  1   
 38  18  45  1   
 39  19  20  1   
 40  19  46  1   
 41  19  47  1   
 42  20  21  1   
 43  20  48  1   
 44  21  22  1   
 45  22  23  1   
 46  22  49  1   
 47  22  50  1   
 48  23  24  ar  
 49  23  25  ar  
 50  24  26  ar  
 51  24  51  1   
 52  25  27  ar  
 53  25  52  1   
 54  26  28  ar  
 55  27  28  ar  
 56  27  53  1   
 57  28  54  1   
@<TRIPOS>SUBSTRUCTURE
  1 ****  11 GROUP 4 **** **** 0

# MOE 2024.06 (io_trps.svl 2023.06)
