@<TRIPOS>MOLECULE
NONAME
53 56 1 0 0 
SMALL
USER_CHARGES


@<TRIPOS>ATOM
  1 O        2.1200    -0.1080     1.9030 O.2   1 <1>  -0.5700 
  2 C        2.9360     0.1490     1.0470 C.2   1 <1>   0.7150 
  3 N        3.7050    -0.8730     0.5940 N.am  1 <1>  -0.7300 
  4 C        3.1330     1.4780     0.5490 C.2   1 <1>  -0.2370 
  5 C        5.0090    -0.6540    -0.0850 C.3   1 <1>   0.1400 
  6 N        3.5500     1.7610    -0.7100 N.pl3 1 <1>   0.3140 
  7 C        2.9900     2.6830     1.1570 C.2   1 <1>  -0.1500 
  8 C        4.8080    -0.2530    -1.5580 C.3   1 <1>   0.2000 
  9 N        3.7050     3.0710    -0.9160 N.2   1 <1>  -0.7070 
 10 C        3.7010     0.7870    -1.8130 C.3   1 <1>   0.0960 
 11 C        3.3610     3.6500     0.2260 C.2   1 <1>   0.2030 
 12 O        4.4710    -1.3990    -2.2630 O.3   1 <1>  -0.6800 
 13 C        3.3670     5.0840     0.4780 C.2   1 <1>   0.7160 
 14 O        3.0850     5.5490     1.5700 O.2   1 <1>  -0.5700 
 15 N        3.7100     5.9420    -0.5290 N.am  1 <1>  -0.7300 
 16 C        3.7340     7.4150    -0.4550 C.3   1 <1>   0.1400 
 17 C        5.1540     7.8750    -0.1300 C.3   1 <1>  -0.1600 
 18 C        5.2040     9.3920     0.0950 C.3   1 <1>   0.0200 
 19 C        6.6140     9.8590     0.4030 C.2   1 <1>   0.0060 
 20 N        7.2930    10.6390    -0.3620 N.2   1 <1>  -0.5650 
 21 N        7.2740     9.4880     1.5280 N.pl3 1 <1>   0.0330 
 22 C        8.4870    10.8060     0.2840 C.ar  1 <1>   0.2270 
 23 C        8.4870    10.0900     1.4660 C.ar  1 <1>  -0.1520 
 24 C        9.6120    11.5550    -0.0880 C.ar  1 <1>  -0.1430 
 25 C        9.5920    10.0900     2.3150 C.ar  1 <1>  -0.1500 
 26 C       10.7190    11.5520     0.7460 C.ar  1 <1>  -0.1430 
 27 C        9.5580    12.3330    -1.3990 C.3   1 <1>  -0.0970 
 28 C       10.6960    10.8210     1.9440 C.ar  1 <1>  -0.1500 
 29 C       11.9860    12.3230     0.4060 C.3   1 <1>  -0.0970 
 30 H        3.5850    -1.7490     1.1100 H     1 <1>   0.3700 
 31 H        5.6140    -1.5430    -0.0260 H     1 <1>   0.0800 
 32 H        5.5390     0.1330     0.4260 H     1 <1>   0.0800 
 33 H        2.6620     2.8800     2.1640 H     1 <1>   0.1500 
 34 H        5.7390     0.1050    -1.9640 H     1 <1>   0.0800 
 35 H        3.9170     1.3250    -2.7170 H     1 <1>   0.0800 
 36 H        2.7540     0.2940    -1.9290 H     1 <1>   0.0800 
 37 H        3.7240    -1.8530    -1.8210 H     1 <1>   0.4000 
 38 H        3.9800     5.5000    -1.4130 H     1 <1>   0.3700 
 39 H        3.0550     7.7430     0.3160 H     1 <1>   0.0800 
 40 H        3.4080     7.8280    -1.3940 H     1 <1>   0.0800 
 41 H        5.8120     7.6180    -0.9410 H     1 <1>   0.0800 
 42 H        5.4890     7.3730     0.7600 H     1 <1>   0.0800 
 43 H        4.5570     9.6690     0.9090 H     1 <1>   0.0800 
 44 H        4.8600     9.8990    -0.7890 H     1 <1>   0.0800 
 45 H        6.9360     8.8730     2.2710 H     1 <1>   0.2700 
 46 H        9.5750     9.5300     3.2330 H     1 <1>   0.1500 
 47 H        8.5520    12.6560    -1.5970 H     1 <1>   0.0800 
 48 H        9.8770    11.7000    -2.2060 H     1 <1>   0.0800 
 49 H       10.1800    13.2070    -1.3660 H     1 <1>   0.0800 
 50 H       11.5590    10.8320     2.5850 H     1 <1>   0.1500 
 51 H       12.2680    12.1440    -0.6150 H     1 <1>   0.0800 
 52 H       12.8040    12.0180     1.0340 H     1 <1>   0.0800 
 53 H       11.8200    13.3760     0.5470 H     1 <1>   0.0800 
@<TRIPOS>BOND
  1   1   2  2   
  2   2   3  am  
  3   2   4  1   
  4   3   5  1   
  5   3  30  1   
  6   4   6  1   
  7   4   7  2   
  8   5   8  1   
  9   5  31  1   
 10   5  32  1   
 11   6   9  1   
 12   6  10  1   
 13   7  11  1   
 14   7  33  1   
 15   8  10  1   
 16   8  12  1   
 17   8  34  1   
 18   9  11  2   
 19  10  35  1   
 20  10  36  1   
 21  11  13  1   
 22  12  37  1   
 23  13  14  2   
 24  13  15  am  
 25  15  16  1   
 26  15  38  1   
 27  16  17  1   
 28  16  39  1   
 29  16  40  1   
 30  17  18  1   
 31  17  41  1   
 32  17  42  1   
 33  18  19  1   
 34  18  43  1   
 35  18  44  1   
 36  19  20  2   
 37  19  21  1   
 38  20  22  1   
 39  21  23  1   
 40  21  45  1   
 41  22  23  ar  
 42  22  24  ar  
 43  23  25  ar  
 44  24  26  ar  
 45  24  27  1   
 46  25  28  ar  
 47  25  46  1   
 48  26  28  ar  
 49  26  29  1   
 50  27  47  1   
 51  27  48  1   
 52  27  49  1   
 53  28  50  1   
 54  29  51  1   
 55  29  52  1   
 56  29  53  1   
@<TRIPOS>SUBSTRUCTURE
  1 ****  17 GROUP 4 **** **** 0

# MOE 2024.06 (io_trps.svl 2023.06)
