@<TRIPOS>MOLECULE
NONAME
43 45 1 0 0 
SMALL
USER_CHARGES


@<TRIPOS>ATOM
  1 O       -0.9760    -0.0950     1.5220 O.co2 1 <1>  -0.9000 
  2 C       -1.3060    -0.0420     0.3340 C.2   1 <1>   0.9060 
  3 O       -0.5050    -0.0840    -0.6030 O.co2 1 <1>  -0.9000 
  4 C       -2.7960    -0.1660     0.0110 C.3   1 <1>   0.2370 
  5 N       -3.2720    -1.6030    -0.1300 N.4   1 <1>  -0.9590 
  6 C       -2.9790    -2.3920     1.1190 C.3   1 <1>   0.4230 
  7 C       -2.7440    -2.2080    -1.3780 C.3   1 <1>   0.3430 
  8 C       -1.6350    -3.1670     1.1350 C.3   1 <1>   0.1200 
  9 C       -4.1910    -3.3370     1.3430 C.3   1 <1>   0.1100 
 10 C       -2.9530    -3.7280    -1.4520 C.3   1 <1>  -0.0800 
 11 O       -1.7550    -4.4330     0.5460 O.3   1 <1>  -0.5600 
 12 N       -5.0150    -3.5250     0.1100 N.3   1 <1>  -0.8100 
 13 C       -1.7450    -4.4620    -0.8410 C.3   1 <1>   0.1200 
 14 C       -4.3200    -4.2850    -0.9680 C.3   1 <1>   0.1100 
 15 C       -6.3570    -4.0770     0.3900 C.3   1 <1>   0.2900 
 16 C       -6.3280    -5.5790     0.6270 C.2   1 <1>  -0.3320 
 17 N       -5.7920    -6.1610     1.7170 N.pl3 1 <1>   0.0330 
 18 C       -6.7970    -6.5890    -0.1420 C.2   1 <1>   0.0460 
 19 C       -5.9640    -7.4850     1.5360 C.2   1 <1>   0.0360 
 20 N       -6.5630    -7.7810     0.4310 N.2   1 <1>  -0.5650 
 21 C       -7.5010    -6.5440    -1.4800 C.3   1 <1>  -0.0590 
 22 H       -2.9760     0.3740    -0.9010 H     1 <1>   0.0800 
 23 H       -3.3310     0.3180     0.8070 H     1 <1>   0.0800 
 24 H       -4.2980    -1.6920    -0.2060 H     1 <1>   0.4500 
 25 H       -2.9350    -1.7020     1.9460 H     1 <1>   0.0800 
 26 H       -3.2390    -1.7460    -2.2170 H     1 <1>   0.0800 
 27 H       -1.6900    -1.9900    -1.4650 H     1 <1>   0.0800 
 28 H       -1.3540    -3.3330     2.1590 H     1 <1>   0.0800 
 29 H       -0.8370    -2.6160     0.6670 H     1 <1>   0.0800 
 30 H       -4.8030    -2.8870     2.1050 H     1 <1>   0.0800 
 31 H       -3.8610    -4.2870     1.7240 H     1 <1>   0.0800 
 32 H       -2.8940    -3.9690    -2.4980 H     1 <1>   0.0800 
 33 H       -0.8140    -4.0390    -1.1840 H     1 <1>   0.0800 
 34 H       -1.7670    -5.4990    -1.1300 H     1 <1>   0.0800 
 35 H       -4.1710    -5.3050    -0.6540 H     1 <1>   0.0800 
 36 H       -4.9800    -4.3170    -1.8190 H     1 <1>   0.0800 
 37 H       -6.7930    -3.5800     1.2390 H     1 <1>   0.0800 
 38 H       -6.9910    -3.8690    -0.4550 H     1 <1>   0.0800 
 39 H       -5.3400    -5.7110     2.5160 H     1 <1>   0.2700 
 40 H       -5.6280    -8.2130     2.2530 H     1 <1>   0.1500 
 41 H       -7.5980    -5.5380    -1.8370 H     1 <1>   0.0800 
 42 H       -8.4800    -6.9770    -1.3810 H     1 <1>   0.0800 
 43 H       -6.9420    -7.1180    -2.1960 H     1 <1>   0.0800 
@<TRIPOS>BOND
  1   1   2  ar  
  2   2   3  ar  
  3   2   4  1   
  4   4   5  1   
  5   4  22  1   
  6   4  23  1   
  7   5   6  1   
  8   5   7  1   
  9   5  24  1   
 10   6   8  1   
 11   6   9  1   
 12   6  25  1   
 13   7  10  1   
 14   7  26  1   
 15   7  27  1   
 16   8  11  1   
 17   8  28  1   
 18   8  29  1   
 19   9  12  1   
 20   9  30  1   
 21   9  31  1   
 22  10  13  1   
 23  10  14  1   
 24  10  32  1   
 25  11  13  1   
 26  12  14  1   
 27  12  15  1   
 28  13  33  1   
 29  13  34  1   
 30  14  35  1   
 31  14  36  1   
 32  15  16  1   
 33  15  37  1   
 34  15  38  1   
 35  16  17  1   
 36  16  18  2   
 37  17  19  1   
 38  17  39  1   
 39  18  20  1   
 40  18  21  1   
 41  19  20  2   
 42  19  40  1   
 43  21  41  1   
 44  21  42  1   
 45  21  43  1   
@<TRIPOS>SUBSTRUCTURE
  1 ****  12 GROUP 4 **** **** 0

# MOE 2024.06 (io_trps.svl 2023.06)
