@<TRIPOS>MOLECULE
NONAME
48 50 1 0 0 
SMALL
USER_CHARGES


@<TRIPOS>ATOM
  1 O       -0.5630    -1.8970    -2.1820 O.3   1 <1>  -0.5600 
  2 C        0.0010    -2.1440    -0.9320 C.3   1 <1>   0.2800 
  3 C       -1.2680    -0.7000    -2.3580 C.3   1 <1>   0.1200 
  4 C       -1.1180    -2.1070     0.1400 C.3   1 <1>  -0.1600 
  5 C        1.1770    -1.1730    -0.7080 C.3   1 <1>  -0.1600 
  6 C        0.5840    -3.5600    -1.0300 C.3   1 <1>  -0.1600 
  7 C       -2.4590    -0.6490    -1.3990 C.3   1 <1>  -0.1600 
  8 C       -2.0330    -0.8840     0.0520 C.3   1 <1>   0.2800 
  9 C        1.9540    -1.5250     0.5530 C.3   1 <1>   0.3430 
 10 C        1.3730    -3.9330     0.2220 C.3   1 <1>   0.3430 
 11 O       -1.3280     0.2100     0.4940 O.3   1 <1>  -0.6800 
 12 C       -3.2400    -1.0130     0.9790 C.3   1 <1>  -0.2400 
 13 N        2.4430    -2.9290     0.4630 N.4   1 <1>  -0.9590 
 14 C        3.3340    -3.2820     1.6080 C.3   1 <1>   0.4860 
 15 C        4.7050    -2.6510     1.3830 C.ar  1 <1>   0.1670 
 16 N        5.1370    -2.6300     0.1250 N.ar  1 <1>  -0.6200 
 17 C        5.4160    -2.1370     2.4570 C.ar  1 <1>  -0.1500 
 18 C        6.3280    -2.0860    -0.0710 C.ar  1 <1>   0.1670 
 19 C        6.6510    -1.5690     2.2400 C.ar  1 <1>  -0.1500 
 20 C        7.1090    -1.5490     0.9410 C.ar  1 <1>  -0.1500 
 21 C        6.8260    -2.0700    -1.5010 C.3   1 <1>  -0.0970 
 22 H       -1.6130    -0.6750    -3.3780 H     1 <1>   0.0800 
 23 H       -0.6060     0.1340    -2.2060 H     1 <1>   0.0800 
 24 H       -0.7160    -2.1760     1.1330 H     1 <1>   0.0800 
 25 H       -1.7360    -2.9740    -0.0050 H     1 <1>   0.0800 
 26 H        0.8430    -0.1600    -0.6130 H     1 <1>   0.0800 
 27 H        1.8440    -1.2110    -1.5510 H     1 <1>   0.0800 
 28 H        1.2340    -3.6250    -1.8850 H     1 <1>   0.0800 
 29 H       -0.2090    -4.2720    -1.1730 H     1 <1>   0.0800 
 30 H       -3.1490    -1.4190    -1.6950 H     1 <1>   0.0800 
 31 H       -2.9700     0.2920    -1.4950 H     1 <1>   0.0800 
 32 H        1.3150    -1.4050     1.4130 H     1 <1>   0.0800 
 33 H        2.7910    -0.8510     0.6540 H     1 <1>   0.0800 
 34 H        1.8080    -4.9110     0.0900 H     1 <1>   0.0800 
 35 H        0.7070    -3.9680     1.0680 H     1 <1>   0.0800 
 36 H       -1.9240     0.9830     0.5250 H     1 <1>   0.4000 
 37 H       -3.8300    -1.8680     0.7000 H     1 <1>   0.0800 
 38 H       -3.8680    -0.1420     0.9120 H     1 <1>   0.0800 
 39 H       -2.9220    -1.1430     1.9980 H     1 <1>   0.0800 
 40 H        3.1070    -2.9450    -0.3350 H     1 <1>   0.4500 
 41 H        3.4640    -4.3500     1.6500 H     1 <1>   0.0800 
 42 H        2.9100    -2.9460     2.5390 H     1 <1>   0.0800 
 43 H        5.0210    -2.1760     3.4580 H     1 <1>   0.1500 
 44 H        7.2370    -1.1590     3.0460 H     1 <1>   0.1500 
 45 H        8.0700    -1.1200     0.7180 H     1 <1>   0.1500 
 46 H        6.1440    -1.5130    -2.1170 H     1 <1>   0.0800 
 47 H        6.8860    -3.0770    -1.8730 H     1 <1>   0.0800 
 48 H        7.7990    -1.6200    -1.5690 H     1 <1>   0.0800 
@<TRIPOS>BOND
  1   1   2  1   
  2   1   3  1   
  3   2   4  1   
  4   2   5  1   
  5   2   6  1   
  6   3   7  1   
  7   3  22  1   
  8   3  23  1   
  9   4   8  1   
 10   4  24  1   
 11   4  25  1   
 12   5   9  1   
 13   5  26  1   
 14   5  27  1   
 15   6  10  1   
 16   6  28  1   
 17   6  29  1   
 18   7   8  1   
 19   7  30  1   
 20   7  31  1   
 21   8  11  1   
 22   8  12  1   
 23   9  13  1   
 24   9  32  1   
 25   9  33  1   
 26  10  13  1   
 27  10  34  1   
 28  10  35  1   
 29  11  36  1   
 30  12  37  1   
 31  12  38  1   
 32  12  39  1   
 33  13  14  1   
 34  13  40  1   
 35  14  15  1   
 36  14  41  1   
 37  14  42  1   
 38  15  16  ar  
 39  15  17  ar  
 40  16  18  ar  
 41  17  19  ar  
 42  17  43  1   
 43  18  20  ar  
 44  18  21  1   
 45  19  20  ar  
 46  19  44  1   
 47  20  45  1   
 48  21  46  1   
 49  21  47  1   
 50  21  48  1   
@<TRIPOS>SUBSTRUCTURE
  1 ****   9 GROUP 4 **** **** 0

# MOE 2024.06 (io_trps.svl 2023.06)
