@<TRIPOS>MOLECULE
NONAME
49 51 1 0 0 
SMALL
USER_CHARGES


@<TRIPOS>ATOM
  1 CL      -0.5830    -0.7730     1.2910 Cl    1 <1>  -0.1770 
  2 C        0.6740    -1.4900     0.3090 C.ar  1 <1>   0.1770 
  3 C        1.1860    -2.7490     0.6060 C.ar  1 <1>  -0.1440 
  4 C        1.1350    -0.7580    -0.7700 C.ar  1 <1>  -0.1500 
  5 C        2.1890    -3.2560    -0.2100 C.ar  1 <1>  -0.1500 
  6 C        0.6980    -3.5880     1.7880 C.3   1 <1>   0.0450 
  7 C        2.1290    -1.2810    -1.5770 C.ar  1 <1>  -0.1500 
  8 C        2.6550    -2.5300    -1.2930 C.ar  1 <1>  -0.1500 
  9 C        0.2770    -4.9940     1.3730 C.2   1 <1>   0.5690 
 10 O        0.9150    -5.9180     1.8180 O.2   1 <1>  -0.5700 
 11 N       -0.7890    -5.2250     0.5340 N.am  1 <1>  -0.6600 
 12 C       -1.0770    -6.5980     0.0310 C.3   1 <1>   0.1400 
 13 C       -1.7570    -4.1910     0.0700 C.3   1 <1>   0.1400 
 14 C       -2.4970    -7.0320     0.4560 C.3   1 <1>   0.4230 
 15 C       -3.1670    -4.6070     0.5070 C.3   1 <1>  -0.1600 
 16 N       -2.8230    -8.4830     0.1210 N.4   1 <1>  -0.9590 
 17 C       -3.5860    -6.0160    -0.0020 C.3   1 <1>   0.0000 
 18 C       -4.2880    -8.8020     0.1360 C.3   1 <1>   0.3430 
 19 C       -2.2000    -9.0110    -1.1380 C.3   1 <1>   0.2630 
 20 C       -4.9490    -6.3960     0.6510 C.3   1 <1>  -0.1600 
 21 C       -3.7060    -6.0180    -1.5530 C.3   1 <1>   0.1200 
 22 C       -5.0420    -7.8720     1.0850 C.3   1 <1>  -0.1600 
 23 O       -4.5050    -4.9830    -2.0070 O.3   1 <1>  -0.6800 
 24 H        0.7180     0.2120    -0.9740 H     1 <1>   0.1500 
 25 H        2.6170    -4.2240    -0.0050 H     1 <1>   0.1500 
 26 H       -0.1220    -3.1290     2.3030 H     1 <1>   0.0800 
 27 H        1.5020    -3.6690     2.4960 H     1 <1>   0.0800 
 28 H        2.4940    -0.7200    -2.4200 H     1 <1>   0.1500 
 29 H        3.4320    -2.9390    -1.9170 H     1 <1>   0.1500 
 30 H       -0.9740    -6.5910    -1.0380 H     1 <1>   0.0800 
 31 H       -0.3630    -7.2980     0.4290 H     1 <1>   0.0800 
 32 H       -1.5330    -3.2300     0.4920 H     1 <1>   0.0800 
 33 H       -1.7020    -4.0960    -1.0020 H     1 <1>   0.0800 
 34 H       -2.4920    -6.9680     1.5320 H     1 <1>   0.0800 
 35 H       -3.1880    -4.5820     1.5830 H     1 <1>   0.0800 
 36 H       -3.8650    -3.8590     0.1710 H     1 <1>   0.0800 
 37 H       -2.4110    -9.0210     0.8990 H     1 <1>   0.4500 
 38 H       -4.6980    -8.6820    -0.8540 H     1 <1>   0.0800 
 39 H       -4.4380    -9.8280     0.4340 H     1 <1>   0.0800 
 40 H       -2.5520    -8.4600    -1.9940 H     1 <1>   0.0800 
 41 H       -2.4510   -10.0510    -1.2720 H     1 <1>   0.0800 
 42 H       -1.1250    -8.9290    -1.0920 H     1 <1>   0.0800 
 43 H       -5.1320    -5.7930     1.5250 H     1 <1>   0.0800 
 44 H       -5.7550    -6.1820    -0.0290 H     1 <1>   0.0800 
 45 H       -4.1340    -6.9350    -1.9160 H     1 <1>   0.0800 
 46 H       -2.7470    -5.8840    -2.0210 H     1 <1>   0.0800 
 47 H       -6.0780    -8.1640     1.1190 H     1 <1>   0.0800 
 48 H       -4.6500    -7.9920     2.0810 H     1 <1>   0.0800 
 49 H       -5.4260    -5.0540    -1.6860 H     1 <1>   0.4000 
@<TRIPOS>BOND
  1   1   2  1   
  2   2   3  ar  
  3   2   4  ar  
  4   3   5  ar  
  5   3   6  1   
  6   4   7  ar  
  7   4  24  1   
  8   5   8  ar  
  9   5  25  1   
 10   6   9  1   
 11   6  26  1   
 12   6  27  1   
 13   7   8  ar  
 14   7  28  1   
 15   8  29  1   
 16   9  10  2   
 17   9  11  am  
 18  11  12  1   
 19  11  13  1   
 20  12  14  1   
 21  12  30  1   
 22  12  31  1   
 23  13  15  1   
 24  13  32  1   
 25  13  33  1   
 26  14  16  1   
 27  14  17  1   
 28  14  34  1   
 29  15  17  1   
 30  15  35  1   
 31  15  36  1   
 32  16  18  1   
 33  16  19  1   
 34  16  37  1   
 35  17  20  1   
 36  17  21  1   
 37  18  22  1   
 38  18  38  1   
 39  18  39  1   
 40  19  40  1   
 41  19  41  1   
 42  19  42  1   
 43  20  22  1   
 44  20  43  1   
 45  20  44  1   
 46  21  23  1   
 47  21  45  1   
 48  21  46  1   
 49  22  47  1   
 50  22  48  1   
 51  23  49  1   
@<TRIPOS>SUBSTRUCTURE
  1 ****  11 GROUP 4 **** **** 0

# MOE 2024.06 (io_trps.svl 2023.06)
