@<TRIPOS>MOLECULE
NONAME
49 51 1 0 0 
SMALL
USER_CHARGES


@<TRIPOS>ATOM
  1 O        0.5380     0.7060     1.3300 O.2   1 <1>  -0.5700 
  2 C        0.1710     1.5980     0.5910 C.2   1 <1>   0.5440 
  3 N       -1.1690     1.7180     0.3590 N.am  1 <1>  -0.7300 
  4 C        1.1250     2.4830    -0.0560 C.ar  1 <1>   0.0860 
  5 C       -2.2380     0.9370     1.0340 C.3   1 <1>   0.2200 
  6 C        0.7850     3.7810    -0.4420 C.ar  1 <1>  -0.1500 
  7 C        2.4290     2.0590    -0.3180 C.ar  1 <1>  -0.1500 
  8 C       -2.3930    -0.4710     0.4170 C.3   1 <1>   0.2000 
  9 C       -3.5420     1.7340     0.9430 C.3   1 <1>  -0.1600 
 10 C        1.6980     4.6100    -1.0710 C.ar  1 <1>  -0.1500 
 11 C        3.3460     2.8830    -0.9450 C.ar  1 <1>  -0.1500 
 12 O       -1.2580    -1.2280     0.6720 O.3   1 <1>  -0.6800 
 13 C       -3.6030    -1.2200     0.9890 C.3   1 <1>   0.1400 
 14 C       -4.6980     0.9630     1.5820 C.3   1 <1>   0.1400 
 15 C        2.9800     4.1610    -1.3250 C.ar  1 <1>  -0.1500 
 16 N       -4.8320    -0.3680     0.9280 N.am  1 <1>  -0.6600 
 17 C       -5.9830    -0.7340     0.2510 C.2   1 <1>   0.7150 
 18 O       -6.7350     0.1540    -0.1120 O.2   1 <1>  -0.5700 
 19 C       -6.3150    -2.1140    -0.0440 C.2   1 <1>   0.0550 
 20 O       -5.9450    -3.0940     0.7730 O.3   1 <1>  -0.2800 
 21 C       -7.0070    -2.6540    -1.0700 C.2   1 <1>   0.0460 
 22 C       -6.4320    -4.1600     0.1720 C.2   1 <1>   0.2980 
 23 N       -7.0710    -3.9710    -0.9230 N.2   1 <1>  -0.5650 
 24 C       -7.6630    -2.0060    -2.2720 C.3   1 <1>  -0.0590 
 25 C       -6.1800    -5.5010     0.8460 C.3   1 <1>   0.0200 
 26 C       -6.7380    -6.7030     0.0700 C.3   1 <1>  -0.2400 
 27 H       -1.4830     2.3220    -0.4020 H     1 <1>   0.3700 
 28 H       -1.9830     0.8220     2.0760 H     1 <1>   0.0800 
 29 H       -0.2020     4.1560    -0.2420 H     1 <1>   0.1500 
 30 H        2.7240     1.0670    -0.0220 H     1 <1>   0.1500 
 31 H       -2.5000    -0.3900    -0.6500 H     1 <1>   0.0800 
 32 H       -3.4270     2.6720     1.4540 H     1 <1>   0.0800 
 33 H       -3.7910     1.9300    -0.0850 H     1 <1>   0.0800 
 34 H        1.4130     5.6070    -1.3610 H     1 <1>   0.1500 
 35 H        4.3450     2.5290    -1.1360 H     1 <1>   0.1500 
 36 H       -0.4980    -0.6160     0.8650 H     1 <1>   0.4000 
 37 H       -3.4140    -1.4820     2.0160 H     1 <1>   0.0800 
 38 H       -3.7320    -2.1230     0.4210 H     1 <1>   0.0800 
 39 H       -5.6100     1.5300     1.4870 H     1 <1>   0.0800 
 40 H       -4.5100     0.8190     2.6320 H     1 <1>   0.0800 
 41 H        3.6930     4.8030    -1.8140 H     1 <1>   0.1500 
 42 H       -7.4830    -0.9470    -2.2920 H     1 <1>   0.0800 
 43 H       -8.7230    -2.1760    -2.2370 H     1 <1>   0.0800 
 44 H       -7.2720    -2.4410    -3.1740 H     1 <1>   0.0800 
 45 H       -5.1190    -5.6210     0.9670 H     1 <1>   0.0800 
 46 H       -6.6250    -5.4740     1.8240 H     1 <1>   0.0800 
 47 H       -6.2920    -6.7520    -0.9080 H     1 <1>   0.0800 
 48 H       -7.8030    -6.6060    -0.0450 H     1 <1>   0.0800 
 49 H       -6.5260    -7.6170     0.5950 H     1 <1>   0.0800 
@<TRIPOS>BOND
  1   1   2  2   
  2   2   3  am  
  3   2   4  1   
  4   3   5  1   
  5   3  27  1   
  6   4   6  ar  
  7   4   7  ar  
  8   5   8  1   
  9   5   9  1   
 10   5  28  1   
 11   6  10  ar  
 12   6  29  1   
 13   7  11  ar  
 14   7  30  1   
 15   8  12  1   
 16   8  13  1   
 17   8  31  1   
 18   9  14  1   
 19   9  32  1   
 20   9  33  1   
 21  10  15  ar  
 22  10  34  1   
 23  11  15  ar  
 24  11  35  1   
 25  12  36  1   
 26  13  16  1   
 27  13  37  1   
 28  13  38  1   
 29  14  16  1   
 30  14  39  1   
 31  14  40  1   
 32  15  41  1   
 33  16  17  am  
 34  17  18  2   
 35  17  19  1   
 36  19  20  1   
 37  19  21  2   
 38  20  22  1   
 39  21  23  1   
 40  21  24  1   
 41  22  23  2   
 42  22  25  1   
 43  24  42  1   
 44  24  43  1   
 45  24  44  1   
 46  25  26  1   
 47  25  45  1   
 48  25  46  1   
 49  26  47  1   
 50  26  48  1   
 51  26  49  1   
@<TRIPOS>SUBSTRUCTURE
  1 ****   8 GROUP 4 **** **** 0

# MOE 2024.06 (io_trps.svl 2023.06)
