@<TRIPOS>MOLECULE
NONAME
54 57 1 0 0 
SMALL
USER_CHARGES


@<TRIPOS>ATOM
  1 O       -0.3050    -0.3420    -0.4750 O.3   1 <1>  -0.3630 
  2 C       -0.5600    -1.6480    -0.1990 C.ar  1 <1>   0.0830 
  3 C       -0.5140     0.5990     0.5560 C.3   1 <1>   0.1200 
  4 C       -1.6080    -2.0760     0.6270 C.ar  1 <1>   0.0830 
  5 C        0.2950    -2.5790    -0.7610 C.ar  1 <1>  -0.1500 
  6 C       -1.9820     1.0300     0.5830 C.3   1 <1>  -0.1600 
  7 O       -2.5430    -1.2440     1.1610 O.3   1 <1>  -0.3630 
  8 C       -1.7450    -3.4220     0.9140 C.ar  1 <1>  -0.1500 
  9 C        0.1420    -3.9340    -0.4860 C.ar  1 <1>   0.0830 
 10 C       -2.9550    -0.1350     0.3910 C.3   1 <1>   0.1200 
 11 C       -0.8780    -4.3530     0.3640 C.ar  1 <1>  -0.1430 
 12 O        0.9490    -4.8950    -1.0180 O.3   1 <1>  -0.3630 
 13 C       -1.0540    -5.8230     0.6840 C.3   1 <1>   0.4860 
 14 C        2.1350    -4.5420    -1.7020 C.3   1 <1>   0.0400 
 15 N       -1.3650    -6.5410    -0.5770 N.4   1 <1>  -0.9590 
 16 C       -2.7040    -6.1360    -1.1070 C.3   1 <1>   0.3430 
 17 C       -1.3970    -8.0180    -0.3700 C.3   1 <1>   0.3430 
 18 C       -3.6680    -7.2380    -0.6580 C.3   1 <1>   0.2000 
 19 C       -2.7980    -8.4890    -0.7760 C.3   1 <1>  -0.0800 
 20 O       -3.9990    -7.0170     0.6770 O.3   1 <1>  -0.6800 
 21 C       -3.2670    -9.7340     0.0030 C.3   1 <1>   0.0200 
 22 C       -2.2080   -10.8180    -0.0570 C.2   1 <1>  -0.0400 
 23 O       -1.6740   -11.1410    -1.2040 O.3   1 <1>  -0.0190 
 24 C       -1.6340   -11.5720     0.8920 C.2   1 <1>  -0.1500 
 25 N       -0.7620   -12.0570    -1.0720 N.2   1 <1>  -0.4100 
 26 C       -0.7220   -12.3450     0.1790 C.2   1 <1>   0.1080 
 27 C        0.1960   -13.3860     0.7830 C.3   1 <1>  -0.0590 
 28 H       -0.2250     0.1490     1.4910 H     1 <1>   0.0800 
 29 H        0.1240     1.4440     0.3660 H     1 <1>   0.0800 
 30 H        1.0730    -2.2120    -1.4030 H     1 <1>   0.1500 
 31 H       -2.1860     1.5120     1.5210 H     1 <1>   0.0800 
 32 H       -2.1520     1.7560    -0.1910 H     1 <1>   0.0800 
 33 H       -2.5450    -3.7230     1.5690 H     1 <1>   0.1500 
 34 H       -3.0000    -0.4360    -0.6420 H     1 <1>   0.0800 
 35 H       -3.9430     0.1430     0.7140 H     1 <1>   0.0800 
 36 H       -1.8510    -5.9580     1.3970 H     1 <1>   0.0800 
 37 H       -0.1390    -6.2010     1.1080 H     1 <1>   0.0800 
 38 H        2.6630    -5.4440    -1.9560 H     1 <1>   0.0800 
 39 H        2.7460    -3.9340    -1.0570 H     1 <1>   0.0800 
 40 H        1.8790    -4.0070    -2.6000 H     1 <1>   0.0800 
 41 H       -0.6150    -6.2540    -1.2290 H     1 <1>   0.4500 
 42 H       -3.0170    -5.1700    -0.7460 H     1 <1>   0.0800 
 43 H       -2.6700    -6.1150    -2.1840 H     1 <1>   0.0800 
 44 H       -0.6440    -8.5150    -0.9610 H     1 <1>   0.0800 
 45 H       -1.2290    -8.2470     0.6700 H     1 <1>   0.0800 
 46 H       -4.5690    -7.2670    -1.2490 H     1 <1>   0.0800 
 47 H       -2.7470    -8.7550    -1.8180 H     1 <1>   0.0800 
 48 H       -4.8460    -7.4550     0.9100 H     1 <1>   0.4000 
 49 H       -4.1780   -10.1100    -0.4280 H     1 <1>   0.0800 
 50 H       -3.4540    -9.5000     1.0360 H     1 <1>   0.0800 
 51 H       -1.8030   -11.6060     1.9530 H     1 <1>   0.1500 
 52 H        0.8230   -12.9350     1.5290 H     1 <1>   0.0800 
 53 H        0.8190   -13.8140     0.0180 H     1 <1>   0.0800 
 54 H       -0.3860   -14.1680     1.2340 H     1 <1>   0.0800 
@<TRIPOS>BOND
  1   1   2  1   
  2   1   3  1   
  3   2   4  ar  
  4   2   5  ar  
  5   3   6  1   
  6   3  28  1   
  7   3  29  1   
  8   4   7  1   
  9   4   8  ar  
 10   5   9  ar  
 11   5  30  1   
 12   6  10  1   
 13   6  31  1   
 14   6  32  1   
 15   7  10  1   
 16   8  11  ar  
 17   8  33  1   
 18   9  11  ar  
 19   9  12  1   
 20  10  34  1   
 21  10  35  1   
 22  11  13  1   
 23  12  14  1   
 24  13  15  1   
 25  13  36  1   
 26  13  37  1   
 27  14  38  1   
 28  14  39  1   
 29  14  40  1   
 30  15  16  1   
 31  15  17  1   
 32  15  41  1   
 33  16  18  1   
 34  16  42  1   
 35  16  43  1   
 36  17  19  1   
 37  17  44  1   
 38  17  45  1   
 39  18  19  1   
 40  18  20  1   
 41  18  46  1   
 42  19  21  1   
 43  19  47  1   
 44  20  48  1   
 45  21  22  1   
 46  21  49  1   
 47  21  50  1   
 48  22  23  1   
 49  22  24  2   
 50  23  25  1   
 51  24  26  1   
 52  24  51  1   
 53  25  26  2   
 54  26  27  1   
 55  27  52  1   
 56  27  53  1   
 57  27  54  1   
@<TRIPOS>SUBSTRUCTURE
  1 ****  13 GROUP 4 **** **** 0

# MOE 2024.06 (io_trps.svl 2023.06)
