@<TRIPOS>MOLECULE
NONAME
56 59 1 0 0 
SMALL
USER_CHARGES


@<TRIPOS>ATOM
  1 O        0.4290     1.2990    -1.7540 O.2   1 <1>  -0.5700 
  2 C        0.4090     2.4120    -1.2700 C.2   1 <1>   0.5690 
  3 N       -0.7530     3.1590    -1.2760 N.am  1 <1>  -0.6600 
  4 C        1.7480     2.9080    -0.6550 C.3   1 <1>   0.3950 
  5 C       -0.8390     4.5460    -0.7200 C.3   1 <1>   0.1400 
  6 C       -2.0400     2.5710    -1.7340 C.3   1 <1>   0.1400 
  7 N        1.7240     3.2780     0.8010 N.3   1 <1>  -0.8100 
  8 C        2.3380     4.0340    -1.5120 C.ar  1 <1>  -0.1440 
  9 C       -2.2850     4.9680    -0.4360 C.3   1 <1>  -0.1600 
 10 C       -3.0400     2.5460    -0.5710 C.3   1 <1>  -0.1600 
 11 C        3.0830     3.3070     1.3820 C.3   1 <1>   0.1100 
 12 C        0.8800     2.3600     1.6010 C.3   1 <1>   0.1100 
 13 C        2.8510     3.7110    -2.7600 C.ar  1 <1>   0.1600 
 14 C        2.3770     5.3580    -1.1110 C.ar  1 <1>  -0.1500 
 15 C       -3.0720     3.8510     0.2560 C.3   1 <1>   0.4180 
 16 C        3.0340     3.6770     2.8750 C.3   1 <1>   0.1200 
 17 C        0.8960     2.7530     3.0870 C.3   1 <1>   0.1200 
 18 N        3.3930     4.5710    -3.6090 N.ar  1 <1>  -0.6200 
 19 C        2.9340     6.2690    -1.9820 C.ar  1 <1>  -0.1500 
 20 O       -2.4290     3.6370     1.4920 O.3   1 <1>  -0.5600 
 21 C       -4.5060     4.3270     0.4870 C.2   1 <1>  -0.2880 
 22 O        2.2090     2.7880     3.5720 O.3   1 <1>  -0.5600 
 23 C        3.4210     5.8280    -3.2000 C.ar  1 <1>   0.1600 
 24 C       -3.1720     3.0140     2.5030 C.3   1 <1>   0.1200 
 25 C       -5.1030     4.3680     1.6800 C.2   1 <1>  -0.2760 
 26 C       -4.3610     3.8900     2.9140 C.3   1 <1>  -0.0220 
 27 C       -6.5120     4.8800     1.9220 C.3   1 <1>  -0.1020 
 28 H        2.4180     2.0710    -0.7440 H     1 <1>   0.0800 
 29 H       -0.3910     5.2360    -1.4140 H     1 <1>   0.0800 
 30 H       -0.2950     4.5970     0.2050 H     1 <1>   0.0800 
 31 H       -1.9010     1.5720    -2.1100 H     1 <1>   0.0800 
 32 H       -2.4250     3.1700    -2.5410 H     1 <1>   0.0800 
 33 H       -2.7640     5.2310    -1.3610 H     1 <1>   0.0800 
 34 H       -2.2900     5.8440     0.1860 H     1 <1>   0.0800 
 35 H       -2.8020     1.7110     0.0600 H     1 <1>   0.0800 
 36 H       -4.0130     2.3610    -0.9870 H     1 <1>   0.0800 
 37 H        3.6900     4.0300     0.8650 H     1 <1>   0.0800 
 38 H        3.5520     2.3430     1.2790 H     1 <1>   0.0800 
 39 H        1.2300     1.3470     1.4980 H     1 <1>   0.0800 
 40 H       -0.1390     2.4000     1.2600 H     1 <1>   0.0800 
 41 H        2.8140     2.6840    -3.0850 H     1 <1>   0.1500 
 42 H        1.9890     5.6710    -0.1560 H     1 <1>   0.1500 
 43 H        2.6520     4.6750     3.0040 H     1 <1>   0.0800 
 44 H        4.0170     3.6200     3.3070 H     1 <1>   0.0800 
 45 H        0.3490     2.0330     3.6680 H     1 <1>   0.0800 
 46 H        0.4490     3.7220     3.2220 H     1 <1>   0.0800 
 47 H        2.9910     7.3100    -1.7230 H     1 <1>   0.1500 
 48 H       -4.9900     4.6410    -0.4200 H     1 <1>   0.1500 
 49 H        3.8550     6.5470    -3.8740 H     1 <1>   0.1500 
 50 H       -2.5180     2.8520     3.3410 H     1 <1>   0.0800 
 51 H       -3.5170     2.0620     2.1410 H     1 <1>   0.0800 
 52 H       -4.0130     4.7350     3.4820 H     1 <1>   0.0800 
 53 H       -5.0130     3.3090     3.5410 H     1 <1>   0.0800 
 54 H       -6.4920     5.7080     2.6080 H     1 <1>   0.0800 
 55 H       -7.1260     4.0990     2.3350 H     1 <1>   0.0800 
 56 H       -6.9560     5.2110     1.0000 H     1 <1>   0.0800 
@<TRIPOS>BOND
  1   1   2  2   
  2   2   3  am  
  3   2   4  1   
  4   3   5  1   
  5   3   6  1   
  6   4   7  1   
  7   4   8  1   
  8   4  28  1   
  9   5   9  1   
 10   5  29  1   
 11   5  30  1   
 12   6  10  1   
 13   6  31  1   
 14   6  32  1   
 15   7  11  1   
 16   7  12  1   
 17   8  13  ar  
 18   8  14  ar  
 19   9  15  1   
 20   9  33  1   
 21   9  34  1   
 22  10  15  1   
 23  10  35  1   
 24  10  36  1   
 25  11  16  1   
 26  11  37  1   
 27  11  38  1   
 28  12  17  1   
 29  12  39  1   
 30  12  40  1   
 31  13  18  ar  
 32  13  41  1   
 33  14  19  ar  
 34  14  42  1   
 35  15  20  1   
 36  15  21  1   
 37  16  22  1   
 38  16  43  1   
 39  16  44  1   
 40  17  22  1   
 41  17  45  1   
 42  17  46  1   
 43  18  23  ar  
 44  19  23  ar  
 45  19  47  1   
 46  20  24  1   
 47  21  25  2   
 48  21  48  1   
 49  23  49  1   
 50  24  26  1   
 51  24  50  1   
 52  24  51  1   
 53  25  26  1   
 54  25  27  1   
 55  26  52  1   
 56  26  53  1   
 57  27  54  1   
 58  27  55  1   
 59  27  56  1   
@<TRIPOS>SUBSTRUCTURE
  1 ****   5 GROUP 4 **** **** 0

# MOE 2024.06 (io_trps.svl 2023.06)
