@<TRIPOS>MOLECULE
NONAME
48 50 1 0 0 
SMALL
USER_CHARGES


@<TRIPOS>ATOM
  1 S        1.0170    -0.3880    -0.6570 S.o2  1 <1>   1.3330 
  2 O        2.3450    -0.6430    -0.1450 O.2   1 <1>  -0.6500 
  3 O        0.5820    -1.0500    -1.8660 O.2   1 <1>  -0.6500 
  4 N       -0.0980    -0.8070     0.5570 N.am  1 <1>  -0.8490 
  5 C        0.7810     1.3870    -0.8420 C.3   1 <1>  -0.0550 
  6 C        0.3280    -1.9860     1.3180 C.3   1 <1>   0.1160 
  7 C       -1.4610    -1.0120     0.0530 C.3   1 <1>   0.1160 
  8 C        1.4740     2.3090     0.1860 C.3   1 <1>  -0.0800 
  9 C        3.0000     2.3180     0.0610 C.3   1 <1>   0.2200 
 10 C        1.2290     2.0070     1.6680 C.3   1 <1>   0.1200 
 11 N        3.4490     3.6560    -0.3780 N.am  1 <1>  -0.7300 
 12 C        3.4720     2.0230     1.4840 C.3   1 <1>   0.1200 
 13 O        2.4060     2.3740     2.3070 O.3   1 <1>  -0.5600 
 14 C        3.4720     4.0890    -1.6620 C.2   1 <1>   0.5690 
 15 O        3.0840     3.3960    -2.5710 O.2   1 <1>  -0.5700 
 16 C        3.9830     5.4920    -1.9620 C.3   1 <1>  -0.0190 
 17 C        5.4260     5.6630    -1.4440 C.3   1 <1>  -0.0170 
 18 C        3.1470     6.5430    -1.2040 C.3   1 <1>  -0.0170 
 19 C        5.2250     6.2780    -0.0810 C.ar  1 <1>  -0.1440 
 20 C        3.9500     6.7710     0.0540 C.ar  1 <1>  -0.1440 
 21 C        6.1310     6.3670     0.9590 C.ar  1 <1>  -0.1500 
 22 C        3.5420     7.3670     1.2320 C.ar  1 <1>  -0.1500 
 23 C        5.7320     6.9630     2.1450 C.ar  1 <1>  -0.1500 
 24 C        4.4440     7.4600     2.2810 C.ar  1 <1>  -0.1500 
 25 H        1.1430     1.6690    -1.8130 H     1 <1>   0.0800 
 26 H       -0.2700     1.5960    -0.8350 H     1 <1>   0.0800 
 27 H       -0.3930    -2.2200     2.0810 H     1 <1>   0.0800 
 28 H        1.2740    -1.7950     1.7980 H     1 <1>   0.0800 
 29 H        0.4400    -2.8340     0.6620 H     1 <1>   0.0800 
 30 H       -2.1370    -1.1780     0.8730 H     1 <1>   0.0800 
 31 H       -1.4950    -1.8640    -0.6070 H     1 <1>   0.0800 
 32 H       -1.7930    -0.1440    -0.4900 H     1 <1>   0.0800 
 33 H        1.1050     3.3050     0.0110 H     1 <1>   0.0800 
 34 H        3.3760     1.5770    -0.6230 H     1 <1>   0.0800 
 35 H        1.0770     0.9630     1.8660 H     1 <1>   0.0800 
 36 H        0.4140     2.5790     2.0770 H     1 <1>   0.0800 
 37 H        3.7080     4.3090     0.3720 H     1 <1>   0.3700 
 38 H        4.3460     2.5820     1.7640 H     1 <1>   0.0800 
 39 H        3.6510     0.9680     1.6090 H     1 <1>   0.0800 
 40 H        3.9350     5.6560    -3.0240 H     1 <1>   0.0800 
 41 H        5.9710     6.3500    -2.0670 H     1 <1>   0.0800 
 42 H        5.9540     4.7260    -1.3910 H     1 <1>   0.0800 
 43 H        2.1500     6.1970    -0.9900 H     1 <1>   0.0800 
 44 H        3.0980     7.4600    -1.7640 H     1 <1>   0.0800 
 45 H        7.1290     5.9810     0.8500 H     1 <1>   0.1500 
 46 H        2.5430     7.7510     1.3360 H     1 <1>   0.1500 
 47 H        6.4250     7.0400     2.9650 H     1 <1>   0.1500 
 48 H        4.1420     7.9200     3.2060 H     1 <1>   0.1500 
@<TRIPOS>BOND
  1   1   2  2   
  2   1   3  2   
  3   1   4  am  
  4   1   5  1   
  5   4   6  1   
  6   4   7  1   
  7   5   8  1   
  8   5  25  1   
  9   5  26  1   
 10   6  27  1   
 11   6  28  1   
 12   6  29  1   
 13   7  30  1   
 14   7  31  1   
 15   7  32  1   
 16   8   9  1   
 17   8  10  1   
 18   8  33  1   
 19   9  11  1   
 20   9  12  1   
 21   9  34  1   
 22  10  13  1   
 23  10  35  1   
 24  10  36  1   
 25  11  14  am  
 26  11  37  1   
 27  12  13  1   
 28  12  38  1   
 29  12  39  1   
 30  14  15  2   
 31  14  16  1   
 32  16  17  1   
 33  16  18  1   
 34  16  40  1   
 35  17  19  1   
 36  17  41  1   
 37  17  42  1   
 38  18  20  1   
 39  18  43  1   
 40  18  44  1   
 41  19  20  ar  
 42  19  21  ar  
 43  20  22  ar  
 44  21  23  ar  
 45  21  45  1   
 46  22  24  ar  
 47  22  46  1   
 48  23  24  ar  
 49  23  47  1   
 50  24  48  1   
@<TRIPOS>SUBSTRUCTURE
  1 ****   9 GROUP 4 **** **** 0

# MOE 2024.06 (io_trps.svl 2023.06)
