@<TRIPOS>MOLECULE
NONAME
49 52 1 0 0 
SMALL
USER_CHARGES


@<TRIPOS>ATOM
  1 CL      -2.4200     1.0200     2.3490 Cl    1 <1>  -0.1770 
  2 C       -3.0710    -0.4730     1.7290 C.ar  1 <1>   0.1770 
  3 C       -2.8230    -0.8300     0.4180 C.ar  1 <1>  -0.1500 
  4 C       -3.8260    -1.2820     2.5570 C.ar  1 <1>  -0.1500 
  5 C       -3.3470    -2.0150    -0.0710 C.ar  1 <1>  -0.1500 
  6 C       -4.3430    -2.4640     2.0580 C.ar  1 <1>  -0.1500 
  7 C       -4.1250    -2.8510     0.7320 C.ar  1 <1>   0.0860 
  8 C       -4.6800    -4.0800     0.1970 C.2   1 <1>   0.5440 
  9 O       -3.9390    -4.8610    -0.3690 O.2   1 <1>  -0.5700 
 10 N       -6.0250    -4.3780     0.2890 N.am  1 <1>  -0.6600 
 11 C       -7.0870    -3.3590     0.5720 C.3   1 <1>   0.1400 
 12 C       -6.5630    -5.7180    -0.0850 C.3   1 <1>   0.1400 
 13 C       -8.0220    -3.1850    -0.6390 C.3   1 <1>   0.1440 
 14 C       -7.4950    -5.5900    -1.2960 C.3   1 <1>  -0.1600 
 15 C       -9.0960    -2.1830    -0.2620 C.ar  1 <1>   0.1670 
 16 C       -8.6070    -4.5540    -1.0520 C.3   1 <1>  -0.1600 
 17 C       -7.3060    -2.4780    -1.8220 C.3   1 <1>  -0.1600 
 18 N      -10.0920    -2.4120     0.5560 N.ar  1 <1>  -0.6200 
 19 C       -8.8910    -0.9780    -0.8640 C.ar  1 <1>  -0.1430 
 20 C       -7.6590    -0.9830    -1.7340 C.3   1 <1>  -0.0170 
 21 C      -10.9150    -1.3790     0.7560 C.ar  1 <1>   0.7200 
 22 C       -9.7870     0.0260    -0.5990 C.ar  1 <1>   0.1600 
 23 N      -10.8030    -0.1640     0.2090 N.ar  1 <1>  -0.6200 
 24 N      -11.9800    -1.5860     1.6110 N.pl3 1 <1>  -0.8380 
 25 C      -12.7970    -0.4600     2.1420 C.3   1 <1>   0.1290 
 26 C      -12.4250    -2.9510     2.0060 C.3   1 <1>   0.1290 
 27 H       -2.2250    -0.1900    -0.2070 H     1 <1>   0.1500 
 28 H       -4.0000    -0.9870     3.5760 H     1 <1>   0.1500 
 29 H       -3.1520    -2.3100    -1.0880 H     1 <1>   0.1500 
 30 H       -4.9260    -3.1050     2.6980 H     1 <1>   0.1500 
 31 H       -6.6570    -2.4060     0.8170 H     1 <1>   0.0800 
 32 H       -7.6650    -3.6870     1.4190 H     1 <1>   0.0800 
 33 H       -7.1080    -6.1180     0.7530 H     1 <1>   0.0800 
 34 H       -5.7620    -6.4010    -0.3130 H     1 <1>   0.0800 
 35 H       -7.9360    -6.5490    -1.5020 H     1 <1>   0.0800 
 36 H       -6.9080    -5.3120    -2.1540 H     1 <1>   0.0800 
 37 H       -9.2160    -4.4470    -1.9320 H     1 <1>   0.0800 
 38 H       -9.2440    -4.9110    -0.2620 H     1 <1>   0.0800 
 39 H       -7.6940    -2.8550    -2.7520 H     1 <1>   0.0800 
 40 H       -6.2420    -2.6360    -1.8170 H     1 <1>   0.0800 
 41 H       -7.8550    -0.5640    -2.7060 H     1 <1>   0.0800 
 42 H       -6.8710    -0.4330    -1.2480 H     1 <1>   0.0800 
 43 H       -9.6700     0.9950    -1.0530 H     1 <1>   0.1500 
 44 H      -12.1990     0.4310     2.2300 H     1 <1>   0.0800 
 45 H      -13.1800    -0.7080     3.1160 H     1 <1>   0.0800 
 46 H      -13.6170    -0.2660     1.4740 H     1 <1>   0.0800 
 47 H      -12.1570    -3.6700     1.2520 H     1 <1>   0.0800 
 48 H      -13.4940    -2.9710     2.1260 H     1 <1>   0.0800 
 49 H      -11.9570    -3.2270     2.9350 H     1 <1>   0.0800 
@<TRIPOS>BOND
  1   1   2  1   
  2   2   3  ar  
  3   2   4  ar  
  4   3   5  ar  
  5   3  27  1   
  6   4   6  ar  
  7   4  28  1   
  8   5   7  ar  
  9   5  29  1   
 10   6   7  ar  
 11   6  30  1   
 12   7   8  1   
 13   8   9  2   
 14   8  10  am  
 15  10  11  1   
 16  10  12  1   
 17  11  13  1   
 18  11  31  1   
 19  11  32  1   
 20  12  14  1   
 21  12  33  1   
 22  12  34  1   
 23  13  15  1   
 24  13  16  1   
 25  13  17  1   
 26  14  16  1   
 27  14  35  1   
 28  14  36  1   
 29  15  18  ar  
 30  15  19  ar  
 31  16  37  1   
 32  16  38  1   
 33  17  20  1   
 34  17  39  1   
 35  17  40  1   
 36  18  21  ar  
 37  19  20  1   
 38  19  22  ar  
 39  20  41  1   
 40  20  42  1   
 41  21  23  ar  
 42  21  24  1   
 43  22  23  ar  
 44  22  43  1   
 45  24  25  1   
 46  24  26  1   
 47  25  44  1   
 48  25  45  1   
 49  25  46  1   
 50  26  47  1   
 51  26  48  1   
 52  26  49  1   
@<TRIPOS>SUBSTRUCTURE
  1 ****  11 GROUP 4 **** **** 0

# MOE 2024.06 (io_trps.svl 2023.06)
