@<TRIPOS>MOLECULE
NONAME
42 44 1 0 0 
SMALL
USER_CHARGES


@<TRIPOS>ATOM
  1 O       -0.4090     1.3670    -1.4460 O.2   1 <1>  -0.5700 
  2 C       -0.6380     2.5170    -1.1490 C.2   1 <1>   0.5690 
  3 N       -1.2840     2.8930    -0.0030 N.am  1 <1>  -0.5090 
  4 C       -0.1740     3.6190    -2.0920 C.3   1 <1>   0.1810 
  5 C       -1.5370     4.3430     0.2830 C.3   1 <1>   0.3640 
  6 C       -1.5770     1.9380     1.0930 C.3   1 <1>   0.0490 
  7 O        0.3300     4.7060    -1.3620 O.3   1 <1>  -0.5600 
  8 C       -2.9970     4.7070    -0.0110 C.ar  1 <1>  -0.1440 
  9 C       -0.6080     5.3290    -0.4890 C.3   1 <1>   0.2610 
 10 C       -2.4500     0.7590     0.7990 C.3   1 <1>  -0.2000 
 11 C       -2.9520     1.8540     1.6830 C.3   1 <1>  -0.2000 
 12 C       -3.6120     5.6820     0.7630 C.ar  1 <1>  -0.1500 
 13 C       -3.7260     4.1080    -1.0330 C.ar  1 <1>  -0.1500 
 14 C        0.1150     6.2330     0.5160 C.2   1 <1>   0.5690 
 15 C       -4.9240     6.0540     0.5280 C.ar  1 <1>  -0.1500 
 16 C       -5.0380     4.4780    -1.2700 C.ar  1 <1>  -0.1500 
 17 O       -0.5400     6.8810     1.2990 O.2   1 <1>  -0.5700 
 18 N        1.4750     6.2810     0.5100 N.am  1 <1>  -0.7300 
 19 C       -5.6470     5.4510    -0.4960 C.ar  1 <1>   0.0830 
 20 C        2.3320     7.0990     1.4030 C.3   1 <1>   0.0600 
 21 O       -6.9340     5.7560    -0.7960 O.3   1 <1>  -0.3630 
 22 C       -7.6430     6.7340    -0.0690 C.3   1 <1>   0.0400 
 23 H       -0.9890     3.9560    -2.7070 H     1 <1>   0.0800 
 24 H        0.6150     3.2480    -2.7200 H     1 <1>   0.0800 
 25 H       -1.3770     4.4860     1.3380 H     1 <1>   0.0800 
 26 H       -0.7290     1.7840     1.7390 H     1 <1>   0.1000 
 27 H       -1.2160     5.9710    -1.1000 H     1 <1>   0.0800 
 28 H       -2.8550     0.6580    -0.1930 H     1 <1>   0.1000 
 29 H       -2.1980    -0.1880     1.2420 H     1 <1>   0.1000 
 30 H       -3.0540     1.6460     2.7330 H     1 <1>   0.1000 
 31 H       -3.7530     2.4650     1.3070 H     1 <1>   0.1000 
 32 H       -3.0710     6.1650     1.5600 H     1 <1>   0.1500 
 33 H       -3.2910     3.3430    -1.6500 H     1 <1>   0.1500 
 34 H       -5.3630     6.8120     1.1490 H     1 <1>   0.1500 
 35 H       -5.6010     4.0120    -2.0580 H     1 <1>   0.1500 
 36 H        1.9490     5.7130    -0.2020 H     1 <1>   0.3700 
 37 H        1.7240     7.6560     2.0960 H     1 <1>   0.0800 
 38 H        2.9130     7.7890     0.8170 H     1 <1>   0.0800 
 39 H        2.9940     6.4580     1.9590 H     1 <1>   0.0800 
 40 H       -8.6330     6.8050    -0.4820 H     1 <1>   0.0800 
 41 H       -7.1370     7.6780    -0.1680 H     1 <1>   0.0800 
 42 H       -7.6980     6.4320     0.9620 H     1 <1>   0.0800 
@<TRIPOS>BOND
  1   1   2  2   
  2   2   3  am  
  3   2   4  1   
  4   3   5  1   
  5   3   6  1   
  6   4   7  1   
  7   4  23  1   
  8   4  24  1   
  9   5   8  1   
 10   5   9  1   
 11   5  25  1   
 12   6  10  1   
 13   6  11  1   
 14   6  26  1   
 15   7   9  1   
 16   8  12  ar  
 17   8  13  ar  
 18   9  14  1   
 19   9  27  1   
 20  10  11  1   
 21  10  28  1   
 22  10  29  1   
 23  11  30  1   
 24  11  31  1   
 25  12  15  ar  
 26  12  32  1   
 27  13  16  ar  
 28  13  33  1   
 29  14  17  2   
 30  14  18  am  
 31  15  19  ar  
 32  15  34  1   
 33  16  19  ar  
 34  16  35  1   
 35  18  20  1   
 36  18  36  1   
 37  19  21  1   
 38  20  37  1   
 39  20  38  1   
 40  20  39  1   
 41  21  22  1   
 42  22  40  1   
 43  22  41  1   
 44  22  42  1   
@<TRIPOS>SUBSTRUCTURE
  1 ****   5 GROUP 4 **** **** 0

# MOE 2024.06 (io_trps.svl 2023.06)
