@<TRIPOS>MOLECULE
NONAME
51 53 1 0 0 
SMALL
USER_CHARGES


@<TRIPOS>ATOM
  1 O        0.7260    -0.0100    -2.0610 O.2   1 <1>  -0.5700 
  2 C        1.5110    -0.6490    -1.3960 C.2   1 <1>   0.9370 
  3 N        2.5140     0.0230    -0.6810 N.pl3 1 <1>  -0.5760 
  4 C        1.4380    -2.0570    -1.3270 C.2   1 <1>  -0.1360 
  5 C        3.3920    -0.6900     0.0720 C.cat 1 <1>   0.7390 
  6 C        2.6170     1.3930    -0.7310 C.2   1 <1>   0.1910 
  7 C        2.3150    -2.7520    -0.5780 C.2   1 <1>   0.2030 
  8 N        3.2780    -2.0400     0.1060 N.pl3 1 <1>  -0.6450 
  9 C        4.4030    -0.0240     0.8010 C.2   1 <1>  -0.1680 
 10 C        3.5850     2.0560    -0.0350 C.2   1 <1>  -0.1500 
 11 C        2.3060    -4.2790    -0.4560 C.3   1 <1>   0.2480 
 12 C        4.4980     1.3430     0.7470 C.2   1 <1>  -0.1500 
 13 C        5.4060    -0.7960     1.6600 C.3   1 <1>  -0.1020 
 14 N        0.9710    -4.8400    -0.7230 N.3   1 <1>  -0.8100 
 15 C        1.0500    -6.3030    -1.0660 C.3   1 <1>   0.1100 
 16 C        0.0650    -4.5730     0.4280 C.3   1 <1>   0.1100 
 17 C        0.3950    -7.2350     0.0550 C.3   1 <1>  -0.1060 
 18 C       -1.2770    -5.2870     0.2650 C.3   1 <1>  -0.1600 
 19 C       -0.2450    -8.0770     1.1860 C.2   1 <1>   0.9060 
 20 C       -1.0570    -6.6580    -0.3680 C.3   1 <1>   0.2000 
 21 C        1.8330    -7.8470     0.4370 C.3   1 <1>  -0.1600 
 22 O       -0.7200    -9.1990     0.9420 O.co2 1 <1>  -0.9000 
 23 O       -0.2830    -7.5960     2.3280 O.co2 1 <1>  -0.9000 
 24 O       -2.2160    -7.4180    -0.1800 O.3   1 <1>  -0.6800 
 25 C        2.2460    -8.9990    -0.5040 C.3   1 <1>  -0.1600 
 26 C        3.6620    -9.4890    -0.1920 C.3   1 <1>  -0.2400 
 27 H        0.6560    -2.5280    -1.8950 H     1 <1>   0.1500 
 28 H        1.9130     1.9490    -1.3350 H     1 <1>   0.1500 
 29 H        3.9460    -2.5430     0.6960 H     1 <1>   0.4500 
 30 H        3.6580     3.1310    -0.0800 H     1 <1>   0.1500 
 31 H        2.6250    -4.5830     0.5270 H     1 <1>   0.0800 
 32 H        3.0130    -4.6660    -1.1700 H     1 <1>   0.0800 
 33 H        5.2550     1.8890     1.2890 H     1 <1>   0.1500 
 34 H        5.9730    -1.4820     1.0560 H     1 <1>   0.0800 
 35 H        4.8990    -1.3380     2.4390 H     1 <1>   0.0800 
 36 H        6.1030    -0.1240     2.1310 H     1 <1>   0.0800 
 37 H        0.5990    -6.4560    -2.0320 H     1 <1>   0.0800 
 38 H        2.0700    -6.5250    -1.3280 H     1 <1>   0.0800 
 39 H        0.5210    -4.9370     1.3360 H     1 <1>   0.0800 
 40 H       -0.1090    -3.5180     0.5440 H     1 <1>   0.0800 
 41 H       -1.9360    -4.7060    -0.3520 H     1 <1>   0.0800 
 42 H       -1.7230    -5.4030     1.2380 H     1 <1>   0.0800 
 43 H       -1.1410    -6.4910    -1.4260 H     1 <1>   0.0800 
 44 H        2.6070    -7.1000     0.4810 H     1 <1>   0.0800 
 45 H        1.9150    -8.2560     1.4370 H     1 <1>   0.0800 
 46 H       -1.9430    -8.2610     0.2940 H     1 <1>   0.4000 
 47 H        1.5540    -9.8160    -0.3710 H     1 <1>   0.0800 
 48 H        2.1950    -8.7050    -1.5370 H     1 <1>   0.0800 
 49 H        3.7180    -9.8350     0.8250 H     1 <1>   0.0800 
 50 H        4.3780    -8.6990    -0.3330 H     1 <1>   0.0800 
 51 H        3.9170   -10.3060    -0.8430 H     1 <1>   0.0800 
@<TRIPOS>BOND
  1   1   2  2   
  2   2   3  1   
  3   2   4  1   
  4   3   5  ar  
  5   3   6  1   
  6   4   7  2   
  7   4  27  1   
  8   5   8  ar  
  9   5   9  1   
 10   6  10  2   
 11   6  28  1   
 12   7   8  1   
 13   7  11  1   
 14   8  29  1   
 15   9  12  2   
 16   9  13  1   
 17  10  12  1   
 18  10  30  1   
 19  11  14  1   
 20  11  31  1   
 21  11  32  1   
 22  12  33  1   
 23  13  34  1   
 24  13  35  1   
 25  13  36  1   
 26  14  15  1   
 27  14  16  1   
 28  15  17  1   
 29  15  37  1   
 30  15  38  1   
 31  16  18  1   
 32  16  39  1   
 33  16  40  1   
 34  17  19  1   
 35  17  20  1   
 36  17  21  1   
 37  18  20  1   
 38  18  41  1   
 39  18  42  1   
 40  19  22  ar  
 41  19  23  ar  
 42  20  24  1   
 43  20  43  1   
 44  21  25  1   
 45  21  44  1   
 46  21  45  1   
 47  24  46  1   
 48  25  26  1   
 49  25  47  1   
 50  25  48  1   
 51  26  49  1   
 52  26  50  1   
 53  26  51  1   
@<TRIPOS>SUBSTRUCTURE
  1 ****  11 GROUP 4 **** **** 0

# MOE 2024.06 (io_trps.svl 2023.06)
