@<TRIPOS>MOLECULE
NONAME
58 60 1 0 0 
SMALL
USER_CHARGES


@<TRIPOS>ATOM
  1 O       -0.3110     0.5780     1.3020 O.2   1 <1>  -0.5700 
  2 C       -1.1910     1.3600     1.0260 C.2   1 <1>   0.5690 
  3 N       -2.4850     0.9430     0.8030 N.am  1 <1>  -0.6600 
  4 C       -0.7860     2.8200     0.9370 C.3   1 <1>  -0.0990 
  5 C       -3.5810     1.8510     0.3420 C.3   1 <1>   0.2200 
  6 C       -2.8220    -0.4990     1.0300 C.3   1 <1>   0.0600 
  7 C       -0.3370     3.1850    -0.4830 C.3   1 <1>  -0.0160 
  8 C       -4.5530     2.1980     1.4670 C.3   1 <1>  -0.1600 
  9 C       -4.4630     1.2810    -0.7710 C.3   1 <1>  -0.1600 
 10 C       -0.0490     4.6740    -0.5850 C.ar  1 <1>  -0.1440 
 11 C       -5.8330     2.6480     0.7490 C.3   1 <1>  -0.0800 
 12 C       -5.7660     2.0880    -0.6760 C.3   1 <1>  -0.0800 
 13 C        1.1650     5.1810    -0.1450 C.ar  1 <1>  -0.1500 
 14 C       -0.9940     5.5390    -1.1140 C.ar  1 <1>  -0.1500 
 15 C       -7.1430     2.1130     1.3470 C.3   1 <1>  -0.1600 
 16 C       -7.0570     1.2760    -0.8720 C.3   1 <1>  -0.1600 
 17 C        1.4330     6.5360    -0.2300 C.ar  1 <1>  -0.1500 
 18 C       -0.7280     6.8940    -1.2000 C.ar  1 <1>  -0.1500 
 19 C       -8.0570     1.8340     0.1480 C.3   1 <1>   0.4230 
 20 C        0.4830     7.4030    -0.7610 C.ar  1 <1>   0.0820 
 21 N       -8.6840     3.1000    -0.3550 N.4   1 <1>  -0.9590 
 22 O        0.6630     8.7430    -0.8820 O.3   1 <1>  -0.3620 
 23 C       -9.5630     3.7560     0.6670 C.3   1 <1>   0.2630 
 24 C       -9.4900     2.8890    -1.6010 C.3   1 <1>   0.2630 
 25 C        1.8680     9.3580    -0.4860 C.3   1 <1>   0.0400 
 26 H       -1.5850     3.4570     1.2610 H     1 <1>   0.0800 
 27 H        0.0350     2.9830     1.6120 H     1 <1>   0.0800 
 28 H       -3.1690     2.7700    -0.0350 H     1 <1>   0.0800 
 29 H       -3.8150    -0.6030     1.4270 H     1 <1>   0.0800 
 30 H       -2.1360    -0.9420     1.7320 H     1 <1>   0.0800 
 31 H       -2.7500    -1.0360     0.1000 H     1 <1>   0.0800 
 32 H       -1.0970     2.9120    -1.1930 H     1 <1>   0.0800 
 33 H        0.5500     2.6260    -0.7310 H     1 <1>   0.0800 
 34 H       -4.7380     1.3290     2.0710 H     1 <1>   0.0800 
 35 H       -4.1570     2.9790     2.0910 H     1 <1>   0.0800 
 36 H       -3.9950     1.3980    -1.7330 H     1 <1>   0.0800 
 37 H       -4.6650     0.2400    -0.6060 H     1 <1>   0.0800 
 38 H       -5.8580     3.7240     0.7000 H     1 <1>   0.0800 
 39 H       -5.7310     2.9100    -1.3730 H     1 <1>   0.0800 
 40 H        1.9060     4.5180     0.2670 H     1 <1>   0.1500 
 41 H       -1.9390     5.1640    -1.4630 H     1 <1>   0.1500 
 42 H       -7.5540     2.7700     2.0890 H     1 <1>   0.0800 
 43 H       -6.9560     1.1680     1.8270 H     1 <1>   0.0800 
 44 H       -6.8800     0.2490    -0.6070 H     1 <1>   0.0800 
 45 H       -7.3950     1.2860    -1.8910 H     1 <1>   0.0800 
 46 H        2.3820     6.8950     0.1200 H     1 <1>   0.1500 
 47 H       -1.4580     7.5670    -1.6100 H     1 <1>   0.1500 
 48 H       -8.8170     1.1090     0.3920 H     1 <1>   0.0800 
 49 H       -7.9060     3.7380    -0.5730 H     1 <1>   0.4500 
 50 H      -10.3370     3.0760     0.9880 H     1 <1>   0.0800 
 51 H      -10.0290     4.6340     0.2500 H     1 <1>   0.0800 
 52 H       -8.9910     4.0590     1.5280 H     1 <1>   0.0800 
 53 H      -10.2600     2.1540    -1.4290 H     1 <1>   0.0800 
 54 H       -8.8650     2.5520    -2.4100 H     1 <1>   0.0800 
 55 H       -9.9580     3.8120    -1.9030 H     1 <1>   0.0800 
 56 H        1.7840    10.4120    -0.6800 H     1 <1>   0.0800 
 57 H        2.6770     8.9430    -1.0600 H     1 <1>   0.0800 
 58 H        2.0150     9.1920     0.5670 H     1 <1>   0.0800 
@<TRIPOS>BOND
  1   1   2  2   
  2   2   3  am  
  3   2   4  1   
  4   3   5  1   
  5   3   6  1   
  6   4   7  1   
  7   4  26  1   
  8   4  27  1   
  9   5   8  1   
 10   5   9  1   
 11   5  28  1   
 12   6  29  1   
 13   6  30  1   
 14   6  31  1   
 15   7  10  1   
 16   7  32  1   
 17   7  33  1   
 18   8  11  1   
 19   8  34  1   
 20   8  35  1   
 21   9  12  1   
 22   9  36  1   
 23   9  37  1   
 24  10  13  ar  
 25  10  14  ar  
 26  11  12  1   
 27  11  15  1   
 28  11  38  1   
 29  12  16  1   
 30  12  39  1   
 31  13  17  ar  
 32  13  40  1   
 33  14  18  ar  
 34  14  41  1   
 35  15  19  1   
 36  15  42  1   
 37  15  43  1   
 38  16  19  1   
 39  16  44  1   
 40  16  45  1   
 41  17  20  ar  
 42  17  46  1   
 43  18  20  ar  
 44  18  47  1   
 45  19  21  1   
 46  19  48  1   
 47  20  22  1   
 48  21  23  1   
 49  21  24  1   
 50  21  49  1   
 51  22  25  1   
 52  23  50  1   
 53  23  51  1   
 54  23  52  1   
 55  24  53  1   
 56  24  54  1   
 57  24  55  1   
 58  25  56  1   
 59  25  57  1   
 60  25  58  1   
@<TRIPOS>SUBSTRUCTURE
  1 ****   5 GROUP 4 **** **** 0

# MOE 2024.06 (io_trps.svl 2023.06)
