@<TRIPOS>MOLECULE
NONAME
41 43 1 0 0 
SMALL
USER_CHARGES


@<TRIPOS>ATOM
  1 F        0.9900     3.7850     2.4490 F     1 <1>  -0.1900 
  2 C        0.6150     3.7800     1.1980 C.ar  1 <1>   0.1900 
  3 C       -0.6490     4.2390     0.8810 C.ar  1 <1>  -0.1500 
  4 C        1.4980     3.3250     0.2390 C.ar  1 <1>  -0.1500 
  5 C       -1.0490     4.2550    -0.4480 C.ar  1 <1>  -0.1440 
  6 C        1.0940     3.3320    -1.0850 C.ar  1 <1>  -0.1500 
  7 C       -0.1700     3.7940    -1.4230 C.ar  1 <1>  -0.1500 
  8 C       -2.4320     4.7880    -0.8270 C.3   1 <1>   0.3940 
  9 N       -2.4950     6.2270    -0.4070 N.3   1 <1>  -0.8100 
 10 C       -3.5630     3.8940    -0.2490 C.2   1 <1>   0.5690 
 11 C       -3.8880     6.7170    -0.3390 C.3   1 <1>   0.1100 
 12 C       -1.6760     7.0760    -1.3000 C.3   1 <1>   0.2900 
 13 O       -3.5660     2.7020    -0.4450 O.2   1 <1>  -0.5700 
 14 N       -4.5880     4.4550     0.4450 N.am  1 <1>  -0.7300 
 15 C       -4.7210     5.9140     0.6780 C.3   1 <1>   0.1400 
 16 C       -1.5240     8.4900    -0.7570 C.2   1 <1>   0.0070 
 17 N       -1.9980     9.5350    -1.3610 N.2   1 <1>  -0.5650 
 18 N       -0.8740     8.7750     0.4000 N.pl3 1 <1>   0.0480 
 19 C       -1.6390    10.5570    -0.5630 C.2   1 <1>   0.0770 
 20 C       -0.9550    10.1140     0.5130 C.2   1 <1>  -0.3020 
 21 C       -0.2330     7.8560     1.3670 C.3   1 <1>   0.0960 
 22 C        1.1860     7.4890     0.9240 C.3   1 <1>  -0.2400 
 23 H       -1.3070     4.5810     1.6590 H     1 <1>   0.1500 
 24 H        2.4720     2.9730     0.5250 H     1 <1>   0.1500 
 25 H        1.7610     2.9770    -1.8520 H     1 <1>   0.1500 
 26 H       -0.4660     3.7890    -2.4580 H     1 <1>   0.1500 
 27 H       -2.5440     4.7400    -1.8960 H     1 <1>   0.0800 
 28 H       -4.3490     6.6530    -1.3100 H     1 <1>   0.0800 
 29 H       -3.8980     7.7520    -0.0410 H     1 <1>   0.0800 
 30 H       -2.1290     7.1230    -2.2750 H     1 <1>   0.0800 
 31 H       -0.6930     6.6550    -1.4120 H     1 <1>   0.0800 
 32 H       -5.2880     3.8260     0.8420 H     1 <1>   0.3700 
 33 H       -5.7550     6.1990     0.5950 H     1 <1>   0.0800 
 34 H       -4.3850     6.1460     1.6740 H     1 <1>   0.0800 
 35 H       -1.8950    11.5740    -0.8090 H     1 <1>   0.1500 
 36 H       -0.5330    10.6660     1.3320 H     1 <1>   0.1500 
 37 H       -0.8350     6.9720     1.4600 H     1 <1>   0.0800 
 38 H       -0.2020     8.3390     2.3270 H     1 <1>   0.0800 
 39 H        1.1650     6.9640    -0.0140 H     1 <1>   0.0800 
 40 H        1.6380     6.8460     1.6570 H     1 <1>   0.0800 
 41 H        1.7880     8.3750     0.8250 H     1 <1>   0.0800 
@<TRIPOS>BOND
  1   1   2  1   
  2   2   3  ar  
  3   2   4  ar  
  4   3   5  ar  
  5   3  23  1   
  6   4   6  ar  
  7   4  24  1   
  8   5   7  ar  
  9   5   8  1   
 10   6   7  ar  
 11   6  25  1   
 12   7  26  1   
 13   8   9  1   
 14   8  10  1   
 15   8  27  1   
 16   9  11  1   
 17   9  12  1   
 18  10  13  2   
 19  10  14  am  
 20  11  15  1   
 21  11  28  1   
 22  11  29  1   
 23  12  16  1   
 24  12  30  1   
 25  12  31  1   
 26  14  15  1   
 27  14  32  1   
 28  15  33  1   
 29  15  34  1   
 30  16  17  2   
 31  16  18  1   
 32  17  19  1   
 33  18  20  1   
 34  18  21  1   
 35  19  20  2   
 36  19  35  1   
 37  20  36  1   
 38  21  22  1   
 39  21  37  1   
 40  21  38  1   
 41  22  39  1   
 42  22  40  1   
 43  22  41  1   
@<TRIPOS>SUBSTRUCTURE
  1 ****   9 GROUP 4 **** **** 0

# MOE 2024.06 (io_trps.svl 2023.06)
