@<TRIPOS>MOLECULE
NONAME
49 51 1 0 0 
SMALL
USER_CHARGES


@<TRIPOS>ATOM
  1 O        0.2990     1.2300     0.9340 O.2   1 <1>  -0.5700 
  2 C        0.2370     2.2440     0.2780 C.2   1 <1>   0.5690 
  3 N       -0.8970     3.0250     0.2890 N.am  1 <1>  -0.6600 
  4 C        1.4300     2.6470    -0.5870 C.3   1 <1>   0.0440 
  5 C       -2.0910     2.6350     1.0980 C.3   1 <1>   0.1400 
  6 C       -1.1360     4.2330    -0.5470 C.3   1 <1>   0.1400 
  7 C        2.6540     1.7380    -0.5040 C.ar  1 <1>  -0.1440 
  8 C       -3.2680     2.2760     0.1710 C.3   1 <1>   0.0000 
  9 C       -2.2880     3.9570    -1.5200 C.3   1 <1>  -0.1600 
 10 C        3.7930     2.1430     0.1750 C.ar  1 <1>  -0.1500 
 11 C        2.6450     0.4990    -1.1210 C.ar  1 <1>  -0.1500 
 12 C       -4.4940     1.8510     1.0020 C.3   1 <1>   0.2000 
 13 C       -3.5530     3.4690    -0.7870 C.3   1 <1>  -0.1600 
 14 C       -2.9940     0.9870    -0.6260 C.3   1 <1>  -0.1600 
 15 C        4.9160     1.3310     0.2360 C.ar  1 <1>  -0.1440 
 16 C        3.7600    -0.3170    -1.0650 C.ar  1 <1>  -0.1500 
 17 O       -5.2480     2.9220     1.4450 O.3   1 <1>  -0.6800 
 18 C       -5.3360     0.9480     0.1010 C.3   1 <1>  -0.1600 
 19 C       -4.3700     0.4000    -0.9590 C.3   1 <1>  -0.1600 
 20 C        4.9010     0.0900    -0.3910 C.ar  1 <1>  -0.1440 
 21 C        6.1410     1.8210     0.9960 C.3   1 <1>  -0.0970 
 22 C        6.1060    -0.8380    -0.3510 C.3   1 <1>  -0.0970 
 23 H        1.1050     2.6740    -1.6100 H     1 <1>   0.0800 
 24 H        1.7200     3.6420    -0.3090 H     1 <1>   0.0800 
 25 H       -1.8620     1.8020     1.7390 H     1 <1>   0.0800 
 26 H       -2.3710     3.4600     1.7300 H     1 <1>   0.0800 
 27 H       -1.3960     5.0540     0.0990 H     1 <1>   0.0800 
 28 H       -0.2580     4.5140    -1.0990 H     1 <1>   0.0800 
 29 H       -2.5160     4.8600    -2.0580 H     1 <1>   0.0800 
 30 H       -1.9690     3.2290    -2.2430 H     1 <1>   0.0800 
 31 H        3.8040     3.1000     0.6630 H     1 <1>   0.1500 
 32 H        1.7660     0.1610    -1.6400 H     1 <1>   0.1500 
 33 H       -4.1750     1.2920     1.8660 H     1 <1>   0.0800 
 34 H       -4.3060     3.2050    -1.5090 H     1 <1>   0.0800 
 35 H       -3.9270     4.3010    -0.2160 H     1 <1>   0.0800 
 36 H       -2.4010     1.1450    -1.5070 H     1 <1>   0.0800 
 37 H       -2.4660     0.2890     0.0020 H     1 <1>   0.0800 
 38 H        3.7280    -1.2760    -1.5490 H     1 <1>   0.1500 
 39 H       -5.6150     3.4000     0.6780 H     1 <1>   0.4000 
 40 H       -5.7630     0.1470     0.6780 H     1 <1>   0.0800 
 41 H       -6.1230     1.5010    -0.3800 H     1 <1>   0.0800 
 42 H       -4.3410    -0.6760    -0.9490 H     1 <1>   0.0800 
 43 H       -4.6810     0.7280    -1.9360 H     1 <1>   0.0800 
 44 H        5.9700     2.7950     1.4180 H     1 <1>   0.0800 
 45 H        6.9840     1.8830     0.3330 H     1 <1>   0.0800 
 46 H        6.3710     1.1430     1.7970 H     1 <1>   0.0800 
 47 H        5.9110    -1.7450    -0.8940 H     1 <1>   0.0800 
 48 H        6.3360    -1.0960     0.6660 H     1 <1>   0.0800 
 49 H        6.9570    -0.3550    -0.7940 H     1 <1>   0.0800 
@<TRIPOS>BOND
  1   1   2  2   
  2   2   3  am  
  3   2   4  1   
  4   3   5  1   
  5   3   6  1   
  6   4   7  1   
  7   4  23  1   
  8   4  24  1   
  9   5   8  1   
 10   5  25  1   
 11   5  26  1   
 12   6   9  1   
 13   6  27  1   
 14   6  28  1   
 15   7  10  ar  
 16   7  11  ar  
 17   8  12  1   
 18   8  13  1   
 19   8  14  1   
 20   9  13  1   
 21   9  29  1   
 22   9  30  1   
 23  10  15  ar  
 24  10  31  1   
 25  11  16  ar  
 26  11  32  1   
 27  12  17  1   
 28  12  18  1   
 29  12  33  1   
 30  13  34  1   
 31  13  35  1   
 32  14  19  1   
 33  14  36  1   
 34  14  37  1   
 35  15  20  ar  
 36  15  21  1   
 37  16  20  ar  
 38  16  38  1   
 39  17  39  1   
 40  18  19  1   
 41  18  40  1   
 42  18  41  1   
 43  19  42  1   
 44  19  43  1   
 45  20  22  1   
 46  21  44  1   
 47  21  45  1   
 48  21  46  1   
 49  22  47  1   
 50  22  48  1   
 51  22  49  1   
@<TRIPOS>SUBSTRUCTURE
  1 ****   2 GROUP 4 **** **** 0

# MOE 2024.06 (io_trps.svl 2023.06)
