@<TRIPOS>MOLECULE
NONAME
61 63 1 0 0 
SMALL
USER_CHARGES


@<TRIPOS>ATOM
  1 O       -3.9390     2.8730    -0.3900 O.2   1 <1>  -0.5700 
  2 C       -2.8530     2.4200    -0.0790 C.2   1 <1>   0.5690 
  3 N       -2.7390     1.0790     0.2800 N.am  1 <1>  -0.6600 
  4 C       -1.6410     3.4130    -0.1340 C.3   1 <1>   0.3410 
  5 C       -3.9070     0.1570     0.4590 C.3   1 <1>   0.2200 
  6 C       -1.4410     0.4010     0.5870 C.3   1 <1>   0.0600 
  7 O       -0.7650     3.1510     0.9680 O.3   1 <1>  -0.3630 
  8 C       -0.8930     3.2500    -1.4720 C.3   1 <1>  -0.2400 
  9 C       -2.1060     4.8810    -0.0090 C.3   1 <1>  -0.2400 
 10 C       -4.7060    -0.0450    -0.8290 C.3   1 <1>  -0.1600 
 11 C       -4.8770     0.6310     1.5420 C.3   1 <1>  -0.1600 
 12 C        0.4020     3.8140     1.1480 C.ar  1 <1>   0.0820 
 13 C       -6.1840     0.2180    -0.5040 C.3   1 <1>  -0.0800 
 14 C       -6.2960     0.3450     1.0220 C.3   1 <1>  -0.0800 
 15 C        0.4380     4.9220     1.9810 C.ar  1 <1>  -0.1500 
 16 C        1.5660     3.3590     0.5470 C.ar  1 <1>  -0.1500 
 17 C       -6.7330     1.5340    -1.0860 C.3   1 <1>  -0.1600 
 18 C       -7.2480     1.5160     1.2690 C.3   1 <1>  -0.1600 
 19 C        1.6270     5.6020     2.1880 C.ar  1 <1>  -0.1430 
 20 C        2.7550     4.0350     0.7530 C.ar  1 <1>  -0.1500 
 21 C       -6.9210     2.4570     0.1180 C.3   1 <1>   0.4230 
 22 C        2.7840     5.1540     1.5680 C.ar  1 <1>  -0.1500 
 23 C        1.6720     6.8220     3.0890 C.3   1 <1>  -0.0970 
 24 N       -7.9200     3.5480    -0.0690 N.4   1 <1>  -0.9590 
 25 C       -9.2990     3.0980    -0.4430 C.3   1 <1>   0.2630 
 26 C       -7.3870     4.5290    -1.0630 C.3   1 <1>   0.2630 
 27 H       -3.5510    -0.8140     0.7640 H     1 <1>   0.0800 
 28 H       -1.4580    -0.6160     0.2370 H     1 <1>   0.0800 
 29 H       -1.2770     0.4050     1.6510 H     1 <1>   0.0800 
 30 H       -0.6150     0.8900     0.1090 H     1 <1>   0.0800 
 31 H       -1.5800     3.4040    -2.2840 H     1 <1>   0.0800 
 32 H       -0.4840     2.2640    -1.5720 H     1 <1>   0.0800 
 33 H       -0.1060     3.9770    -1.5670 H     1 <1>   0.0800 
 34 H       -2.7920     5.1220    -0.8010 H     1 <1>   0.0800 
 35 H       -1.2760     5.5600    -0.0850 H     1 <1>   0.0800 
 36 H       -2.6080     5.0280     0.9300 H     1 <1>   0.0800 
 37 H       -4.3430     0.5770    -1.6280 H     1 <1>   0.0800 
 38 H       -4.5950    -1.0690    -1.1390 H     1 <1>   0.0800 
 39 H       -4.7000     0.0970     2.4580 H     1 <1>   0.0800 
 40 H       -4.7370     1.6780     1.7380 H     1 <1>   0.0800 
 41 H       -6.7860    -0.6040    -0.8550 H     1 <1>   0.0800 
 42 H       -6.6650    -0.5710     1.4550 H     1 <1>   0.0800 
 43 H       -0.4660     5.2420     2.4640 H     1 <1>   0.1500 
 44 H        1.5420     2.4830    -0.0730 H     1 <1>   0.1500 
 45 H       -7.6670     1.3200    -1.5690 H     1 <1>   0.0800 
 46 H       -6.0610     1.9740    -1.8010 H     1 <1>   0.0800 
 47 H       -7.0820     1.9720     2.2280 H     1 <1>   0.0800 
 48 H       -8.2580     1.1560     1.2030 H     1 <1>   0.0800 
 49 H        3.6600     3.6900     0.2830 H     1 <1>   0.1500 
 50 H       -5.9690     2.9030     0.3450 H     1 <1>   0.0800 
 51 H        3.7130     5.6740     1.7220 H     1 <1>   0.1500 
 52 H        2.2740     7.5920     2.6410 H     1 <1>   0.0800 
 53 H        2.0980     6.5550     4.0400 H     1 <1>   0.0800 
 54 H        0.6840     7.2140     3.2510 H     1 <1>   0.0800 
 55 H       -7.9770     4.0270     0.8400 H     1 <1>   0.4500 
 56 H       -9.2890     2.6140    -1.4050 H     1 <1>   0.0800 
 57 H       -9.9650     3.9440    -0.4940 H     1 <1>   0.0800 
 58 H       -9.6820     2.4070     0.2890 H     1 <1>   0.0800 
 59 H       -7.3140     4.0720    -2.0370 H     1 <1>   0.0800 
 60 H       -6.4030     4.8600    -0.7680 H     1 <1>   0.0800 
 61 H       -8.0350     5.3880    -1.1310 H     1 <1>   0.0800 
@<TRIPOS>BOND
  1   1   2  2   
  2   2   3  am  
  3   2   4  1   
  4   3   5  1   
  5   3   6  1   
  6   4   7  1   
  7   4   8  1   
  8   4   9  1   
  9   5  10  1   
 10   5  11  1   
 11   5  27  1   
 12   6  28  1   
 13   6  29  1   
 14   6  30  1   
 15   7  12  1   
 16   8  31  1   
 17   8  32  1   
 18   8  33  1   
 19   9  34  1   
 20   9  35  1   
 21   9  36  1   
 22  10  13  1   
 23  10  37  1   
 24  10  38  1   
 25  11  14  1   
 26  11  39  1   
 27  11  40  1   
 28  12  15  ar  
 29  12  16  ar  
 30  13  14  1   
 31  13  17  1   
 32  13  41  1   
 33  14  18  1   
 34  14  42  1   
 35  15  19  ar  
 36  15  43  1   
 37  16  20  ar  
 38  16  44  1   
 39  17  21  1   
 40  17  45  1   
 41  17  46  1   
 42  18  21  1   
 43  18  47  1   
 44  18  48  1   
 45  19  22  ar  
 46  19  23  1   
 47  20  22  ar  
 48  20  49  1   
 49  21  24  1   
 50  21  50  1   
 51  22  51  1   
 52  23  52  1   
 53  23  53  1   
 54  23  54  1   
 55  24  25  1   
 56  24  26  1   
 57  24  55  1   
 58  25  56  1   
 59  25  57  1   
 60  25  58  1   
 61  26  59  1   
 62  26  60  1   
 63  26  61  1   
@<TRIPOS>SUBSTRUCTURE
  1 ****   2 GROUP 4 **** **** 0

# MOE 2024.06 (io_trps.svl 2023.06)
