@<TRIPOS>MOLECULE
NONAME
48 49 1 0 0 
SMALL
USER_CHARGES


@<TRIPOS>ATOM
  1 S        0.5260    -0.2990    -0.7410 S.o2  1 <1>   1.3330 
  2 O        1.8450    -0.7050    -1.1740 O.2   1 <1>  -0.6500 
  3 O       -0.5820    -0.3800    -1.6650 O.2   1 <1>  -0.6500 
  4 N        0.1070    -1.2420     0.6100 N.am  1 <1>  -0.8490 
  5 C        0.6130     1.3720    -0.0740 C.3   1 <1>  -0.0550 
  6 C       -1.3330    -1.2540     0.8900 C.3   1 <1>   0.1160 
  7 C        0.6000    -2.6190     0.5000 C.3   1 <1>   0.1160 
  8 C        1.9020     1.7780     0.6770 C.3   1 <1>  -0.0800 
  9 C        3.1290     1.8780    -0.2320 C.3   1 <1>   0.2200 
 10 C        2.3610     0.8620     1.8170 C.3   1 <1>   0.1200 
 11 N        3.6040     3.2780    -0.2650 N.am  1 <1>  -0.7300 
 12 C        4.1490     0.9740     0.4570 C.3   1 <1>   0.1200 
 13 O        3.7480     0.9190     1.7870 O.3   1 <1>  -0.5600 
 14 C        3.1390     4.2410    -1.1000 C.2   1 <1>   0.5690 
 15 O        2.2490     4.0140    -1.8860 O.2   1 <1>  -0.5700 
 16 C        3.7330     5.6440    -1.0500 C.3   1 <1>   0.1810 
 17 O        4.6450     5.7880     0.0320 O.3   1 <1>  -0.3630 
 18 C        5.2990     6.9570     0.2470 C.ar  1 <1>   0.0820 
 19 C        5.1370     8.0940    -0.5400 C.ar  1 <1>  -0.1500 
 20 C        6.1730     6.9950     1.3210 C.ar  1 <1>  -0.1500 
 21 C        5.8480     9.2460    -0.2470 C.ar  1 <1>  -0.1500 
 22 C        6.8800     8.1480     1.6110 C.ar  1 <1>  -0.1500 
 23 C        6.7230     9.2790     0.8270 C.ar  1 <1>  -0.1440 
 24 C        7.4990    10.5450     1.1450 C.3   1 <1>  -0.0970 
 25 H        0.4950     2.0600    -0.8910 H     1 <1>   0.0800 
 26 H       -0.2240     1.5240     0.5770 H     1 <1>   0.0800 
 27 H       -1.5270    -1.7840     1.8070 H     1 <1>   0.0800 
 28 H       -1.8700    -1.7350     0.0880 H     1 <1>   0.0800 
 29 H       -1.7020    -0.2480     0.9950 H     1 <1>   0.0800 
 30 H        0.3250    -3.1860     1.3730 H     1 <1>   0.0800 
 31 H        1.6750    -2.6220     0.4230 H     1 <1>   0.0800 
 32 H        0.1900    -3.0940    -0.3760 H     1 <1>   0.0800 
 33 H        1.7140     2.7430     1.1150 H     1 <1>   0.0800 
 34 H        2.9440     1.5420    -1.2390 H     1 <1>   0.0800 
 35 H        2.0860    -0.1660     1.6680 H     1 <1>   0.0800 
 36 H        2.0160     1.1960     2.7800 H     1 <1>   0.0800 
 37 H        4.2840     3.5390     0.4560 H     1 <1>   0.3700 
 38 H        5.1560     1.3470     0.3940 H     1 <1>   0.0800 
 39 H        4.1010    -0.0250     0.0560 H     1 <1>   0.0800 
 40 H        2.9410     6.3590    -0.9230 H     1 <1>   0.0800 
 41 H        4.2600     5.8360    -1.9660 H     1 <1>   0.0800 
 42 H        4.4690     8.1080    -1.3800 H     1 <1>   0.1500 
 43 H        6.2960     6.1180     1.9300 H     1 <1>   0.1500 
 44 H        5.7160    10.1200    -0.8600 H     1 <1>   0.1500 
 45 H        7.5540     8.1600     2.4500 H     1 <1>   0.1500 
 46 H        7.6860    11.1080     0.2480 H     1 <1>   0.0800 
 47 H        8.4440    10.3030     1.5960 H     1 <1>   0.0800 
 48 H        6.9350    11.1550     1.8270 H     1 <1>   0.0800 
@<TRIPOS>BOND
  1   1   2  2   
  2   1   3  2   
  3   1   4  am  
  4   1   5  1   
  5   4   6  1   
  6   4   7  1   
  7   5   8  1   
  8   5  25  1   
  9   5  26  1   
 10   6  27  1   
 11   6  28  1   
 12   6  29  1   
 13   7  30  1   
 14   7  31  1   
 15   7  32  1   
 16   8   9  1   
 17   8  10  1   
 18   8  33  1   
 19   9  11  1   
 20   9  12  1   
 21   9  34  1   
 22  10  13  1   
 23  10  35  1   
 24  10  36  1   
 25  11  14  am  
 26  11  37  1   
 27  12  13  1   
 28  12  38  1   
 29  12  39  1   
 30  14  15  2   
 31  14  16  1   
 32  16  17  1   
 33  16  40  1   
 34  16  41  1   
 35  17  18  1   
 36  18  19  ar  
 37  18  20  ar  
 38  19  21  ar  
 39  19  42  1   
 40  20  22  ar  
 41  20  43  1   
 42  21  23  ar  
 43  21  44  1   
 44  22  23  ar  
 45  22  45  1   
 46  23  24  1   
 47  24  46  1   
 48  24  47  1   
 49  24  48  1   
@<TRIPOS>SUBSTRUCTURE
  1 ****  11 GROUP 4 **** **** 0

# MOE 2024.06 (io_trps.svl 2023.06)
