@<TRIPOS>MOLECULE
NONAME
54 57 1 0 0 
SMALL
USER_CHARGES


@<TRIPOS>ATOM
  1 O        1.5450    -0.1210     2.3640 O.3   1 <1>  -0.6800 
  2 C        1.1490    -0.4130     1.0610 C.3   1 <1>   0.2000 
  3 C        1.7760    -1.7330     0.6150 C.3   1 <1>  -0.0800 
  4 C        1.8190     0.5930     0.1200 C.3   1 <1>   0.3430 
  5 C        3.2250    -1.3550     0.2880 C.3   1 <1>   0.3430 
  6 C        1.6650    -2.9200     1.5950 C.3   1 <1>  -0.0170 
  7 N        3.2200     0.0960    -0.0730 N.4   1 <1>  -0.9590 
  8 C        2.5410    -4.0760     1.1240 C.ar  1 <1>  -0.1440 
  9 C        4.1570     0.8690     0.7800 C.3   1 <1>   0.5240 
 10 C        2.2110    -4.8760     0.0030 C.ar  1 <1>   0.0000 
 11 C        3.7080    -4.3540     1.7760 C.ar  1 <1>  -0.1500 
 12 C        4.3040     2.2390     0.1590 C.2   1 <1>  -0.1810 
 13 C        3.1510    -5.8530    -0.4050 C.ar  1 <1>   0.3100 
 14 C        1.0070    -4.7690    -0.7330 C.ar  1 <1>  -0.1500 
 15 C        4.5540    -5.3660     1.3060 C.ar  1 <1>   0.1600 
 16 C        5.0430     2.5640    -0.9740 C.2   1 <1>   0.1080 
 17 C        3.7570     3.4090     0.5580 C.2   1 <1>  -0.3020 
 18 N        4.3150    -6.0770     0.2530 N.ar  1 <1>  -0.6200 
 19 C        2.8750    -6.6310    -1.5400 C.ar  1 <1>  -0.1500 
 20 C        0.7660    -5.5480    -1.8320 C.ar  1 <1>  -0.1500 
 21 N        4.9470     3.8190    -1.2650 N.2   1 <1>  -0.7070 
 22 C        5.8880     1.6370    -1.8240 C.3   1 <1>  -0.0590 
 23 N        4.1610     4.3530    -0.3160 N.pl3 1 <1>   0.3140 
 24 C        1.7130    -6.4860    -2.2470 C.ar  1 <1>  -0.1500 
 25 C        3.8420     5.7900    -0.2960 C.3   1 <1>   0.0960 
 26 C        5.0920     6.5910     0.0660 C.3   1 <1>   0.1200 
 27 O        4.7760     7.9420     0.0800 O.3   1 <1>  -0.6800 
 28 H        0.9430    -0.5360     3.0190 H     1 <1>   0.4000 
 29 H        0.0730    -0.3880     1.0010 H     1 <1>   0.0800 
 30 H        1.3150    -2.0160    -0.3140 H     1 <1>   0.0800 
 31 H        1.7890     1.5900     0.5280 H     1 <1>   0.0800 
 32 H        1.3040     0.5850    -0.8260 H     1 <1>   0.0800 
 33 H        3.6060    -1.9650    -0.5160 H     1 <1>   0.0800 
 34 H        3.8340    -1.5140     1.1640 H     1 <1>   0.0800 
 35 H        0.6420    -3.2430     1.6850 H     1 <1>   0.0800 
 36 H        1.9870    -2.6240     2.5780 H     1 <1>   0.0800 
 37 H        3.5030     0.2520    -1.0480 H     1 <1>   0.4500 
 38 H        3.7680     0.9520     1.7830 H     1 <1>   0.0800 
 39 H        5.1200     0.3880     0.8180 H     1 <1>   0.0800 
 40 H        4.0160    -3.8140     2.6530 H     1 <1>   0.1500 
 41 H        0.2520    -4.0730    -0.4230 H     1 <1>   0.1500 
 42 H        5.4640    -5.5600     1.8500 H     1 <1>   0.1500 
 43 H        3.1190     3.6320     1.3950 H     1 <1>   0.1500 
 44 H        3.6130    -7.3550    -1.8350 H     1 <1>   0.1500 
 45 H       -0.1530    -5.4580    -2.3870 H     1 <1>   0.1500 
 46 H        6.1000     0.7170    -1.3140 H     1 <1>   0.0800 
 47 H        6.8200     2.1230    -2.0530 H     1 <1>   0.0800 
 48 H        5.3800     1.4310    -2.7480 H     1 <1>   0.0800 
 49 H        1.5140    -7.0920    -3.1150 H     1 <1>   0.1500 
 50 H        3.4950     6.0680    -1.2740 H     1 <1>   0.0800 
 51 H        3.0680     5.9670     0.4280 H     1 <1>   0.0800 
 52 H        5.8800     6.4310    -0.6500 H     1 <1>   0.0800 
 53 H        5.4370     6.3260     1.0510 H     1 <1>   0.0800 
 54 H        4.7330     8.3010    -0.8290 H     1 <1>   0.4000 
@<TRIPOS>BOND
  1   1   2  1   
  2   1  28  1   
  3   2   3  1   
  4   2   4  1   
  5   2  29  1   
  6   3   5  1   
  7   3   6  1   
  8   3  30  1   
  9   4   7  1   
 10   4  31  1   
 11   4  32  1   
 12   5   7  1   
 13   5  33  1   
 14   5  34  1   
 15   6   8  1   
 16   6  35  1   
 17   6  36  1   
 18   7   9  1   
 19   7  37  1   
 20   8  10  ar  
 21   8  11  ar  
 22   9  12  1   
 23   9  38  1   
 24   9  39  1   
 25  10  13  ar  
 26  10  14  ar  
 27  11  15  ar  
 28  11  40  1   
 29  12  16  1   
 30  12  17  2   
 31  13  18  ar  
 32  13  19  ar  
 33  14  20  ar  
 34  14  41  1   
 35  15  18  ar  
 36  15  42  1   
 37  16  21  2   
 38  16  22  1   
 39  17  23  1   
 40  17  43  1   
 41  19  24  ar  
 42  19  44  1   
 43  20  24  ar  
 44  20  45  1   
 45  21  23  1   
 46  22  46  1   
 47  22  47  1   
 48  22  48  1   
 49  23  25  1   
 50  24  49  1   
 51  25  26  1   
 52  25  50  1   
 53  25  51  1   
 54  26  27  1   
 55  26  52  1   
 56  26  53  1   
 57  27  54  1   
@<TRIPOS>SUBSTRUCTURE
  1 ****   5 GROUP 4 **** **** 0

# MOE 2024.06 (io_trps.svl 2023.06)
