@<TRIPOS>MOLECULE
NONAME
42 44 1 0 0 
SMALL
USER_CHARGES


@<TRIPOS>ATOM
  1 O       -0.5810     0.2580     0.7560 O.2   1 <1>  -0.5700 
  2 C       -1.5820     0.9010     0.5080 C.2   1 <1>   0.5440 
  3 N       -2.7870     0.2480     0.4020 N.am  1 <1>  -0.6600 
  4 C       -1.4810     2.3300     0.3170 C.ar  1 <1>   0.0860 
  5 C       -3.9370     0.7110    -0.4220 C.3   1 <1>   0.1400 
  6 C       -2.9630    -1.1860     0.7390 C.3   1 <1>   0.1400 
  7 C       -2.3700     3.2030     0.9390 C.ar  1 <1>   0.1600 
  8 C       -0.4990     2.9010    -0.4780 C.ar  1 <1>  -0.1500 
  9 C       -4.9010    -0.4810    -0.5060 C.3   1 <1>   0.2000 
 10 C       -4.0060    -1.6980    -0.2550 C.3   1 <1>  -0.0800 
 11 N       -2.3800     4.5190     0.8130 N.ar  1 <1>  -0.6200 
 12 C       -0.4860     4.2720    -0.6120 C.ar  1 <1>  -0.1500 
 13 O       -5.8420    -0.3930     0.5260 O.3   1 <1>  -0.5600 
 14 C       -4.7530    -2.9550     0.2280 C.3   1 <1>   0.0200 
 15 C       -1.4340     5.0560     0.0370 C.ar  1 <1>   0.3830 
 16 C       -6.9880     0.3420     0.2260 C.3   1 <1>   0.0400 
 17 C       -3.8670    -4.1870     0.3010 C.2   1 <1>  -0.0400 
 18 C       -1.3950     6.4860    -0.1330 C.1   1 <1>   0.4840 
 19 O       -4.3720    -5.2950     0.7760 O.3   1 <1>  -0.0190 
 20 C       -2.5900    -4.4340    -0.0350 C.2   1 <1>  -0.1500 
 21 N       -1.3250     7.6140    -0.3030 N.1   1 <1>  -0.5570 
 22 N       -3.5040    -6.2660     0.7780 N.2   1 <1>  -0.4100 
 23 C       -2.4200    -5.7750     0.2960 C.2   1 <1>   0.1080 
 24 C       -1.1380    -6.5560     0.1170 C.3   1 <1>  -0.0590 
 25 H       -4.4170     1.5650     0.0200 H     1 <1>   0.0800 
 26 H       -3.5820     0.9610    -1.4060 H     1 <1>   0.0800 
 27 H       -2.0360    -1.7270     0.6630 H     1 <1>   0.0800 
 28 H       -3.3360    -1.2590     1.7470 H     1 <1>   0.0800 
 29 H       -3.1190     2.7730     1.5840 H     1 <1>   0.1500 
 30 H        0.2310     2.2760    -0.9680 H     1 <1>   0.1500 
 31 H       -5.4110    -0.5430    -1.4520 H     1 <1>   0.0800 
 32 H       -3.4990    -1.9280    -1.1760 H     1 <1>   0.0800 
 33 H        0.2650     4.7420    -1.2240 H     1 <1>   0.1500 
 34 H       -5.5670    -3.1640    -0.4420 H     1 <1>   0.0800 
 35 H       -5.1730    -2.7770     1.2030 H     1 <1>   0.0800 
 36 H       -7.6180     0.3460     1.0990 H     1 <1>   0.0800 
 37 H       -7.5080    -0.1280    -0.5900 H     1 <1>   0.0800 
 38 H       -6.7150     1.3510    -0.0270 H     1 <1>   0.0800 
 39 H       -1.8420    -3.7910    -0.4590 H     1 <1>   0.1500 
 40 H       -0.3480    -6.0940     0.6800 H     1 <1>   0.0800 
 41 H       -0.8680    -6.5790    -0.9230 H     1 <1>   0.0800 
 42 H       -1.2710    -7.5640     0.4650 H     1 <1>   0.0800 
@<TRIPOS>BOND
  1   1   2  2   
  2   2   3  am  
  3   2   4  1   
  4   3   5  1   
  5   3   6  1   
  6   4   7  ar  
  7   4   8  ar  
  8   5   9  1   
  9   5  25  1   
 10   5  26  1   
 11   6  10  1   
 12   6  27  1   
 13   6  28  1   
 14   7  11  ar  
 15   7  29  1   
 16   8  12  ar  
 17   8  30  1   
 18   9  10  1   
 19   9  13  1   
 20   9  31  1   
 21  10  14  1   
 22  10  32  1   
 23  11  15  ar  
 24  12  15  ar  
 25  12  33  1   
 26  13  16  1   
 27  14  17  1   
 28  14  34  1   
 29  14  35  1   
 30  15  18  1   
 31  16  36  1   
 32  16  37  1   
 33  16  38  1   
 34  17  19  1   
 35  17  20  2   
 36  18  21  3   
 37  19  22  1   
 38  20  23  1   
 39  20  39  1   
 40  22  23  2   
 41  23  24  1   
 42  24  40  1   
 43  24  41  1   
 44  24  42  1   
@<TRIPOS>SUBSTRUCTURE
  1 ****   3 GROUP 4 **** **** 0

# MOE 2024.06 (io_trps.svl 2023.06)
