@<TRIPOS>MOLECULE
NONAME
43 45 1 0 0 
SMALL
USER_CHARGES


@<TRIPOS>ATOM
  1 O       -1.9070     0.8450    -2.5990 O.2   1 <1>  -0.5700 
  2 C       -2.1710     1.1790    -1.4680 C.2   1 <1>   0.5690 
  3 N       -2.7800     0.3160    -0.5950 N.am  1 <1>  -0.6600 
  4 C       -1.8050     2.5970    -1.0460 C.3   1 <1>   0.0820 
  5 C       -3.1000     0.5730     0.8340 C.3   1 <1>   0.1400 
  6 C       -3.0610    -1.0990    -0.9410 C.3   1 <1>   0.1400 
  7 C       -0.8000     2.6300     0.1000 C.2   1 <1>  -0.1810 
  8 C       -3.6740    -0.7450     1.3540 C.3   1 <1>   0.2000 
  9 C       -3.1510    -1.8190     0.4050 C.3   1 <1>  -0.0800 
 10 C        0.3490     1.9490     0.2510 C.2   1 <1>  -0.0400 
 11 C       -0.8840     3.3770     1.2760 C.2   1 <1>   0.1080 
 12 O       -3.2570    -1.0080     2.6490 O.3   1 <1>  -0.6800 
 13 C       -4.0320    -3.0800     0.3910 C.3   1 <1>  -0.0170 
 14 O        0.8560     2.2690     1.4100 O.3   1 <1>  -0.0190 
 15 C        1.0840     0.9550    -0.6260 C.3   1 <1>  -0.0600 
 16 N        0.1160     3.1320     2.0420 N.2   1 <1>  -0.4100 
 17 C       -1.9850     4.3510     1.6400 C.3   1 <1>  -0.0590 
 18 C       -3.4720    -4.1440    -0.5390 C.ar  1 <1>   0.1670 
 19 N       -3.7800    -4.0310    -1.8200 N.ar  1 <1>  -0.6200 
 20 C       -2.6760    -5.1670    -0.0260 C.ar  1 <1>   0.1600 
 21 C       -3.2430    -4.9960    -2.5480 C.ar  1 <1>   0.1600 
 22 N       -2.1360    -6.1320    -0.7520 N.ar  1 <1>  -0.6200 
 23 C       -2.4480    -6.0120    -2.0320 C.ar  1 <1>   0.1600 
 24 H       -1.3860     3.1140    -1.8890 H     1 <1>   0.0800 
 25 H       -2.7090     3.1040    -0.7690 H     1 <1>   0.0800 
 26 H       -2.2000     0.8230     1.3670 H     1 <1>   0.0800 
 27 H       -3.8220     1.3650     0.9220 H     1 <1>   0.0800 
 28 H       -3.9970    -1.1520    -1.4710 H     1 <1>   0.0800 
 29 H       -2.2810    -1.5120    -1.5600 H     1 <1>   0.0800 
 30 H       -4.7500    -0.7050     1.3440 H     1 <1>   0.0800 
 31 H       -2.1480    -2.0870     0.6880 H     1 <1>   0.0800 
 32 H       -2.2810    -0.9710     2.7090 H     1 <1>   0.4000 
 33 H       -5.0300    -2.8290     0.0750 H     1 <1>   0.0800 
 34 H       -4.0990    -3.4750     1.3890 H     1 <1>   0.0800 
 35 H        0.6020     0.8540    -1.5810 H     1 <1>   0.0800 
 36 H        1.1090    -0.0060    -0.1450 H     1 <1>   0.0800 
 37 H        2.0920     1.2910    -0.7860 H     1 <1>   0.0800 
 38 H       -2.0750     5.1020     0.8780 H     1 <1>   0.0800 
 39 H       -1.7520     4.8330     2.5730 H     1 <1>   0.0800 
 40 H       -2.9180     3.8300     1.7440 H     1 <1>   0.0800 
 41 H       -2.4740    -5.1870     1.0300 H     1 <1>   0.1500 
 42 H       -3.4410    -4.9830    -3.6050 H     1 <1>   0.1500 
 43 H       -2.0550    -6.7530    -2.7050 H     1 <1>   0.1500 
@<TRIPOS>BOND
  1   1   2  2   
  2   2   3  am  
  3   2   4  1   
  4   3   5  1   
  5   3   6  1   
  6   4   7  1   
  7   4  24  1   
  8   4  25  1   
  9   5   8  1   
 10   5  26  1   
 11   5  27  1   
 12   6   9  1   
 13   6  28  1   
 14   6  29  1   
 15   7  10  2   
 16   7  11  1   
 17   8   9  1   
 18   8  12  1   
 19   8  30  1   
 20   9  13  1   
 21   9  31  1   
 22  10  14  1   
 23  10  15  1   
 24  11  16  2   
 25  11  17  1   
 26  12  32  1   
 27  13  18  1   
 28  13  33  1   
 29  13  34  1   
 30  14  16  1   
 31  15  35  1   
 32  15  36  1   
 33  15  37  1   
 34  17  38  1   
 35  17  39  1   
 36  17  40  1   
 37  18  19  ar  
 38  18  20  ar  
 39  19  21  ar  
 40  20  22  ar  
 41  20  41  1   
 42  21  23  ar  
 43  21  42  1   
 44  22  23  ar  
 45  23  43  1   
@<TRIPOS>SUBSTRUCTURE
  1 ****   3 GROUP 4 **** **** 0

# MOE 2024.06 (io_trps.svl 2023.06)
