@<TRIPOS>MOLECULE
NONAME
44 45 1 0 0 
SMALL
USER_CHARGES


@<TRIPOS>ATOM
  1 F       -0.5510     4.7780    -1.7470 F     1 <1>  -0.3400 
  2 C       -0.5010     4.8410    -0.4240 C.3   1 <1>   1.1640 
  3 F       -0.8590     6.0760    -0.0960 F     1 <1>  -0.3400 
  4 F       -1.4550     4.0390     0.0300 F     1 <1>  -0.3400 
  5 C        0.8860     4.4910     0.1060 C.ar  1 <1>  -0.1440 
  6 C        1.9290     5.3700    -0.1310 C.ar  1 <1>   0.1600 
  7 C        1.1580     3.3290     0.8120 C.ar  1 <1>  -0.1500 
  8 N        3.1800     5.2000     0.2680 N.ar  1 <1>  -0.6200 
  9 C        2.4520     3.1380     1.2310 C.ar  1 <1>  -0.1500 
 10 C        3.4320     4.0890     0.9470 C.ar  1 <1>   0.4100 
 11 N        4.7470     3.9430     1.3630 N.pl3 1 <1>  -0.8380 
 12 C        5.8420     4.0530     0.3420 C.3   1 <1>   0.2090 
 13 C        5.0770     3.1290     2.5710 C.3   1 <1>   0.1290 
 14 C        6.6650     5.3360     0.5660 C.3   1 <1>   0.3430 
 15 N        5.7510     6.4820     0.8480 N.4   1 <1>  -0.9590 
 16 C        5.4900     7.3240    -0.3550 C.3   1 <1>   0.4230 
 17 C        6.1070     7.1940     2.1070 C.3   1 <1>   0.2630 
 18 C        6.6940     8.1850    -0.7440 C.3   1 <1>  -0.1600 
 19 C        4.3740     8.3360    -0.0960 C.3   1 <1>  -0.1600 
 20 C        6.5180     9.5450    -0.0590 C.3   1 <1>  -0.1600 
 21 C        5.0330     9.6670     0.2930 C.3   1 <1>  -0.1600 
 22 H        1.7230     6.2730    -0.6850 H     1 <1>   0.1500 
 23 H        0.3940     2.5990     1.0270 H     1 <1>   0.1500 
 24 H        2.7080     2.2470     1.7710 H     1 <1>   0.1500 
 25 H        5.4140     4.0770    -0.6460 H     1 <1>   0.0800 
 26 H        6.4860     3.1920     0.3930 H     1 <1>   0.0800 
 27 H        4.2910     3.2130     3.3020 H     1 <1>   0.0800 
 28 H        5.9920     3.4810     3.0170 H     1 <1>   0.0800 
 29 H        5.1940     2.0940     2.2990 H     1 <1>   0.0800 
 30 H        7.2790     5.5370    -0.2950 H     1 <1>   0.0800 
 31 H        7.3140     5.1760     1.4100 H     1 <1>   0.0800 
 32 H        4.8430     5.9810     1.0220 H     1 <1>   0.4500 
 33 H        5.2080     6.6800    -1.1730 H     1 <1>   0.0800 
 34 H        7.0550     7.6950     2.0000 H     1 <1>   0.0800 
 35 H        6.1710     6.4930     2.9230 H     1 <1>   0.0800 
 36 H        5.3530     7.9250     2.3460 H     1 <1>   0.0800 
 37 H        6.6520     8.3420    -1.8080 H     1 <1>   0.0800 
 38 H        7.6400     7.7320    -0.5110 H     1 <1>   0.0800 
 39 H        3.6670     7.9960     0.6400 H     1 <1>   0.0800 
 40 H        3.8450     8.4830    -1.0220 H     1 <1>   0.0800 
 41 H        6.8290    10.3450    -0.7110 H     1 <1>   0.0800 
 42 H        7.1120     9.5940     0.8370 H     1 <1>   0.0800 
 43 H        4.9150     9.8560     1.3470 H     1 <1>   0.0800 
 44 H        4.5780    10.4810    -0.2470 H     1 <1>   0.0800 
@<TRIPOS>BOND
  1   1   2  1   
  2   2   3  1   
  3   2   4  1   
  4   2   5  1   
  5   5   6  ar  
  6   5   7  ar  
  7   6   8  ar  
  8   6  22  1   
  9   7   9  ar  
 10   7  23  1   
 11   8  10  ar  
 12   9  10  ar  
 13   9  24  1   
 14  10  11  1   
 15  11  12  1   
 16  11  13  1   
 17  12  14  1   
 18  12  25  1   
 19  12  26  1   
 20  13  27  1   
 21  13  28  1   
 22  13  29  1   
 23  14  15  1   
 24  14  30  1   
 25  14  31  1   
 26  15  16  1   
 27  15  17  1   
 28  15  32  1   
 29  16  18  1   
 30  16  19  1   
 31  16  33  1   
 32  17  34  1   
 33  17  35  1   
 34  17  36  1   
 35  18  20  1   
 36  18  37  1   
 37  18  38  1   
 38  19  21  1   
 39  19  39  1   
 40  19  40  1   
 41  20  21  1   
 42  20  41  1   
 43  20  42  1   
 44  21  43  1   
 45  21  44  1   
@<TRIPOS>SUBSTRUCTURE
  1 ****   8 GROUP 4 **** **** 0

# MOE 2024.06 (io_trps.svl 2023.06)
