@<TRIPOS>MOLECULE
NONAME
50 52 1 0 0 
SMALL
USER_CHARGES


@<TRIPOS>ATOM
  1 O       -1.6780     0.4620     3.1390 O.2   1 <1>  -0.5700 
  2 C       -1.9190     1.2200     2.2290 C.2   1 <1>   0.5690 
  3 N       -2.4310     0.7590     1.0450 N.am  1 <1>  -0.6600 
  4 C       -1.6410     2.7020     2.4400 C.3   1 <1>   0.0440 
  5 C       -2.6690     1.5550    -0.1890 C.3   1 <1>   0.1400 
  6 C       -2.6170    -0.6860     0.7670 C.3   1 <1>   0.1400 
  7 C       -0.5770     3.2380     1.4880 C.ar  1 <1>  -0.1440 
  8 C       -3.4180     0.6010    -1.1160 C.3   1 <1>   0.2000 
  9 C       -2.8510    -0.7740    -0.7470 C.3   1 <1>  -0.0800 
 10 C       -0.8660     4.2720     0.6120 C.ar  1 <1>  -0.1500 
 11 C        0.6900     2.6830     1.4790 C.ar  1 <1>  -0.1500 
 12 O       -4.7650     0.6500    -0.7880 O.3   1 <1>  -0.6800 
 13 C       -3.7190    -1.9720    -1.1770 C.3   1 <1>   0.0200 
 14 C        0.0830     4.7460    -0.2780 C.ar  1 <1>   0.0830 
 15 C        1.6520     3.1430     0.5970 C.ar  1 <1>  -0.1500 
 16 C       -3.0490    -3.3120    -0.9210 C.2   1 <1>  -0.0400 
 17 O       -0.3480     5.7600    -1.0810 O.3   1 <1>  -0.3630 
 18 C        1.3640     4.1700    -0.3000 C.ar  1 <1>   0.0830 
 19 O       -3.7390    -4.4040    -1.1130 O.3   1 <1>  -0.0190 
 20 C       -1.8200    -3.6730    -0.5170 C.2   1 <1>  -0.1500 
 21 C        0.5330     6.7760    -1.5070 C.3   1 <1>   0.0400 
 22 O        2.2920     4.6040    -1.2030 O.3   1 <1>  -0.3630 
 23 N       -3.0430    -5.4730    -0.8560 N.2   1 <1>  -0.4100 
 24 C       -1.8810    -5.0630    -0.4940 C.2   1 <1>   0.1080 
 25 C        3.5750     4.0260    -1.3010 C.3   1 <1>   0.0400 
 26 C       -0.7430    -5.9760    -0.0980 C.3   1 <1>  -0.0590 
 27 H       -2.5620     3.2410     2.3220 H     1 <1>   0.0800 
 28 H       -1.3080     2.8510     3.4510 H     1 <1>   0.0800 
 29 H       -3.2360     2.4490     0.0070 H     1 <1>   0.0800 
 30 H       -1.7210     1.8160    -0.6270 H     1 <1>   0.0800 
 31 H       -1.7500    -1.2450     1.0720 H     1 <1>   0.0800 
 32 H       -3.4750    -1.0390     1.3130 H     1 <1>   0.0800 
 33 H       -3.3080     0.8480    -2.1580 H     1 <1>   0.0800 
 34 H       -1.8900    -0.8620    -1.2220 H     1 <1>   0.0800 
 35 H       -1.8390     4.7280     0.6060 H     1 <1>   0.1500 
 36 H        0.9320     1.8830     2.1600 H     1 <1>   0.1500 
 37 H       -4.8540     0.5840     0.1840 H     1 <1>   0.4000 
 38 H       -3.9370    -1.8960    -2.2270 H     1 <1>   0.0800 
 39 H       -4.6560    -1.9550    -0.6490 H     1 <1>   0.0800 
 40 H        2.6180     2.6780     0.6270 H     1 <1>   0.1500 
 41 H       -0.9640    -3.0770    -0.2640 H     1 <1>   0.1500 
 42 H       -0.0540     7.6300    -1.7930 H     1 <1>   0.0800 
 43 H        1.0910     6.4190    -2.3540 H     1 <1>   0.0800 
 44 H        1.1920     7.0340    -0.6970 H     1 <1>   0.0800 
 45 H        4.1060     4.5250    -2.0920 H     1 <1>   0.0800 
 46 H        3.4710     2.9820    -1.5350 H     1 <1>   0.0800 
 47 H        4.0940     4.1660    -0.3700 H     1 <1>   0.0800 
 48 H       -0.4240    -5.7490     0.9020 H     1 <1>   0.0800 
 49 H        0.0820    -5.8440    -0.7730 H     1 <1>   0.0800 
 50 H       -1.0640    -7.0010    -0.1360 H     1 <1>   0.0800 
@<TRIPOS>BOND
  1   1   2  2   
  2   2   3  am  
  3   2   4  1   
  4   3   5  1   
  5   3   6  1   
  6   4   7  1   
  7   4  27  1   
  8   4  28  1   
  9   5   8  1   
 10   5  29  1   
 11   5  30  1   
 12   6   9  1   
 13   6  31  1   
 14   6  32  1   
 15   7  10  ar  
 16   7  11  ar  
 17   8   9  1   
 18   8  12  1   
 19   8  33  1   
 20   9  13  1   
 21   9  34  1   
 22  10  14  ar  
 23  10  35  1   
 24  11  15  ar  
 25  11  36  1   
 26  12  37  1   
 27  13  16  1   
 28  13  38  1   
 29  13  39  1   
 30  14  17  1   
 31  14  18  ar  
 32  15  18  ar  
 33  15  40  1   
 34  16  19  1   
 35  16  20  2   
 36  17  21  1   
 37  18  22  1   
 38  19  23  1   
 39  20  24  1   
 40  20  41  1   
 41  21  42  1   
 42  21  43  1   
 43  21  44  1   
 44  22  25  1   
 45  23  24  2   
 46  24  26  1   
 47  25  45  1   
 48  25  46  1   
 49  25  47  1   
 50  26  48  1   
 51  26  49  1   
 52  26  50  1   
@<TRIPOS>SUBSTRUCTURE
  1 ****   3 GROUP 4 **** **** 0

# MOE 2024.06 (io_trps.svl 2023.06)
