@<TRIPOS>MOLECULE
NONAME
49 52 1 0 0 
SMALL
USER_CHARGES


@<TRIPOS>ATOM
  1 O       -1.0990    -1.2780    -0.8160 O.co2 1 <1>  -0.9000 
  2 C       -0.1740    -2.1090    -0.8260 C.2   1 <1>   1.0330 
  3 O        0.1440    -2.6400    -1.9030 O.co2 1 <1>  -0.9000 
  4 C        0.5150    -2.4310     0.3780 C.2   1 <1>  -0.2330 
  5 C        0.2160    -3.4970     1.2250 C.2   1 <1>   0.3720 
  6 C        1.5770    -1.8300     0.9730 C.2   1 <1>   0.0870 
  7 N        1.0270    -3.5370     2.2230 N.2   1 <1>  -0.4100 
  8 N       -0.8140    -4.4290     1.0700 N.pl3 1 <1>  -0.8210 
  9 O        1.8400    -2.5260     2.0550 O.3   1 <1>  -0.0190 
 10 C        2.3760    -0.6740     0.6400 C.ar  1 <1>   0.0530 
 11 C       -0.6360    -5.3150    -0.1120 C.3   1 <1>   0.2090 
 12 C       -2.1720    -3.8290     1.1040 C.3   1 <1>   0.2090 
 13 C        3.6500    -0.5010     1.1860 C.ar  1 <1>  -0.1500 
 14 C        1.9200     0.3200    -0.2280 C.ar  1 <1>  -0.1500 
 15 C       -1.6370    -6.4770    -0.0300 C.3   1 <1>  -0.0800 
 16 C       -3.2150    -4.9460     1.2100 C.3   1 <1>  -0.1600 
 17 C        4.4270     0.6000     0.8800 C.ar  1 <1>  -0.1500 
 18 C        2.6910     1.4240    -0.5420 C.ar  1 <1>  -0.1500 
 19 C       -3.0790    -5.9350     0.0400 C.3   1 <1>  -0.0800 
 20 C       -1.4820    -7.4410    -1.2170 C.3   1 <1>  -0.1600 
 21 C        3.9580     1.5730     0.0130 C.ar  1 <1>   0.0820 
 22 C       -4.0890    -7.0880     0.1500 C.3   1 <1>  -0.1600 
 23 C       -2.4940    -8.5930    -1.1280 C.3   1 <1>  -0.1600 
 24 O        4.7770     2.6220    -0.2410 O.3   1 <1>  -0.3620 
 25 C       -3.9330    -8.0670    -1.0230 C.3   1 <1>  -0.1600 
 26 C        4.4000     3.6420    -1.1380 C.3   1 <1>   0.0400 
 27 H       -0.8000    -4.7590    -1.0190 H     1 <1>   0.0800 
 28 H        0.3720    -5.6930    -0.1230 H     1 <1>   0.0800 
 29 H       -2.2490    -3.1660     1.9490 H     1 <1>   0.0800 
 30 H       -2.3460    -3.2560     0.2080 H     1 <1>   0.0800 
 31 H        4.0360    -1.2460     1.8580 H     1 <1>   0.1500 
 32 H        0.9410     0.2340    -0.6660 H     1 <1>   0.1500 
 33 H       -1.4230    -7.0190     0.8750 H     1 <1>   0.0800 
 34 H       -3.0770    -5.4560     2.1470 H     1 <1>   0.0800 
 35 H       -4.1960    -4.5080     1.2060 H     1 <1>   0.0800 
 36 H        5.4060     0.7130     1.3100 H     1 <1>   0.1500 
 37 H        2.2840     2.1510    -1.2180 H     1 <1>   0.1500 
 38 H       -3.2800    -5.3960    -0.8720 H     1 <1>   0.0800 
 39 H       -1.6320    -6.9030    -2.1370 H     1 <1>   0.0800 
 40 H       -0.4830    -7.8420    -1.2280 H     1 <1>   0.0800 
 41 H       -3.9330    -7.6140     1.0770 H     1 <1>   0.0800 
 42 H       -5.0900    -6.6940     0.1560 H     1 <1>   0.0800 
 43 H       -2.4020    -9.2210    -1.9970 H     1 <1>   0.0800 
 44 H       -2.2720    -9.1920    -0.2620 H     1 <1>   0.0800 
 45 H       -4.6100    -8.8930    -0.8950 H     1 <1>   0.0800 
 46 H       -4.1930    -7.5650    -1.9390 H     1 <1>   0.0800 
 47 H        5.2040     4.3520    -1.1940 H     1 <1>   0.0800 
 48 H        3.5120     4.1220    -0.7660 H     1 <1>   0.0800 
 49 H        4.2260     3.2070    -2.1070 H     1 <1>   0.0800 
@<TRIPOS>BOND
  1   1   2  ar  
  2   2   3  ar  
  3   2   4  1   
  4   4   5  1   
  5   4   6  2   
  6   5   7  2   
  7   5   8  1   
  8   6   9  1   
  9   6  10  1   
 10   7   9  1   
 11   8  11  1   
 12   8  12  1   
 13  10  13  ar  
 14  10  14  ar  
 15  11  15  1   
 16  11  27  1   
 17  11  28  1   
 18  12  16  1   
 19  12  29  1   
 20  12  30  1   
 21  13  17  ar  
 22  13  31  1   
 23  14  18  ar  
 24  14  32  1   
 25  15  19  1   
 26  15  20  1   
 27  15  33  1   
 28  16  19  1   
 29  16  34  1   
 30  16  35  1   
 31  17  21  ar  
 32  17  36  1   
 33  18  21  ar  
 34  18  37  1   
 35  19  22  1   
 36  19  38  1   
 37  20  23  1   
 38  20  39  1   
 39  20  40  1   
 40  21  24  1   
 41  22  25  1   
 42  22  41  1   
 43  22  42  1   
 44  23  25  1   
 45  23  43  1   
 46  23  44  1   
 47  24  26  1   
 48  25  45  1   
 49  25  46  1   
 50  26  47  1   
 51  26  48  1   
 52  26  49  1   
@<TRIPOS>SUBSTRUCTURE
  1 ****   4 GROUP 4 **** **** 0

# MOE 2024.06 (io_trps.svl 2023.06)
