@<TRIPOS>MOLECULE
NONAME
53 54 1 0 0 
SMALL
USER_CHARGES


@<TRIPOS>ATOM
  1 O        0.7990    -1.9730     0.5950 O.3   1 <1>  -0.5600 
  2 C        0.0870    -2.6470    -0.4300 C.3   1 <1>   0.2800 
  3 C        0.0890    -1.2590     1.5700 C.3   1 <1>   0.1200 
  4 C       -1.4590    -2.5370    -0.2480 C.3   1 <1>   0.2000 
  5 C        0.5270    -4.1260    -0.3530 C.3   1 <1>  -0.1600 
  6 C        0.5920    -2.0520    -1.7620 C.3   1 <1>  -0.1600 
  7 C       -0.8950    -0.3150     0.8810 C.3   1 <1>  -0.1600 
  8 O       -2.1330    -3.0680    -1.3520 O.3   1 <1>  -0.6800 
  9 C       -1.9630    -1.1050     0.1090 C.3   1 <1>   0.2800 
 10 C        1.9390    -4.4020    -0.8810 C.3   1 <1>   0.3430 
 11 C        2.1020    -2.2100    -1.9830 C.3   1 <1>   0.3430 
 12 O       -3.0380    -1.2750     0.9580 O.3   1 <1>  -0.6800 
 13 C       -2.5070    -0.2740    -1.0630 C.3   1 <1>  -0.2400 
 14 N        2.6900    -3.1300    -0.9730 N.4   1 <1>  -0.9590 
 15 C        4.1650    -3.2920    -1.0860 C.3   1 <1>   0.3430 
 16 C        4.9090    -2.5660     0.0610 C.3   1 <1>   0.0000 
 17 C        6.4240    -2.7880    -0.1750 C.3   1 <1>  -0.0220 
 18 C        4.4870    -3.1490     1.4270 C.3   1 <1>  -0.2400 
 19 C        4.5940    -1.0540     0.0500 C.3   1 <1>  -0.2400 
 20 C        7.3280    -2.1030     0.8400 C.2   1 <1>  -0.2880 
 21 C        8.1620    -1.0980     0.5590 C.2   1 <1>  -0.3000 
 22 H       -0.4200    -1.9560     2.2170 H     1 <1>   0.0800 
 23 H        0.8020    -0.7020     2.1540 H     1 <1>   0.0800 
 24 H       -1.7090    -3.1790     0.5800 H     1 <1>   0.0800 
 25 H        0.4490    -4.4660     0.6640 H     1 <1>   0.0800 
 26 H       -0.1490    -4.7320    -0.9290 H     1 <1>   0.0800 
 27 H        0.0870    -2.5360    -2.5790 H     1 <1>   0.0800 
 28 H        0.3440    -1.0100    -1.8220 H     1 <1>   0.0800 
 29 H       -0.3320     0.3080     0.2100 H     1 <1>   0.0800 
 30 H       -1.3530     0.3340     1.6080 H     1 <1>   0.0800 
 31 H       -3.0970    -3.0160    -1.1810 H     1 <1>   0.4000 
 32 H        1.8800    -4.8570    -1.8570 H     1 <1>   0.0800 
 33 H        2.4410    -5.0860    -0.2150 H     1 <1>   0.0800 
 34 H        2.5710    -1.2440    -1.8950 H     1 <1>   0.0800 
 35 H        2.2850    -2.5840    -2.9770 H     1 <1>   0.0800 
 36 H       -3.4650    -0.4140     1.1290 H     1 <1>   0.4000 
 37 H       -1.7590    -0.1580    -1.8240 H     1 <1>   0.0800 
 38 H       -2.7960     0.7070    -0.7320 H     1 <1>   0.0800 
 39 H       -3.3590    -0.7530    -1.5110 H     1 <1>   0.0800 
 40 H        2.4970    -2.6550    -0.0690 H     1 <1>   0.4500 
 41 H        4.4170    -4.3390    -1.0510 H     1 <1>   0.0800 
 42 H        4.5030    -2.9030    -2.0320 H     1 <1>   0.0800 
 43 H        6.6460    -3.8420    -0.1600 H     1 <1>   0.0800 
 44 H        6.6840    -2.4250    -1.1550 H     1 <1>   0.0800 
 45 H        5.0010    -2.6490     2.2290 H     1 <1>   0.0800 
 46 H        4.7210    -4.1970     1.4840 H     1 <1>   0.0800 
 47 H        3.4340    -3.0240     1.6060 H     1 <1>   0.0800 
 48 H        5.1520    -0.5470     0.8190 H     1 <1>   0.0800 
 49 H        3.5530    -0.8630     0.2370 H     1 <1>   0.0800 
 50 H        4.8640    -0.6150    -0.8940 H     1 <1>   0.0800 
 51 H        7.2460    -2.5110     1.8340 H     1 <1>   0.1500 
 52 H        8.7990    -0.6270     1.2890 H     1 <1>   0.1500 
 53 H        8.2850    -0.6580    -0.4160 H     1 <1>   0.1500 
@<TRIPOS>BOND
  1   1   2  1   
  2   1   3  1   
  3   2   4  1   
  4   2   5  1   
  5   2   6  1   
  6   3   7  1   
  7   3  22  1   
  8   3  23  1   
  9   4   8  1   
 10   4   9  1   
 11   4  24  1   
 12   5  10  1   
 13   5  25  1   
 14   5  26  1   
 15   6  11  1   
 16   6  27  1   
 17   6  28  1   
 18   7   9  1   
 19   7  29  1   
 20   7  30  1   
 21   8  31  1   
 22   9  12  1   
 23   9  13  1   
 24  10  14  1   
 25  10  32  1   
 26  10  33  1   
 27  11  14  1   
 28  11  34  1   
 29  11  35  1   
 30  12  36  1   
 31  13  37  1   
 32  13  38  1   
 33  13  39  1   
 34  14  15  1   
 35  14  40  1   
 36  15  16  1   
 37  15  41  1   
 38  15  42  1   
 39  16  17  1   
 40  16  18  1   
 41  16  19  1   
 42  17  20  1   
 43  17  43  1   
 44  17  44  1   
 45  18  45  1   
 46  18  46  1   
 47  18  47  1   
 48  19  48  1   
 49  19  49  1   
 50  19  50  1   
 51  20  21  2   
 52  20  51  1   
 53  21  52  1   
 54  21  53  1   
@<TRIPOS>SUBSTRUCTURE
  1 ****   1 GROUP 4 **** **** 0

# MOE 2024.06 (io_trps.svl 2023.06)
