@<TRIPOS>MOLECULE
NONAME
40 41 1 0 0 
SMALL
USER_CHARGES


@<TRIPOS>ATOM
  1 S        1.8090     0.5220    -0.0440 S.3   1 <1>  -0.2860 
  2 C        1.3970    -1.2140    -0.1480 C.2   1 <1>   0.5340 
  3 C        0.4170     1.3260    -0.9830 C.3   1 <1>   0.1310 
  4 O        2.1740    -2.0780     0.4090 O.3   1 <1>  -0.2800 
  5 N        0.3810    -1.7160    -0.7340 N.2   1 <1>  -0.3380 
  6 C        0.5560     2.8410    -1.0220 C.2   1 <1>   0.5690 
  7 C        1.5770    -3.1960     0.1370 C.2   1 <1>   0.2980 
  8 N        0.5030    -3.0330    -0.5420 N.2   1 <1>  -0.3380 
  9 O       -0.2590     3.4600    -1.6620 O.2   1 <1>  -0.5700 
 10 N        1.5860     3.4310    -0.3380 N.am  1 <1>  -0.4940 
 11 C        2.1710    -4.4990     0.6190 C.3   1 <1>  -0.0600 
 12 C        1.9400     4.7990    -0.2360 C.2   1 <1>  -0.0880 
 13 N        2.9820     5.2810     0.4930 N.pl3 1 <1>   0.3140 
 14 C        1.3600     5.8770    -0.8130 C.2   1 <1>  -0.1500 
 15 N        3.0790     6.6260     0.3970 N.2   1 <1>  -0.7070 
 16 C        3.9200     4.5090     1.3320 C.3   1 <1>   0.0960 
 17 C        2.1060     6.9680    -0.3850 C.2   1 <1>   0.1080 
 18 C        4.9660     3.7840     0.4720 C.3   1 <1>  -0.1600 
 19 C        1.8430     8.4050    -0.7680 C.3   1 <1>  -0.0590 
 20 C        5.9040     2.9350     1.3380 C.3   1 <1>  -0.1600 
 21 C        6.9390     2.2090     0.4740 C.3   1 <1>  -0.2400 
 22 H       -0.5010     1.0510    -0.4960 H     1 <1>   0.0800 
 23 H        0.4300     0.9270    -1.9800 H     1 <1>   0.0800 
 24 H        2.1960     2.7700     0.1460 H     1 <1>   0.3700 
 25 H        3.1530    -4.6260     0.2040 H     1 <1>   0.0800 
 26 H        1.5500    -5.3210     0.3100 H     1 <1>   0.0800 
 27 H        2.2370    -4.4930     1.6910 H     1 <1>   0.0800 
 28 H        0.5060     5.9020    -1.4640 H     1 <1>   0.1500 
 29 H        3.3550     3.8060     1.9150 H     1 <1>   0.0800 
 30 H        4.4080     5.1930     2.0030 H     1 <1>   0.0800 
 31 H        5.5420     4.5190    -0.0660 H     1 <1>   0.0800 
 32 H        4.4730     3.1500    -0.2440 H     1 <1>   0.0800 
 33 H        0.9910     8.4700    -1.4180 H     1 <1>   0.0800 
 34 H        2.7040     8.8040    -1.2700 H     1 <1>   0.0800 
 35 H        1.6570     8.9820     0.1190 H     1 <1>   0.0800 
 36 H        5.3350     2.2070     1.8910 H     1 <1>   0.0800 
 37 H        6.4170     3.5660     2.0440 H     1 <1>   0.0800 
 38 H        6.4530     1.5530    -0.2280 H     1 <1>   0.0800 
 39 H        7.5900     1.6200     1.0960 H     1 <1>   0.0800 
 40 H        7.5380     2.9170    -0.0720 H     1 <1>   0.0800 
@<TRIPOS>BOND
  1   1   2  1   
  2   1   3  1   
  3   2   4  1   
  4   2   5  2   
  5   3   6  1   
  6   3  22  1   
  7   3  23  1   
  8   4   7  1   
  9   5   8  1   
 10   6   9  2   
 11   6  10  am  
 12   7   8  2   
 13   7  11  1   
 14  10  12  1   
 15  10  24  1   
 16  11  25  1   
 17  11  26  1   
 18  11  27  1   
 19  12  13  1   
 20  12  14  2   
 21  13  15  1   
 22  13  16  1   
 23  14  17  1   
 24  14  28  1   
 25  15  17  2   
 26  16  18  1   
 27  16  29  1   
 28  16  30  1   
 29  17  19  1   
 30  18  20  1   
 31  18  31  1   
 32  18  32  1   
 33  19  33  1   
 34  19  34  1   
 35  19  35  1   
 36  20  21  1   
 37  20  36  1   
 38  20  37  1   
 39  21  38  1   
 40  21  39  1   
 41  21  40  1   
@<TRIPOS>SUBSTRUCTURE
  1 ****  10 GROUP 4 **** **** 0

# MOE 2024.06 (io_trps.svl 2023.06)
