@<TRIPOS>MOLECULE
NONAME
47 49 1 0 0 
SMALL
USER_CHARGES


@<TRIPOS>ATOM
  1 O       -0.6230     0.1460     0.4470 O.2   1 <1>  -0.5700 
  2 C       -1.5030     0.9300     0.1460 C.2   1 <1>   0.5440 
  3 N       -2.6870     0.4430    -0.3770 N.am  1 <1>  -0.6600 
  4 C       -1.2890     2.3470     0.3600 C.ar  1 <1>   0.0860 
  5 C       -3.9280     1.2740    -0.4080 C.3   1 <1>   0.2200 
  6 C       -2.7870    -0.9950    -0.7730 C.3   1 <1>   0.0600 
  7 C       -1.0640     2.8550     1.6380 C.ar  1 <1>  -0.1500 
  8 C       -1.3130     3.2540    -0.7010 C.ar  1 <1>  -0.1500 
  9 C       -5.1450     0.6230     0.2480 C.3   1 <1>  -0.1600 
 10 C       -4.3950     1.6020    -1.8220 C.3   1 <1>  -0.1600 
 11 C       -0.9000     4.2110     1.8520 C.ar  1 <1>  -0.1500 
 12 C       -1.1500     4.6120    -0.4960 C.ar  1 <1>  -0.1500 
 13 C       -6.3380     1.4000    -0.3230 C.3   1 <1>  -0.0800 
 14 C       -5.8600     2.0210    -1.6490 C.3   1 <1>  -0.0800 
 15 C       -0.9470     5.1010     0.7920 C.ar  1 <1>   0.0830 
 16 C       -6.7870     2.5690     0.5670 C.3   1 <1>  -0.1600 
 17 C       -6.0430     3.5390    -1.5080 C.3   1 <1>  -0.1600 
 18 O       -0.7870     6.4110     1.0840 O.3   1 <1>  -0.3620 
 19 C       -7.0750     3.7030    -0.4040 C.3   1 <1>   0.2000 
 20 C       -0.7740     7.4020     0.0840 C.3   1 <1>   0.1200 
 21 O       -6.9130     4.9180     0.2210 O.3   1 <1>  -0.6800 
 22 C       -0.5590     8.7530     0.7600 C.3   1 <1>  -0.2400 
 23 H       -3.7600     2.2040     0.1070 H     1 <1>   0.0800 
 24 H       -3.4760    -1.1220    -1.5870 H     1 <1>   0.0800 
 25 H       -3.1180    -1.5770     0.0690 H     1 <1>   0.0800 
 26 H       -1.8230    -1.3620    -1.0840 H     1 <1>   0.0800 
 27 H       -1.0200     2.1690     2.4670 H     1 <1>   0.1500 
 28 H       -1.4620     2.8770    -1.6970 H     1 <1>   0.1500 
 29 H       -5.2390    -0.4020    -0.0570 H     1 <1>   0.0800 
 30 H       -5.0930     0.6710     1.3210 H     1 <1>   0.0800 
 31 H       -3.7990     2.3730    -2.2740 H     1 <1>   0.0800 
 32 H       -4.3580     0.7230    -2.4380 H     1 <1>   0.0800 
 33 H       -0.7310     4.5900     2.8440 H     1 <1>   0.1500 
 34 H       -1.1800     5.2710    -1.3430 H     1 <1>   0.1500 
 35 H       -7.1720     0.7400    -0.5000 H     1 <1>   0.0800 
 36 H       -6.4590     1.6570    -2.4680 H     1 <1>   0.0800 
 37 H       -5.9920     2.8560     1.2340 H     1 <1>   0.0800 
 38 H       -7.6620     2.3140     1.1380 H     1 <1>   0.0800 
 39 H       -6.3850     3.9800    -2.4280 H     1 <1>   0.0800 
 40 H       -5.1180     4.0010    -1.2090 H     1 <1>   0.0800 
 41 H       -8.0780     3.6370    -0.7950 H     1 <1>   0.0800 
 42 H        0.0290     7.1860    -0.5990 H     1 <1>   0.0800 
 43 H       -1.7190     7.3810    -0.4300 H     1 <1>   0.0800 
 44 H       -6.0160     4.9810     0.5990 H     1 <1>   0.4000 
 45 H        0.3800     8.7570     1.2850 H     1 <1>   0.0800 
 46 H       -1.3580     8.9510     1.4510 H     1 <1>   0.0800 
 47 H       -0.5420     9.5330     0.0200 H     1 <1>   0.0800 
@<TRIPOS>BOND
  1   1   2  2   
  2   2   3  am  
  3   2   4  1   
  4   3   5  1   
  5   3   6  1   
  6   4   7  ar  
  7   4   8  ar  
  8   5   9  1   
  9   5  10  1   
 10   5  23  1   
 11   6  24  1   
 12   6  25  1   
 13   6  26  1   
 14   7  11  ar  
 15   7  27  1   
 16   8  12  ar  
 17   8  28  1   
 18   9  13  1   
 19   9  29  1   
 20   9  30  1   
 21  10  14  1   
 22  10  31  1   
 23  10  32  1   
 24  11  15  ar  
 25  11  33  1   
 26  12  15  ar  
 27  12  34  1   
 28  13  14  1   
 29  13  16  1   
 30  13  35  1   
 31  14  17  1   
 32  14  36  1   
 33  15  18  1   
 34  16  19  1   
 35  16  37  1   
 36  16  38  1   
 37  17  19  1   
 38  17  39  1   
 39  17  40  1   
 40  18  20  1   
 41  19  21  1   
 42  19  41  1   
 43  20  22  1   
 44  20  42  1   
 45  20  43  1   
 46  21  44  1   
 47  22  45  1   
 48  22  46  1   
 49  22  47  1   
@<TRIPOS>SUBSTRUCTURE
  1 ****   8 GROUP 4 **** **** 0

# MOE 2024.06 (io_trps.svl 2023.06)
