@<TRIPOS>MOLECULE
NONAME
46 48 1 0 0 
SMALL
USER_CHARGES


@<TRIPOS>ATOM
  1 O        0.2760    -0.4120    -0.1970 O.2   1 <1>  -0.5700 
  2 C        1.3590    -0.9170    -0.0750 C.2   1 <1>   0.5690 
  3 N        1.5900    -1.8350     0.8950 N.am  1 <1>  -0.4900 
  4 C        2.4910    -0.5460    -1.0170 C.3   1 <1>  -0.0990 
  5 C        2.7750    -2.4410     1.1520 C.2   1 <1>   0.5690 
  6 C        3.8880    -0.7320    -0.3780 C.3   1 <1>   0.0000 
  7 O        2.8940    -3.1960     2.0780 O.2   1 <1>  -0.5700 
  8 C        3.9540    -2.1510     0.2430 C.3   1 <1>  -0.0990 
  9 C        4.1140     0.3610     0.6990 C.3   1 <1>  -0.1600 
 10 C        4.9650    -0.5760    -1.4760 C.3   1 <1>  -0.1600 
 11 C        5.5480     0.4000     1.2410 C.3   1 <1>   0.2090 
 12 C        6.3930    -0.5710    -0.9220 C.3   1 <1>   0.2090 
 13 N        6.4900     0.4840     0.1060 N.pl3 1 <1>  -0.8380 
 14 C        7.5450     1.3700     0.0880 C.ar  1 <1>   0.4100 
 15 N        8.7420     0.7950     0.1500 N.ar  1 <1>  -0.6200 
 16 C        7.3530     2.7600     0.0170 C.ar  1 <1>   0.0860 
 17 C        9.7940     1.5870     0.1580 C.ar  1 <1>   0.1670 
 18 C        6.0420     3.3490    -0.0660 C.2   1 <1>   0.5440 
 19 C        8.4800     3.5670     0.0280 C.ar  1 <1>  -0.1500 
 20 C        9.7230     2.9760     0.0990 C.ar  1 <1>  -0.1440 
 21 C       11.1320     0.8750     0.2330 C.3   1 <1>  -0.0970 
 22 O        5.3340     3.2510    -1.0470 O.2   1 <1>  -0.5700 
 23 N        5.5510     4.0970     0.9510 N.am  1 <1>  -0.8000 
 24 C       10.9660     3.8570     0.1020 C.3   1 <1>  -0.0970 
 25 H        0.8140    -2.0590     1.5110 H     1 <1>   0.3700 
 26 H        2.3610     0.4730    -1.3340 H     1 <1>   0.0800 
 27 H        2.4010    -1.1680    -1.8880 H     1 <1>   0.0800 
 28 H        3.9460    -2.8900    -0.5370 H     1 <1>   0.0800 
 29 H        4.8600    -2.2890     0.8030 H     1 <1>   0.0800 
 30 H        3.4400     0.2390     1.5260 H     1 <1>   0.0800 
 31 H        3.9100     1.3270     0.2700 H     1 <1>   0.0800 
 32 H        4.8180     0.3580    -1.9910 H     1 <1>   0.0800 
 33 H        4.8780    -1.3610    -2.2050 H     1 <1>   0.0800 
 34 H        5.7640    -0.4860     1.8130 H     1 <1>   0.0800 
 35 H        5.6740     1.2510     1.8880 H     1 <1>   0.0800 
 36 H        7.0930    -0.3680    -1.7160 H     1 <1>   0.0800 
 37 H        6.6470    -1.5200    -0.4850 H     1 <1>   0.0800 
 38 H        8.3700     4.6360    -0.0290 H     1 <1>   0.1500 
 39 H       10.9890    -0.1640     0.4710 H     1 <1>   0.0800 
 40 H       11.7490     1.3120     0.9960 H     1 <1>   0.0800 
 41 H       11.6310     0.9420    -0.7150 H     1 <1>   0.0800 
 42 H        4.6340     4.5320     0.8430 H     1 <1>   0.3700 
 43 H        6.0540     4.2700     1.8200 H     1 <1>   0.3700 
 44 H       11.6360     3.5540    -0.6830 H     1 <1>   0.0800 
 45 H       11.4730     3.7770     1.0470 H     1 <1>   0.0800 
 46 H       10.7090     4.8880    -0.0580 H     1 <1>   0.0800 
@<TRIPOS>BOND
  1   1   2  2   
  2   2   3  am  
  3   2   4  1   
  4   3   5  am  
  5   3  25  1   
  6   4   6  1   
  7   4  26  1   
  8   4  27  1   
  9   5   7  2   
 10   5   8  1   
 11   6   8  1   
 12   6   9  1   
 13   6  10  1   
 14   8  28  1   
 15   8  29  1   
 16   9  11  1   
 17   9  30  1   
 18   9  31  1   
 19  10  12  1   
 20  10  32  1   
 21  10  33  1   
 22  11  13  1   
 23  11  34  1   
 24  11  35  1   
 25  12  13  1   
 26  12  36  1   
 27  12  37  1   
 28  13  14  1   
 29  14  15  ar  
 30  14  16  ar  
 31  15  17  ar  
 32  16  18  1   
 33  16  19  ar  
 34  17  20  ar  
 35  17  21  1   
 36  18  22  2   
 37  18  23  am  
 38  19  20  ar  
 39  19  38  1   
 40  20  24  1   
 41  21  39  1   
 42  21  40  1   
 43  21  41  1   
 44  23  42  1   
 45  23  43  1   
 46  24  44  1   
 47  24  45  1   
 48  24  46  1   
@<TRIPOS>SUBSTRUCTURE
  1 ****  13 GROUP 4 **** **** 0

# MOE 2024.06 (io_trps.svl 2023.06)
