@<TRIPOS>MOLECULE
NONAME
61 63 1 0 0 
SMALL
USER_CHARGES


@<TRIPOS>ATOM
  1 O        0.6000    -0.7750     1.1650 O.3   1 <1>  -0.3630 
  2 C        0.1720    -1.8810     0.4990 C.ar  1 <1>   0.0820 
  3 C       -0.0120     0.4880     1.0160 C.3   1 <1>   0.0400 
  4 C        0.9150    -3.0540     0.6190 C.ar  1 <1>  -0.1440 
  5 C       -0.9660    -1.8650    -0.2960 C.ar  1 <1>  -0.1500 
  6 C        0.5180    -4.2000    -0.0690 C.ar  1 <1>  -0.1430 
  7 C        2.1700    -3.0480     1.5020 C.3   1 <1>  -0.0960 
  8 C       -1.3850    -3.0000    -0.9620 C.ar  1 <1>  -0.1430 
  9 C       -0.6560    -4.1790    -0.8300 C.ar  1 <1>  -0.1430 
 10 C        1.4030    -5.4500     0.0160 C.3   1 <1>  -0.0970 
 11 C       -2.6370    -2.8910    -1.8300 C.3   1 <1>  -0.0970 
 12 C       -1.1730    -5.4420    -1.4990 C.3   1 <1>   0.4860 
 13 N       -1.6540    -6.3560    -0.4190 N.4   1 <1>  -0.9590 
 14 C       -1.9420    -7.7400    -0.9390 C.3   1 <1>   0.3430 
 15 C       -2.8310    -5.7520     0.2770 C.3   1 <1>   0.3430 
 16 C       -2.4980    -8.7160     0.1480 C.3   1 <1>   0.4230 
 17 C       -3.2860    -6.6710     1.4140 C.3   1 <1>  -0.1600 
 18 N       -2.7650   -10.1460    -0.3240 N.4   1 <1>  -0.9590 
 19 C       -3.6810    -8.1010     0.9530 C.3   1 <1>   0.0000 
 20 C       -3.6110   -10.9500     0.6260 C.3   1 <1>   0.3430 
 21 C       -3.3500   -10.2620    -1.7040 C.3   1 <1>   0.2630 
 22 C       -3.9150    -8.9700     2.2220 C.3   1 <1>  -0.1600 
 23 C       -5.0170    -8.0340     0.1570 C.3   1 <1>   0.1200 
 24 C       -3.4720   -10.4400     2.0610 C.3   1 <1>  -0.1600 
 25 O       -4.8370    -7.4940    -1.1090 O.3   1 <1>  -0.6800 
 26 H        0.5390     1.1960     1.6080 H     1 <1>   0.0800 
 27 H       -1.0260     0.4290     1.3690 H     1 <1>   0.0800 
 28 H        0.0240     0.7730    -0.0210 H     1 <1>   0.0800 
 29 H       -1.5340    -0.9610    -0.4020 H     1 <1>   0.1500 
 30 H        2.2910    -3.9790     2.0220 H     1 <1>   0.0800 
 31 H        2.1240    -2.2830     2.2560 H     1 <1>   0.0800 
 32 H        3.0390    -2.8660     0.8950 H     1 <1>   0.0800 
 33 H        1.2130    -6.1600    -0.7650 H     1 <1>   0.0800 
 34 H        1.2790    -5.9290     0.9700 H     1 <1>   0.0800 
 35 H        2.4370    -5.1700    -0.0870 H     1 <1>   0.0800 
 36 H       -3.0090    -1.8810    -1.8420 H     1 <1>   0.0800 
 37 H       -3.4230    -3.5210    -1.4580 H     1 <1>   0.0800 
 38 H       -2.4110    -3.1610    -2.8460 H     1 <1>   0.0800 
 39 H       -0.3750    -5.8990    -2.0590 H     1 <1>   0.0800 
 40 H       -1.9740    -5.2150    -2.1810 H     1 <1>   0.0800 
 41 H       -0.8840    -6.3520     0.2640 H     1 <1>   0.4500 
 42 H       -2.6630    -7.6630    -1.7350 H     1 <1>   0.0800 
 43 H       -1.0370    -8.1570    -1.3480 H     1 <1>   0.0800 
 44 H       -2.5630    -4.7880     0.6840 H     1 <1>   0.0800 
 45 H       -3.6390    -5.6050    -0.4210 H     1 <1>   0.0800 
 46 H       -1.7010    -8.7970     0.8670 H     1 <1>   0.0800 
 47 H       -2.4910    -6.7120     2.1390 H     1 <1>   0.0800 
 48 H       -4.1240    -6.2070     1.9070 H     1 <1>   0.0800 
 49 H       -1.8540   -10.6300    -0.3430 H     1 <1>   0.4500 
 50 H       -4.6480   -10.8820     0.3390 H     1 <1>   0.0800 
 51 H       -3.3280   -11.9910     0.5800 H     1 <1>   0.0800 
 52 H       -4.3090    -9.7730    -1.7530 H     1 <1>   0.0800 
 53 H       -3.4860   -11.3000    -1.9660 H     1 <1>   0.0800 
 54 H       -2.6980    -9.8160    -2.4370 H     1 <1>   0.0800 
 55 H       -3.3820    -8.5710     3.0690 H     1 <1>   0.0800 
 56 H       -4.9580    -8.9440     2.4940 H     1 <1>   0.0800 
 57 H       -5.7340    -7.4210     0.6810 H     1 <1>   0.0800 
 58 H       -5.4520    -9.0110     0.0340 H     1 <1>   0.0800 
 59 H       -4.0650   -11.0590     2.7130 H     1 <1>   0.0800 
 60 H       -2.4480   -10.5550     2.3740 H     1 <1>   0.0800 
 61 H       -5.7120    -7.3150    -1.5270 H     1 <1>   0.4000 
@<TRIPOS>BOND
  1   1   2  1   
  2   1   3  1   
  3   2   4  ar  
  4   2   5  ar  
  5   3  26  1   
  6   3  27  1   
  7   3  28  1   
  8   4   6  ar  
  9   4   7  1   
 10   5   8  ar  
 11   5  29  1   
 12   6   9  ar  
 13   6  10  1   
 14   7  30  1   
 15   7  31  1   
 16   7  32  1   
 17   8   9  ar  
 18   8  11  1   
 19   9  12  1   
 20  10  33  1   
 21  10  34  1   
 22  10  35  1   
 23  11  36  1   
 24  11  37  1   
 25  11  38  1   
 26  12  13  1   
 27  12  39  1   
 28  12  40  1   
 29  13  14  1   
 30  13  15  1   
 31  13  41  1   
 32  14  16  1   
 33  14  42  1   
 34  14  43  1   
 35  15  17  1   
 36  15  44  1   
 37  15  45  1   
 38  16  18  1   
 39  16  19  1   
 40  16  46  1   
 41  17  19  1   
 42  17  47  1   
 43  17  48  1   
 44  18  20  1   
 45  18  21  1   
 46  18  49  1   
 47  19  22  1   
 48  19  23  1   
 49  20  24  1   
 50  20  50  1   
 51  20  51  1   
 52  21  52  1   
 53  21  53  1   
 54  21  54  1   
 55  22  24  1   
 56  22  55  1   
 57  22  56  1   
 58  23  25  1   
 59  23  57  1   
 60  23  58  1   
 61  24  59  1   
 62  24  60  1   
 63  25  61  1   
@<TRIPOS>SUBSTRUCTURE
  1 ****  13 GROUP 4 **** **** 0

# MOE 2024.06 (io_trps.svl 2023.06)
