@<TRIPOS>MOLECULE
NONAME
59 62 1 0 0 
SMALL
USER_CHARGES


@<TRIPOS>ATOM
  1 O        2.2290     0.5480     2.7640 O.2   1 <1>  -0.5700 
  2 C        2.0450     0.6710     1.5650 C.2   1 <1>   0.5440 
  3 N        1.1610     1.6430     1.1240 N.am  1 <1>  -0.6600 
  4 C        2.7900    -0.1750     0.6650 C.ar  1 <1>   0.0860 
  5 C        0.8910     1.9020    -0.3160 C.3   1 <1>   0.0600 
  6 C        0.3280     2.4460     2.0610 C.3   1 <1>   0.0600 
  7 C        2.1790    -1.1210    -0.1870 C.ar  1 <1>   0.4100 
  8 C        4.1720    -0.0550     0.6210 C.ar  1 <1>  -0.1500 
  9 N        2.8640    -1.8570    -1.0660 N.ar  1 <1>  -0.6200 
 10 N        0.8140    -1.3640    -0.1720 N.pl3 1 <1>  -0.8380 
 11 C        4.8700    -0.8360    -0.2700 C.ar  1 <1>  -0.1500 
 12 C        4.1720    -1.7060    -1.0850 C.ar  1 <1>   0.1600 
 13 C        0.0660    -1.7050    -1.4130 C.3   1 <1>   0.2090 
 14 C        0.1150    -1.7440     1.0880 C.3   1 <1>   0.2090 
 15 C       -0.2270    -3.2040    -1.4410 C.3   1 <1>  -0.1600 
 16 C       -0.1870    -3.2420     1.0700 C.3   1 <1>  -0.1600 
 17 C       -0.9750    -3.6570    -0.1780 C.3   1 <1>   0.4240 
 18 O       -2.1930    -2.9500    -0.1050 O.3   1 <1>  -0.5600 
 19 C       -1.2060    -5.1850    -0.1840 C.ar  1 <1>  -0.1430 
 20 C       -3.2680    -3.4450    -0.8400 C.3   1 <1>   0.1200 
 21 C       -2.4870    -5.7230    -0.2140 C.ar  1 <1>  -0.1430 
 22 C       -0.1270    -6.0600    -0.1670 C.ar  1 <1>  -0.1500 
 23 C       -3.6830    -4.7920    -0.2570 C.3   1 <1>  -0.0170 
 24 C       -2.6770    -7.0950    -0.2040 C.ar  1 <1>  -0.1500 
 25 C       -0.2980    -7.4340    -0.1700 C.ar  1 <1>   0.0830 
 26 C       -1.5950    -7.9700    -0.1720 C.ar  1 <1>   0.0830 
 27 O        0.8580    -8.1560    -0.1650 O.3   1 <1>  -0.3630 
 28 O       -1.7770    -9.3230    -0.1260 O.3   1 <1>  -0.3620 
 29 C        0.9460    -9.3900    -0.8430 C.3   1 <1>   0.0400 
 30 C       -3.0320    -9.8970     0.1670 C.3   1 <1>   0.0400 
 31 H        1.6990     1.5440    -0.9300 H     1 <1>   0.0800 
 32 H        0.7790     2.9580    -0.4850 H     1 <1>   0.0800 
 33 H       -0.0140     1.3980    -0.6060 H     1 <1>   0.0800 
 34 H        0.5040     2.1570     3.0820 H     1 <1>   0.0800 
 35 H       -0.7140     2.2950     1.8380 H     1 <1>   0.0800 
 36 H        0.5670     3.4890     1.9550 H     1 <1>   0.0800 
 37 H        4.6730     0.6380     1.2740 H     1 <1>   0.1500 
 38 H        5.9410    -0.7730    -0.3360 H     1 <1>   0.1500 
 39 H        4.7210    -2.3110    -1.7870 H     1 <1>   0.1500 
 40 H        0.6410    -1.4270    -2.2800 H     1 <1>   0.0800 
 41 H       -0.8550    -1.1490    -1.4310 H     1 <1>   0.0800 
 42 H       -0.7970    -1.1790     1.1720 H     1 <1>   0.0800 
 43 H        0.7270    -1.5250     1.9450 H     1 <1>   0.0800 
 44 H        0.7110    -3.7210    -1.5080 H     1 <1>   0.0800 
 45 H       -0.7890    -3.4540    -2.3190 H     1 <1>   0.0800 
 46 H       -0.7440    -3.5120     1.9470 H     1 <1>   0.0800 
 47 H        0.7500    -3.7650     1.1060 H     1 <1>   0.0800 
 48 H       -2.9800    -3.5410    -1.8720 H     1 <1>   0.0800 
 49 H       -4.0740    -2.7370    -0.7630 H     1 <1>   0.0800 
 50 H        0.8790    -5.6830    -0.1550 H     1 <1>   0.1500 
 51 H       -4.4630    -5.2150    -0.8630 H     1 <1>   0.0800 
 52 H       -4.0650    -4.6480     0.7380 H     1 <1>   0.0800 
 53 H       -3.6820    -7.4660    -0.2230 H     1 <1>   0.1500 
 54 H        1.9830    -9.5910    -1.0380 H     1 <1>   0.0800 
 55 H        0.4000    -9.3230    -1.7680 H     1 <1>   0.0800 
 56 H        0.5380   -10.1600    -0.2140 H     1 <1>   0.0800 
 57 H       -2.8970   -10.9580     0.2720 H     1 <1>   0.0800 
 58 H       -3.7080    -9.6950    -0.6440 H     1 <1>   0.0800 
 59 H       -3.3990    -9.4830     1.0900 H     1 <1>   0.0800 
@<TRIPOS>BOND
  1   1   2  2   
  2   2   3  am  
  3   2   4  1   
  4   3   5  1   
  5   3   6  1   
  6   4   7  ar  
  7   4   8  ar  
  8   5  31  1   
  9   5  32  1   
 10   5  33  1   
 11   6  34  1   
 12   6  35  1   
 13   6  36  1   
 14   7   9  ar  
 15   7  10  1   
 16   8  11  ar  
 17   8  37  1   
 18   9  12  ar  
 19  10  13  1   
 20  10  14  1   
 21  11  12  ar  
 22  11  38  1   
 23  12  39  1   
 24  13  15  1   
 25  13  40  1   
 26  13  41  1   
 27  14  16  1   
 28  14  42  1   
 29  14  43  1   
 30  15  17  1   
 31  15  44  1   
 32  15  45  1   
 33  16  17  1   
 34  16  46  1   
 35  16  47  1   
 36  17  18  1   
 37  17  19  1   
 38  18  20  1   
 39  19  21  ar  
 40  19  22  ar  
 41  20  23  1   
 42  20  48  1   
 43  20  49  1   
 44  21  23  1   
 45  21  24  ar  
 46  22  25  ar  
 47  22  50  1   
 48  23  51  1   
 49  23  52  1   
 50  24  26  ar  
 51  24  53  1   
 52  25  26  ar  
 53  25  27  1   
 54  26  28  1   
 55  27  29  1   
 56  28  30  1   
 57  29  54  1   
 58  29  55  1   
 59  29  56  1   
 60  30  57  1   
 61  30  58  1   
 62  30  59  1   
@<TRIPOS>SUBSTRUCTURE
  1 ****  16 GROUP 4 **** **** 0

# MOE 2024.06 (io_trps.svl 2023.06)
