@<TRIPOS>MOLECULE
NONAME
43 44 1 0 0 
SMALL
USER_CHARGES


@<TRIPOS>ATOM
  1 S       -0.3900     0.3070     1.3800 S.o2  1 <1>   1.4470 
  2 O       -0.8520     1.3140     2.3140 O.2   1 <1>  -0.6500 
  3 O       -0.2120    -1.0570     1.8300 O.2   1 <1>  -0.6500 
  4 N       -1.4440     0.3120     0.0520 N.am  1 <1>  -0.8490 
  5 C        1.1570     0.8950     0.6350 C.ar  1 <1>  -0.0090 
  6 C       -1.1940    -0.7710    -0.9390 C.3   1 <1>   0.1960 
  7 C       -2.8620     0.4440     0.4050 C.3   1 <1>   0.1960 
  8 C        2.3290     0.1530     0.7190 C.ar  1 <1>  -0.1500 
  9 C        1.2060     2.1060    -0.0430 C.ar  1 <1>  -0.1500 
 10 C       -2.3010    -1.8450    -1.0590 C.3   1 <1>   0.2000 
 11 C       -3.4410    -0.8500     1.0020 C.3   1 <1>  -0.1600 
 12 C        3.5140     0.5890     0.1480 C.ar  1 <1>  -0.1440 
 13 C        2.3780     2.5620    -0.6170 C.ar  1 <1>  -0.1500 
 14 O       -3.2810    -1.4050    -1.9380 O.3   1 <1>  -0.6800 
 15 C       -2.9540    -2.1410     0.2950 C.3   1 <1>  -0.1860 
 16 C        3.5440     1.8070    -0.5250 C.ar  1 <1>   0.0820 
 17 C        4.7600    -0.2800     0.2830 C.3   1 <1>  -0.0170 
 18 C       -4.0460    -3.1820     0.1380 C.2   1 <1>   0.9060 
 19 O        4.7230     2.2110    -1.0660 O.3   1 <1>  -0.3630 
 20 C        5.5640     0.1230     1.5210 C.3   1 <1>  -0.2400 
 21 O       -3.9790    -4.2250     0.7900 O.co2 1 <1>  -0.9000 
 22 O       -4.9580    -2.9590    -0.6720 O.co2 1 <1>  -0.9000 
 23 C        4.8620     3.4580    -1.7090 C.3   1 <1>   0.0400 
 24 H       -1.0510    -0.3280    -1.9080 H     1 <1>   0.0800 
 25 H       -0.2770    -1.2770    -0.6900 H     1 <1>   0.0800 
 26 H       -3.0050     1.2610     1.0920 H     1 <1>   0.0800 
 27 H       -3.4110     0.6860    -0.4900 H     1 <1>   0.0800 
 28 H        2.3090    -0.7870     1.2450 H     1 <1>   0.1500 
 29 H        0.3070     2.6950    -0.1190 H     1 <1>   0.1500 
 30 H       -1.8950    -2.7510    -1.4760 H     1 <1>   0.0800 
 31 H       -3.1980    -0.9080     2.0480 H     1 <1>   0.0800 
 32 H       -4.5140    -0.7900     0.9320 H     1 <1>   0.0800 
 33 H        2.3620     3.5050    -1.1290 H     1 <1>   0.1500 
 34 H       -4.1080    -1.9260    -1.7020 H     1 <1>   0.4000 
 35 H       -2.1990    -2.5860     0.9160 H     1 <1>   0.0800 
 36 H        4.4760    -1.3150     0.3630 H     1 <1>   0.0800 
 37 H        5.3750    -0.1850    -0.5950 H     1 <1>   0.0800 
 38 H        4.9650     0.0130     2.4070 H     1 <1>   0.0800 
 39 H        5.8740     1.1500     1.4380 H     1 <1>   0.0800 
 40 H        6.4390    -0.4960     1.6120 H     1 <1>   0.0800 
 41 H        5.8840     3.5570    -2.0270 H     1 <1>   0.0800 
 42 H        4.6190     4.2400    -1.0120 H     1 <1>   0.0800 
 43 H        4.2090     3.4850    -2.5640 H     1 <1>   0.0800 
@<TRIPOS>BOND
  1   1   2  2   
  2   1   3  2   
  3   1   4  am  
  4   1   5  1   
  5   4   6  1   
  6   4   7  1   
  7   5   8  ar  
  8   5   9  ar  
  9   6  10  1   
 10   6  24  1   
 11   6  25  1   
 12   7  11  1   
 13   7  26  1   
 14   7  27  1   
 15   8  12  ar  
 16   8  28  1   
 17   9  13  ar  
 18   9  29  1   
 19  10  14  1   
 20  10  15  1   
 21  10  30  1   
 22  11  15  1   
 23  11  31  1   
 24  11  32  1   
 25  12  16  ar  
 26  12  17  1   
 27  13  16  ar  
 28  13  33  1   
 29  14  34  1   
 30  15  18  1   
 31  15  35  1   
 32  16  19  1   
 33  17  20  1   
 34  17  36  1   
 35  17  37  1   
 36  18  21  ar  
 37  18  22  ar  
 38  19  23  1   
 39  20  38  1   
 40  20  39  1   
 41  20  40  1   
 42  23  41  1   
 43  23  42  1   
 44  23  43  1   
@<TRIPOS>SUBSTRUCTURE
  1 ****   1 GROUP 4 **** **** 0

# MOE 2024.06 (io_trps.svl 2023.06)
