@<TRIPOS>MOLECULE
NONAME
50 53 1 0 0 
SMALL
USER_CHARGES


@<TRIPOS>ATOM
  1 O        0.0150    -0.2430     1.9510 O.2   1 <1>  -0.5700 
  2 C       -0.7970     0.5260     1.4990 C.2   1 <1>   0.5690 
  3 N       -1.8050     0.1120     0.6730 N.am  1 <1>  -0.6600 
  4 C       -0.6530     1.9920     1.8690 C.3   1 <1>  -0.0990 
  5 C       -2.8630     0.9530     0.0590 C.3   1 <1>   0.1400 
  6 C       -1.9560    -1.3040     0.2580 C.3   1 <1>   0.1400 
  7 C        0.1380     2.7670     0.8020 C.3   1 <1>  -0.1600 
  8 C       -3.6660     0.0010    -0.8280 C.3   1 <1>   0.2000 
  9 C       -3.3780    -1.4030    -0.2990 C.3   1 <1>  -0.0800 
 10 C        0.3060     4.2440     1.1840 C.3   1 <1>   0.0960 
 11 O       -5.0240     0.2660    -0.7570 O.3   1 <1>  -0.6800 
 12 C       -3.5520    -2.4880    -1.3740 C.3   1 <1>  -0.0170 
 13 N        0.8930     5.0010     0.0630 N.pl3 1 <1>   0.3140 
 14 C       -3.2420    -3.8690    -0.8220 C.ar  1 <1>   0.1660 
 15 N        0.1600     5.4910    -0.9260 N.2   1 <1>  -0.7070 
 16 C        2.1740     5.3020    -0.1640 C.2   1 <1>   0.0360 
 17 N       -2.0110    -4.2750    -0.8840 N.ar  1 <1>  -0.6200 
 18 C       -4.2850    -4.6300    -0.2700 C.ar  1 <1>  -0.1500 
 19 C        1.0490     6.0530    -1.6770 C.2   1 <1>   0.3660 
 20 N        2.3170     5.9670    -1.2530 N.2   1 <1>  -0.5650 
 21 C       -1.7230    -5.5010    -0.3770 C.ar  1 <1>   0.3100 
 22 C       -4.0260    -5.8650     0.2420 C.ar  1 <1>  -0.1500 
 23 C       -2.7040    -6.3380     0.1990 C.ar  1 <1>   0.0000 
 24 C       -0.3970    -5.9590    -0.4220 C.ar  1 <1>  -0.1500 
 25 C       -2.3200    -7.5960     0.7020 C.ar  1 <1>  -0.1500 
 26 C       -0.0440    -7.1860     0.0730 C.ar  1 <1>  -0.1500 
 27 C       -1.0180    -8.0140     0.6420 C.ar  1 <1>  -0.1500 
 28 H       -1.6260     2.4260     2.0070 H     1 <1>   0.0800 
 29 H       -0.1360     2.0480     2.8100 H     1 <1>   0.0800 
 30 H       -3.4830     1.3690     0.8330 H     1 <1>   0.0800 
 31 H       -2.4270     1.7370    -0.5350 H     1 <1>   0.0800 
 32 H       -1.2270    -1.5250    -0.5040 H     1 <1>   0.0800 
 33 H       -1.8080    -1.9720     1.0900 H     1 <1>   0.0800 
 34 H       -0.3790     2.7020    -0.1390 H     1 <1>   0.0800 
 35 H        1.1080     2.3130     0.6840 H     1 <1>   0.0800 
 36 H       -3.3510     0.1070    -1.8530 H     1 <1>   0.0800 
 37 H       -4.0270    -1.6160     0.5320 H     1 <1>   0.0800 
 38 H        0.9410     4.3420     2.0450 H     1 <1>   0.0800 
 39 H       -0.6510     4.6790     1.4080 H     1 <1>   0.0800 
 40 H       -5.3510     0.1270     0.1530 H     1 <1>   0.4000 
 41 H       -2.8960    -2.2900    -2.2040 H     1 <1>   0.0800 
 42 H       -4.5600    -2.4670    -1.7480 H     1 <1>   0.0800 
 43 H        2.9730     5.0120     0.4940 H     1 <1>   0.1500 
 44 H       -5.2810    -4.2260    -0.2570 H     1 <1>   0.1500 
 45 H        0.8100     6.5670    -2.5950 H     1 <1>   0.1500 
 46 H       -4.7980    -6.4770     0.6720 H     1 <1>   0.1500 
 47 H        0.3360    -5.3080    -0.8610 H     1 <1>   0.1500 
 48 H       -3.0730    -8.2270     1.1390 H     1 <1>   0.1500 
 49 H        0.9770    -7.5250     0.0330 H     1 <1>   0.1500 
 50 H       -0.7270    -8.9750     1.0280 H     1 <1>   0.1500 
@<TRIPOS>BOND
  1   1   2  2   
  2   2   3  am  
  3   2   4  1   
  4   3   5  1   
  5   3   6  1   
  6   4   7  1   
  7   4  28  1   
  8   4  29  1   
  9   5   8  1   
 10   5  30  1   
 11   5  31  1   
 12   6   9  1   
 13   6  32  1   
 14   6  33  1   
 15   7  10  1   
 16   7  34  1   
 17   7  35  1   
 18   8   9  1   
 19   8  11  1   
 20   8  36  1   
 21   9  12  1   
 22   9  37  1   
 23  10  13  1   
 24  10  38  1   
 25  10  39  1   
 26  11  40  1   
 27  12  14  1   
 28  12  41  1   
 29  12  42  1   
 30  13  15  1   
 31  13  16  1   
 32  14  17  ar  
 33  14  18  ar  
 34  15  19  2   
 35  16  20  2   
 36  16  43  1   
 37  17  21  ar  
 38  18  22  ar  
 39  18  44  1   
 40  19  20  1   
 41  19  45  1   
 42  21  23  ar  
 43  21  24  ar  
 44  22  23  ar  
 45  22  46  1   
 46  23  25  ar  
 47  24  26  ar  
 48  24  47  1   
 49  25  27  ar  
 50  25  48  1   
 51  26  27  ar  
 52  26  49  1   
 53  27  50  1   
@<TRIPOS>SUBSTRUCTURE
  1 ****   6 GROUP 4 **** **** 0

# MOE 2024.06 (io_trps.svl 2023.06)
