@<TRIPOS>MOLECULE
NONAME
47 49 1 0 0 
SMALL
USER_CHARGES


@<TRIPOS>ATOM
  1 S        0.3090     0.2510    -1.0770 S.o2  1 <1>   1.3330 
  2 O        1.5400    -0.4580    -1.3500 O.2   1 <1>  -0.6500 
  3 O       -0.5790     0.5780    -2.1690 O.2   1 <1>  -0.6500 
  4 N       -0.5930    -0.6720     0.0300 N.am  1 <1>  -0.8490 
  5 C        0.6870     1.7560    -0.1630 C.3   1 <1>  -0.0550 
  6 C       -2.0160    -0.3160     0.0650 C.3   1 <1>   0.1160 
  7 C       -0.4510    -2.1130    -0.2030 C.3   1 <1>   0.1160 
  8 C        1.8560     1.7140     0.8480 C.3   1 <1>  -0.0800 
  9 C        3.2280     1.5310     0.1910 C.3   1 <1>   0.2200 
 10 C        1.8090     0.6140     1.9160 C.3   1 <1>   0.1200 
 11 N        4.0730     2.7090     0.4860 N.am  1 <1>  -0.7300 
 12 C        3.7830     0.2900     0.8860 C.3   1 <1>   0.1200 
 13 O        3.1340     0.2460     2.1150 O.3   1 <1>  -0.5600 
 14 C        4.1130     3.8610    -0.2460 C.2   1 <1>   0.7160 
 15 O        3.3810     3.9550    -1.2150 O.2   1 <1>  -0.5700 
 16 C        4.9910     4.9490     0.1360 C.2   1 <1>   0.1410 
 17 N        5.7860     4.9110     1.2280 N.2   1 <1>  -0.2270 
 18 C        5.1890     6.1440    -0.4650 C.2   1 <1>  -0.3020 
 19 N        6.4370     6.0130     1.3000 N.2   1 <1>  -0.4180 
 20 N        6.0940     6.8020     0.2620 N.pl3 1 <1>   0.5930 
 21 C        6.6240     8.1060     0.0320 C.ar  1 <1>  -0.0230 
 22 C        7.0210     8.9100     1.0980 C.ar  1 <1>  -0.1500 
 23 C        6.7580     8.6090    -1.2620 C.ar  1 <1>  -0.1500 
 24 C        7.5290    10.1780     0.8810 C.ar  1 <1>  -0.1500 
 25 C        7.2660     9.8770    -1.4800 C.ar  1 <1>  -0.1500 
 26 C        7.6510    10.6640    -0.4090 C.ar  1 <1>  -0.1500 
 27 H        0.9180     2.5250    -0.8770 H     1 <1>   0.0800 
 28 H       -0.1980     2.0740     0.3520 H     1 <1>   0.0800 
 29 H       -2.5150    -0.8610     0.8480 H     1 <1>   0.0800 
 30 H       -2.4860    -0.5470    -0.8770 H     1 <1>   0.0800 
 31 H       -2.1330     0.7370     0.2580 H     1 <1>   0.0800 
 32 H       -1.0270    -2.6670     0.5180 H     1 <1>   0.0800 
 33 H        0.5810    -2.4040    -0.1020 H     1 <1>   0.0800 
 34 H       -0.7860    -2.3660    -1.1960 H     1 <1>   0.0800 
 35 H        1.8420     2.6530     1.3720 H     1 <1>   0.0800 
 36 H        3.1770     1.3810    -0.8750 H     1 <1>   0.0800 
 37 H        1.2840    -0.2650     1.5940 H     1 <1>   0.0800 
 38 H        1.3990     0.9620     2.8480 H     1 <1>   0.0800 
 39 H        4.5970     2.6730     1.3640 H     1 <1>   0.3700 
 40 H        4.8470     0.3300     1.0360 H     1 <1>   0.0800 
 41 H        3.5220    -0.6010     0.3410 H     1 <1>   0.0800 
 42 H        4.7300     6.5400    -1.3500 H     1 <1>   0.1500 
 43 H        6.9330     8.5430     2.1070 H     1 <1>   0.1500 
 44 H        6.4710     8.0110    -2.1090 H     1 <1>   0.1500 
 45 H        7.8310    10.7880     1.7150 H     1 <1>   0.1500 
 46 H        7.3640    10.2540    -2.4830 H     1 <1>   0.1500 
 47 H        8.0470    11.6510    -0.5780 H     1 <1>   0.1500 
@<TRIPOS>BOND
  1   1   2  2   
  2   1   3  2   
  3   1   4  am  
  4   1   5  1   
  5   4   6  1   
  6   4   7  1   
  7   5   8  1   
  8   5  27  1   
  9   5  28  1   
 10   6  29  1   
 11   6  30  1   
 12   6  31  1   
 13   7  32  1   
 14   7  33  1   
 15   7  34  1   
 16   8   9  1   
 17   8  10  1   
 18   8  35  1   
 19   9  11  1   
 20   9  12  1   
 21   9  36  1   
 22  10  13  1   
 23  10  37  1   
 24  10  38  1   
 25  11  14  am  
 26  11  39  1   
 27  12  13  1   
 28  12  40  1   
 29  12  41  1   
 30  14  15  2   
 31  14  16  1   
 32  16  17  1   
 33  16  18  2   
 34  17  19  2   
 35  18  20  1   
 36  18  42  1   
 37  19  20  1   
 38  20  21  1   
 39  21  22  ar  
 40  21  23  ar  
 41  22  24  ar  
 42  22  43  1   
 43  23  25  ar  
 44  23  44  1   
 45  24  26  ar  
 46  24  45  1   
 47  25  26  ar  
 48  25  46  1   
 49  26  47  1   
@<TRIPOS>SUBSTRUCTURE
  1 ****  14 GROUP 4 **** **** 0

# MOE 2024.06 (io_trps.svl 2023.06)
