@<TRIPOS>MOLECULE
NONAME
46 48 1 0 0 
SMALL
USER_CHARGES


@<TRIPOS>ATOM
  1 O       -1.2190     0.1040    -2.9130 O.2   1 <1>  -0.5700 
  2 C       -1.4840     0.8790    -2.0230 C.2   1 <1>   0.5690 
  3 N       -2.2450     0.4860    -0.9510 N.am  1 <1>  -0.6600 
  4 C       -0.9750     2.3180    -2.1660 C.3   1 <1>   0.1810 
  5 C       -2.6150     1.3250     0.2170 C.3   1 <1>   0.1400 
  6 C       -2.6890    -0.9130    -0.7560 C.3   1 <1>   0.1400 
  7 O       -0.3660     2.7970    -0.9940 O.3   1 <1>  -0.5600 
  8 C       -3.4850     0.4180     1.0870 C.3   1 <1>   0.2000 
  9 C       -3.0750    -1.0070     0.7210 C.3   1 <1>  -0.0800 
 10 C        0.1850     4.0710    -1.1060 C.3   1 <1>   0.2640 
 11 O       -3.2730     0.6450     2.4380 O.3   1 <1>  -0.6800 
 12 C       -4.1750    -2.0400     1.0100 C.3   1 <1>  -0.0170 
 13 C        0.6590     4.5130     0.2690 C.ar  1 <1>  -0.1440 
 14 C       -3.7260    -3.4400     0.6220 C.ar  1 <1>  -0.1440 
 15 C        1.5610     3.7340     0.9780 C.ar  1 <1>  -0.1500 
 16 C        0.2020     5.6980     0.8270 C.ar  1 <1>  -0.1500 
 17 C       -4.0860    -4.0230    -0.5770 C.ar  1 <1>  -0.1500 
 18 C       -2.9280    -4.1990     1.4530 C.ar  1 <1>  -0.1500 
 19 C        2.0050     4.1340     2.2270 C.ar  1 <1>  -0.1500 
 20 C        0.6430     6.0990     2.0770 C.ar  1 <1>  -0.1500 
 21 C       -3.6410    -5.2990    -0.8780 C.ar  1 <1>   0.1600 
 22 C       -2.5380    -5.4680     1.0570 C.ar  1 <1>   0.1600 
 23 C        1.5460     5.3180     2.7770 C.ar  1 <1>  -0.1500 
 24 N       -2.8750    -6.0360    -0.0890 N.ar  1 <1>  -0.6200 
 25 H       -1.8030     2.9580    -2.4080 H     1 <1>   0.0800 
 26 H       -0.2530     2.3510    -2.9620 H     1 <1>   0.0800 
 27 H       -1.7220     1.6130     0.7440 H     1 <1>   0.0800 
 28 H       -3.1590     2.1970    -0.0990 H     1 <1>   0.0800 
 29 H       -3.5380    -1.0980    -1.3910 H     1 <1>   0.0800 
 30 H       -1.9010    -1.6060    -1.0030 H     1 <1>   0.0800 
 31 H       -4.5250     0.5940     0.8720 H     1 <1>   0.0800 
 32 H       -2.1850    -1.2710     1.2650 H     1 <1>   0.0800 
 33 H        1.0140     4.0290    -1.7910 H     1 <1>   0.0800 
 34 H       -0.5670     4.7430    -1.4820 H     1 <1>   0.0800 
 35 H       -2.3210     0.5750     2.6470 H     1 <1>   0.4000 
 36 H       -5.0710    -1.7830     0.4720 H     1 <1>   0.0800 
 37 H       -4.4120    -2.0220     2.0600 H     1 <1>   0.0800 
 38 H        1.9160     2.8090     0.5560 H     1 <1>   0.1500 
 39 H       -0.5000     6.3150     0.2950 H     1 <1>   0.1500 
 40 H       -4.7070    -3.5000    -1.2800 H     1 <1>   0.1500 
 41 H       -2.6060    -3.8160     2.4040 H     1 <1>   0.1500 
 42 H        2.7050     3.5230     2.7700 H     1 <1>   0.1500 
 43 H        0.2850     7.0190     2.5050 H     1 <1>   0.1500 
 44 H       -3.9300    -5.7380    -1.8170 H     1 <1>   0.1500 
 45 H       -1.9160    -6.0450     1.7180 H     1 <1>   0.1500 
 46 H        1.8890     5.6300     3.7480 H     1 <1>   0.1500 
@<TRIPOS>BOND
  1   1   2  2   
  2   2   3  am  
  3   2   4  1   
  4   3   5  1   
  5   3   6  1   
  6   4   7  1   
  7   4  25  1   
  8   4  26  1   
  9   5   8  1   
 10   5  27  1   
 11   5  28  1   
 12   6   9  1   
 13   6  29  1   
 14   6  30  1   
 15   7  10  1   
 16   8   9  1   
 17   8  11  1   
 18   8  31  1   
 19   9  12  1   
 20   9  32  1   
 21  10  13  1   
 22  10  33  1   
 23  10  34  1   
 24  11  35  1   
 25  12  14  1   
 26  12  36  1   
 27  12  37  1   
 28  13  15  ar  
 29  13  16  ar  
 30  14  17  ar  
 31  14  18  ar  
 32  15  19  ar  
 33  15  38  1   
 34  16  20  ar  
 35  16  39  1   
 36  17  21  ar  
 37  17  40  1   
 38  18  22  ar  
 39  18  41  1   
 40  19  23  ar  
 41  19  42  1   
 42  20  23  ar  
 43  20  43  1   
 44  21  24  ar  
 45  21  44  1   
 46  22  24  ar  
 47  22  45  1   
 48  23  46  1   
@<TRIPOS>SUBSTRUCTURE
  1 ****   3 GROUP 4 **** **** 0

# MOE 2024.06 (io_trps.svl 2023.06)
