@<TRIPOS>MOLECULE
NONAME
40 41 1 0 0 
SMALL
USER_CHARGES


@<TRIPOS>ATOM
  1 CL      -2.5970    -2.4150    -2.4510 Cl    1 <1>  -0.1230 
  2 C       -3.1980    -3.8890    -1.7140 C.2   1 <1>   0.1230 
  3 C       -4.4970    -4.1110    -1.2830 C.2   1 <1>   0.1390 
  4 C       -2.5120    -5.0160    -1.4530 C.2   1 <1>  -0.3020 
  5 N       -4.6270    -5.3040    -0.7790 N.2   1 <1>  -0.7070 
  6 N       -3.3980    -5.8630    -0.8870 N.pl3 1 <1>   0.3140 
  7 C       -3.1330    -7.2290    -0.4150 C.3   1 <1>   0.0960 
  8 C       -2.9760    -7.2310     1.1060 C.3   1 <1>   0.1400 
  9 N       -3.1450    -8.6080     1.6130 N.am  1 <1>  -0.7300 
 10 C       -2.2730    -9.6310     1.4180 C.2   1 <1>   0.5690 
 11 O       -1.1660    -9.4370     0.9700 O.2   1 <1>  -0.5700 
 12 C       -2.7230   -11.0650     1.7400 C.3   1 <1>   0.2610 
 13 O       -4.1250   -11.2190     1.5440 O.3   1 <1>  -0.3630 
 14 C       -2.4300   -11.4520     3.1930 C.3   1 <1>  -0.2400 
 15 C       -4.6150   -11.0720     0.2840 C.ar  1 <1>   0.0830 
 16 C       -5.5390   -10.0590     0.0100 C.ar  1 <1>   0.0830 
 17 C       -4.2000   -11.9300    -0.7230 C.ar  1 <1>  -0.1500 
 18 O       -5.9140    -9.2320     1.0310 O.3   1 <1>  -0.3630 
 19 C       -6.0210    -9.9160    -1.2880 C.ar  1 <1>  -0.1500 
 20 C       -4.6850   -11.7760    -2.0100 C.ar  1 <1>  -0.1500 
 21 C       -6.7410    -8.1100     0.8030 C.3   1 <1>   0.0400 
 22 C       -5.5920   -10.7690    -2.2910 C.ar  1 <1>  -0.1500 
 23 H       -5.2940    -3.3910    -1.3540 H     1 <1>   0.1500 
 24 H       -1.4800    -5.2530    -1.6330 H     1 <1>   0.1500 
 25 H       -2.2410    -7.6030    -0.8820 H     1 <1>   0.0800 
 26 H       -3.9660    -7.8410    -0.7020 H     1 <1>   0.0800 
 27 H       -3.7270    -6.6050     1.5570 H     1 <1>   0.0800 
 28 H       -2.0000    -6.8650     1.3760 H     1 <1>   0.0800 
 29 H       -4.1220    -8.8860     1.8000 H     1 <1>   0.3700 
 30 H       -2.2120   -11.7440     1.0820 H     1 <1>   0.0800 
 31 H       -2.9480   -10.7900     3.8630 H     1 <1>   0.0800 
 32 H       -1.3740   -11.3730     3.3820 H     1 <1>   0.0800 
 33 H       -2.7390   -12.4650     3.3750 H     1 <1>   0.0800 
 34 H       -3.5060   -12.7220    -0.5070 H     1 <1>   0.1500 
 35 H       -6.7290    -9.1490    -1.5420 H     1 <1>   0.1500 
 36 H       -4.3590   -12.4410    -2.7920 H     1 <1>   0.1500 
 37 H       -6.8610    -7.5870     1.7340 H     1 <1>   0.0800 
 38 H       -7.7000    -8.4470     0.4500 H     1 <1>   0.0800 
 39 H       -6.2720    -7.4630     0.0820 H     1 <1>   0.0800 
 40 H       -5.9690   -10.6520    -3.2930 H     1 <1>   0.1500 
@<TRIPOS>BOND
  1   1   2  1   
  2   2   3  1   
  3   2   4  2   
  4   3   5  2   
  5   3  23  1   
  6   4   6  1   
  7   4  24  1   
  8   5   6  1   
  9   6   7  1   
 10   7   8  1   
 11   7  25  1   
 12   7  26  1   
 13   8   9  1   
 14   8  27  1   
 15   8  28  1   
 16   9  10  am  
 17   9  29  1   
 18  10  11  2   
 19  10  12  1   
 20  12  13  1   
 21  12  14  1   
 22  12  30  1   
 23  13  15  1   
 24  14  31  1   
 25  14  32  1   
 26  14  33  1   
 27  15  16  ar  
 28  15  17  ar  
 29  16  18  1   
 30  16  19  ar  
 31  17  20  ar  
 32  17  34  1   
 33  18  21  1   
 34  19  22  ar  
 35  19  35  1   
 36  20  22  ar  
 37  20  36  1   
 38  21  37  1   
 39  21  38  1   
 40  21  39  1   
 41  22  40  1   
@<TRIPOS>SUBSTRUCTURE
  1 ****   7 GROUP 4 **** **** 0

# MOE 2024.06 (io_trps.svl 2023.06)
