@<TRIPOS>MOLECULE
NONAME
35 36 1 0 0 
SMALL
USER_CHARGES


@<TRIPOS>ATOM
  1 CL       0.0060     0.1060    -0.5990 Cl    1 <1>  -0.1770 
  2 C        1.2600    -1.0890    -0.3120 C.ar  1 <1>   0.1770 
  3 C        0.9730    -2.4480    -0.3200 C.ar  1 <1>   0.4100 
  4 C        2.5490    -0.6980    -0.0750 C.ar  1 <1>   0.1600 
  5 N        1.9300    -3.3330    -0.1000 N.ar  1 <1>  -0.6200 
  6 N       -0.3000    -2.9250    -0.5450 N.pl3 1 <1>  -0.8690 
  7 N        3.5130    -1.5770     0.1450 N.ar  1 <1>  -0.6200 
  8 C        3.1390    -2.8460     0.1160 C.ar  1 <1>   0.4770 
  9 C       -0.6450    -4.3550    -0.7650 C.3   1 <1>   0.2090 
 10 C        4.2260    -3.8630     0.3680 C.3   1 <1>  -0.0970 
 11 C       -0.8890    -5.0550     0.5760 C.3   1 <1>   0.1400 
 12 N       -1.0530    -6.5250     0.3820 N.am  1 <1>  -0.6600 
 13 C       -2.2550    -7.0420    -0.0280 C.2   1 <1>   0.5690 
 14 C        0.1940    -7.3250     0.5220 C.3   1 <1>   0.1400 
 15 O       -3.2060    -6.3360    -0.2680 O.2   1 <1>  -0.5700 
 16 C       -2.4310    -8.5420    -0.1940 C.3   1 <1>  -0.0990 
 17 C       -0.0970    -8.8230     0.6630 C.3   1 <1>  -0.1600 
 18 C       -1.1070    -9.2940    -0.3870 C.3   1 <1>  -0.1600 
 19 H        2.8000     0.3480    -0.0630 H     1 <1>   0.1500 
 20 H       -1.0450    -2.2480    -0.7390 H     1 <1>   0.4000 
 21 H        0.1630    -4.8410    -1.2830 H     1 <1>   0.0800 
 22 H       -1.5320    -4.4210    -1.3710 H     1 <1>   0.0800 
 23 H        4.0350    -4.7540    -0.2010 H     1 <1>   0.0800 
 24 H        4.2480    -4.1080     1.4120 H     1 <1>   0.0800 
 25 H        5.1810    -3.4650     0.0790 H     1 <1>   0.0800 
 26 H       -1.7790    -4.6530     1.0270 H     1 <1>   0.0800 
 27 H       -0.0600    -4.8660     1.2340 H     1 <1>   0.0800 
 28 H        0.7430    -6.9890     1.3860 H     1 <1>   0.0800 
 29 H        0.8060    -7.1580    -0.3490 H     1 <1>   0.0800 
 30 H       -3.0760    -8.7260    -1.0340 H     1 <1>   0.0800 
 31 H       -2.9260    -8.9080     0.6860 H     1 <1>   0.0800 
 32 H       -0.4790    -9.0150     1.6510 H     1 <1>   0.0800 
 33 H        0.8220    -9.3710     0.5570 H     1 <1>   0.0800 
 34 H       -0.7200    -9.0940    -1.3720 H     1 <1>   0.0800 
 35 H       -1.2720   -10.3530    -0.2970 H     1 <1>   0.0800 
@<TRIPOS>BOND
  1   1   2  1   
  2   2   3  ar  
  3   2   4  ar  
  4   3   5  ar  
  5   3   6  1   
  6   4   7  ar  
  7   4  19  1   
  8   5   8  ar  
  9   6   9  1   
 10   6  20  1   
 11   7   8  ar  
 12   8  10  1   
 13   9  11  1   
 14   9  21  1   
 15   9  22  1   
 16  10  23  1   
 17  10  24  1   
 18  10  25  1   
 19  11  12  1   
 20  11  26  1   
 21  11  27  1   
 22  12  13  am  
 23  12  14  1   
 24  13  15  2   
 25  13  16  1   
 26  14  17  1   
 27  14  28  1   
 28  14  29  1   
 29  16  18  1   
 30  16  30  1   
 31  16  31  1   
 32  17  18  1   
 33  17  32  1   
 34  17  33  1   
 35  18  34  1   
 36  18  35  1   
@<TRIPOS>SUBSTRUCTURE
  1 ****   9 GROUP 4 **** **** 0

# MOE 2024.06 (io_trps.svl 2023.06)
