@<TRIPOS>MOLECULE
NONAME
21 21 1 0 0 
SMALL
USER_CHARGES


@<TRIPOS>ATOM
  1 F        1.0930    -0.4820    -2.0880 F     1 <1>  -0.1900 
  2 C        1.8190    -0.9570    -1.1160 C.ar  1 <1>   0.5000 
  3 N        1.7530    -2.2690    -0.9610 N.ar  1 <1>  -0.6200 
  4 C        2.5690    -0.0620    -0.3570 C.ar  1 <1>  -0.1440 
  5 C        2.4920    -2.7320     0.0330 C.ar  1 <1>   0.1600 
  6 C        3.3270    -0.5830     0.6740 C.ar  1 <1>  -0.1500 
  7 C        2.5690     1.4380    -0.6250 C.3   1 <1>  -0.0160 
  8 C        3.2800    -1.9500     0.8630 C.ar  1 <1>  -0.1500 
  9 C        1.4150     2.1190     0.1190 C.3   1 <1>  -0.1600 
 10 C        1.3910     3.6210    -0.1550 C.3   1 <1>   0.1200 
 11 O        0.3660     4.1800     0.5810 O.3   1 <1>  -0.6800 
 12 H        2.4690    -3.7960     0.1970 H     1 <1>   0.1500 
 13 H        3.9300     0.0440     1.3080 H     1 <1>   0.1500 
 14 H        2.4820     1.6200    -1.6830 H     1 <1>   0.0800 
 15 H        3.5060     1.8600    -0.3030 H     1 <1>   0.0800 
 16 H        3.8500    -2.4100     1.6500 H     1 <1>   0.1500 
 17 H        1.5330     1.9530     1.1770 H     1 <1>   0.0800 
 18 H        0.4850     1.6800    -0.1980 H     1 <1>   0.0800 
 19 H        1.2150     3.8290    -1.1970 H     1 <1>   0.0800 
 20 H        2.3110     4.0880     0.1540 H     1 <1>   0.0800 
 21 H       -0.4900     3.7760     0.3390 H     1 <1>   0.4000 
@<TRIPOS>BOND
  1   1   2  1   
  2   2   3  ar  
  3   2   4  ar  
  4   3   5  ar  
  5   4   6  ar  
  6   4   7  1   
  7   5   8  ar  
  8   5  12  1   
  9   6   8  ar  
 10   6  13  1   
 11   7   9  1   
 12   7  14  1   
 13   7  15  1   
 14   8  16  1   
 15   9  10  1   
 16   9  17  1   
 17   9  18  1   
 18  10  11  1   
 19  10  19  1   
 20  10  20  1   
 21  11  21  1   
@<TRIPOS>SUBSTRUCTURE
  1 ****   4 GROUP 4 **** **** 0

# MOE 2024.06 (io_trps.svl 2023.06)
