@<TRIPOS>MOLECULE
NONAME
45 46 1 0 0 
SMALL
USER_CHARGES


@<TRIPOS>ATOM
  1 S        0.7850    -0.4000    -1.6680 S.o2  1 <1>   1.3330 
  2 O       -0.1810     0.2780    -2.5010 O.2   1 <1>  -0.6500 
  3 O        1.4810    -1.5630    -2.1730 O.2   1 <1>  -0.6500 
  4 N       -0.0040    -0.8450    -0.2300 N.am  1 <1>  -0.8490 
  5 C        2.0220     0.7850    -1.1320 C.3   1 <1>  -0.0550 
  6 C       -1.0480     0.1030     0.1770 C.3   1 <1>   0.1160 
  7 C       -0.5680    -2.1970    -0.3050 C.3   1 <1>   0.1160 
  8 C        3.1400     0.1840    -0.2530 C.3   1 <1>  -0.0800 
  9 C        4.3200     1.1100     0.0090 C.3   1 <1>   0.2760 
 10 C        2.6990    -0.2280     1.1590 C.3   1 <1>   0.1200 
 11 N        3.8380     2.4680     0.2610 N.am  1 <1>  -0.9140 
 12 C        4.8610     0.4970     1.2980 C.3   1 <1>   0.1200 
 13 O        3.7190     0.1690     2.0270 O.3   1 <1>  -0.5600 
 14 S        5.0590     3.6080     0.4180 S.o2  1 <1>   1.3330 
 15 O        5.1690     3.7780     1.8460 O.2   1 <1>  -0.6500 
 16 O        6.1870     3.1370    -0.3510 O.2   1 <1>  -0.6500 
 17 C        4.3520     5.0840    -0.3270 C.3   1 <1>   0.0890 
 18 C        5.2900     6.2870    -0.3040 C.ar  1 <1>  -0.1440 
 19 C        5.9320     6.7350    -1.4490 C.ar  1 <1>   0.1900 
 20 C        5.5350     6.9640     0.8830 C.ar  1 <1>  -0.1500 
 21 F        5.7240     6.1190    -2.5830 F     1 <1>  -0.1900 
 22 C        6.7890     7.8180    -1.4470 C.ar  1 <1>  -0.1500 
 23 C        6.3920     8.0540     0.9040 C.ar  1 <1>  -0.1500 
 24 C        7.0190     8.4830    -0.2550 C.ar  1 <1>  -0.1500 
 25 H        2.4790     1.2040    -2.0070 H     1 <1>   0.0800 
 26 H        1.5400     1.5880    -0.6100 H     1 <1>   0.0800 
 27 H       -1.4500    -0.1790     1.1350 H     1 <1>   0.0800 
 28 H       -1.8470     0.1180    -0.5470 H     1 <1>   0.0800 
 29 H       -0.6390     1.0950     0.2590 H     1 <1>   0.0800 
 30 H       -1.0500    -2.4530     0.6230 H     1 <1>   0.0800 
 31 H        0.2160    -2.9140    -0.4840 H     1 <1>   0.0800 
 32 H       -1.2840    -2.2600    -1.1070 H     1 <1>   0.0800 
 33 H        3.5200    -0.6970    -0.7410 H     1 <1>   0.0800 
 34 H        5.0300     1.0820    -0.8020 H     1 <1>   0.0800 
 35 H        2.5650    -1.2930     1.2390 H     1 <1>   0.0800 
 36 H        1.7990     0.2750     1.4670 H     1 <1>   0.0800 
 37 H        3.4600     2.4070     1.2120 H     1 <1>   0.4200 
 38 H        5.4820     1.1630     1.8710 H     1 <1>   0.0800 
 39 H        5.3990    -0.4120     1.0940 H     1 <1>   0.0800 
 40 H        4.0720     4.8620    -1.3370 H     1 <1>   0.0800 
 41 H        3.4550     5.3440     0.1990 H     1 <1>   0.0800 
 42 H        5.0680     6.6460     1.8010 H     1 <1>   0.1500 
 43 H        7.2660     8.1310    -2.3590 H     1 <1>   0.1500 
 44 H        6.5750     8.5700     1.8320 H     1 <1>   0.1500 
 45 H        7.6830     9.3300    -0.2280 H     1 <1>   0.1500 
@<TRIPOS>BOND
  1   1   2  2   
  2   1   3  2   
  3   1   4  am  
  4   1   5  1   
  5   4   6  1   
  6   4   7  1   
  7   5   8  1   
  8   5  25  1   
  9   5  26  1   
 10   6  27  1   
 11   6  28  1   
 12   6  29  1   
 13   7  30  1   
 14   7  31  1   
 15   7  32  1   
 16   8   9  1   
 17   8  10  1   
 18   8  33  1   
 19   9  11  1   
 20   9  12  1   
 21   9  34  1   
 22  10  13  1   
 23  10  35  1   
 24  10  36  1   
 25  11  14  am  
 26  11  37  1   
 27  12  13  1   
 28  12  38  1   
 29  12  39  1   
 30  14  15  2   
 31  14  16  2   
 32  14  17  1   
 33  17  18  1   
 34  17  40  1   
 35  17  41  1   
 36  18  19  ar  
 37  18  20  ar  
 38  19  21  1   
 39  19  22  ar  
 40  20  23  ar  
 41  20  42  1   
 42  22  24  ar  
 43  22  43  1   
 44  23  24  ar  
 45  23  44  1   
 46  24  45  1   
@<TRIPOS>SUBSTRUCTURE
  1 ****  11 GROUP 4 **** **** 0

# MOE 2024.06 (io_trps.svl 2023.06)
