@<TRIPOS>MOLECULE
NONAME
53 56 1 0 0 
SMALL
USER_CHARGES


@<TRIPOS>ATOM
  1 O       -0.6210     0.2040    -2.4570 O.2   1 <1>  -0.5700 
  2 C       -1.5270     0.8270    -1.9390 C.2   1 <1>   0.5440 
  3 N       -2.7550     0.2230    -1.7730 N.am  1 <1>  -0.6600 
  4 C       -1.3020     2.1960    -1.5130 C.ar  1 <1>   0.0860 
  5 C       -3.9560     0.8990    -1.1950 C.3   1 <1>   0.1400 
  6 C       -2.9830    -1.2250    -2.0600 C.3   1 <1>   0.1400 
  7 C       -1.1040     2.5590    -0.1740 C.ar  1 <1>  -0.1440 
  8 C       -1.3090     3.2010    -2.4780 C.ar  1 <1>  -0.1500 
  9 C       -4.4640     0.1350     0.0420 C.3   1 <1>   0.1900 
 10 C       -3.5400    -1.9450    -0.8200 C.3   1 <1>   0.1100 
 11 C       -0.9570     3.8990     0.1730 C.ar  1 <1>   0.0820 
 12 C       -1.0370     1.5040     0.9330 C.3   1 <1>  -0.0970 
 13 C       -1.1520     4.5290    -2.1370 C.ar  1 <1>  -0.1500 
 14 N       -4.7570    -1.2800    -0.2970 N.3   1 <1>  -0.8100 
 15 C       -5.7120     0.8250     0.6260 C.3   1 <1>   0.1200 
 16 O       -0.7970     4.1960     1.4900 O.3   1 <1>  -0.3630 
 17 C       -0.9820     4.8820    -0.8130 C.ar  1 <1>  -0.1500 
 18 C       -5.3010    -1.9780     0.8920 C.3   1 <1>   0.3330 
 19 O       -6.1730     0.1310     1.7500 O.3   1 <1>  -0.5600 
 20 C       -0.5770     5.5150     1.9400 C.3   1 <1>   0.0400 
 21 C       -5.7360    -3.4010     0.5450 C.ar  1 <1>  -0.1440 
 22 C       -6.5040    -1.2050     1.4750 C.3   1 <1>   0.1200 
 23 C       -6.5070    -3.6560    -0.5810 C.ar  1 <1>  -0.1500 
 24 C       -5.3650    -4.4600     1.3610 C.ar  1 <1>  -0.1500 
 25 C       -6.9030    -4.9470    -0.8860 C.ar  1 <1>  -0.1500 
 26 C       -5.7600    -5.7520     1.0580 C.ar  1 <1>  -0.1500 
 27 C       -6.5290    -5.9960    -0.0660 C.ar  1 <1>  -0.1500 
 28 H       -3.7310     1.9130    -0.9190 H     1 <1>   0.0800 
 29 H       -4.7330     0.9240    -1.9380 H     1 <1>   0.0800 
 30 H       -3.6860    -1.3180    -2.8690 H     1 <1>   0.0800 
 31 H       -2.0670    -1.7020    -2.3630 H     1 <1>   0.0800 
 32 H       -1.4410     2.9250    -3.5100 H     1 <1>   0.1500 
 33 H       -3.6920     0.1700     0.7910 H     1 <1>   0.0800 
 34 H       -2.7780    -1.9710    -0.0600 H     1 <1>   0.0800 
 35 H       -3.7680    -2.9600    -1.0940 H     1 <1>   0.0800 
 36 H       -1.0370     0.5000     0.5510 H     1 <1>   0.0800 
 37 H       -1.8740     1.6200     1.5970 H     1 <1>   0.0800 
 38 H       -0.1330     1.6360     1.5000 H     1 <1>   0.0800 
 39 H       -1.1630     5.2870    -2.9020 H     1 <1>   0.1500 
 40 H       -6.5020     0.8630    -0.1040 H     1 <1>   0.0800 
 41 H       -5.4750     1.8260     0.9380 H     1 <1>   0.0800 
 42 H       -0.8670     5.9210    -0.5730 H     1 <1>   0.1500 
 43 H       -4.5390    -2.0210     1.6500 H     1 <1>   0.0800 
 44 H       -0.4550     5.4870     3.0070 H     1 <1>   0.0800 
 45 H       -1.4310     6.1180     1.6850 H     1 <1>   0.0800 
 46 H        0.3180     5.8960     1.4800 H     1 <1>   0.0800 
 47 H       -6.8210    -1.6610     2.3950 H     1 <1>   0.0800 
 48 H       -7.3270    -1.2190     0.7830 H     1 <1>   0.0800 
 49 H       -6.7950    -2.8430    -1.2250 H     1 <1>   0.1500 
 50 H       -4.7680    -4.2870     2.2390 H     1 <1>   0.1500 
 51 H       -7.5000    -5.1330    -1.7620 H     1 <1>   0.1500 
 52 H       -5.4690    -6.5680     1.6960 H     1 <1>   0.1500 
 53 H       -6.8360    -7.0000    -0.3020 H     1 <1>   0.1500 
@<TRIPOS>BOND
  1   1   2  2   
  2   2   3  am  
  3   2   4  1   
  4   3   5  1   
  5   3   6  1   
  6   4   7  ar  
  7   4   8  ar  
  8   5   9  1   
  9   5  28  1   
 10   5  29  1   
 11   6  10  1   
 12   6  30  1   
 13   6  31  1   
 14   7  11  ar  
 15   7  12  1   
 16   8  13  ar  
 17   8  32  1   
 18   9  14  1   
 19   9  15  1   
 20   9  33  1   
 21  10  14  1   
 22  10  34  1   
 23  10  35  1   
 24  11  16  1   
 25  11  17  ar  
 26  12  36  1   
 27  12  37  1   
 28  12  38  1   
 29  13  17  ar  
 30  13  39  1   
 31  14  18  1   
 32  15  19  1   
 33  15  40  1   
 34  15  41  1   
 35  16  20  1   
 36  17  42  1   
 37  18  21  1   
 38  18  22  1   
 39  18  43  1   
 40  19  22  1   
 41  20  44  1   
 42  20  45  1   
 43  20  46  1   
 44  21  23  ar  
 45  21  24  ar  
 46  22  47  1   
 47  22  48  1   
 48  23  25  ar  
 49  23  49  1   
 50  24  26  ar  
 51  24  50  1   
 52  25  27  ar  
 53  25  51  1   
 54  26  27  ar  
 55  26  52  1   
 56  27  53  1   
@<TRIPOS>SUBSTRUCTURE
  1 ****   9 GROUP 4 **** **** 0

# MOE 2024.06 (io_trps.svl 2023.06)
