@<TRIPOS>MOLECULE
NONAME
42 43 1 0 0 
SMALL
USER_CHARGES


@<TRIPOS>ATOM
  1 CL      -0.0230    -0.5260    -1.2740 Cl    1 <1>  -0.1770 
  2 C       -1.5300    -1.1550    -0.6580 C.ar  1 <1>   0.1770 
  3 C       -1.7630    -2.5150    -0.6970 C.ar  1 <1>  -0.1500 
  4 C       -2.4670    -0.2780    -0.1420 C.ar  1 <1>  -0.1500 
  5 C       -2.9580    -3.0180    -0.2100 C.ar  1 <1>   0.0830 
  6 C       -3.6630    -0.7780     0.3460 C.ar  1 <1>  -0.1500 
  7 O       -3.1240    -4.3620    -0.2770 O.3   1 <1>  -0.3630 
  8 C       -3.9100    -2.1420     0.3130 C.ar  1 <1>  -0.1500 
  9 C       -4.2990    -4.9830     0.1780 C.3   1 <1>   0.1200 
 10 C       -4.1310    -6.4840    -0.0530 C.3   1 <1>  -0.1600 
 11 C       -5.3700    -7.2480     0.4160 C.3   1 <1>   0.3430 
 12 N       -5.3100    -8.6920     0.0060 N.4   1 <1>  -0.9590 
 13 C       -6.5970    -9.4600     0.1900 C.3   1 <1>   0.4230 
 14 C       -4.1610    -9.3720     0.7020 C.3   1 <1>   0.2630 
 15 C       -6.4730   -10.8030    -0.5630 C.3   1 <1>  -0.1600 
 16 C       -7.8150    -8.6390    -0.2930 C.3   1 <1>  -0.1600 
 17 C       -7.6880   -11.7160    -0.3980 C.3   1 <1>   0.0700 
 18 C       -9.1540    -9.3600    -0.1190 C.3   1 <1>   0.0700 
 19 S       -9.0990   -10.8590    -1.1080 S.3   1 <1>  -0.4600 
 20 H       -1.0210    -3.1770    -1.1030 H     1 <1>   0.1500 
 21 H       -2.2590     0.7770    -0.1250 H     1 <1>   0.1500 
 22 H       -4.3990    -0.1050     0.7500 H     1 <1>   0.1500 
 23 H       -4.8460    -2.4960     0.7000 H     1 <1>   0.1500 
 24 H       -5.1280    -4.5880    -0.3850 H     1 <1>   0.0800 
 25 H       -4.4140    -4.7580     1.2260 H     1 <1>   0.0800 
 26 H       -3.2620    -6.8030     0.4920 H     1 <1>   0.0800 
 27 H       -3.9800    -6.6470    -1.1060 H     1 <1>   0.0800 
 28 H       -6.2250    -6.7770    -0.0380 H     1 <1>   0.0800 
 29 H       -5.4700    -7.1690     1.4870 H     1 <1>   0.0800 
 30 H       -5.1190    -8.7040    -1.0070 H     1 <1>   0.4500 
 31 H       -6.7320    -9.6670     1.2400 H     1 <1>   0.0800 
 32 H       -4.3360    -9.4070     1.7660 H     1 <1>   0.0800 
 33 H       -3.2400    -8.8420     0.5230 H     1 <1>   0.0800 
 34 H       -4.0300   -10.3770     0.3410 H     1 <1>   0.0800 
 35 H       -5.6340   -11.3660    -0.2040 H     1 <1>   0.0800 
 36 H       -6.3300   -10.6220    -1.6140 H     1 <1>   0.0800 
 37 H       -7.6990    -8.3820    -1.3310 H     1 <1>   0.0800 
 38 H       -7.9090    -7.7350     0.2790 H     1 <1>   0.0800 
 39 H       -7.9160   -11.9270     0.6330 H     1 <1>   0.0800 
 40 H       -7.5730   -12.6380    -0.9440 H     1 <1>   0.0800 
 41 H       -9.9760    -8.7710    -0.4880 H     1 <1>   0.0800 
 42 H       -9.3400    -9.6490     0.9010 H     1 <1>   0.0800 
@<TRIPOS>BOND
  1   1   2  1   
  2   2   3  ar  
  3   2   4  ar  
  4   3   5  ar  
  5   3  20  1   
  6   4   6  ar  
  7   4  21  1   
  8   5   7  1   
  9   5   8  ar  
 10   6   8  ar  
 11   6  22  1   
 12   7   9  1   
 13   8  23  1   
 14   9  10  1   
 15   9  24  1   
 16   9  25  1   
 17  10  11  1   
 18  10  26  1   
 19  10  27  1   
 20  11  12  1   
 21  11  28  1   
 22  11  29  1   
 23  12  13  1   
 24  12  14  1   
 25  12  30  1   
 26  13  15  1   
 27  13  16  1   
 28  13  31  1   
 29  14  32  1   
 30  14  33  1   
 31  14  34  1   
 32  15  17  1   
 33  15  35  1   
 34  15  36  1   
 35  16  18  1   
 36  16  37  1   
 37  16  38  1   
 38  17  19  1   
 39  17  39  1   
 40  17  40  1   
 41  18  19  1   
 42  18  41  1   
 43  18  42  1   
@<TRIPOS>SUBSTRUCTURE
  1 ****  10 GROUP 4 **** **** 0

# MOE 2024.06 (io_trps.svl 2023.06)
