@<TRIPOS>MOLECULE
NONAME
49 52 1 0 0 
SMALL
USER_CHARGES


@<TRIPOS>ATOM
  1 S        0.1050    -0.1430     1.7910 S.o2  1 <1>   1.4470 
  2 O       -0.4860    -1.2380     2.5290 O.2   1 <1>  -0.6500 
  3 O        0.4860     1.0630     2.4950 O.2   1 <1>  -0.6500 
  4 N       -1.0140     0.3220     0.6050 N.am  1 <1>  -0.8490 
  5 C        1.5010    -0.7710     0.8170 C.ar  1 <1>  -0.0090 
  6 C       -2.3490     0.5330     1.1900 C.3   1 <1>   0.1960 
  7 C       -0.5780     1.5120    -0.1300 C.3   1 <1>   0.1960 
  8 C        2.7900    -0.2790     1.0000 C.ar  1 <1>  -0.1500 
  9 C        1.3140    -1.7610    -0.1410 C.ar  1 <1>  -0.1500 
 10 C       -3.4290     0.8000     0.1120 C.3   1 <1>   0.0000 
 11 C       -1.5480     1.8050    -1.2770 C.3   1 <1>  -0.1600 
 12 C        3.8580    -0.7530     0.2570 C.ar  1 <1>  -0.1430 
 13 C        2.3720    -2.2450    -0.8890 C.ar  1 <1>  -0.1500 
 14 C       -4.7820     1.0250     0.8180 C.3   1 <1>   0.2000 
 15 C       -2.9800     1.9970    -0.7600 C.3   1 <1>  -0.1600 
 16 C       -3.6810    -0.4740    -0.7210 C.3   1 <1>  -0.1600 
 17 C        3.6510    -1.7490    -0.6940 C.ar  1 <1>   0.1170 
 18 C        5.2580    -0.1770     0.4520 C.3   1 <1>  -0.0170 
 19 O       -5.6860     1.6170    -0.0470 O.3   1 <1>  -0.6800 
 20 C       -5.3090    -0.3750     1.1250 C.3   1 <1>  -0.1600 
 21 C       -4.7240    -1.2990     0.0470 C.3   1 <1>  -0.1600 
 22 N        4.7360    -2.2350    -1.4240 N.am  1 <1>  -0.5470 
 23 C        6.3430    -1.2240     0.1480 C.3   1 <1>  -0.0990 
 24 C        6.0350    -1.9960    -1.1200 C.2   1 <1>   0.5690 
 25 O        6.9260    -2.3970    -1.8220 O.2   1 <1>  -0.5700 
 26 H       -2.6280    -0.3400     1.7550 H     1 <1>   0.0800 
 27 H       -2.3070     1.3640     1.8750 H     1 <1>   0.0800 
 28 H       -0.5330     2.3610     0.5340 H     1 <1>   0.0800 
 29 H        0.4060     1.3500    -0.5370 H     1 <1>   0.0800 
 30 H        2.9520     0.4920     1.7350 H     1 <1>   0.1500 
 31 H        0.3230    -2.1550    -0.2970 H     1 <1>   0.1500 
 32 H       -1.2300     2.6950    -1.7910 H     1 <1>   0.0800 
 33 H       -1.5140     0.9910    -1.9810 H     1 <1>   0.0800 
 34 H        2.2030    -3.0140    -1.6210 H     1 <1>   0.1500 
 35 H       -4.7060     1.6460     1.6940 H     1 <1>   0.0800 
 36 H       -3.6460     2.1330    -1.5950 H     1 <1>   0.0800 
 37 H       -3.0200     2.8940    -0.1670 H     1 <1>   0.0800 
 38 H       -4.0890    -0.2070    -1.6800 H     1 <1>   0.0800 
 39 H       -2.7790    -1.0380    -0.8880 H     1 <1>   0.0800 
 40 H        5.3770     0.6550    -0.2200 H     1 <1>   0.0800 
 41 H        5.3810     0.1860     1.4570 H     1 <1>   0.0800 
 42 H       -5.8010     1.0380    -0.8240 H     1 <1>   0.4000 
 43 H       -4.9380    -0.6830     2.0870 H     1 <1>   0.0800 
 44 H       -6.3850    -0.4060     1.1570 H     1 <1>   0.0800 
 45 H       -4.2610    -2.1550     0.5090 H     1 <1>   0.0800 
 46 H       -5.4940    -1.6430    -0.6220 H     1 <1>   0.0800 
 47 H        4.5790    -2.8110    -2.2500 H     1 <1>   0.3700 
 48 H        6.3950    -1.9300     0.9560 H     1 <1>   0.0800 
 49 H        7.3010    -0.7470     0.0540 H     1 <1>   0.0800 
@<TRIPOS>BOND
  1   1   2  2   
  2   1   3  2   
  3   1   4  am  
  4   1   5  1   
  5   4   6  1   
  6   4   7  1   
  7   5   8  ar  
  8   5   9  ar  
  9   6  10  1   
 10   6  26  1   
 11   6  27  1   
 12   7  11  1   
 13   7  28  1   
 14   7  29  1   
 15   8  12  ar  
 16   8  30  1   
 17   9  13  ar  
 18   9  31  1   
 19  10  14  1   
 20  10  15  1   
 21  10  16  1   
 22  11  15  1   
 23  11  32  1   
 24  11  33  1   
 25  12  17  ar  
 26  12  18  1   
 27  13  17  ar  
 28  13  34  1   
 29  14  19  1   
 30  14  20  1   
 31  14  35  1   
 32  15  36  1   
 33  15  37  1   
 34  16  21  1   
 35  16  38  1   
 36  16  39  1   
 37  17  22  1   
 38  18  23  1   
 39  18  40  1   
 40  18  41  1   
 41  19  42  1   
 42  20  21  1   
 43  20  43  1   
 44  20  44  1   
 45  21  45  1   
 46  21  46  1   
 47  22  24  am  
 48  22  47  1   
 49  23  24  1   
 50  23  48  1   
 51  23  49  1   
 52  24  25  2   
@<TRIPOS>SUBSTRUCTURE
  1 ****   5 GROUP 4 **** **** 0

# MOE 2024.06 (io_trps.svl 2023.06)
