@<TRIPOS>MOLECULE
NONAME
34 35 1 0 0 
SMALL
USER_CHARGES


@<TRIPOS>ATOM
  1 O        0.6760    -0.1430     0.4300 O.co2 1 <1>  -0.9000 
  2 C        1.8260    -0.5500     0.1680 C.2   1 <1>   0.9790 
  3 O        1.9270    -1.7330    -0.2260 O.co2 1 <1>  -0.9000 
  4 C        3.0280     0.2870     0.2940 C.ar  1 <1>   0.1310 
  5 N        3.0020     1.5600     0.7600 N.ar  1 <1>  -0.6200 
  6 C        4.2440    -0.2870    -0.0930 C.ar  1 <1>   0.1600 
  7 C        4.1830     2.1340     0.7880 C.ar  1 <1>   0.1600 
  8 N        5.4330     0.2960    -0.0670 N.ar  1 <1>  -0.6200 
  9 C        5.3900     1.5440     0.3780 C.ar  1 <1>   0.4100 
 10 N        6.5950     2.2390     0.4220 N.pl3 1 <1>  -0.8380 
 11 C        6.6690     3.6950     0.1390 C.3   1 <1>   0.2090 
 12 C        7.8800     1.5840     0.0820 C.3   1 <1>   0.2090 
 13 C        7.9860     3.8940    -0.6040 C.3   1 <1>  -0.0190 
 14 C        8.8600     2.7340    -0.1130 C.3   1 <1>  -0.1600 
 15 C        8.5540     5.2900    -0.3940 C.2   1 <1>   0.5690 
 16 O        7.7910     6.2140    -0.2450 O.2   1 <1>  -0.5700 
 17 N        9.9020     5.4670    -0.4020 N.am  1 <1>  -0.7300 
 18 C       10.5910     6.7550    -0.1960 C.3   1 <1>   0.1400 
 19 C       11.6720     6.5610     0.8610 C.3   1 <1>  -0.2400 
 20 H        4.2230    -1.3020    -0.4500 H     1 <1>   0.1500 
 21 H        4.2230     3.1370     1.1610 H     1 <1>   0.1500 
 22 H        6.6760     4.2310     1.0730 H     1 <1>   0.0800 
 23 H        5.8360     4.0260    -0.4590 H     1 <1>   0.0800 
 24 H        7.7700     1.0280    -0.8350 H     1 <1>   0.0800 
 25 H        8.1870     0.9190     0.8710 H     1 <1>   0.0800 
 26 H        7.7910     3.7690    -1.6530 H     1 <1>   0.0800 
 27 H        9.6370     2.4750    -0.8090 H     1 <1>   0.0800 
 28 H        9.2970     2.9740     0.8410 H     1 <1>   0.0800 
 29 H       10.5120     4.6630    -0.5470 H     1 <1>   0.3700 
 30 H        9.8880     7.5040     0.1290 H     1 <1>   0.0800 
 31 H       11.0300     7.0780    -1.1240 H     1 <1>   0.0800 
 32 H       11.2300     6.2390     1.7880 H     1 <1>   0.0800 
 33 H       12.1760     7.4950     1.0340 H     1 <1>   0.0800 
 34 H       12.3970     5.8380     0.5350 H     1 <1>   0.0800 
@<TRIPOS>BOND
  1   1   2  ar  
  2   2   3  ar  
  3   2   4  1   
  4   4   5  ar  
  5   4   6  ar  
  6   5   7  ar  
  7   6   8  ar  
  8   6  20  1   
  9   7   9  ar  
 10   7  21  1   
 11   8   9  ar  
 12   9  10  1   
 13  10  11  1   
 14  10  12  1   
 15  11  13  1   
 16  11  22  1   
 17  11  23  1   
 18  12  14  1   
 19  12  24  1   
 20  12  25  1   
 21  13  14  1   
 22  13  15  1   
 23  13  26  1   
 24  14  27  1   
 25  14  28  1   
 26  15  16  2   
 27  15  17  am  
 28  17  18  1   
 29  17  29  1   
 30  18  19  1   
 31  18  30  1   
 32  18  31  1   
 33  19  32  1   
 34  19  33  1   
 35  19  34  1   
@<TRIPOS>SUBSTRUCTURE
  1 ****  10 GROUP 4 **** **** 0

# MOE 2024.06 (io_trps.svl 2023.06)
