@<TRIPOS>MOLECULE
NONAME
52 54 1 0 0 
SMALL
USER_CHARGES


@<TRIPOS>ATOM
  1 O       -2.1790     0.3260     2.4680 O.2   1 <1>  -0.5700 
  2 C       -2.2330     0.8640     1.3780 C.2   1 <1>   0.5440 
  3 N       -2.7590     0.1660     0.3150 N.am  1 <1>  -0.6600 
  4 C       -1.7730     2.2300     1.2230 C.ar  1 <1>   0.0860 
  5 C       -2.6960    -1.3370     0.3400 C.3   1 <1>   0.3640 
  6 C       -3.7700     0.8220    -0.5650 C.3   1 <1>   0.1400 
  7 C       -1.0490     2.6270     0.0980 C.ar  1 <1>  -0.1500 
  8 C       -2.0280     3.1950     2.1970 C.ar  1 <1>  -0.1500 
  9 C       -1.2260    -1.7450     0.1950 C.ar  1 <1>  -0.1430 
 10 C       -3.5320    -2.0730    -0.7530 C.3   1 <1>   0.2000 
 11 C       -4.1690    -0.0540    -1.7530 C.3   1 <1>   0.1200 
 12 C       -0.6180     3.9290    -0.0650 C.ar  1 <1>   0.0830 
 13 C       -1.6120     4.5060     2.0420 C.ar  1 <1>  -0.1500 
 14 C       -0.4730    -1.3340    -0.8980 C.ar  1 <1>  -0.1500 
 15 C       -0.6270    -2.5360     1.1640 C.ar  1 <1>  -0.1500 
 16 O       -4.5740    -1.2980    -1.2850 O.3   1 <1>  -0.5600 
 17 C       -4.1730    -3.3690    -0.2320 C.3   1 <1>   0.1200 
 18 O        0.1060     4.2100    -1.1740 O.3   1 <1>  -0.3630 
 19 C       -0.9250     4.8920     0.9040 C.ar  1 <1>   0.0830 
 20 C        0.8510    -1.7180    -1.0260 C.ar  1 <1>  -0.1500 
 21 C        0.6970    -2.9210     1.0390 C.ar  1 <1>  -0.1500 
 22 O       -3.2300    -4.2130     0.3480 O.3   1 <1>  -0.6800 
 23 C        1.4710     4.4980    -0.9600 C.3   1 <1>   0.0400 
 24 O       -0.5840     6.1970     0.7980 O.3   1 <1>  -0.3630 
 25 C        1.4360    -2.5150    -0.0570 C.ar  1 <1>  -0.1500 
 26 C       -1.0630     6.9140    -0.3180 C.3   1 <1>   0.1200 
 27 C       -0.8150     8.3980    -0.0660 C.3   1 <1>  -0.2400 
 28 H       -3.0540    -1.6650     1.3010 H     1 <1>   0.0800 
 29 H       -4.6500     1.0340     0.0170 H     1 <1>   0.0800 
 30 H       -3.3860     1.7560    -0.9350 H     1 <1>   0.0800 
 31 H       -0.8080     1.9000    -0.6550 H     1 <1>   0.1500 
 32 H       -2.5600     2.9040     3.0870 H     1 <1>   0.1500 
 33 H       -2.8930    -2.3280    -1.5790 H     1 <1>   0.0800 
 34 H       -3.3500    -0.1790    -2.4410 H     1 <1>   0.0800 
 35 H       -4.9990     0.3880    -2.2760 H     1 <1>   0.0800 
 36 H       -1.8230     5.2380     2.8010 H     1 <1>   0.1500 
 37 H       -0.9150    -0.7090    -1.6520 H     1 <1>   0.1500 
 38 H       -1.1920    -2.8540     2.0240 H     1 <1>   0.1500 
 39 H       -4.6440    -3.9010    -1.0410 H     1 <1>   0.0800 
 40 H       -4.9080    -3.1410     0.5200 H     1 <1>   0.0800 
 41 H        1.4260    -1.3960    -1.8750 H     1 <1>   0.1500 
 42 H        1.1490    -3.5350     1.7980 H     1 <1>   0.1500 
 43 H       -2.4900    -4.3970    -0.2650 H     1 <1>   0.4000 
 44 H        1.9380     4.6510    -1.9160 H     1 <1>   0.0800 
 45 H        1.9270     3.6640    -0.4560 H     1 <1>   0.0800 
 46 H        1.5580     5.3870    -0.3620 H     1 <1>   0.0800 
 47 H        2.4650    -2.8140    -0.1530 H     1 <1>   0.1500 
 48 H       -0.5380     6.5870    -1.1970 H     1 <1>   0.0800 
 49 H       -2.1150     6.7130    -0.4260 H     1 <1>   0.0800 
 50 H        0.2370     8.5820     0.0520 H     1 <1>   0.0800 
 51 H       -1.3370     8.7140     0.8190 H     1 <1>   0.0800 
 52 H       -1.1730     8.9730    -0.9010 H     1 <1>   0.0800 
@<TRIPOS>BOND
  1   1   2  2   
  2   2   3  am  
  3   2   4  1   
  4   3   5  1   
  5   3   6  1   
  6   4   7  ar  
  7   4   8  ar  
  8   5   9  1   
  9   5  10  1   
 10   5  28  1   
 11   6  11  1   
 12   6  29  1   
 13   6  30  1   
 14   7  12  ar  
 15   7  31  1   
 16   8  13  ar  
 17   8  32  1   
 18   9  14  ar  
 19   9  15  ar  
 20  10  16  1   
 21  10  17  1   
 22  10  33  1   
 23  11  16  1   
 24  11  34  1   
 25  11  35  1   
 26  12  18  1   
 27  12  19  ar  
 28  13  19  ar  
 29  13  36  1   
 30  14  20  ar  
 31  14  37  1   
 32  15  21  ar  
 33  15  38  1   
 34  17  22  1   
 35  17  39  1   
 36  17  40  1   
 37  18  23  1   
 38  19  24  1   
 39  20  25  ar  
 40  20  41  1   
 41  21  25  ar  
 42  21  42  1   
 43  22  43  1   
 44  23  44  1   
 45  23  45  1   
 46  23  46  1   
 47  24  26  1   
 48  25  47  1   
 49  26  27  1   
 50  26  48  1   
 51  26  49  1   
 52  27  50  1   
 53  27  51  1   
 54  27  52  1   
@<TRIPOS>SUBSTRUCTURE
  1 ****   2 GROUP 4 **** **** 0

# MOE 2024.06 (io_trps.svl 2023.06)
