@<TRIPOS>MOLECULE
NONAME
46 48 1 0 0 
SMALL
USER_CHARGES


@<TRIPOS>ATOM
  1 CL      -1.0880     0.4790     2.3190 Cl    1 <1>  -0.1230 
  2 C       -1.7010     0.4660     0.6730 C.2   1 <1>   0.1230 
  3 C       -2.5610    -0.4710     0.0840 C.2   1 <1>   0.2030 
  4 C       -1.4160     1.3970    -0.2520 C.2   1 <1>  -0.3020 
  5 N       -2.7930    -0.1000    -1.1730 N.2   1 <1>  -0.7070 
  6 C       -3.0920    -1.6570     0.7480 C.2   1 <1>   0.7160 
  7 N       -2.0850     1.0280    -1.3590 N.pl3 1 <1>   0.3000 
  8 O       -2.6400    -2.0390     1.8150 O.2   1 <1>  -0.5700 
  9 N       -4.1320    -2.3870     0.2100 N.am  1 <1>  -0.6600 
 10 C       -4.1710    -3.8730     0.4210 C.3   1 <1>   0.3640 
 11 C       -5.3930    -1.7050    -0.1910 C.3   1 <1>   0.1400 
 12 C       -2.8480    -4.4590    -0.0880 C.ar  1 <1>  -0.1430 
 13 C       -5.3520    -4.6030    -0.2950 C.3   1 <1>   0.2000 
 14 C       -6.2400    -2.5870    -1.1050 C.3   1 <1>   0.1200 
 15 C       -2.0800    -5.2690     0.7360 C.ar  1 <1>  -0.1500 
 16 C       -2.3980    -4.1890    -1.3760 C.ar  1 <1>  -0.1500 
 17 O       -6.4880    -3.7960    -0.4620 O.3   1 <1>  -0.5600 
 18 C       -5.8320    -5.8570     0.4550 C.3   1 <1>   0.1200 
 19 C       -0.8930    -5.8210     0.2840 C.ar  1 <1>   0.0830 
 20 C       -1.2040    -4.7220    -1.8310 C.ar  1 <1>  -0.1500 
 21 O       -4.7950    -6.7500     0.7030 O.3   1 <1>  -0.6800 
 22 O       -0.2200    -6.6400     1.1280 O.3   1 <1>  -0.3630 
 23 C       -0.4390    -5.5280    -1.0060 C.ar  1 <1>   0.0830 
 24 C       -0.2020    -8.0050     0.7790 C.3   1 <1>   0.0400 
 25 O        0.7350    -5.9940    -1.4980 O.3   1 <1>  -0.3630 
 26 C        1.9050    -5.5360    -0.8580 C.3   1 <1>   0.0400 
 27 H       -0.7950     2.2700    -0.1840 H     1 <1>   0.1500 
 28 H       -2.0760     1.5300    -2.2580 H     1 <1>   0.2700 
 29 H       -4.2530    -4.0540     1.4790 H     1 <1>   0.0800 
 30 H       -5.9610    -1.4710     0.6930 H     1 <1>   0.0800 
 31 H       -5.1780    -0.7820    -0.6990 H     1 <1>   0.0800 
 32 H       -5.0400    -4.8980    -1.2810 H     1 <1>   0.0800 
 33 H       -5.7410    -2.7730    -2.0410 H     1 <1>   0.0800 
 34 H       -7.1880    -2.1170    -1.3010 H     1 <1>   0.0800 
 35 H       -2.4020    -5.4870     1.7390 H     1 <1>   0.1500 
 36 H       -2.9720    -3.5510    -2.0260 H     1 <1>   0.1500 
 37 H       -6.5780    -6.3690    -0.1260 H     1 <1>   0.0800 
 38 H       -6.2520    -5.5790     1.4060 H     1 <1>   0.0800 
 39 H       -0.8560    -4.5080    -2.8250 H     1 <1>   0.1500 
 40 H       -4.3020    -6.9600    -0.1160 H     1 <1>   0.4000 
 41 H        0.3110    -8.5430     1.5540 H     1 <1>   0.0800 
 42 H        0.3140    -8.1250    -0.1570 H     1 <1>   0.0800 
 43 H       -1.2160    -8.3540     0.6960 H     1 <1>   0.0800 
 44 H        2.7530    -5.8590    -1.4350 H     1 <1>   0.0800 
 45 H        1.9560    -5.9500     0.1320 H     1 <1>   0.0800 
 46 H        1.8770    -4.4610    -0.8120 H     1 <1>   0.0800 
@<TRIPOS>BOND
  1   1   2  1   
  2   2   3  1   
  3   2   4  2   
  4   3   5  2   
  5   3   6  1   
  6   4   7  1   
  7   4  27  1   
  8   5   7  1   
  9   6   8  2   
 10   6   9  am  
 11   7  28  1   
 12   9  10  1   
 13   9  11  1   
 14  10  12  1   
 15  10  13  1   
 16  10  29  1   
 17  11  14  1   
 18  11  30  1   
 19  11  31  1   
 20  12  15  ar  
 21  12  16  ar  
 22  13  17  1   
 23  13  18  1   
 24  13  32  1   
 25  14  17  1   
 26  14  33  1   
 27  14  34  1   
 28  15  19  ar  
 29  15  35  1   
 30  16  20  ar  
 31  16  36  1   
 32  18  21  1   
 33  18  37  1   
 34  18  38  1   
 35  19  22  1   
 36  19  23  ar  
 37  20  23  ar  
 38  20  39  1   
 39  21  40  1   
 40  22  24  1   
 41  23  25  1   
 42  24  41  1   
 43  24  42  1   
 44  24  43  1   
 45  25  26  1   
 46  26  44  1   
 47  26  45  1   
 48  26  46  1   
@<TRIPOS>SUBSTRUCTURE
  1 ****  12 GROUP 4 **** **** 0

# MOE 2024.06 (io_trps.svl 2023.06)
