@<TRIPOS>MOLECULE
NONAME
37 38 1 0 0 
SMALL
USER_CHARGES


@<TRIPOS>ATOM
  1 F       -0.5550    -0.0850    -0.0850 F     1 <1>  -0.1900 
  2 C       -1.6150    -0.8580     0.0390 C.ar  1 <1>   0.1900 
  3 C       -2.9110    -0.3430     0.0120 C.ar  1 <1>   0.4100 
  4 C       -1.4330    -2.2020     0.2100 C.ar  1 <1>   0.1600 
  5 N       -3.9360    -1.1630     0.1660 N.ar  1 <1>  -0.6200 
  6 N       -3.2110     1.0070    -0.1700 N.pl3 1 <1>  -0.8380 
  7 N       -2.4540    -3.0250     0.3530 N.ar  1 <1>  -0.6200 
  8 C       -3.6490    -2.4420     0.3300 C.ar  1 <1>   0.7200 
  9 C       -2.5110     1.8270    -1.1960 C.3   1 <1>   0.1290 
 10 C       -4.4920     1.5780     0.3340 C.3   1 <1>   0.1290 
 11 N       -4.7340    -3.2300     0.4850 N.pl3 1 <1>  -0.8690 
 12 C       -4.7510    -4.6090    -0.0140 C.3   1 <1>   0.3890 
 13 C       -6.0510    -5.2290     0.4310 C.2   1 <1>  -0.3320 
 14 N       -6.4640    -5.1920     1.7110 N.pl3 1 <1>   0.3000 
 15 C       -6.9990    -5.8980    -0.2620 C.2   1 <1>  -0.1500 
 16 N       -7.6460    -5.8200     1.8730 N.2   1 <1>  -0.7070 
 17 C       -7.9630    -6.2420     0.6830 C.2   1 <1>   0.1080 
 18 C       -9.2460    -7.0160     0.4040 C.3   1 <1>   0.3010 
 19 O       -9.3190    -7.4120    -0.9390 O.3   1 <1>  -0.5600 
 20 C      -10.4660    -8.1340    -1.2520 C.3   1 <1>   0.0400 
 21 H       -0.4380    -2.6100     0.2320 H     1 <1>   0.1500 
 22 H       -1.9130     1.2020    -1.8360 H     1 <1>   0.0800 
 23 H       -1.8730     2.5440    -0.7090 H     1 <1>   0.0800 
 24 H       -3.2280     2.3480    -1.8060 H     1 <1>   0.0800 
 25 H       -4.8110     1.0520     1.2180 H     1 <1>   0.0800 
 26 H       -5.2530     1.4850    -0.4210 H     1 <1>   0.0800 
 27 H       -4.3590     2.6160     0.5830 H     1 <1>   0.0800 
 28 H       -5.5850    -2.7170     0.2590 H     1 <1>   0.4000 
 29 H       -3.9220    -5.1630     0.3970 H     1 <1>   0.0800 
 30 H       -4.6770    -4.6130    -1.0880 H     1 <1>   0.0800 
 31 H       -5.9630    -4.7290     2.4800 H     1 <1>   0.2700 
 32 H       -7.0430    -6.1380    -1.3100 H     1 <1>   0.1500 
 33 H      -10.0920    -6.3910     0.6260 H     1 <1>   0.0800 
 34 H       -9.2700    -7.8930     1.0240 H     1 <1>   0.0800 
 35 H      -10.4270    -8.3870    -2.2970 H     1 <1>   0.0800 
 36 H      -11.3340    -7.5260    -1.0590 H     1 <1>   0.0800 
 37 H      -10.4930    -9.0340    -0.6620 H     1 <1>   0.0800 
@<TRIPOS>BOND
  1   1   2  1   
  2   2   3  ar  
  3   2   4  ar  
  4   3   5  ar  
  5   3   6  1   
  6   4   7  ar  
  7   4  21  1   
  8   5   8  ar  
  9   6   9  1   
 10   6  10  1   
 11   7   8  ar  
 12   8  11  1   
 13   9  22  1   
 14   9  23  1   
 15   9  24  1   
 16  10  25  1   
 17  10  26  1   
 18  10  27  1   
 19  11  12  1   
 20  11  28  1   
 21  12  13  1   
 22  12  29  1   
 23  12  30  1   
 24  13  14  1   
 25  13  15  2   
 26  14  16  1   
 27  14  31  1   
 28  15  17  1   
 29  15  32  1   
 30  16  17  2   
 31  17  18  1   
 32  18  19  1   
 33  18  33  1   
 34  18  34  1   
 35  19  20  1   
 36  20  35  1   
 37  20  36  1   
 38  20  37  1   
@<TRIPOS>SUBSTRUCTURE
  1 ****  11 GROUP 4 **** **** 0

# MOE 2024.06 (io_trps.svl 2023.06)
