@<TRIPOS>MOLECULE
NONAME
41 43 1 0 0 
SMALL
USER_CHARGES


@<TRIPOS>ATOM
  1 S       -0.2270    -0.0910    -0.3140 S.o2  1 <1>   1.0900 
  2 O        1.1140     0.0820    -0.8190 O.2   1 <1>  -0.6500 
  3 O       -1.2270     0.9440    -0.4400 O.2   1 <1>  -0.6500 
  4 C       -0.8790    -1.6160    -0.9580 C.3   1 <1>  -0.0550 
  5 C       -0.1590    -0.6190     1.3890 C.3   1 <1>  -0.0550 
  6 C       -1.3930    -2.4360     0.2330 C.3   1 <1>   0.2700 
  7 C       -0.4310    -2.1280     1.4060 C.3   1 <1>  -0.1600 
  8 N       -1.4680    -3.8880    -0.0780 N.3   1 <1>  -0.8100 
  9 C       -2.8080    -1.9850     0.6450 C.3   1 <1>  -0.2400 
 10 C       -2.2110    -4.2310    -1.3210 C.3   1 <1>   0.2900 
 11 C       -0.2050    -4.6580    -0.0300 C.3   1 <1>   0.0300 
 12 C       -2.9200    -5.5660    -1.1840 C.2   1 <1>  -0.0400 
 13 O       -3.4540    -6.1150    -2.2380 O.3   1 <1>  -0.0190 
 14 C       -3.1490    -6.3790    -0.1440 C.2   1 <1>  -0.1500 
 15 N       -4.0230    -7.2490    -1.9640 N.2   1 <1>  -0.4100 
 16 C       -3.8640    -7.4520    -0.6900 C.2   1 <1>   0.2350 
 17 C       -4.3540    -8.6110     0.0300 C.ar  1 <1>   0.0540 
 18 C       -4.8960    -9.7090    -0.6240 C.ar  1 <1>  -0.1500 
 19 C       -4.3260    -8.7220     1.4140 C.ar  1 <1>  -0.1500 
 20 C       -5.3520   -10.8000     0.0890 C.ar  1 <1>   0.1600 
 21 C       -4.8080    -9.8590     2.0360 C.ar  1 <1>   0.1600 
 22 N       -5.3210   -10.9030     1.4080 N.ar  1 <1>  -0.6200 
 23 H       -0.0840    -2.1520    -1.4380 H     1 <1>   0.0800 
 24 H       -1.6570    -1.4250    -1.6710 H     1 <1>   0.0800 
 25 H       -0.9190    -0.1100     1.9520 H     1 <1>   0.0800 
 26 H        0.7950    -0.3930     1.8280 H     1 <1>   0.0800 
 27 H       -0.8370    -2.4430     2.3520 H     1 <1>   0.0800 
 28 H        0.5230    -2.5990     1.2620 H     1 <1>   0.0800 
 29 H       -2.8190    -0.9690     0.9950 H     1 <1>   0.0800 
 30 H       -3.1720    -2.6110     1.4400 H     1 <1>   0.0800 
 31 H       -3.5030    -2.0320    -0.1710 H     1 <1>   0.0800 
 32 H       -1.5280    -4.2750    -2.1530 H     1 <1>   0.0800 
 33 H       -2.9560    -3.4950    -1.5540 H     1 <1>   0.0800 
 34 H        0.1600    -4.7120     0.9810 H     1 <1>   0.0800 
 35 H        0.5430    -4.2080    -0.6590 H     1 <1>   0.0800 
 36 H       -0.3660    -5.6700    -0.3610 H     1 <1>   0.0800 
 37 H       -2.8540    -6.2430     0.8780 H     1 <1>   0.1500 
 38 H       -4.9610    -9.7120    -1.6970 H     1 <1>   0.1500 
 39 H       -3.9330    -7.9270     2.0170 H     1 <1>   0.1500 
 40 H       -5.7660   -11.6340    -0.4520 H     1 <1>   0.1500 
 41 H       -4.7730    -9.9140     3.1110 H     1 <1>   0.1500 
@<TRIPOS>BOND
  1   1   2  2   
  2   1   3  2   
  3   1   4  1   
  4   1   5  1   
  5   4   6  1   
  6   4  23  1   
  7   4  24  1   
  8   5   7  1   
  9   5  25  1   
 10   5  26  1   
 11   6   7  1   
 12   6   8  1   
 13   6   9  1   
 14   7  27  1   
 15   7  28  1   
 16   8  10  1   
 17   8  11  1   
 18   9  29  1   
 19   9  30  1   
 20   9  31  1   
 21  10  12  1   
 22  10  32  1   
 23  10  33  1   
 24  11  34  1   
 25  11  35  1   
 26  11  36  1   
 27  12  13  1   
 28  12  14  2   
 29  13  15  1   
 30  14  16  1   
 31  14  37  1   
 32  15  16  2   
 33  16  17  1   
 34  17  18  ar  
 35  17  19  ar  
 36  18  20  ar  
 37  18  38  1   
 38  19  21  ar  
 39  19  39  1   
 40  20  22  ar  
 41  20  40  1   
 42  21  22  ar  
 43  21  41  1   
@<TRIPOS>SUBSTRUCTURE
  1 ****  12 GROUP 4 **** **** 0

# MOE 2024.06 (io_trps.svl 2023.06)
