@<TRIPOS>MOLECULE
NONAME
57 59 1 0 0 
SMALL
USER_CHARGES


@<TRIPOS>ATOM
  1 O       -0.2300     1.8150    -2.4220 O.2   1 <1>  -0.5700 
  2 C       -0.2470     2.7110    -1.6100 C.2   1 <1>   0.5690 
  3 N       -1.2460     2.8470    -0.6810 N.am  1 <1>  -0.6600 
  4 C        0.9000     3.7220    -1.6570 C.3   1 <1>   0.1810 
  5 C       -1.2670     4.0490     0.2390 C.3   1 <1>   0.3640 
  6 C       -2.1830     1.7040    -0.4390 C.3   1 <1>   0.2200 
  7 O        1.0660     4.4110    -0.4460 O.3   1 <1>  -0.5600 
  8 C       -2.5860     4.8130     0.1090 C.ar  1 <1>  -0.1440 
  9 C       -0.1120     5.0550    -0.0090 C.3   1 <1>   0.2610 
 10 C       -3.5210     1.9310    -1.1410 C.3   1 <1>  -0.2400 
 11 C       -2.3800     1.4120     1.0500 C.3   1 <1>  -0.2400 
 12 C       -3.0830     5.1820    -1.1350 C.ar  1 <1>  -0.1500 
 13 C       -3.2930     5.1700     1.2480 C.ar  1 <1>  -0.1500 
 14 C        0.1710     5.9240     1.2240 C.2   1 <1>   0.5690 
 15 C       -4.2680     5.8890    -1.2380 C.ar  1 <1>  -0.1500 
 16 C       -4.4790     5.8760     1.1470 C.ar  1 <1>  -0.1500 
 17 O       -0.2280     5.6010     2.3210 O.2   1 <1>  -0.5700 
 18 N        0.8730     7.0750     1.0490 N.am  1 <1>  -0.7300 
 19 C       -4.9670     6.2360    -0.0960 C.ar  1 <1>  -0.1500 
 20 C        1.2860     8.0160     2.0980 C.3   1 <1>   0.1400 
 21 C        2.6180     8.6690     1.7020 C.3   1 <1>  -0.1600 
 22 C        2.5900     9.5310     0.4250 C.3   1 <1>   0.2800 
 23 O        2.3540     8.7350    -0.6780 O.3   1 <1>  -0.6800 
 24 C        1.5460    10.6440     0.4110 C.3   1 <1>  -0.1600 
 25 C        3.8960    10.2730     0.1580 C.3   1 <1>  -0.1600 
 26 C        2.0310    11.6600    -0.6310 C.3   1 <1>  -0.1600 
 27 C        3.5390    11.4210    -0.7960 C.3   1 <1>  -0.1600 
 28 H        0.7230     4.4370    -2.4400 H     1 <1>   0.0800 
 29 H        1.8190     3.2040    -1.8630 H     1 <1>   0.0800 
 30 H       -1.1680     3.6860     1.2450 H     1 <1>   0.0800 
 31 H       -1.7470     0.8170    -0.8710 H     1 <1>   0.0800 
 32 H       -0.4070     5.7250    -0.7950 H     1 <1>   0.0800 
 33 H       -4.0920     2.6990    -0.6530 H     1 <1>   0.0800 
 34 H       -4.0980     1.0250    -1.1170 H     1 <1>   0.0800 
 35 H       -3.3560     2.1990    -2.1680 H     1 <1>   0.0800 
 36 H       -2.9280     2.2000     1.5320 H     1 <1>   0.0800 
 37 H       -1.4270     1.2800     1.5310 H     1 <1>   0.0800 
 38 H       -2.9410     0.5020     1.1640 H     1 <1>   0.0800 
 39 H       -2.5530     4.9110    -2.0320 H     1 <1>   0.1500 
 40 H       -2.9190     4.9060     2.2230 H     1 <1>   0.1500 
 41 H       -4.6470     6.1670    -2.2060 H     1 <1>   0.1500 
 42 H       -5.0190     6.1480     2.0370 H     1 <1>   0.1500 
 43 H        1.2910     7.3020     0.1340 H     1 <1>   0.3700 
 44 H       -5.8890     6.7860    -0.1740 H     1 <1>   0.1500 
 45 H        0.5210     8.7620     2.2260 H     1 <1>   0.0800 
 46 H        1.3990     7.4850     3.0290 H     1 <1>   0.0800 
 47 H        3.3710     7.9080     1.6020 H     1 <1>   0.0800 
 48 H        2.9170     9.2960     2.5210 H     1 <1>   0.0800 
 49 H        2.4270     9.3020    -1.4690 H     1 <1>   0.4000 
 50 H        0.5570    10.2750     0.2000 H     1 <1>   0.0800 
 51 H        1.5350    11.1220     1.3750 H     1 <1>   0.0800 
 52 H        4.2530    10.6960     1.0800 H     1 <1>   0.0800 
 53 H        4.6600     9.6250    -0.2360 H     1 <1>   0.0800 
 54 H        1.5310    11.4920    -1.5700 H     1 <1>   0.0800 
 55 H        1.8270    12.6670    -0.3070 H     1 <1>   0.0800 
 56 H        4.1050    12.3050    -0.5560 H     1 <1>   0.0800 
 57 H        3.7560    11.1380    -1.8120 H     1 <1>   0.0800 
@<TRIPOS>BOND
  1   1   2  2   
  2   2   3  am  
  3   2   4  1   
  4   3   5  1   
  5   3   6  1   
  6   4   7  1   
  7   4  28  1   
  8   4  29  1   
  9   5   8  1   
 10   5   9  1   
 11   5  30  1   
 12   6  10  1   
 13   6  11  1   
 14   6  31  1   
 15   7   9  1   
 16   8  12  ar  
 17   8  13  ar  
 18   9  14  1   
 19   9  32  1   
 20  10  33  1   
 21  10  34  1   
 22  10  35  1   
 23  11  36  1   
 24  11  37  1   
 25  11  38  1   
 26  12  15  ar  
 27  12  39  1   
 28  13  16  ar  
 29  13  40  1   
 30  14  17  2   
 31  14  18  am  
 32  15  19  ar  
 33  15  41  1   
 34  16  19  ar  
 35  16  42  1   
 36  18  20  1   
 37  18  43  1   
 38  19  44  1   
 39  20  21  1   
 40  20  45  1   
 41  20  46  1   
 42  21  22  1   
 43  21  47  1   
 44  21  48  1   
 45  22  23  1   
 46  22  24  1   
 47  22  25  1   
 48  23  49  1   
 49  24  26  1   
 50  24  50  1   
 51  24  51  1   
 52  25  27  1   
 53  25  52  1   
 54  25  53  1   
 55  26  27  1   
 56  26  54  1   
 57  26  55  1   
 58  27  56  1   
 59  27  57  1   
@<TRIPOS>SUBSTRUCTURE
  1 ****   9 GROUP 4 **** **** 0

# MOE 2024.06 (io_trps.svl 2023.06)
