@<TRIPOS>MOLECULE
NONAME
54 57 1 0 0 
SMALL
USER_CHARGES


@<TRIPOS>ATOM
  1 O       -2.3040     5.1330    -0.9040 O.2   1 <1>  -0.5700 
  2 C       -2.0280     4.2580    -0.1070 C.2   1 <1>   0.6160 
  3 N       -2.9920     3.3340     0.2480 N.am  1 <1>  -0.6600 
  4 C       -0.7010     4.2310     0.4640 C.2   1 <1>  -0.0140 
  5 C       -4.2730     3.2730    -0.5160 C.3   1 <1>   0.2200 
  6 C       -2.8260     2.4440     1.4400 C.3   1 <1>   0.0600 
  7 C        0.1870     3.1160     0.2120 C.ar  1 <1>   0.0280 
  8 C       -0.2610     5.2530     1.2510 C.2   1 <1>  -0.1360 
  9 C       -5.4200     3.9630     0.2140 C.3   1 <1>  -0.1600 
 10 C       -4.7900     1.8610    -0.7970 C.3   1 <1>  -0.1600 
 11 C        1.4450     3.0990     0.8440 C.ar  1 <1>   0.1170 
 12 C       -0.1280     2.0490    -0.6380 C.ar  1 <1>  -0.1500 
 13 C        1.0140     5.2410     1.8700 C.2   1 <1>   0.6160 
 14 C       -6.6830     3.3920    -0.4430 C.3   1 <1>  -0.0800 
 15 C       -6.2800     2.0680    -1.1030 C.3   1 <1>  -0.0800 
 16 N        1.8090     4.1620     1.6600 N.am  1 <1>  -0.5470 
 17 C        2.3180     2.0330     0.6450 C.ar  1 <1>  -0.1500 
 18 C        0.7460     1.0010    -0.8310 C.ar  1 <1>  -0.1500 
 19 O        1.4210     6.1360     2.5860 O.2   1 <1>  -0.5700 
 20 C       -7.8290     3.0470     0.5180 C.3   1 <1>  -0.1600 
 21 C       -7.2280     1.0050    -0.5250 C.3   1 <1>  -0.1600 
 22 C        1.9730     0.9890    -0.1840 C.ar  1 <1>  -0.1500 
 23 C       -8.4660     1.7770    -0.0550 C.3   1 <1>   0.4230 
 24 N       -9.3570     2.1040    -1.2150 N.4   1 <1>  -0.9590 
 25 C      -10.5020     2.9930    -0.8360 C.3   1 <1>   0.2630 
 26 C       -9.9080     0.8810    -1.8840 C.3   1 <1>   0.2630 
 27 H       -4.1480     3.7600    -1.4700 H     1 <1>   0.0800 
 28 H       -3.7570     2.3440     1.9690 H     1 <1>   0.0800 
 29 H       -2.1000     2.8490     2.1230 H     1 <1>   0.0800 
 30 H       -2.4960     1.4700     1.1230 H     1 <1>   0.0800 
 31 H       -0.8690     6.1170     1.4440 H     1 <1>   0.1500 
 32 H       -5.3880     3.7220     1.2610 H     1 <1>   0.0800 
 33 H       -5.3580     5.0310     0.0940 H     1 <1>   0.0800 
 34 H       -4.2720     1.4200    -1.6300 H     1 <1>   0.0800 
 35 H       -4.6750     1.2340     0.0660 H     1 <1>   0.0800 
 36 H       -1.0680     2.0390    -1.1610 H     1 <1>   0.1500 
 37 H       -7.0260     4.0720    -1.2060 H     1 <1>   0.0800 
 38 H       -6.4170     2.1540    -2.1690 H     1 <1>   0.0800 
 39 H        2.7190     4.1960     2.1170 H     1 <1>   0.3700 
 40 H        3.2720     2.0290     1.1410 H     1 <1>   0.1500 
 41 H        0.4830     0.1880    -1.4870 H     1 <1>   0.1500 
 42 H       -8.5030     3.8700     0.6650 H     1 <1>   0.0800 
 43 H       -7.4230     2.7930     1.4820 H     1 <1>   0.0800 
 44 H       -6.7810     0.5610     0.3480 H     1 <1>   0.0800 
 45 H       -7.4240     0.2110    -1.2200 H     1 <1>   0.0800 
 46 H        2.6510     0.1660    -0.3380 H     1 <1>   0.1500 
 47 H       -9.0110     1.2320     0.6990 H     1 <1>   0.0800 
 48 H       -8.7650     2.6080    -1.8920 H     1 <1>   0.4500 
 49 H      -11.0880     2.5370    -0.0550 H     1 <1>   0.0800 
 50 H      -11.1390     3.1650    -1.6890 H     1 <1>   0.0800 
 51 H      -10.1460     3.9490    -0.4890 H     1 <1>   0.0800 
 52 H      -10.4570     0.2820    -1.1760 H     1 <1>   0.0800 
 53 H       -9.1150     0.2830    -2.3020 H     1 <1>   0.0800 
 54 H      -10.5720     1.1620    -2.6860 H     1 <1>   0.0800 
@<TRIPOS>BOND
  1   1   2  2   
  2   2   3  am  
  3   2   4  1   
  4   3   5  1   
  5   3   6  1   
  6   4   7  1   
  7   4   8  2   
  8   5   9  1   
  9   5  10  1   
 10   5  27  1   
 11   6  28  1   
 12   6  29  1   
 13   6  30  1   
 14   7  11  ar  
 15   7  12  ar  
 16   8  13  1   
 17   8  31  1   
 18   9  14  1   
 19   9  32  1   
 20   9  33  1   
 21  10  15  1   
 22  10  34  1   
 23  10  35  1   
 24  11  16  1   
 25  11  17  ar  
 26  12  18  ar  
 27  12  36  1   
 28  13  16  am  
 29  13  19  2   
 30  14  15  1   
 31  14  20  1   
 32  14  37  1   
 33  15  21  1   
 34  15  38  1   
 35  16  39  1   
 36  17  22  ar  
 37  17  40  1   
 38  18  22  ar  
 39  18  41  1   
 40  20  23  1   
 41  20  42  1   
 42  20  43  1   
 43  21  23  1   
 44  21  44  1   
 45  21  45  1   
 46  22  46  1   
 47  23  24  1   
 48  23  47  1   
 49  24  25  1   
 50  24  26  1   
 51  24  48  1   
 52  25  49  1   
 53  25  50  1   
 54  25  51  1   
 55  26  52  1   
 56  26  53  1   
 57  26  54  1   
@<TRIPOS>SUBSTRUCTURE
  1 ****   3 GROUP 4 **** **** 0

# MOE 2024.06 (io_trps.svl 2023.06)
