@<TRIPOS>MOLECULE
NONAME
47 49 1 0 0 
SMALL
USER_CHARGES


@<TRIPOS>ATOM
  1 O        1.5000    -1.3980    -0.9500 O.2   1 <1>  -0.5700 
  2 C        2.4050    -0.6340    -0.7150 C.2   1 <1>   0.5690 
  3 N        2.6300    -0.0130     0.4710 N.am  1 <1>  -0.6600 
  4 C        3.4450    -0.2620    -1.7300 C.3   1 <1>  -0.0990 
  5 C        3.8080     0.8840     0.4180 C.3   1 <1>   0.3000 
  6 C        1.7550    -0.1860     1.6650 C.3   1 <1>   0.0600 
  7 C        4.5410     0.3720    -0.8530 C.3   1 <1>  -0.1860 
  8 C        4.6420     0.7570     1.6960 C.3   1 <1>  -0.1600 
  9 C        3.2880     2.3250     0.3550 C.3   1 <1>  -0.1600 
 10 C        5.4070     1.3870    -1.5650 C.2   1 <1>   0.9060 
 11 C        5.8450     1.6900     1.6510 C.3   1 <1>   0.3430 
 12 C        4.4000     3.3710     0.3830 C.3   1 <1>   0.3430 
 13 O        4.9020     2.2150    -2.3240 O.co2 1 <1>  -0.9000 
 14 O        6.5880     1.4890    -1.2230 O.co2 1 <1>  -0.9000 
 15 N        5.4840     3.1280     1.4000 N.4   1 <1>  -0.9590 
 16 C        6.7610     3.7520     0.9010 C.3   1 <1>   0.3430 
 17 C        6.6530     5.2090     0.4420 C.3   1 <1>   0.0200 
 18 C        7.9740     5.5820    -0.1890 C.2   1 <1>   0.0060 
 19 N        8.8250     6.3540     0.4020 N.2   1 <1>  -0.5650 
 20 N        8.3860     5.1310    -1.4050 N.pl3 1 <1>   0.0480 
 21 C        9.8490     6.4220    -0.4670 C.2   1 <1>   0.0770 
 22 C        9.6000     5.6830    -1.5690 C.2   1 <1>  -0.3020 
 23 C        7.7250     4.2110    -2.3590 C.3   1 <1>   0.0160 
 24 H        3.0220     0.4490    -2.4160 H     1 <1>   0.0800 
 25 H        3.8010    -1.1230    -2.2630 H     1 <1>   0.0800 
 26 H        0.9050    -0.7970     1.4110 H     1 <1>   0.0800 
 27 H        1.3970     0.7670     2.0080 H     1 <1>   0.0800 
 28 H        2.3000    -0.6750     2.4520 H     1 <1>   0.0800 
 29 H        5.1980    -0.4260    -0.5590 H     1 <1>   0.0800 
 30 H        4.9920    -0.2550     1.7990 H     1 <1>   0.0800 
 31 H        4.0560     1.0000     2.5620 H     1 <1>   0.0800 
 32 H        2.6320     2.5180     1.1830 H     1 <1>   0.0800 
 33 H        2.7210     2.4620    -0.5490 H     1 <1>   0.0800 
 34 H        6.5100     1.3430     0.8800 H     1 <1>   0.0800 
 35 H        6.3840     1.6150     2.5800 H     1 <1>   0.0800 
 36 H        3.9570     4.3370     0.5570 H     1 <1>   0.0800 
 37 H        4.8500     3.4250    -0.5910 H     1 <1>   0.0800 
 38 H        5.2070     3.5620     2.2870 H     1 <1>   0.4500 
 39 H        7.1190     3.1780     0.0620 H     1 <1>   0.0800 
 40 H        7.5180     3.6940     1.6650 H     1 <1>   0.0800 
 41 H        6.4680     5.8480     1.2860 H     1 <1>   0.0800 
 42 H        5.8860     5.3590    -0.2920 H     1 <1>   0.0800 
 43 H       10.7280     7.0080    -0.2510 H     1 <1>   0.1500 
 44 H       10.2080     5.5230    -2.4400 H     1 <1>   0.1500 
 45 H        6.6680     4.1610    -2.1720 H     1 <1>   0.0800 
 46 H        8.1420     3.2250    -2.2550 H     1 <1>   0.0800 
 47 H        7.8850     4.5570    -3.3630 H     1 <1>   0.0800 
@<TRIPOS>BOND
  1   1   2  2   
  2   2   3  am  
  3   2   4  1   
  4   3   5  1   
  5   3   6  1   
  6   4   7  1   
  7   4  24  1   
  8   4  25  1   
  9   5   7  1   
 10   5   8  1   
 11   5   9  1   
 12   6  26  1   
 13   6  27  1   
 14   6  28  1   
 15   7  10  1   
 16   7  29  1   
 17   8  11  1   
 18   8  30  1   
 19   8  31  1   
 20   9  12  1   
 21   9  32  1   
 22   9  33  1   
 23  10  13  ar  
 24  10  14  ar  
 25  11  15  1   
 26  11  34  1   
 27  11  35  1   
 28  12  15  1   
 29  12  36  1   
 30  12  37  1   
 31  15  16  1   
 32  15  38  1   
 33  16  17  1   
 34  16  39  1   
 35  16  40  1   
 36  17  18  1   
 37  17  41  1   
 38  17  42  1   
 39  18  19  2   
 40  18  20  1   
 41  19  21  1   
 42  20  22  1   
 43  20  23  1   
 44  21  22  2   
 45  21  43  1   
 46  22  44  1   
 47  23  45  1   
 48  23  46  1   
 49  23  47  1   
@<TRIPOS>SUBSTRUCTURE
  1 ****  12 GROUP 4 **** **** 0

# MOE 2024.06 (io_trps.svl 2023.06)
