@<TRIPOS>MOLECULE
NONAME
47 49 1 0 0 
SMALL
USER_CHARGES


@<TRIPOS>ATOM
  1 S        0.6080     0.1370    -1.4550 S.o2  1 <1>   1.3330 
  2 O        0.9910    -1.2070    -1.8260 O.2   1 <1>  -0.6500 
  3 O       -0.2200     0.9180    -2.3460 O.2   1 <1>  -0.6500 
  4 N       -0.2070     0.0500     0.0350 N.am  1 <1>  -0.8490 
  5 C        2.1020     1.0550    -1.0730 C.3   1 <1>  -0.0550 
  6 C       -1.0810    -1.1250     0.1170 C.3   1 <1>   0.1160 
  7 C       -0.9770     1.2600     0.3460 C.3   1 <1>   0.1160 
  8 C        3.0950     0.2970    -0.1640 C.3   1 <1>  -0.0800 
  9 C        4.4470     0.9720     0.0080 C.3   1 <1>   0.2200 
 10 C        2.6330     0.0890     1.2850 C.3   1 <1>   0.1200 
 11 N        4.2860     2.4300     0.2330 N.am  1 <1>  -0.7300 
 12 C        4.9070     0.3320     1.3090 C.3   1 <1>   0.1200 
 13 O        3.7580     0.2710     2.0970 O.3   1 <1>  -0.5600 
 14 C        4.5060     3.4040    -0.6970 C.2   1 <1>   0.5440 
 15 O        4.7460     3.0510    -1.8350 O.2   1 <1>  -0.5700 
 16 C        4.4490     4.8150    -0.3480 C.ar  1 <1>   0.0860 
 17 C        3.8840     5.2740     0.8450 C.ar  1 <1>  -0.1500 
 18 C        4.9650     5.7850    -1.2100 C.ar  1 <1>  -0.1500 
 19 C        3.8450     6.6200     1.1610 C.ar  1 <1>  -0.1500 
 20 C        4.9300     7.1310    -0.9020 C.ar  1 <1>  -0.1500 
 21 C        4.3700     7.5700     0.2920 C.ar  1 <1>  -0.0230 
 22 N        4.3330     8.9500     0.6120 N.pl3 1 <1>   0.3260 
 23 C        4.6590     9.5650     1.7570 C.2   1 <1>   0.0360 
 24 C        3.9590     9.9890    -0.1480 C.2   1 <1>   0.0360 
 25 N        4.4990    10.8410     1.6970 N.2   1 <1>  -0.3380 
 26 N        4.0490    11.1140     0.4710 N.2   1 <1>  -0.3380 
 27 H        2.6030     1.2750    -1.9960 H     1 <1>   0.0800 
 28 H        1.8390     1.9920    -0.6240 H     1 <1>   0.0800 
 29 H       -1.5750    -1.1580     1.0730 H     1 <1>   0.0800 
 30 H       -0.5000    -2.0260     0.0090 H     1 <1>   0.0800 
 31 H       -1.8210    -1.0960    -0.6660 H     1 <1>   0.0800 
 32 H       -1.3950     1.1870     1.3350 H     1 <1>   0.0800 
 33 H       -1.7770     1.3910    -0.3640 H     1 <1>   0.0800 
 34 H       -0.3390     2.1260     0.3100 H     1 <1>   0.0800 
 35 H        3.2680    -0.6750    -0.5920 H     1 <1>   0.0800 
 36 H        5.1210     0.7790    -0.8100 H     1 <1>   0.0800 
 37 H        2.2440    -0.9030     1.4400 H     1 <1>   0.0800 
 38 H        1.8980     0.8170     1.5810 H     1 <1>   0.0800 
 39 H        4.0870     2.6650     1.2070 H     1 <1>   0.3700 
 40 H        5.6680     0.9020     1.8130 H     1 <1>   0.0800 
 41 H        5.2500    -0.6750     1.1420 H     1 <1>   0.0800 
 42 H        3.4610     4.5720     1.5410 H     1 <1>   0.1500 
 43 H        5.4050     5.4680    -2.1420 H     1 <1>   0.1500 
 44 H        3.3970     6.9320     2.0900 H     1 <1>   0.1500 
 45 H        5.3480     7.8410    -1.5970 H     1 <1>   0.1500 
 46 H        5.0170     9.0300     2.6170 H     1 <1>   0.1500 
 47 H        3.6210     9.8690    -1.1610 H     1 <1>   0.1500 
@<TRIPOS>BOND
  1   1   2  2   
  2   1   3  2   
  3   1   4  am  
  4   1   5  1   
  5   4   6  1   
  6   4   7  1   
  7   5   8  1   
  8   5  27  1   
  9   5  28  1   
 10   6  29  1   
 11   6  30  1   
 12   6  31  1   
 13   7  32  1   
 14   7  33  1   
 15   7  34  1   
 16   8   9  1   
 17   8  10  1   
 18   8  35  1   
 19   9  11  1   
 20   9  12  1   
 21   9  36  1   
 22  10  13  1   
 23  10  37  1   
 24  10  38  1   
 25  11  14  am  
 26  11  39  1   
 27  12  13  1   
 28  12  40  1   
 29  12  41  1   
 30  14  15  2   
 31  14  16  1   
 32  16  17  ar  
 33  16  18  ar  
 34  17  19  ar  
 35  17  42  1   
 36  18  20  ar  
 37  18  43  1   
 38  19  21  ar  
 39  19  44  1   
 40  20  21  ar  
 41  20  45  1   
 42  21  22  1   
 43  22  23  1   
 44  22  24  1   
 45  23  25  2   
 46  23  46  1   
 47  24  26  2   
 48  24  47  1   
 49  25  26  1   
@<TRIPOS>SUBSTRUCTURE
  1 ****  14 GROUP 4 **** **** 0

# MOE 2024.06 (io_trps.svl 2023.06)
