@<TRIPOS>MOLECULE
NONAME
36 38 1 0 0 
SMALL
USER_CHARGES


@<TRIPOS>ATOM
  1 CL      -0.4440     1.3310     2.9890 Cl    1 <1>  -0.1770 
  2 C       -0.8270     2.5440     1.7950 C.ar  1 <1>   0.1770 
  3 C        0.2040     3.2540     1.2040 C.ar  1 <1>  -0.1500 
  4 C       -2.1480     2.7700     1.4570 C.ar  1 <1>  -0.1500 
  5 C       -0.0910     4.2210     0.2530 C.ar  1 <1>  -0.1440 
  6 C       -2.4450     3.7380     0.5120 C.ar  1 <1>  -0.1500 
  7 C       -1.4190     4.4640    -0.0740 C.ar  1 <1>   0.0830 
  8 C        1.0080     4.9910    -0.4440 C.3   1 <1>   0.4870 
  9 O       -1.7280     5.4180    -0.9720 O.3   1 <1>  -0.3620 
 10 N        0.9300     6.4140    -0.0410 N.4   1 <1>  -0.9590 
 11 C       -1.5450     6.7550    -0.5520 C.3   1 <1>   0.1200 
 12 C       -0.0970     7.2170    -0.7840 C.3   1 <1>   0.3430 
 13 C        2.2510     7.0910    -0.0350 C.3   1 <1>   0.5240 
 14 C        2.1400     8.2750     0.9160 C.2   1 <1>   0.0460 
 15 N        1.4190     8.1430     2.0520 N.2   1 <1>  -0.5650 
 16 C        2.6580     9.5220     0.8140 C.2   1 <1>  -0.3320 
 17 C        1.5240     9.3000     2.6210 C.2   1 <1>   0.0360 
 18 N        2.2640    10.1840     1.9210 N.pl3 1 <1>   0.0330 
 19 C        3.5250    10.1710    -0.2530 C.3   1 <1>  -0.0600 
 20 H        1.2160     3.0320     1.4960 H     1 <1>   0.1500 
 21 H       -2.9280     2.1970     1.9270 H     1 <1>   0.1500 
 22 H       -3.4660     3.9320     0.2310 H     1 <1>   0.1500 
 23 H        0.8980     4.8970    -1.5130 H     1 <1>   0.0800 
 24 H        1.9590     4.5750    -0.1570 H     1 <1>   0.0800 
 25 H        0.6640     6.4510     0.9610 H     1 <1>   0.4500 
 26 H       -1.8190     6.8410     0.4860 H     1 <1>   0.0800 
 27 H       -2.2150     7.3650    -1.1310 H     1 <1>   0.0800 
 28 H        0.1090     7.1880    -1.8410 H     1 <1>   0.0800 
 29 H       -0.0280     8.2460    -0.4680 H     1 <1>   0.0800 
 30 H        2.5290     7.4190    -1.0220 H     1 <1>   0.0800 
 31 H        3.0060     6.4240     0.3450 H     1 <1>   0.0800 
 32 H        1.0750     9.5570     3.5670 H     1 <1>   0.1500 
 33 H        2.4810    11.1510     2.1880 H     1 <1>   0.2700 
 34 H        3.7400     9.4820    -1.0500 H     1 <1>   0.0800 
 35 H        4.4580    10.4950     0.1750 H     1 <1>   0.0800 
 36 H        3.0240    11.0280    -0.6690 H     1 <1>   0.0800 
@<TRIPOS>BOND
  1   1   2  1   
  2   2   3  ar  
  3   2   4  ar  
  4   3   5  ar  
  5   3  20  1   
  6   4   6  ar  
  7   4  21  1   
  8   5   7  ar  
  9   5   8  1   
 10   6   7  ar  
 11   6  22  1   
 12   7   9  1   
 13   8  10  1   
 14   8  23  1   
 15   8  24  1   
 16   9  11  1   
 17  10  12  1   
 18  10  13  1   
 19  10  25  1   
 20  11  12  1   
 21  11  26  1   
 22  11  27  1   
 23  12  28  1   
 24  12  29  1   
 25  13  14  1   
 26  13  30  1   
 27  13  31  1   
 28  14  15  1   
 29  14  16  2   
 30  15  17  2   
 31  16  18  1   
 32  16  19  1   
 33  17  18  1   
 34  17  32  1   
 35  18  33  1   
 36  19  34  1   
 37  19  35  1   
 38  19  36  1   
@<TRIPOS>SUBSTRUCTURE
  1 ****  10 GROUP 4 **** **** 0

# MOE 2024.06 (io_trps.svl 2023.06)
