@<TRIPOS>MOLECULE
NONAME
52 55 1 0 0 
SMALL
USER_CHARGES


@<TRIPOS>ATOM
  1 O       -0.1070     0.3880    -1.1130 O.3   1 <1>  -0.0190 
  2 N        0.2870     1.6110    -1.2960 N.2   1 <1>  -0.4100 
  3 C       -0.9310     0.4670    -0.0970 C.2   1 <1>   0.3170 
  4 C       -0.2960     2.3280    -0.4180 C.2   1 <1>   0.3350 
  5 N       -1.0900     1.6370     0.3830 N.2   1 <1>  -0.5650 
  6 C       -1.5860    -0.8170     0.3900 C.3   1 <1>   0.1610 
  7 C       -0.1390     3.8240    -0.2390 C.3   1 <1>   0.0210 
  8 C       -2.5240    -1.4880    -0.6480 C.3   1 <1>   0.0000 
  9 C       -2.8390    -0.6510     1.2940 C.3   1 <1>   0.0000 
 10 C        0.7180     4.4460    -1.3440 C.3   1 <1>   0.2090 
 11 C       -3.4400    -1.8670     0.5440 C.3   1 <1>   0.0000 
 12 N        0.9350     5.8910    -1.0690 N.pl3 1 <1>  -0.8690 
 13 C        1.9890     6.5180    -0.5240 C.ar  1 <1>   0.4100 
 14 N        1.9040     7.8270    -0.5140 N.ar  1 <1>  -0.6200 
 15 C        3.1000     5.8340     0.0030 C.ar  1 <1>  -0.1500 
 16 C        2.9160     8.5100     0.0040 C.ar  1 <1>   0.7710 
 17 C        4.1220     6.5500     0.5310 C.ar  1 <1>   0.2180 
 18 N        3.9980     7.8990     0.5160 N.ar  1 <1>  -0.1790 
 19 N        2.8630     9.8640     0.0210 N.pl3 1 <1>  -0.8380 
 20 C        5.3740     5.9240     1.1300 C.3   1 <1>  -0.0170 
 21 C        3.8930    10.8300     0.4920 C.3   1 <1>   0.2090 
 22 C        1.6780    10.6020    -0.5030 C.3   1 <1>   0.2090 
 23 C        6.6410     6.3030     0.3510 C.3   1 <1>  -0.2400 
 24 C        3.4260    12.1870    -0.0170 C.3   1 <1>  -0.1600 
 25 C        1.9110    12.0570    -0.1190 C.3   1 <1>  -0.1600 
 26 H       -0.8790    -1.5180     0.8030 H     1 <1>   0.0000 
 27 H        0.3160     4.0030     0.7160 H     1 <1>   0.0800 
 28 H       -1.1150     4.2740    -0.2460 H     1 <1>   0.0800 
 29 H       -2.0860    -2.3340    -1.1480 H     1 <1>   0.0000 
 30 H       -2.9870    -0.7820    -1.3170 H     1 <1>   0.0000 
 31 H       -3.3900     0.2550     1.1060 H     1 <1>   0.0000 
 32 H       -2.6510    -0.8330     2.3370 H     1 <1>   0.0000 
 33 H        0.2210     4.3340    -2.2930 H     1 <1>   0.0800 
 34 H        1.6620     3.9340    -1.4100 H     1 <1>   0.0800 
 35 H       -3.1700    -2.8080     0.9930 H     1 <1>   0.0000 
 36 H       -4.4910    -1.7740     0.3330 H     1 <1>   0.0000 
 37 H        0.1810     6.5050    -1.4000 H     1 <1>   0.4000 
 38 H        3.1160     4.7610    -0.0210 H     1 <1>   0.1500 
 39 H        4.7120     8.5100     0.8870 H     1 <1>   0.4570 
 40 H        5.2750     4.8510     1.1230 H     1 <1>   0.0800 
 41 H        5.4760     6.2270     2.1590 H     1 <1>   0.0800 
 42 H        4.8700    10.5990     0.1010 H     1 <1>   0.0800 
 43 H        3.9130    10.8380     1.5700 H     1 <1>   0.0800 
 44 H        0.7610    10.2280    -0.0770 H     1 <1>   0.0800 
 45 H        1.6410    10.5010    -1.5760 H     1 <1>   0.0800 
 46 H        6.5520     6.0040    -0.6800 H     1 <1>   0.0800 
 47 H        7.4920     5.7960     0.7720 H     1 <1>   0.0800 
 48 H        6.8300     7.3610     0.3910 H     1 <1>   0.0800 
 49 H        3.8430    12.3610    -0.9940 H     1 <1>   0.0800 
 50 H        3.7240    12.9870     0.6370 H     1 <1>   0.0800 
 51 H        1.4590    12.2430     0.8390 H     1 <1>   0.0800 
 52 H        1.4880    12.7320    -0.8420 H     1 <1>   0.0800 
@<TRIPOS>BOND
  1   1   2  1   
  2   1   3  1   
  3   2   4  2   
  4   3   5  2   
  5   3   6  1   
  6   4   5  1   
  7   4   7  1   
  8   6   8  1   
  9   6   9  1   
 10   6  26  1   
 11   7  10  1   
 12   7  27  1   
 13   7  28  1   
 14   8  11  1   
 15   8  29  1   
 16   8  30  1   
 17   9  11  1   
 18   9  31  1   
 19   9  32  1   
 20  10  12  1   
 21  10  33  1   
 22  10  34  1   
 23  11  35  1   
 24  11  36  1   
 25  12  13  1   
 26  12  37  1   
 27  13  14  ar  
 28  13  15  ar  
 29  14  16  ar  
 30  15  17  ar  
 31  15  38  1   
 32  16  18  ar  
 33  16  19  1   
 34  17  18  ar  
 35  17  20  1   
 36  18  39  1   
 37  19  21  1   
 38  19  22  1   
 39  20  23  1   
 40  20  40  1   
 41  20  41  1   
 42  21  24  1   
 43  21  42  1   
 44  21  43  1   
 45  22  25  1   
 46  22  44  1   
 47  22  45  1   
 48  23  46  1   
 49  23  47  1   
 50  23  48  1   
 51  24  25  1   
 52  24  49  1   
 53  24  50  1   
 54  25  51  1   
 55  25  52  1   
@<TRIPOS>SUBSTRUCTURE
  1 ****  12 GROUP 4 **** **** 0

# MOE 2024.06 (io_trps.svl 2023.06)
