@<TRIPOS>MOLECULE
NONAME
44 46 1 0 0 
SMALL
USER_CHARGES


@<TRIPOS>ATOM
  1 CL       1.2090     4.0740    -1.4810 Cl    1 <1>  -0.1770 
  2 C       -0.4450     3.6090    -1.1480 C.ar  1 <1>   0.1770 
  3 C       -0.8410     3.2820     0.1450 C.ar  1 <1>  -0.1440 
  4 C       -1.3320     3.5900    -2.2080 C.ar  1 <1>  -0.1500 
  5 C       -2.1670     2.9290     0.3620 C.ar  1 <1>  -0.1500 
  6 C        0.1300     3.3020     1.3260 C.3   1 <1>   0.0450 
  7 C       -2.6500     3.2400    -1.9810 C.ar  1 <1>   0.0830 
  8 C       -3.0660     2.8990    -0.6910 C.ar  1 <1>   0.0830 
  9 C        0.2380     4.6730     1.9700 C.2   1 <1>   0.5690 
 10 O       -3.5180     3.2400    -3.0230 O.3   1 <1>  -0.3630 
 11 O       -4.3490     2.5300    -0.4440 O.3   1 <1>  -0.3630 
 12 O        0.0750     4.7770     3.1620 O.2   1 <1>  -0.5700 
 13 N        0.5380     5.7430     1.1930 N.am  1 <1>  -0.7300 
 14 C       -4.8980     3.1930    -2.7080 C.3   1 <1>   0.1200 
 15 C       -5.1490     2.2010    -1.5640 C.3   1 <1>   0.1200 
 16 C        0.7520     7.1350     1.6620 C.3   1 <1>   0.1400 
 17 C        2.0640     7.7190     1.1080 C.3   1 <1>   0.2000 
 18 O        2.0540     7.5610    -0.3000 O.3   1 <1>  -0.3630 
 19 C        3.2960     7.0020     1.6760 C.3   1 <1>  -0.2400 
 20 C        2.8680     8.2560    -1.1390 C.ar  1 <1>   0.0830 
 21 C        2.8860     7.8750    -2.4760 C.ar  1 <1>   0.1600 
 22 C        3.6720     9.3140    -0.7440 C.ar  1 <1>  -0.1500 
 23 N        3.6160     8.4430    -3.4260 N.ar  1 <1>  -0.6200 
 24 C        4.4380     9.9150    -1.7210 C.ar  1 <1>  -0.1500 
 25 C        4.3750     9.4490    -3.0240 C.ar  1 <1>   0.1600 
 26 H       -1.0060     3.8480    -3.1980 H     1 <1>   0.1500 
 27 H       -2.5180     2.6730     1.3470 H     1 <1>   0.1500 
 28 H        1.1090     2.9900     1.0150 H     1 <1>   0.0800 
 29 H       -0.2000     2.6020     2.0720 H     1 <1>   0.0800 
 30 H        0.7150     5.6090     0.1910 H     1 <1>   0.3700 
 31 H       -5.4300     2.8990    -3.5940 H     1 <1>   0.0800 
 32 H       -5.2090     4.1820    -2.4200 H     1 <1>   0.0800 
 33 H       -6.1780     2.2260    -1.2550 H     1 <1>   0.0800 
 34 H       -4.8970     1.2020    -1.8730 H     1 <1>   0.0800 
 35 H        0.7700     7.1590     2.7380 H     1 <1>   0.0800 
 36 H       -0.0720     7.7440     1.3340 H     1 <1>   0.0800 
 37 H        2.0900     8.7680     1.3420 H     1 <1>   0.0800 
 38 H        3.2840     5.9620     1.4010 H     1 <1>   0.0800 
 39 H        3.2950     7.0670     2.7490 H     1 <1>   0.0800 
 40 H        4.2020     7.4500     1.3120 H     1 <1>   0.0800 
 41 H        2.2580     7.0510    -2.7680 H     1 <1>   0.1500 
 42 H        3.7160     9.6700     0.2680 H     1 <1>   0.1500 
 43 H        5.0830    10.7400    -1.4790 H     1 <1>   0.1500 
 44 H        4.9790     9.9300    -3.7750 H     1 <1>   0.1500 
@<TRIPOS>BOND
  1   1   2  1   
  2   2   3  ar  
  3   2   4  ar  
  4   3   5  ar  
  5   3   6  1   
  6   4   7  ar  
  7   4  26  1   
  8   5   8  ar  
  9   5  27  1   
 10   6   9  1   
 11   6  28  1   
 12   6  29  1   
 13   7   8  ar  
 14   7  10  1   
 15   8  11  1   
 16   9  12  2   
 17   9  13  am  
 18  10  14  1   
 19  11  15  1   
 20  13  16  1   
 21  13  30  1   
 22  14  15  1   
 23  14  31  1   
 24  14  32  1   
 25  15  33  1   
 26  15  34  1   
 27  16  17  1   
 28  16  35  1   
 29  16  36  1   
 30  17  18  1   
 31  17  19  1   
 32  17  37  1   
 33  18  20  1   
 34  19  38  1   
 35  19  39  1   
 36  19  40  1   
 37  20  21  ar  
 38  20  22  ar  
 39  21  23  ar  
 40  21  41  1   
 41  22  24  ar  
 42  22  42  1   
 43  23  25  ar  
 44  24  25  ar  
 45  24  43  1   
 46  25  44  1   
@<TRIPOS>SUBSTRUCTURE
  1 ****  13 GROUP 4 **** **** 0

# MOE 2024.06 (io_trps.svl 2023.06)
