@<TRIPOS>MOLECULE
NONAME
49 51 1 0 0 
SMALL
USER_CHARGES


@<TRIPOS>ATOM
  1 S       -0.6390     0.4940     1.6520 S.o2  1 <1>   1.4470 
  2 O       -1.2230     1.7000     2.2030 O.2   1 <1>  -0.6500 
  3 O       -0.4690    -0.6340     2.5410 O.2   1 <1>  -0.6500 
  4 N       -1.6370     0.0480     0.3510 N.am  1 <1>  -0.8490 
  5 C        0.9470     0.9430     0.8900 C.ar  1 <1>  -0.0090 
  6 C       -1.1430    -0.9130    -0.6680 C.3   1 <1>   0.1960 
  7 C       -3.0610    -0.0660     0.6610 C.3   1 <1>   0.1960 
  8 C        0.9980     1.7740    -0.2220 C.ar  1 <1>  -0.1500 
  9 C        2.1500     0.4800     1.4050 C.ar  1 <1>  -0.1500 
 10 C       -1.5520    -2.3940    -0.4700 C.3   1 <1>  -0.1060 
 11 C       -3.4480    -1.5020     1.0050 C.3   1 <1>  -0.1600 
 12 C        2.1980     2.1290    -0.8170 C.ar  1 <1>  -0.1440 
 13 C        3.3560     0.8260     0.8240 C.ar  1 <1>  -0.1500 
 14 C       -1.3870    -3.1230    -1.8060 C.2   1 <1>   0.9060 
 15 C       -3.0620    -2.4170    -0.1530 C.3   1 <1>   0.2000 
 16 C       -0.7100    -3.1420     0.6080 C.3   1 <1>  -0.0650 
 17 C        3.3910     1.6500    -0.2890 C.ar  1 <1>  -0.1440 
 18 C        2.1750     3.0330    -2.0420 C.3   1 <1>  -0.0970 
 19 O       -0.8170    -2.5690    -2.7530 O.co2 1 <1>  -0.9000 
 20 O       -1.8790    -4.2570    -1.9240 O.co2 1 <1>  -0.9000 
 21 O       -3.4770    -3.7010     0.1390 O.3   1 <1>  -0.6800 
 22 C        0.8130    -3.0140     0.4440 C.3   1 <1>  -0.1950 
 23 C        4.7360     2.0070    -0.9060 C.3   1 <1>  -0.0970 
 24 C        1.5570    -3.8420    -0.5530 C.3   1 <1>  -0.2000 
 25 C        1.7180    -4.1050     0.9180 C.3   1 <1>  -0.2000 
 26 H       -1.5630    -0.5890    -1.6050 H     1 <1>   0.0800 
 27 H       -0.0780    -0.8330    -0.7900 H     1 <1>   0.0800 
 28 H       -3.3240     0.5900     1.4740 H     1 <1>   0.0800 
 29 H       -3.6210     0.2470    -0.2030 H     1 <1>   0.0800 
 30 H        0.0690     2.1410    -0.6240 H     1 <1>   0.1500 
 31 H        2.1410    -0.1640     2.2680 H     1 <1>   0.1500 
 32 H       -4.5110    -1.5510     1.1550 H     1 <1>   0.0800 
 33 H       -2.9640    -1.8030     1.9160 H     1 <1>   0.0800 
 34 H        4.2690     0.4440     1.2460 H     1 <1>   0.1500 
 35 H       -3.6030    -2.1130    -1.0340 H     1 <1>   0.0800 
 36 H       -0.9770    -2.8130     1.5910 H     1 <1>   0.0800 
 37 H       -0.9610    -4.1880     0.5680 H     1 <1>   0.0800 
 38 H        1.1670     3.2930    -2.3100 H     1 <1>   0.0800 
 39 H        2.6250     2.5290    -2.8780 H     1 <1>   0.0800 
 40 H        2.7160     3.9400    -1.8420 H     1 <1>   0.0800 
 41 H       -3.0610    -4.2730    -0.5690 H     1 <1>   0.4000 
 42 H        1.1650    -2.0140     0.6130 H     1 <1>   0.1000 
 43 H        5.5440     1.5640    -0.3530 H     1 <1>   0.0800 
 44 H        4.8710     3.0730    -0.9050 H     1 <1>   0.0800 
 45 H        4.7820     1.6470    -1.9180 H     1 <1>   0.0800 
 46 H        0.9940    -4.5360    -1.1570 H     1 <1>   0.1000 
 47 H        2.3430    -3.3640    -1.1100 H     1 <1>   0.1000 
 48 H        2.6450    -3.8360     1.3930 H     1 <1>   0.1000 
 49 H        1.2860    -5.0020     1.3260 H     1 <1>   0.1000 
@<TRIPOS>BOND
  1   1   2  2   
  2   1   3  2   
  3   1   4  am  
  4   1   5  1   
  5   4   6  1   
  6   4   7  1   
  7   5   8  ar  
  8   5   9  ar  
  9   6  10  1   
 10   6  26  1   
 11   6  27  1   
 12   7  11  1   
 13   7  28  1   
 14   7  29  1   
 15   8  12  ar  
 16   8  30  1   
 17   9  13  ar  
 18   9  31  1   
 19  10  14  1   
 20  10  15  1   
 21  10  16  1   
 22  11  15  1   
 23  11  32  1   
 24  11  33  1   
 25  12  17  ar  
 26  12  18  1   
 27  13  17  ar  
 28  13  34  1   
 29  14  19  ar  
 30  14  20  ar  
 31  15  21  1   
 32  15  35  1   
 33  16  22  1   
 34  16  36  1   
 35  16  37  1   
 36  17  23  1   
 37  18  38  1   
 38  18  39  1   
 39  18  40  1   
 40  21  41  1   
 41  22  24  1   
 42  22  25  1   
 43  22  42  1   
 44  23  43  1   
 45  23  44  1   
 46  23  45  1   
 47  24  25  1   
 48  24  46  1   
 49  24  47  1   
 50  25  48  1   
 51  25  49  1   
@<TRIPOS>SUBSTRUCTURE
  1 ****   6 GROUP 4 **** **** 0

# MOE 2024.06 (io_trps.svl 2023.06)
