@<TRIPOS>MOLECULE
NONAME
55 57 1 0 0 
SMALL
USER_CHARGES


@<TRIPOS>ATOM
  1 O       -1.2030     0.4180    -1.5340 O.2   1 <1>  -0.5700 
  2 C       -2.0530     1.1960    -1.1800 C.2   1 <1>   0.5690 
  3 N       -3.3810     0.9080    -1.3560 N.am  1 <1>  -0.6600 
  4 C       -1.6180     2.4870    -0.5120 C.3   1 <1>  -0.0990 
  5 C       -4.5010     1.4980    -0.5530 C.3   1 <1>   0.1400 
  6 C       -3.7990    -0.2270    -2.2320 C.3   1 <1>   0.1400 
  7 C       -0.2400     2.9490    -1.0050 C.3   1 <1>   0.0960 
  8 C       -5.4800     0.4210    -0.0080 C.3   1 <1>   0.4230 
  9 C       -4.3930    -1.3850    -1.4060 C.3   1 <1>   0.3430 
 10 N        0.1250     4.2170    -0.3430 N.pl3 1 <1>   0.0480 
 11 N       -4.8850    -0.9740    -0.0320 N.4   1 <1>  -0.9590 
 12 C       -6.8400     0.4340    -0.7390 C.3   1 <1>   0.1200 
 13 C        0.8650     4.4250     0.7760 C.2   1 <1>   0.0060 
 14 C       -0.2810     5.4440    -0.7180 C.2   1 <1>  -0.3020 
 15 C       -5.8720    -1.9390     0.5650 C.3   1 <1>   0.4230 
 16 O       -7.7020    -0.5040    -0.1600 O.3   1 <1>  -0.5600 
 17 N        0.9410     5.6690     1.1210 N.2   1 <1>  -0.5650 
 18 C        1.5460     3.3180     1.5650 C.3   1 <1>   0.0200 
 19 C        0.2250     6.3120     0.1820 C.2   1 <1>   0.0770 
 20 C       -7.2460    -1.8310    -0.1460 C.3   1 <1>   0.1200 
 21 C       -5.3030    -3.3670     0.5610 C.3   1 <1>  -0.1600 
 22 C        2.8780     2.9170     0.9240 C.3   1 <1>  -0.2400 
 23 C       -6.1060    -4.3200     1.4620 C.3   1 <1>  -0.1600 
 24 C       -5.4620    -5.7080     1.4970 C.3   1 <1>  -0.2400 
 25 H       -2.3330     3.2580    -0.7290 H     1 <1>   0.0800 
 26 H       -1.5800     2.3270     0.5500 H     1 <1>   0.0800 
 27 H       -4.1010     2.0350     0.2890 H     1 <1>   0.0800 
 28 H       -5.0350     2.2130    -1.1570 H     1 <1>   0.0800 
 29 H       -4.5370     0.1270    -2.9320 H     1 <1>   0.0800 
 30 H       -2.9700    -0.5930    -2.8150 H     1 <1>   0.0800 
 31 H       -0.2580     3.1060    -2.0690 H     1 <1>   0.0800 
 32 H        0.5060     2.2060    -0.7870 H     1 <1>   0.0800 
 33 H       -5.6940     0.6870     1.0150 H     1 <1>   0.0800 
 34 H       -3.6360    -2.1440    -1.2960 H     1 <1>   0.0800 
 35 H       -5.1990    -1.8220    -1.9730 H     1 <1>   0.0800 
 36 H       -4.0500    -0.9440     0.5670 H     1 <1>   0.4500 
 37 H       -6.7360     0.2110    -1.7860 H     1 <1>   0.0800 
 38 H       -7.3070     1.3990    -0.6400 H     1 <1>   0.0800 
 39 H       -0.8900     5.6340    -1.5820 H     1 <1>   0.1500 
 40 H       -6.0320    -1.6620     1.5950 H     1 <1>   0.0800 
 41 H        1.7330     3.6750     2.5630 H     1 <1>   0.0800 
 42 H        0.8980     2.4640     1.6410 H     1 <1>   0.0800 
 43 H        0.1130     7.3840     0.2050 H     1 <1>   0.1500 
 44 H       -7.9830    -2.4130     0.3790 H     1 <1>   0.0800 
 45 H       -7.1950    -2.1890    -1.1590 H     1 <1>   0.0800 
 46 H       -5.2960    -3.7670    -0.4370 H     1 <1>   0.0800 
 47 H       -4.2910    -3.3420     0.9270 H     1 <1>   0.0800 
 48 H        3.5270     3.7740     0.8720 H     1 <1>   0.0800 
 49 H        2.7260     2.5430    -0.0720 H     1 <1>   0.0800 
 50 H        3.3590     2.1560     1.5120 H     1 <1>   0.0800 
 51 H       -6.1480    -3.9320     2.4660 H     1 <1>   0.0800 
 52 H       -7.1160    -4.4220     1.1010 H     1 <1>   0.0800 
 53 H       -4.4600    -5.6560     1.8860 H     1 <1>   0.0800 
 54 H       -5.4280    -6.1400     0.5110 H     1 <1>   0.0800 
 55 H       -6.0350    -6.3620     2.1310 H     1 <1>   0.0800 
@<TRIPOS>BOND
  1   1   2  2   
  2   2   3  am  
  3   2   4  1   
  4   3   5  1   
  5   3   6  1   
  6   4   7  1   
  7   4  25  1   
  8   4  26  1   
  9   5   8  1   
 10   5  27  1   
 11   5  28  1   
 12   6   9  1   
 13   6  29  1   
 14   6  30  1   
 15   7  10  1   
 16   7  31  1   
 17   7  32  1   
 18   8  11  1   
 19   8  12  1   
 20   8  33  1   
 21   9  11  1   
 22   9  34  1   
 23   9  35  1   
 24  10  13  1   
 25  10  14  1   
 26  11  15  1   
 27  11  36  1   
 28  12  16  1   
 29  12  37  1   
 30  12  38  1   
 31  13  17  2   
 32  13  18  1   
 33  14  19  2   
 34  14  39  1   
 35  15  20  1   
 36  15  21  1   
 37  15  40  1   
 38  16  20  1   
 39  17  19  1   
 40  18  22  1   
 41  18  41  1   
 42  18  42  1   
 43  19  43  1   
 44  20  44  1   
 45  20  45  1   
 46  21  23  1   
 47  21  46  1   
 48  21  47  1   
 49  22  48  1   
 50  22  49  1   
 51  22  50  1   
 52  23  24  1   
 53  23  51  1   
 54  23  52  1   
 55  24  53  1   
 56  24  54  1   
 57  24  55  1   
@<TRIPOS>SUBSTRUCTURE
  1 ****   3 GROUP 4 **** **** 0

# MOE 2024.06 (io_trps.svl 2023.06)
