@<TRIPOS>MOLECULE
NONAME
41 42 1 0 0 
SMALL
USER_CHARGES


@<TRIPOS>ATOM
  1 S        0.6350     0.0170    -0.8670 S.o2  1 <1>   1.0900 
  2 O        2.0400    -0.3170    -0.8740 O.2   1 <1>  -0.6500 
  3 O       -0.1920    -0.2980    -2.0060 O.2   1 <1>  -0.6500 
  4 C        0.4910     1.7760    -0.5620 C.3   1 <1>  -0.0550 
  5 C       -0.1070    -0.7400     0.5660 C.3   1 <1>  -0.1350 
  6 C        1.4060     2.2840     0.5650 C.3   1 <1>  -0.0990 
  7 C        1.2110     3.7680     0.7670 C.2   1 <1>   0.5690 
  8 O        0.2060     4.1240     1.3280 O.2   1 <1>  -0.5700 
  9 N        2.1750     4.6120     0.2960 N.am  1 <1>  -0.4940 
 10 C        2.3150     6.0190     0.3140 C.2   1 <1>  -0.0880 
 11 N        1.3580     6.9840     0.4010 N.pl3 1 <1>   0.3140 
 12 C        3.5090     6.6640     0.2040 C.2   1 <1>  -0.0540 
 13 N        1.9020     8.2200     0.3480 N.2   1 <1>  -0.7070 
 14 C       -0.1040     6.8540     0.4630 C.3   1 <1>   0.0160 
 15 C        4.8190     6.0770     0.0780 C.ar  1 <1>   0.0540 
 16 C        3.1730     8.0200     0.2380 C.2   1 <1>   0.1080 
 17 C        5.5840     6.2660    -1.0690 C.ar  1 <1>  -0.1500 
 18 C        5.3460     5.2910     1.0970 C.ar  1 <1>  -0.1500 
 19 C        4.1590     9.1640     0.1610 C.3   1 <1>  -0.0590 
 20 C        6.8320     5.6840    -1.1970 C.ar  1 <1>  -0.1500 
 21 C        6.5940     4.7060     0.9760 C.ar  1 <1>  -0.1500 
 22 C        7.3390     4.9020    -0.1740 C.ar  1 <1>  -0.1500 
 23 H       -0.5290     2.0200    -0.3290 H     1 <1>   0.0800 
 24 H        0.7460     2.3010    -1.4630 H     1 <1>   0.0800 
 25 H       -0.0970    -1.8080     0.4580 H     1 <1>   0.0800 
 26 H       -1.1260    -0.4230     0.6760 H     1 <1>   0.0800 
 27 H        0.4350    -0.4900     1.4560 H     1 <1>   0.0800 
 28 H        2.4340     2.0750     0.3260 H     1 <1>   0.0800 
 29 H        1.1700     1.7860     1.4870 H     1 <1>   0.0800 
 30 H        3.0090     4.1450    -0.0680 H     1 <1>   0.3700 
 31 H       -0.4230     6.0860    -0.2150 H     1 <1>   0.0800 
 32 H       -0.5550     7.7880     0.1860 H     1 <1>   0.0800 
 33 H       -0.3900     6.6020     1.4670 H     1 <1>   0.0800 
 34 H        5.1900     6.8720    -1.8660 H     1 <1>   0.1500 
 35 H        4.7690     5.1440     1.9930 H     1 <1>   0.1500 
 36 H        5.0960     8.8810     0.6040 H     1 <1>   0.0800 
 37 H        3.7680    10.0140     0.6890 H     1 <1>   0.0800 
 38 H        4.3180     9.4340    -0.8660 H     1 <1>   0.0800 
 39 H        7.4110     5.8390    -2.0920 H     1 <1>   0.1500 
 40 H        6.9880     4.1020     1.7750 H     1 <1>   0.1500 
 41 H        8.3100     4.4490    -0.2720 H     1 <1>   0.1500 
@<TRIPOS>BOND
  1   1   2  2   
  2   1   3  2   
  3   1   4  1   
  4   1   5  1   
  5   4   6  1   
  6   4  23  1   
  7   4  24  1   
  8   5  25  1   
  9   5  26  1   
 10   5  27  1   
 11   6   7  1   
 12   6  28  1   
 13   6  29  1   
 14   7   8  2   
 15   7   9  am  
 16   9  10  1   
 17   9  30  1   
 18  10  11  1   
 19  10  12  2   
 20  11  13  1   
 21  11  14  1   
 22  12  15  1   
 23  12  16  1   
 24  13  16  2   
 25  14  31  1   
 26  14  32  1   
 27  14  33  1   
 28  15  17  ar  
 29  15  18  ar  
 30  16  19  1   
 31  17  20  ar  
 32  17  34  1   
 33  18  21  ar  
 34  18  35  1   
 35  19  36  1   
 36  19  37  1   
 37  19  38  1   
 38  20  22  ar  
 39  20  39  1   
 40  21  22  ar  
 41  21  40  1   
 42  22  41  1   
@<TRIPOS>SUBSTRUCTURE
  1 ****   9 GROUP 4 **** **** 0

# MOE 2024.06 (io_trps.svl 2023.06)
