@<TRIPOS>MOLECULE
NONAME
58 61 1 0 0 
SMALL
USER_CHARGES


@<TRIPOS>ATOM
  1 O       -1.4200    -0.9140     1.6030 O.3   1 <1>  -0.3630 
  2 C       -0.4030    -0.2640     0.9620 C.ar  1 <1>   0.0820 
  3 C       -2.0210    -2.0560     1.0490 C.3   1 <1>   0.1200 
  4 C        0.4140    -0.7940    -0.0520 C.ar  1 <1>   0.0820 
  5 C       -0.1890     1.0370     1.3850 C.ar  1 <1>  -0.1500 
  6 C       -3.2770    -2.3740     1.8580 C.3   1 <1>   0.3430 
  7 O        0.2720    -2.0760    -0.4860 O.3   1 <1>  -0.3630 
  8 C        1.3940     0.0080    -0.6270 C.ar  1 <1>  -0.1500 
  9 C        0.7990     1.8200     0.8140 C.ar  1 <1>  -0.1500 
 10 N       -3.9940    -3.5440     1.2670 N.4   1 <1>  -0.9590 
 11 C        1.4280    -2.8800    -0.5960 C.3   1 <1>   0.0400 
 12 C        1.5940     1.3090    -0.1970 C.ar  1 <1>  -0.1430 
 13 C       -4.7730    -3.2390     0.0220 C.3   1 <1>   0.3430 
 14 C       -4.9190    -4.2690     2.1800 C.3   1 <1>   0.3430 
 15 C        2.6710     2.1710    -0.8330 C.3   1 <1>  -0.0970 
 16 C       -6.0260    -4.1310     0.0760 C.3   1 <1>   0.2000 
 17 C       -5.8110    -5.0960     1.2480 C.3   1 <1>  -0.0800 
 18 O       -7.1370    -3.3420     0.3500 O.3   1 <1>  -0.6800 
 19 C       -5.1680    -6.4530     0.8390 C.3   1 <1>  -0.0170 
 20 C       -3.6910    -6.3290     0.4580 C.ar  1 <1>  -0.1430 
 21 C       -3.2560    -5.9460    -0.8340 C.ar  1 <1>   0.0000 
 22 C       -2.7340    -6.5110     1.4160 C.ar  1 <1>  -0.1500 
 23 C       -1.8930    -5.5950    -0.9860 C.ar  1 <1>   0.3100 
 24 C       -4.0870    -5.8750    -1.9760 C.ar  1 <1>  -0.1500 
 25 C       -1.3970    -6.2030     1.1440 C.ar  1 <1>   0.1600 
 26 N       -0.9900    -5.7110     0.0180 N.ar  1 <1>  -0.6200 
 27 C       -1.4530    -5.0940    -2.2210 C.ar  1 <1>  -0.1500 
 28 C       -3.6240    -5.3940    -3.1710 C.ar  1 <1>  -0.1500 
 29 C       -2.2950    -4.9850    -3.2930 C.ar  1 <1>  -0.1500 
 30 H       -2.2590    -1.8420     0.0220 H     1 <1>   0.0800 
 31 H       -1.3220    -2.8700     1.1190 H     1 <1>   0.0800 
 32 H       -0.8020     1.4440     2.1680 H     1 <1>   0.1500 
 33 H       -3.9240    -1.5130     1.8730 H     1 <1>   0.0800 
 34 H       -2.9780    -2.6030     2.8670 H     1 <1>   0.0800 
 35 H        2.0050    -0.3800    -1.4200 H     1 <1>   0.1500 
 36 H        0.9430     2.8290     1.1590 H     1 <1>   0.1500 
 37 H       -3.2770    -4.2390     0.9880 H     1 <1>   0.4500 
 38 H        1.1210    -3.9110    -0.6200 H     1 <1>   0.0800 
 39 H        2.0590    -2.7090     0.2590 H     1 <1>   0.0800 
 40 H        1.9450    -2.6330    -1.5050 H     1 <1>   0.0800 
 41 H       -5.0640    -2.2020    -0.0170 H     1 <1>   0.0800 
 42 H       -4.1810    -3.4740    -0.8470 H     1 <1>   0.0800 
 43 H       -4.3830    -4.8920     2.8780 H     1 <1>   0.0800 
 44 H       -5.5220    -3.5620     2.7250 H     1 <1>   0.0800 
 45 H        3.0500     2.8840    -0.1230 H     1 <1>   0.0800 
 46 H        2.2620     2.7020    -1.6730 H     1 <1>   0.0800 
 47 H        3.4900     1.5620    -1.1710 H     1 <1>   0.0800 
 48 H       -6.2180    -4.6250    -0.8600 H     1 <1>   0.0800 
 49 H       -6.7510    -5.3160     1.7260 H     1 <1>   0.0800 
 50 H       -7.0940    -2.8890     1.2150 H     1 <1>   0.4000 
 51 H       -5.7340    -6.9150     0.0500 H     1 <1>   0.0800 
 52 H       -5.2430    -7.1230     1.6790 H     1 <1>   0.0800 
 53 H       -2.9740    -6.8660     2.4040 H     1 <1>   0.1500 
 54 H       -5.1030    -6.2170    -1.9230 H     1 <1>   0.1500 
 55 H       -0.6670    -6.3610     1.9220 H     1 <1>   0.1500 
 56 H       -0.4220    -4.8020    -2.3040 H     1 <1>   0.1500 
 57 H       -4.2680    -5.3370    -4.0340 H     1 <1>   0.1500 
 58 H       -1.9440    -4.6020    -4.2370 H     1 <1>   0.1500 
@<TRIPOS>BOND
  1   1   2  1   
  2   1   3  1   
  3   2   4  ar  
  4   2   5  ar  
  5   3   6  1   
  6   3  30  1   
  7   3  31  1   
  8   4   7  1   
  9   4   8  ar  
 10   5   9  ar  
 11   5  32  1   
 12   6  10  1   
 13   6  33  1   
 14   6  34  1   
 15   7  11  1   
 16   8  12  ar  
 17   8  35  1   
 18   9  12  ar  
 19   9  36  1   
 20  10  13  1   
 21  10  14  1   
 22  10  37  1   
 23  11  38  1   
 24  11  39  1   
 25  11  40  1   
 26  12  15  1   
 27  13  16  1   
 28  13  41  1   
 29  13  42  1   
 30  14  17  1   
 31  14  43  1   
 32  14  44  1   
 33  15  45  1   
 34  15  46  1   
 35  15  47  1   
 36  16  17  1   
 37  16  18  1   
 38  16  48  1   
 39  17  19  1   
 40  17  49  1   
 41  18  50  1   
 42  19  20  1   
 43  19  51  1   
 44  19  52  1   
 45  20  21  ar  
 46  20  22  ar  
 47  21  23  ar  
 48  21  24  ar  
 49  22  25  ar  
 50  22  53  1   
 51  23  26  ar  
 52  23  27  ar  
 53  24  28  ar  
 54  24  54  1   
 55  25  26  ar  
 56  25  55  1   
 57  27  29  ar  
 58  27  56  1   
 59  28  29  ar  
 60  28  57  1   
 61  29  58  1   
@<TRIPOS>SUBSTRUCTURE
  1 ****   3 GROUP 4 **** **** 0

# MOE 2024.06 (io_trps.svl 2023.06)
