@<TRIPOS>MOLECULE
NONAME
52 54 1 0 0 
SMALL
USER_CHARGES


@<TRIPOS>ATOM
  1 S        0.0100     0.6750    -0.2330 S.o2  1 <1>   1.4470 
  2 O       -0.3470     0.7300    -1.6290 O.2   1 <1>  -0.6500 
  3 O       -0.3260    -0.4770     0.5650 O.2   1 <1>  -0.6500 
  4 N       -0.9340     1.8670     0.4190 N.am  1 <1>  -0.9780 
  5 C        1.7130     1.2250     0.0600 C.ar  1 <1>  -0.0090 
  6 C        2.2870     1.1310     1.3220 C.ar  1 <1>  -0.1500 
  7 C        2.4820     1.7680    -0.9620 C.ar  1 <1>  -0.1500 
  8 C        3.5820     1.5580     1.5570 C.ar  1 <1>  -0.1500 
  9 C        3.7780     2.1960    -0.7350 C.ar  1 <1>  -0.1500 
 10 C        4.3390     2.0920     0.5270 C.ar  1 <1>  -0.1430 
 11 C        5.7600     2.5670     0.7720 C.3   1 <1>   0.3530 
 12 N        5.7740     4.0350     0.6350 N.pl3 1 <1>  -0.8690 
 13 C        6.7400     4.8650     0.2210 C.ar  1 <1>   0.4100 
 14 N        6.3580     6.1050     0.0330 N.ar  1 <1>  -0.6200 
 15 C        8.0660     4.4480     0.0090 C.ar  1 <1>  -0.1500 
 16 C        7.2600     6.9850    -0.3810 C.ar  1 <1>   0.7710 
 17 C        8.9770     5.3590    -0.4090 C.ar  1 <1>   0.2180 
 18 N        8.5380     6.6260    -0.5970 N.ar  1 <1>  -0.1790 
 19 N        6.8960     8.2810    -0.5880 N.pl3 1 <1>  -0.8380 
 20 C       10.4430     5.0340    -0.6680 C.3   1 <1>  -0.0170 
 21 C        7.7270     9.3720    -1.1840 C.3   1 <1>   0.2090 
 22 C        5.5420     8.7910    -0.1860 C.3   1 <1>   0.2090 
 23 C       11.3800     5.7910     0.2830 C.3   1 <1>  -0.2400 
 24 C        7.9600    10.4580    -0.1300 C.3   1 <1>  -0.1600 
 25 C        5.7150     9.8790     0.8790 C.3   1 <1>  -0.1600 
 26 C        6.6290    11.0150     0.3980 C.3   1 <1>  -0.1600 
 27 H       -1.6770     1.3480     0.8800 H     1 <1>   0.4200 
 28 H       -1.3580     2.3010    -0.3970 H     1 <1>   0.4200 
 29 H        1.7090     0.7170     2.1320 H     1 <1>   0.1500 
 30 H        2.0620     1.8580    -1.9510 H     1 <1>   0.1500 
 31 H        3.9930     1.4710     2.5500 H     1 <1>   0.1500 
 32 H        4.3480     2.6170    -1.5470 H     1 <1>   0.1500 
 33 H        6.4200     2.1160     0.0520 H     1 <1>   0.0800 
 34 H        6.0820     2.2950     1.7620 H     1 <1>   0.0800 
 35 H        4.8450     4.4490     0.7750 H     1 <1>   0.4000 
 36 H        8.3280     3.4230     0.1890 H     1 <1>   0.1500 
 37 H        9.1590     7.3730    -0.8740 H     1 <1>   0.4570 
 38 H       10.6930     5.2720    -1.6890 H     1 <1>   0.0800 
 39 H       10.6030     3.9770    -0.5390 H     1 <1>   0.0800 
 40 H        7.1970     9.7990    -2.0210 H     1 <1>   0.0800 
 41 H        8.6710     9.0120    -1.5510 H     1 <1>   0.0800 
 42 H        4.9100     8.0130     0.2070 H     1 <1>   0.0800 
 43 H        5.0460     9.2030    -1.0500 H     1 <1>   0.0800 
 44 H       11.3160     6.8550     0.1400 H     1 <1>   0.0800 
 45 H       12.3990     5.4910     0.1050 H     1 <1>   0.0800 
 46 H       11.1410     5.5630     1.3080 H     1 <1>   0.0800 
 47 H        8.5320    11.2600    -0.5610 H     1 <1>   0.0800 
 48 H        8.5300    10.0500     0.6870 H     1 <1>   0.0800 
 49 H        6.1240     9.4310     1.7680 H     1 <1>   0.0800 
 50 H        4.7490    10.2790     1.1340 H     1 <1>   0.0800 
 51 H        6.1340    11.5590    -0.3890 H     1 <1>   0.0800 
 52 H        6.8140    11.7010     1.2070 H     1 <1>   0.0800 
@<TRIPOS>BOND
  1   1   2  2   
  2   1   3  2   
  3   1   4  am  
  4   1   5  1   
  5   4  27  1   
  6   4  28  1   
  7   5   6  ar  
  8   5   7  ar  
  9   6   8  ar  
 10   6  29  1   
 11   7   9  ar  
 12   7  30  1   
 13   8  10  ar  
 14   8  31  1   
 15   9  10  ar  
 16   9  32  1   
 17  10  11  1   
 18  11  12  1   
 19  11  33  1   
 20  11  34  1   
 21  12  13  1   
 22  12  35  1   
 23  13  14  ar  
 24  13  15  ar  
 25  14  16  ar  
 26  15  17  ar  
 27  15  36  1   
 28  16  18  ar  
 29  16  19  1   
 30  17  18  ar  
 31  17  20  1   
 32  18  37  1   
 33  19  21  1   
 34  19  22  1   
 35  20  23  1   
 36  20  38  1   
 37  20  39  1   
 38  21  24  1   
 39  21  40  1   
 40  21  41  1   
 41  22  25  1   
 42  22  42  1   
 43  22  43  1   
 44  23  44  1   
 45  23  45  1   
 46  23  46  1   
 47  24  26  1   
 48  24  47  1   
 49  24  48  1   
 50  25  26  1   
 51  25  49  1   
 52  25  50  1   
 53  26  51  1   
 54  26  52  1   
@<TRIPOS>SUBSTRUCTURE
  1 ****  12 GROUP 4 **** **** 0

# MOE 2024.06 (io_trps.svl 2023.06)
