@<TRIPOS>MOLECULE
NONAME
58 60 1 0 0 
SMALL
USER_CHARGES


@<TRIPOS>ATOM
  1 CL      -3.6260     0.5150    -2.5560 Cl    1 <1>  -0.1770 
  2 C       -3.0000    -0.6070    -1.3690 C.ar  1 <1>   0.1770 
  3 C       -2.3700    -0.1430    -0.2200 C.ar  1 <1>   0.0820 
  4 C       -3.1580    -1.9580    -1.6130 C.ar  1 <1>  -0.1500 
  5 O       -2.2610     1.2020    -0.0520 O.3   1 <1>  -0.3630 
  6 C       -1.8910    -1.0780     0.6930 C.ar  1 <1>  -0.1500 
  7 C       -2.6900    -2.8850    -0.6920 C.ar  1 <1>  -0.1430 
  8 C       -1.4760     1.8130     0.9490 C.3   1 <1>   0.2000 
  9 C       -2.0490    -2.4340     0.4560 C.ar  1 <1>  -0.1500 
 10 C       -2.8820    -4.3690    -0.9360 C.3   1 <1>   0.4870 
 11 C       -1.9250     3.2690     1.0380 C.3   1 <1>  -0.2400 
 12 C       -0.0010     1.7170     0.5520 C.3   1 <1>  -0.2400 
 13 N       -4.0330    -4.8310    -0.1000 N.4   1 <1>  -0.9590 
 14 C       -4.0800    -6.3370     0.0210 C.3   1 <1>   0.3430 
 15 C       -5.3120    -4.2380    -0.6080 C.3   1 <1>   0.3430 
 16 C       -5.3330    -6.8880     0.7850 C.3   1 <1>   0.4230 
 17 C       -6.4670    -4.7160     0.2680 C.3   1 <1>  -0.1600 
 18 N       -5.4010    -8.4130     0.9150 N.4   1 <1>  -0.9590 
 19 C       -6.6420    -6.2600     0.2300 C.3   1 <1>   0.0000 
 20 C       -6.7790    -8.9460     1.2110 C.3   1 <1>   0.3430 
 21 C       -4.8140    -9.2200    -0.2110 C.3   1 <1>   0.2630 
 22 C       -7.8380    -6.6300     1.1500 C.3   1 <1>  -0.1600 
 23 C       -6.9020    -6.7750    -1.2200 C.3   1 <1>   0.1200 
 24 C       -7.6160    -7.9160     1.9660 C.3   1 <1>  -0.1600 
 25 O       -7.6160    -5.8550    -1.9620 O.3   1 <1>  -0.6800 
 26 H       -3.6470    -2.2550    -2.5240 H     1 <1>   0.1500 
 27 H       -1.3910    -0.7660     1.5910 H     1 <1>   0.1500 
 28 H       -1.6670     1.3280     1.8900 H     1 <1>   0.0800 
 29 H       -1.6550    -3.1270     1.1810 H     1 <1>   0.1500 
 30 H       -1.9800    -4.8880    -0.6560 H     1 <1>   0.0800 
 31 H       -3.0740    -4.5510    -1.9810 H     1 <1>   0.0800 
 32 H       -1.7760     3.7660     0.0960 H     1 <1>   0.0800 
 33 H       -1.3600     3.7840     1.7930 H     1 <1>   0.0800 
 34 H       -2.9660     3.3140     1.3020 H     1 <1>   0.0800 
 35 H        0.1590     2.1900    -0.4010 H     1 <1>   0.0800 
 36 H        0.3160     0.6930     0.4940 H     1 <1>   0.0800 
 37 H        0.6080     2.2140     1.2860 H     1 <1>   0.0800 
 38 H       -3.8680    -4.4010     0.8230 H     1 <1>   0.4500 
 39 H       -4.0790    -6.7530    -0.9720 H     1 <1>   0.0800 
 40 H       -3.1910    -6.6760     0.5260 H     1 <1>   0.0800 
 41 H       -5.2620    -3.1600    -0.5750 H     1 <1>   0.0800 
 42 H       -5.4870    -4.5320    -1.6320 H     1 <1>   0.0800 
 43 H       -5.2460    -6.5100     1.7900 H     1 <1>   0.0800 
 44 H       -6.3030    -4.3730     1.2760 H     1 <1>   0.0800 
 45 H       -7.3680    -4.2310    -0.0680 H     1 <1>   0.0800 
 46 H       -4.8550    -8.6540     1.7590 H     1 <1>   0.4500 
 47 H       -7.2860    -9.1890     0.2910 H     1 <1>   0.0800 
 48 H       -6.7060    -9.8520     1.7930 H     1 <1>   0.0800 
 49 H       -5.3460    -9.0360    -1.1300 H     1 <1>   0.0800 
 50 H       -4.8840   -10.2730     0.0120 H     1 <1>   0.0800 
 51 H       -3.7730    -8.9810    -0.3540 H     1 <1>   0.0800 
 52 H       -8.0450    -5.8380     1.8520 H     1 <1>   0.0800 
 53 H       -8.7320    -6.7360     0.5550 H     1 <1>   0.0800 
 54 H       -7.4480    -7.7030    -1.2290 H     1 <1>   0.0800 
 55 H       -5.9820    -6.9270    -1.7550 H     1 <1>   0.0800 
 56 H       -8.5740    -8.3480     2.2060 H     1 <1>   0.0800 
 57 H       -7.1360    -7.6880     2.9030 H     1 <1>   0.0800 
 58 H       -8.5860    -5.9460    -1.8370 H     1 <1>   0.4000 
@<TRIPOS>BOND
  1   1   2  1   
  2   2   3  ar  
  3   2   4  ar  
  4   3   5  1   
  5   3   6  ar  
  6   4   7  ar  
  7   4  26  1   
  8   5   8  1   
  9   6   9  ar  
 10   6  27  1   
 11   7   9  ar  
 12   7  10  1   
 13   8  11  1   
 14   8  12  1   
 15   8  28  1   
 16   9  29  1   
 17  10  13  1   
 18  10  30  1   
 19  10  31  1   
 20  11  32  1   
 21  11  33  1   
 22  11  34  1   
 23  12  35  1   
 24  12  36  1   
 25  12  37  1   
 26  13  14  1   
 27  13  15  1   
 28  13  38  1   
 29  14  16  1   
 30  14  39  1   
 31  14  40  1   
 32  15  17  1   
 33  15  41  1   
 34  15  42  1   
 35  16  18  1   
 36  16  19  1   
 37  16  43  1   
 38  17  19  1   
 39  17  44  1   
 40  17  45  1   
 41  18  20  1   
 42  18  21  1   
 43  18  46  1   
 44  19  22  1   
 45  19  23  1   
 46  20  24  1   
 47  20  47  1   
 48  20  48  1   
 49  21  49  1   
 50  21  50  1   
 51  21  51  1   
 52  22  24  1   
 53  22  52  1   
 54  22  53  1   
 55  23  25  1   
 56  23  54  1   
 57  23  55  1   
 58  24  56  1   
 59  24  57  1   
 60  25  58  1   
@<TRIPOS>SUBSTRUCTURE
  1 ****  13 GROUP 4 **** **** 0

# MOE 2024.06 (io_trps.svl 2023.06)
