@<TRIPOS>MOLECULE
NONAME
62 63 1 0 0 
SMALL
USER_CHARGES


@<TRIPOS>ATOM
  1 O       -1.0040     1.3780    -0.3970 O.2   1 <1>  -0.5700 
  2 C       -1.5410     1.2350     0.6770 C.2   1 <1>   0.5690 
  3 N       -2.0600     0.0420     1.0860 N.am  1 <1>  -0.7300 
  4 C       -1.5920     2.4620     1.6120 C.3   1 <1>   0.4040 
  5 C       -2.0710    -1.2260     0.3100 C.3   1 <1>   0.2200 
  6 N       -0.2360     3.0690     1.9710 N.4   1 <1>  -0.9590 
  7 C       -0.6280    -1.6660     0.0160 C.3   1 <1>  -0.1600 
  8 C       -2.9460    -1.0590    -0.9510 C.3   1 <1>  -0.1600 
  9 C        0.4810     3.5000     0.7240 C.3   1 <1>   0.3430 
 10 C        0.5760     2.0600     2.7320 C.3   1 <1>   0.2630 
 11 C       -0.4370    -3.1870    -0.0910 C.3   1 <1>  -0.1600 
 12 C       -4.1070    -2.0620    -1.0250 C.3   1 <1>  -0.1600 
 13 C        1.2090     4.8510     0.8670 C.3   1 <1>  -0.0800 
 14 C       -1.2220    -3.8640    -1.2250 C.3   1 <1>  -0.1600 
 15 C       -3.7380    -3.4240    -1.6340 C.3   1 <1>  -0.1600 
 16 C        1.8520     5.1740    -0.4990 C.3   1 <1>   0.3430 
 17 C        2.2500     4.8540     2.0080 C.3   1 <1>  -0.2400 
 18 C       -2.6770    -4.2280    -0.8650 C.3   1 <1>  -0.1600 
 19 N        2.5650     6.4850    -0.5010 N.4   1 <1>  -0.9590 
 20 C        1.6900     7.6810    -0.3870 C.3   1 <1>   0.3430 
 21 C        3.3630     6.6990    -1.7370 C.3   1 <1>   0.3430 
 22 C        2.5560     8.8320    -0.8780 C.3   1 <1>  -0.1600 
 23 C        3.6340     8.1970    -1.7600 C.3   1 <1>  -0.1600 
 24 H       -2.5830    -0.0390     1.9600 H     1 <1>   0.3700 
 25 H       -2.1020     2.1720     2.5150 H     1 <1>   0.0800 
 26 H       -2.1960     3.2080     1.1260 H     1 <1>   0.0800 
 27 H       -2.5140    -1.9720     0.9470 H     1 <1>   0.0800 
 28 H       -0.4020     3.8890     2.5710 H     1 <1>   0.4500 
 29 H        0.0070    -1.3310     0.8170 H     1 <1>   0.0800 
 30 H       -0.2780    -1.1970    -0.8870 H     1 <1>   0.0800 
 31 H       -2.3510    -1.1360    -1.8440 H     1 <1>   0.0800 
 32 H       -3.3770    -0.0730    -0.9600 H     1 <1>   0.0800 
 33 H       -0.2360     3.5910    -0.0780 H     1 <1>   0.0800 
 34 H        1.1800     2.7310     0.4300 H     1 <1>   0.0800 
 35 H        0.7460     1.1830     2.1270 H     1 <1>   0.0800 
 36 H        0.0600     1.7620     3.6300 H     1 <1>   0.0800 
 37 H        1.5310     2.4730     3.0100 H     1 <1>   0.0800 
 38 H       -0.6720    -3.6570     0.8490 H     1 <1>   0.0800 
 39 H        0.6100    -3.3650    -0.2700 H     1 <1>   0.0800 
 40 H       -4.8730    -1.6340    -1.6490 H     1 <1>   0.0800 
 41 H       -4.5440    -2.2010    -0.0510 H     1 <1>   0.0800 
 42 H        0.4610     5.5980     1.0680 H     1 <1>   0.0800 
 43 H       -0.7130    -4.7860    -1.4510 H     1 <1>   0.0800 
 44 H       -1.1740    -3.2680    -2.1200 H     1 <1>   0.0800 
 45 H       -3.4280    -3.2930    -2.6570 H     1 <1>   0.0800 
 46 H       -4.6380    -4.0130    -1.6600 H     1 <1>   0.0800 
 47 H        1.0940     5.1810    -1.2670 H     1 <1>   0.0800 
 48 H        2.5570     4.3940    -0.7430 H     1 <1>   0.0800 
 49 H        3.0070     4.1060     1.8430 H     1 <1>   0.0800 
 50 H        1.7830     4.6630     2.9580 H     1 <1>   0.0800 
 51 H        2.7340     5.8110     2.0930 H     1 <1>   0.0800 
 52 H       -2.8530    -4.1660     0.1950 H     1 <1>   0.0800 
 53 H       -2.8170    -5.2620    -1.1320 H     1 <1>   0.0800 
 54 H        3.2320     6.5170     0.2830 H     1 <1>   0.4500 
 55 H        1.3550     7.8420     0.6260 H     1 <1>   0.0800 
 56 H        0.8360     7.5750    -1.0370 H     1 <1>   0.0800 
 57 H        2.7790     6.4290    -2.6030 H     1 <1>   0.0800 
 58 H        4.2790     6.1290    -1.7300 H     1 <1>   0.0800 
 59 H        3.0050     9.3370    -0.0400 H     1 <1>   0.0800 
 60 H        1.9610     9.5450    -1.4250 H     1 <1>   0.0800 
 61 H        3.5950     8.5690    -2.7700 H     1 <1>   0.0800 
 62 H        4.6140     8.3980    -1.3610 H     1 <1>   0.0800 
@<TRIPOS>BOND
  1   1   2  2   
  2   2   3  am  
  3   2   4  1   
  4   3   5  1   
  5   3  24  1   
  6   4   6  1   
  7   4  25  1   
  8   4  26  1   
  9   5   7  1   
 10   5   8  1   
 11   5  27  1   
 12   6   9  1   
 13   6  10  1   
 14   6  28  1   
 15   7  11  1   
 16   7  29  1   
 17   7  30  1   
 18   8  12  1   
 19   8  31  1   
 20   8  32  1   
 21   9  13  1   
 22   9  33  1   
 23   9  34  1   
 24  10  35  1   
 25  10  36  1   
 26  10  37  1   
 27  11  14  1   
 28  11  38  1   
 29  11  39  1   
 30  12  15  1   
 31  12  40  1   
 32  12  41  1   
 33  13  16  1   
 34  13  17  1   
 35  13  42  1   
 36  14  18  1   
 37  14  43  1   
 38  14  44  1   
 39  15  18  1   
 40  15  45  1   
 41  15  46  1   
 42  16  19  1   
 43  16  47  1   
 44  16  48  1   
 45  17  49  1   
 46  17  50  1   
 47  17  51  1   
 48  18  52  1   
 49  18  53  1   
 50  19  20  1   
 51  19  21  1   
 52  19  54  1   
 53  20  22  1   
 54  20  55  1   
 55  20  56  1   
 56  21  23  1   
 57  21  57  1   
 58  21  58  1   
 59  22  23  1   
 60  22  59  1   
 61  22  60  1   
 62  23  61  1   
 63  23  62  1   
@<TRIPOS>SUBSTRUCTURE
  1 ****   1 GROUP 4 **** **** 0

# MOE 2024.06 (io_trps.svl 2023.06)
