@<TRIPOS>MOLECULE
NONAME
52 53 1 0 0 
SMALL
USER_CHARGES


@<TRIPOS>ATOM
  1 O       -0.0330     0.3230     1.5330 O.2   1 <1>  -0.5700 
  2 C        1.0380    -0.1730     1.2850 C.2   1 <1>   0.5690 
  3 N        2.0760     0.4970     0.6990 N.am  1 <1>  -0.4940 
  4 C        1.2260    -1.6390     1.6360 C.3   1 <1>  -0.0990 
  5 C        2.1120     1.8340     0.2250 C.2   1 <1>  -0.0880 
  6 C        0.1410    -2.5090     0.9650 C.3   1 <1>  -0.1600 
  7 N        3.1950     2.4380    -0.3380 N.pl3 1 <1>   0.3140 
  8 C        1.1250     2.7610     0.2180 C.2   1 <1>  -0.1500 
  9 C        0.2590    -4.0070     1.2750 C.3   1 <1>   0.4230 
 10 N        2.9230     3.7100    -0.7010 N.2   1 <1>  -0.7070 
 11 C        4.5400     1.8640    -0.5510 C.3   1 <1>   0.0960 
 12 C        1.6850     3.8910    -0.3630 C.2   1 <1>   0.1390 
 13 N       -0.6630    -4.7530     0.3850 N.4   1 <1>  -0.9590 
 14 C       -0.0370    -4.3270     2.7430 C.3   1 <1>  -0.2400 
 15 C        4.5640     0.9560    -1.7900 C.3   1 <1>  -0.1600 
 16 C       -2.1360    -4.5170     0.5870 C.3   1 <1>   0.3430 
 17 C       -0.3820    -6.2250     0.2960 C.3   1 <1>   0.3430 
 18 C        5.9480     0.3320    -1.9970 C.3   1 <1>  -0.2400 
 19 C       -2.9600    -5.1830    -0.5430 C.3   1 <1>   0.1100 
 20 C       -1.2410    -6.8890    -0.8100 C.3   1 <1>   0.1100 
 21 N       -2.1020    -5.9080    -1.5110 N.3   1 <1>  -0.8100 
 22 C       -2.9050    -6.5520    -2.5590 C.3   1 <1>   0.0300 
 23 H        2.9350    -0.0350     0.5780 H     1 <1>   0.3700 
 24 H        1.1610    -1.7170     2.7060 H     1 <1>   0.0800 
 25 H        2.2030    -1.9660     1.3320 H     1 <1>   0.0800 
 26 H        0.2140    -2.3610    -0.0990 H     1 <1>   0.0800 
 27 H       -0.8220    -2.1490     1.2840 H     1 <1>   0.0800 
 28 H        0.1170     2.6700     0.5790 H     1 <1>   0.1500 
 29 H        1.2680    -4.3160     1.0530 H     1 <1>   0.0800 
 30 H        4.8220     1.3180     0.3280 H     1 <1>   0.0800 
 31 H        5.2310     2.6770    -0.6820 H     1 <1>   0.0800 
 32 H        1.1570     4.8170    -0.5180 H     1 <1>   0.1500 
 33 H       -0.5220    -4.4400    -0.5890 H     1 <1>   0.4500 
 34 H       -0.9880    -3.9300     3.0480 H     1 <1>   0.0800 
 35 H        0.7160    -3.8880     3.3710 H     1 <1>   0.0800 
 36 H       -0.0180    -5.3860     2.9220 H     1 <1>   0.0800 
 37 H        4.3080     1.5420    -2.6570 H     1 <1>   0.0800 
 38 H        3.8340     0.1720    -1.6870 H     1 <1>   0.0800 
 39 H       -2.3470    -3.4610     0.5910 H     1 <1>   0.0800 
 40 H       -2.4480    -4.9180     1.5370 H     1 <1>   0.0800 
 41 H       -0.5930    -6.7010     1.2390 H     1 <1>   0.0800 
 42 H        0.6590    -6.3870     0.0710 H     1 <1>   0.0800 
 43 H        6.6900     1.1010    -2.1340 H     1 <1>   0.0800 
 44 H        5.9430    -0.2910    -2.8740 H     1 <1>   0.0800 
 45 H        6.2270    -0.2710    -1.1510 H     1 <1>   0.0800 
 46 H       -3.5140    -4.4200    -1.0640 H     1 <1>   0.0800 
 47 H       -3.6750    -5.8600    -0.1060 H     1 <1>   0.0800 
 48 H       -1.8480    -7.6620    -0.3700 H     1 <1>   0.0800 
 49 H       -0.5850    -7.3600    -1.5230 H     1 <1>   0.0800 
 50 H       -3.4900    -5.8140    -3.0810 H     1 <1>   0.0800 
 51 H       -3.5690    -7.2880    -2.1350 H     1 <1>   0.0800 
 52 H       -2.2600    -7.0350    -3.2740 H     1 <1>   0.0800 
@<TRIPOS>BOND
  1   1   2  2   
  2   2   3  am  
  3   2   4  1   
  4   3   5  1   
  5   3  23  1   
  6   4   6  1   
  7   4  24  1   
  8   4  25  1   
  9   5   7  1   
 10   5   8  2   
 11   6   9  1   
 12   6  26  1   
 13   6  27  1   
 14   7  10  1   
 15   7  11  1   
 16   8  12  1   
 17   8  28  1   
 18   9  13  1   
 19   9  14  1   
 20   9  29  1   
 21  10  12  2   
 22  11  15  1   
 23  11  30  1   
 24  11  31  1   
 25  12  32  1   
 26  13  16  1   
 27  13  17  1   
 28  13  33  1   
 29  14  34  1   
 30  14  35  1   
 31  14  36  1   
 32  15  18  1   
 33  15  37  1   
 34  15  38  1   
 35  16  19  1   
 36  16  39  1   
 37  16  40  1   
 38  17  20  1   
 39  17  41  1   
 40  17  42  1   
 41  18  43  1   
 42  18  44  1   
 43  18  45  1   
 44  19  21  1   
 45  19  46  1   
 46  19  47  1   
 47  20  21  1   
 48  20  48  1   
 49  20  49  1   
 50  21  22  1   
 51  22  50  1   
 52  22  51  1   
 53  22  52  1   
@<TRIPOS>SUBSTRUCTURE
  1 ****   6 GROUP 4 **** **** 0

# MOE 2024.06 (io_trps.svl 2023.06)
