@<TRIPOS>MOLECULE
NONAME
46 50 1 0 0 
SMALL
USER_CHARGES


@<TRIPOS>ATOM
  1 S       -0.3560    -0.1240     1.7380 S.3   1 <1>  -0.0800 
  2 C       -1.2170     0.8970     0.5970 C.2   1 <1>  -0.1400 
  3 C       -1.7140    -1.2380     1.8140 C.2   1 <1>  -0.1100 
  4 C       -2.4320     0.3980     0.3370 C.2   1 <1>  -0.1810 
  5 C       -0.6170     2.1660     0.0090 C.3   1 <1>   0.4600 
  6 C       -2.7220    -0.8240     1.0220 C.2   1 <1>  -0.1500 
  7 C       -3.3520     1.1310    -0.6130 C.3   1 <1>   0.0210 
  8 O       -1.4910     2.6720    -0.9790 O.3   1 <1>  -0.5600 
  9 C        0.6990     1.8550    -0.7130 C.3   1 <1>  -0.1600 
 10 C       -0.4020     3.2440     1.0800 C.3   1 <1>  -0.1600 
 11 C       -2.8800     2.5930    -0.7420 C.3   1 <1>   0.1200 
 12 C        1.3260     3.1250    -1.2840 C.3   1 <1>   0.2090 
 13 C        0.2550     4.4920     0.4920 C.3   1 <1>   0.2090 
 14 N        1.5350     4.1000    -0.1730 N.pl3 1 <1>  -0.8380 
 15 C        2.6270     4.9140    -0.1000 C.ar  1 <1>   0.7710 
 16 N        3.8420     4.2960    -0.1080 N.ar  1 <1>  -0.1790 
 17 N        2.4910     6.2100    -0.0070 N.ar  1 <1>  -0.5670 
 18 C        5.0040     4.9580    -0.0460 C.ar  1 <1>   0.4610 
 19 C        3.6460     6.9190     0.0470 C.ar  1 <1>   0.1050 
 20 N        6.1730     4.2950    -0.0520 N.pl3 1 <1>  -0.9000 
 21 C        4.8980     6.3520     0.0280 C.ar  1 <1>   0.0000 
 22 N        3.8280     8.2610     0.1240 N.pl3 1 <1>   0.3140 
 23 C        5.7700     7.4490     0.1000 C.2   1 <1>   0.1390 
 24 N        5.1460     8.5760     0.1580 N.2   1 <1>  -0.7070 
 25 C        2.7950     9.3070     0.1670 C.3   1 <1>   0.0160 
 26 H       -1.6130    -2.0990     2.4520 H     1 <1>   0.1500 
 27 H       -3.6640    -1.3290     0.8910 H     1 <1>   0.1500 
 28 H       -4.3600     1.1140    -0.2400 H     1 <1>   0.0800 
 29 H       -3.3360     0.6540    -1.5770 H     1 <1>   0.0800 
 30 H        0.5030     1.1530    -1.5030 H     1 <1>   0.0800 
 31 H        1.3880     1.3940    -0.0310 H     1 <1>   0.0800 
 32 H        0.2300     2.8530     1.8560 H     1 <1>   0.0800 
 33 H       -1.3390     3.5000     1.5370 H     1 <1>   0.0800 
 34 H       -3.1040     3.1360     0.1590 H     1 <1>   0.0800 
 35 H       -3.3810     3.0720    -1.5640 H     1 <1>   0.0800 
 36 H        0.6620     3.5570    -2.0170 H     1 <1>   0.0800 
 37 H        2.2510     2.8880    -1.7800 H     1 <1>   0.0800 
 38 H        0.4390     5.2040     1.2790 H     1 <1>   0.0800 
 39 H       -0.4010     4.9500    -0.2300 H     1 <1>   0.0800 
 40 H        3.7980     3.2890    -0.1060 H     1 <1>   0.4570 
 41 H        7.0770     4.7840    -0.0020 H     1 <1>   0.4000 
 42 H        6.3050     3.2780    -0.1010 H     1 <1>   0.4000 
 43 H        6.8450     7.3690     0.1080 H     1 <1>   0.1500 
 44 H        1.8200     8.8610     0.1120 H     1 <1>   0.0800 
 45 H        2.9380     9.9720    -0.6650 H     1 <1>   0.0800 
 46 H        2.8930     9.8570     1.0840 H     1 <1>   0.0800 
@<TRIPOS>BOND
  1   1   2  1   
  2   1   3  1   
  3   2   4  2   
  4   2   5  1   
  5   3   6  2   
  6   3  26  1   
  7   4   6  1   
  8   4   7  1   
  9   5   8  1   
 10   5   9  1   
 11   5  10  1   
 12   6  27  1   
 13   7  11  1   
 14   7  28  1   
 15   7  29  1   
 16   8  11  1   
 17   9  12  1   
 18   9  30  1   
 19   9  31  1   
 20  10  13  1   
 21  10  32  1   
 22  10  33  1   
 23  11  34  1   
 24  11  35  1   
 25  12  14  1   
 26  12  36  1   
 27  12  37  1   
 28  13  14  1   
 29  13  38  1   
 30  13  39  1   
 31  14  15  1   
 32  15  16  ar  
 33  15  17  ar  
 34  16  18  ar  
 35  16  40  1   
 36  17  19  ar  
 37  18  20  1   
 38  18  21  ar  
 39  19  21  ar  
 40  19  22  1   
 41  20  41  1   
 42  20  42  1   
 43  21  23  1   
 44  22  24  1   
 45  22  25  1   
 46  23  24  2   
 47  23  43  1   
 48  25  44  1   
 49  25  45  1   
 50  25  46  1   
@<TRIPOS>SUBSTRUCTURE
  1 ****  14 GROUP 4 **** **** 0

# MOE 2024.06 (io_trps.svl 2023.06)
