@<TRIPOS>MOLECULE
NONAME
56 60 1 0 0 
SMALL
USER_CHARGES


@<TRIPOS>ATOM
  1 O       -2.7150     0.5670    -2.1440 O.3   1 <1>  -0.6800 
  2 C       -4.0730     0.3680    -1.9170 C.3   1 <1>   0.1200 
  3 C       -4.3310     0.2680    -0.4120 C.3   1 <1>   0.2090 
  4 N       -5.7960     0.2550    -0.1400 N.pl3 1 <1>  -0.8690 
  5 C       -6.5570    -0.8890    -0.1780 C.ar  1 <1>   0.4100 
  6 N       -6.0380    -1.9660    -0.7350 N.ar  1 <1>  -0.6200 
  7 C       -7.8260    -0.9020     0.3450 C.ar  1 <1>  -0.1500 
  8 C       -6.8150    -3.0310    -0.7340 C.ar  1 <1>   0.4700 
  9 C       -8.5510    -2.0680     0.2810 C.ar  1 <1>   0.4100 
 10 N       -8.0380    -3.1580    -0.2610 N.ar  1 <1>  -0.6200 
 11 N       -9.8390    -2.1340     0.7750 N.pl3 1 <1>  -0.8380 
 12 C      -10.8720    -1.2120     0.2100 C.3   1 <1>   0.2090 
 13 C      -10.3940    -3.4420     1.2200 C.3   1 <1>   0.2090 
 14 C      -11.9710    -0.9190     1.2490 C.3   1 <1>   0.1430 
 15 C      -11.5000    -3.2110     2.2580 C.3   1 <1>  -0.1600 
 16 C      -12.9970     0.0020     0.6150 C.ar  1 <1>   0.1670 
 17 C      -12.5860    -2.2480     1.7410 C.3   1 <1>  -0.1600 
 18 C      -11.4300    -0.0580     2.4230 C.3   1 <1>  -0.1600 
 19 N      -13.8750    -0.3470    -0.2940 N.ar  1 <1>  -0.6200 
 20 C      -12.8910     1.2720     1.0900 C.ar  1 <1>  -0.1430 
 21 C      -11.7890     1.4050     2.1110 C.3   1 <1>  -0.0170 
 22 C      -14.6870     0.6260    -0.7290 C.ar  1 <1>   0.6200 
 23 C      -13.7540     2.2140     0.5930 C.ar  1 <1>   0.1600 
 24 N      -14.6520     1.9010    -0.3120 N.ar  1 <1>  -0.6200 
 25 C      -15.6810     0.2720    -1.7340 C.ar  1 <1>   0.0000 
 26 C      -15.4800    -0.7870    -2.6250 C.ar  1 <1>  -0.1500 
 27 C      -16.8850     0.9730    -1.8560 C.ar  1 <1>  -0.1500 
 28 C      -16.4210    -1.1270    -3.5800 C.ar  1 <1>  -0.1500 
 29 C      -17.8310     0.6410    -2.8080 C.ar  1 <1>  -0.1500 
 30 C      -17.6010    -0.4120    -3.6740 C.ar  1 <1>  -0.1500 
 31 H       -2.5290     0.5670    -3.1020 H     1 <1>   0.4000 
 32 H       -4.3710    -0.5440    -2.4060 H     1 <1>   0.0800 
 33 H       -4.6090     1.2020    -2.3340 H     1 <1>   0.0800 
 34 H       -3.8890     1.1160     0.0810 H     1 <1>   0.0800 
 35 H       -3.8800    -0.6320    -0.0280 H     1 <1>   0.0800 
 36 H       -6.1050     0.9860     0.5020 H     1 <1>   0.4000 
 37 H       -8.2430    -0.0290     0.7970 H     1 <1>   0.1500 
 38 H       -6.3940    -3.9160    -1.1810 H     1 <1>   0.1500 
 39 H      -11.3170    -1.6770    -0.6540 H     1 <1>   0.0800 
 40 H      -10.4190    -0.2910    -0.1120 H     1 <1>   0.0800 
 41 H       -9.6110    -4.0420     1.6520 H     1 <1>   0.0800 
 42 H      -10.7890    -3.9670     0.3660 H     1 <1>   0.0800 
 43 H      -11.0520    -2.8170     3.1530 H     1 <1>   0.0800 
 44 H      -11.9480    -4.1560     2.5070 H     1 <1>   0.0800 
 45 H      -13.0990    -2.7170     0.9190 H     1 <1>   0.0800 
 46 H      -13.3140    -2.0590     2.5100 H     1 <1>   0.0800 
 47 H      -10.3720    -0.1860     2.5730 H     1 <1>   0.0800 
 48 H      -11.9320    -0.3370     3.3320 H     1 <1>   0.0800 
 49 H      -10.9500     1.9190     1.6750 H     1 <1>   0.0800 
 50 H      -12.1220     1.9270     2.9920 H     1 <1>   0.0800 
 51 H      -13.7080     3.2320     0.9380 H     1 <1>   0.1500 
 52 H      -14.5680    -1.3560    -2.5690 H     1 <1>   0.1500 
 53 H      -17.0820     1.7960    -1.1900 H     1 <1>   0.1500 
 54 H      -16.2350    -1.9470    -4.2510 H     1 <1>   0.1500 
 55 H      -18.7460     1.2020    -2.8750 H     1 <1>   0.1500 
 56 H      -18.3350    -0.6730    -4.4160 H     1 <1>   0.1500 
@<TRIPOS>BOND
  1   1   2  1   
  2   1  31  1   
  3   2   3  1   
  4   2  32  1   
  5   2  33  1   
  6   3   4  1   
  7   3  34  1   
  8   3  35  1   
  9   4   5  1   
 10   4  36  1   
 11   5   6  ar  
 12   5   7  ar  
 13   6   8  ar  
 14   7   9  ar  
 15   7  37  1   
 16   8  10  ar  
 17   8  38  1   
 18   9  10  ar  
 19   9  11  1   
 20  11  12  1   
 21  11  13  1   
 22  12  14  1   
 23  12  39  1   
 24  12  40  1   
 25  13  15  1   
 26  13  41  1   
 27  13  42  1   
 28  14  16  1   
 29  14  17  1   
 30  14  18  1   
 31  15  17  1   
 32  15  43  1   
 33  15  44  1   
 34  16  19  ar  
 35  16  20  ar  
 36  17  45  1   
 37  17  46  1   
 38  18  21  1   
 39  18  47  1   
 40  18  48  1   
 41  19  22  ar  
 42  20  21  1   
 43  20  23  ar  
 44  21  49  1   
 45  21  50  1   
 46  22  24  ar  
 47  22  25  1   
 48  23  24  ar  
 49  23  51  1   
 50  25  26  ar  
 51  25  27  ar  
 52  26  28  ar  
 53  26  52  1   
 54  27  29  ar  
 55  27  53  1   
 56  28  30  ar  
 57  28  54  1   
 58  29  30  ar  
 59  29  55  1   
 60  30  56  1   
@<TRIPOS>SUBSTRUCTURE
  1 ****  12 GROUP 4 **** **** 0

# MOE 2024.06 (io_trps.svl 2023.06)
