@<TRIPOS>MOLECULE
NONAME
49 51 1 0 0 
SMALL
USER_CHARGES


@<TRIPOS>ATOM
  1 O        1.1530    -0.6370    -1.8130 O.2   1 <1>  -0.5700 
  2 C        1.8240    -0.8300    -0.8140 C.2   1 <1>   0.7160 
  3 N        2.7080     0.1730    -0.4440 N.am  1 <1>  -0.6600 
  4 C        1.7170    -2.0980    -0.0960 C.2   1 <1>   0.2030 
  5 C        3.2220     0.2920     0.9700 C.3   1 <1>   0.2200 
  6 C        3.1840     1.1440    -1.4760 C.3   1 <1>   0.1400 
  7 N        2.6320    -2.6510     0.6910 N.2   1 <1>  -0.7070 
  8 C        0.5940    -2.9300    -0.1810 C.2   1 <1>  -0.1500 
  9 C        3.2330     1.7410     1.4870 C.3   1 <1>   0.1200 
 10 C        4.6270    -0.3430     1.0990 C.3   1 <1>   0.3430 
 11 C        4.5670     1.7600    -1.1870 C.3   1 <1>  -0.0800 
 12 N        2.0870    -3.8120     1.1000 N.pl3 1 <1>   0.3000 
 13 C        0.8600    -4.0040     0.5850 C.2   1 <1>  -0.3320 
 14 O        4.4250     2.3810     1.1420 O.3   1 <1>  -0.5600 
 15 N        5.2930    -0.5220    -0.2380 N.4   1 <1>  -0.9590 
 16 C        4.4860     2.8880    -0.1480 C.3   1 <1>   0.1200 
 17 C        5.7110     0.7650    -0.8840 C.3   1 <1>   0.3430 
 18 C       -0.0090    -5.2220     0.8650 C.3   1 <1>   0.0200 
 19 C        6.4120    -1.5010    -0.1510 C.3   1 <1>   0.2630 
 20 C        0.3450    -6.4270    -0.0260 C.3   1 <1>  -0.0800 
 21 C       -0.6570    -7.5650     0.2090 C.3   1 <1>  -0.2400 
 22 C        1.7710    -6.9480     0.2110 C.3   1 <1>  -0.2400 
 23 H        2.5520    -0.2420     1.6210 H     1 <1>   0.0800 
 24 H        3.2270     0.6400    -2.4280 H     1 <1>   0.0800 
 25 H        2.4500     1.9280    -1.5730 H     1 <1>   0.0800 
 26 H       -0.2880    -2.7170    -0.7620 H     1 <1>   0.1500 
 27 H        3.1950     1.7290     2.5620 H     1 <1>   0.0800 
 28 H        2.3870     2.3020     1.1280 H     1 <1>   0.0800 
 29 H        4.5060    -1.3070     1.5640 H     1 <1>   0.0800 
 30 H        5.2420     0.2570     1.7500 H     1 <1>   0.0800 
 31 H        4.8500     2.2610    -2.0950 H     1 <1>   0.0800 
 32 H        2.5670    -4.4740     1.7250 H     1 <1>   0.2700 
 33 H        4.5400    -0.9230    -0.8220 H     1 <1>   0.4500 
 34 H        3.6340     3.5280    -0.3150 H     1 <1>   0.0800 
 35 H        5.3730     3.4970    -0.1990 H     1 <1>   0.0800 
 36 H        6.4420     1.2560    -0.2620 H     1 <1>   0.0800 
 37 H        6.1930     0.5270    -1.8190 H     1 <1>   0.0800 
 38 H        0.0660    -5.4940     1.9040 H     1 <1>   0.0800 
 39 H       -1.0340    -4.9490     0.6800 H     1 <1>   0.0800 
 40 H        7.1930    -1.1210     0.4880 H     1 <1>   0.0800 
 41 H        6.8240    -1.6860    -1.1300 H     1 <1>   0.0800 
 42 H        6.0560    -2.4350     0.2530 H     1 <1>   0.0800 
 43 H        0.2640    -6.1190    -1.0560 H     1 <1>   0.0800 
 44 H       -0.6090    -7.9120     1.2260 H     1 <1>   0.0800 
 45 H       -0.4430    -8.3930    -0.4450 H     1 <1>   0.0800 
 46 H       -1.6590    -7.2310     0.0060 H     1 <1>   0.0800 
 47 H        1.9210    -7.1930     1.2480 H     1 <1>   0.0800 
 48 H        2.4980    -6.2170    -0.0900 H     1 <1>   0.0800 
 49 H        1.9420    -7.8330    -0.3760 H     1 <1>   0.0800 
@<TRIPOS>BOND
  1   1   2  2   
  2   2   3  am  
  3   2   4  1   
  4   3   5  1   
  5   3   6  1   
  6   4   7  2   
  7   4   8  1   
  8   5   9  1   
  9   5  10  1   
 10   5  23  1   
 11   6  11  1   
 12   6  24  1   
 13   6  25  1   
 14   7  12  1   
 15   8  13  2   
 16   8  26  1   
 17   9  14  1   
 18   9  27  1   
 19   9  28  1   
 20  10  15  1   
 21  10  29  1   
 22  10  30  1   
 23  11  16  1   
 24  11  17  1   
 25  11  31  1   
 26  12  13  1   
 27  12  32  1   
 28  13  18  1   
 29  14  16  1   
 30  15  17  1   
 31  15  19  1   
 32  15  33  1   
 33  16  34  1   
 34  16  35  1   
 35  17  36  1   
 36  17  37  1   
 37  18  20  1   
 38  18  38  1   
 39  18  39  1   
 40  19  40  1   
 41  19  41  1   
 42  19  42  1   
 43  20  21  1   
 44  20  22  1   
 45  20  43  1   
 46  21  44  1   
 47  21  45  1   
 48  21  46  1   
 49  22  47  1   
 50  22  48  1   
 51  22  49  1   
@<TRIPOS>SUBSTRUCTURE
  1 ****   4 GROUP 4 **** **** 0

# MOE 2024.06 (io_trps.svl 2023.06)
