@<TRIPOS>MOLECULE
NONAME
45 48 1 0 0 
SMALL
USER_CHARGES


@<TRIPOS>ATOM
  1 O       -2.4030     0.2810    -2.3300 O.2   1 <1>  -0.5700 
  2 C       -2.1760     0.7840    -1.2450 C.2   1 <1>   0.7160 
  3 N       -2.3110    -0.0250    -0.1360 N.am  1 <1>  -0.6600 
  4 C       -1.9150     2.2010    -1.1190 C.2   1 <1>  -0.0860 
  5 C       -3.0880     0.4560     1.0440 C.3   1 <1>   0.1400 
  6 C       -2.3390    -1.5060    -0.2970 C.3   1 <1>   0.1400 
  7 C       -1.1010     2.9060    -0.2600 C.2   1 <1>  -0.3320 
  8 C       -2.5280     3.1790    -1.9290 C.2   1 <1>  -0.1500 
  9 C       -4.5570    -0.0320     0.9730 C.3   1 <1>   0.4230 
 10 C       -3.7960    -1.9830    -0.4260 C.3   1 <1>   0.3430 
 11 N       -1.2120     4.2340    -0.5040 N.pl3 1 <1>   0.0330 
 12 C       -0.1530     2.3840     0.8070 C.3   1 <1>  -0.0600 
 13 C       -2.0880     4.3950    -1.5260 C.2   1 <1>  -0.3020 
 14 N       -4.6510    -1.5340     0.7420 N.4   1 <1>  -0.9590 
 15 C       -5.3450     0.7480    -0.1070 C.3   1 <1>   0.1200 
 16 C       -6.0940    -1.9320     0.5920 C.3   1 <1>   0.5180 
 17 O       -6.6690     0.3020    -0.1510 O.3   1 <1>  -0.5600 
 18 C       -6.1850    -3.4500     0.3360 C.3   1 <1>  -0.1950 
 19 C       -6.8150    -1.0560    -0.4630 C.3   1 <1>   0.1200 
 20 C       -6.1300    -4.0950    -1.0190 C.3   1 <1>  -0.2000 
 21 C       -7.4080    -4.1080    -0.2300 C.3   1 <1>  -0.2000 
 22 H       -2.6260     0.0870     1.9430 H     1 <1>   0.0800 
 23 H       -3.0720     1.5310     1.0960 H     1 <1>   0.0800 
 24 H       -1.7870    -1.7930    -1.1770 H     1 <1>   0.0800 
 25 H       -1.8650    -1.9730     0.5490 H     1 <1>   0.0800 
 26 H       -3.2170     2.9610    -2.7280 H     1 <1>   0.1500 
 27 H       -5.0180     0.2040     1.9180 H     1 <1>   0.0800 
 28 H       -3.8030    -3.0580    -0.4980 H     1 <1>   0.0800 
 29 H       -4.1960    -1.5890    -1.3470 H     1 <1>   0.0800 
 30 H       -0.7060     4.9890    -0.0260 H     1 <1>   0.2700 
 31 H       -0.0950     1.3110     0.7800 H     1 <1>   0.0800 
 32 H       -0.4830     2.6900     1.7840 H     1 <1>   0.0800 
 33 H        0.8360     2.7720     0.6390 H     1 <1>   0.0800 
 34 H       -2.3430     5.3650    -1.9180 H     1 <1>   0.1500 
 35 H       -4.2980    -2.0050     1.5800 H     1 <1>   0.4500 
 36 H       -4.9090     0.6300    -1.0840 H     1 <1>   0.0800 
 37 H       -5.3640     1.7980     0.1300 H     1 <1>   0.0800 
 38 H       -6.5940    -1.7440     1.5290 H     1 <1>   0.0800 
 39 H       -5.7390    -3.9930     1.1520 H     1 <1>   0.1000 
 40 H       -7.8690    -1.2700    -0.4630 H     1 <1>   0.0800 
 41 H       -6.4310    -1.2270    -1.4530 H     1 <1>   0.0800 
 42 H       -6.1200    -3.5130    -1.9250 H     1 <1>   0.1000 
 43 H       -5.6090    -5.0320    -1.1390 H     1 <1>   0.1000 
 44 H       -7.7350    -5.0460     0.1890 H     1 <1>   0.1000 
 45 H       -8.2350    -3.5340    -0.6120 H     1 <1>   0.1000 
@<TRIPOS>BOND
  1   1   2  2   
  2   2   3  am  
  3   2   4  1   
  4   3   5  1   
  5   3   6  1   
  6   4   7  2   
  7   4   8  1   
  8   5   9  1   
  9   5  22  1   
 10   5  23  1   
 11   6  10  1   
 12   6  24  1   
 13   6  25  1   
 14   7  11  1   
 15   7  12  1   
 16   8  13  2   
 17   8  26  1   
 18   9  14  1   
 19   9  15  1   
 20   9  27  1   
 21  10  14  1   
 22  10  28  1   
 23  10  29  1   
 24  11  13  1   
 25  11  30  1   
 26  12  31  1   
 27  12  32  1   
 28  12  33  1   
 29  13  34  1   
 30  14  16  1   
 31  14  35  1   
 32  15  17  1   
 33  15  36  1   
 34  15  37  1   
 35  16  18  1   
 36  16  19  1   
 37  16  38  1   
 38  17  19  1   
 39  18  20  1   
 40  18  21  1   
 41  18  39  1   
 42  19  40  1   
 43  19  41  1   
 44  20  21  1   
 45  20  42  1   
 46  20  43  1   
 47  21  44  1   
 48  21  45  1   
@<TRIPOS>SUBSTRUCTURE
  1 ****   3 GROUP 4 **** **** 0

# MOE 2024.06 (io_trps.svl 2023.06)
