@<TRIPOS>MOLECULE
NONAME
50 52 1 0 0 
SMALL
USER_CHARGES


@<TRIPOS>ATOM
  1 O       -0.4950    -0.5470    -0.6150 O.2   1 <1>  -0.5700 
  2 C        0.6420    -0.9760    -0.5820 C.2   1 <1>   0.5440 
  3 N        1.6650    -0.1210    -0.2420 N.am  1 <1>  -0.6600 
  4 C        0.8880    -2.3710    -0.8900 C.ar  1 <1>   0.0860 
  5 C        1.4240     1.3070     0.0630 C.3   1 <1>   0.1400 
  6 C        2.9980    -0.5450     0.2430 C.3   1 <1>   0.1400 
  7 C        0.1450    -3.3880    -0.3220 C.ar  1 <1>  -0.1500 
  8 C        1.8720    -2.7880    -1.7760 C.ar  1 <1>  -0.1500 
  9 C        2.7580     1.8300     0.5840 C.3   1 <1>  -0.1600 
 10 C        3.4660     0.5970     1.1370 C.3   1 <1>  -0.1600 
 11 C        0.4040    -4.7180    -0.6210 C.ar  1 <1>   0.4100 
 12 C        2.0620    -4.1340    -2.0150 C.ar  1 <1>   0.1600 
 13 N        1.3590    -5.1020    -1.4570 N.ar  1 <1>  -0.6200 
 14 N       -0.3550    -5.6930    -0.0220 N.pl3 1 <1>  -0.8690 
 15 C       -0.4960    -7.0370    -0.5990 C.3   1 <1>   0.4330 
 16 C       -1.9470    -7.4710    -0.4180 C.ar  1 <1>  -0.1430 
 17 C        0.4720    -7.9780     0.1110 C.3   1 <1>  -0.2400 
 18 C       -2.5190    -7.5710     0.8450 C.ar  1 <1>  -0.1500 
 19 C       -2.7230    -7.7680    -1.5300 C.ar  1 <1>  -0.1500 
 20 C       -3.8380    -7.9630     0.9970 C.ar  1 <1>  -0.1500 
 21 C       -4.0410    -8.1600    -1.3810 C.ar  1 <1>  -0.1500 
 22 C       -4.6090    -8.2620    -0.1230 C.ar  1 <1>   0.0830 
 23 O       -5.9060    -8.6550    -0.0670 O.3   1 <1>  -0.3630 
 24 C       -6.5710    -8.8180     1.1640 C.3   1 <1>   0.1200 
 25 C       -7.9970    -9.2760     0.8730 C.3   1 <1>  -0.2400 
 26 H        0.6640     1.3810     0.8230 H     1 <1>   0.0800 
 27 H        1.1020     1.8350    -0.8190 H     1 <1>   0.0800 
 28 H        3.6620    -0.6520    -0.5980 H     1 <1>   0.0800 
 29 H        2.9420    -1.4730     0.7870 H     1 <1>   0.0800 
 30 H       -0.6430    -3.1440     0.3640 H     1 <1>   0.1500 
 31 H        2.4810    -2.0580    -2.2770 H     1 <1>   0.1500 
 32 H        2.6230     2.5950     1.3280 H     1 <1>   0.0800 
 33 H        3.3180     2.2370    -0.2400 H     1 <1>   0.0800 
 34 H        4.5370     0.6990     1.1300 H     1 <1>   0.0800 
 35 H        3.1370     0.4090     2.1440 H     1 <1>   0.0800 
 36 H        2.8340    -4.4340    -2.7040 H     1 <1>   0.1500 
 37 H       -1.2600    -5.3760     0.3260 H     1 <1>   0.4000 
 38 H       -0.2600    -7.0130    -1.6500 H     1 <1>   0.0800 
 39 H        0.3000    -7.9760     1.1700 H     1 <1>   0.0800 
 40 H        1.4820    -7.6670    -0.0840 H     1 <1>   0.0800 
 41 H        0.3420    -8.9770    -0.2620 H     1 <1>   0.0800 
 42 H       -1.9340    -7.3410     1.7190 H     1 <1>   0.1500 
 43 H       -2.3050    -7.6930    -2.5190 H     1 <1>   0.1500 
 44 H       -4.2440    -8.0290     1.9880 H     1 <1>   0.1500 
 45 H       -4.6410    -8.3900    -2.2430 H     1 <1>   0.1500 
 46 H       -6.5730    -7.8720     1.6780 H     1 <1>   0.0800 
 47 H       -6.0440    -9.5580     1.7410 H     1 <1>   0.0800 
 48 H       -8.5080    -8.5370     0.2810 H     1 <1>   0.0800 
 49 H       -8.5330    -9.4100     1.7940 H     1 <1>   0.0800 
 50 H       -7.9830   -10.2120     0.3440 H     1 <1>   0.0800 
@<TRIPOS>BOND
  1   1   2  2   
  2   2   3  am  
  3   2   4  1   
  4   3   5  1   
  5   3   6  1   
  6   4   7  ar  
  7   4   8  ar  
  8   5   9  1   
  9   5  26  1   
 10   5  27  1   
 11   6  10  1   
 12   6  28  1   
 13   6  29  1   
 14   7  11  ar  
 15   7  30  1   
 16   8  12  ar  
 17   8  31  1   
 18   9  10  1   
 19   9  32  1   
 20   9  33  1   
 21  10  34  1   
 22  10  35  1   
 23  11  13  ar  
 24  11  14  1   
 25  12  13  ar  
 26  12  36  1   
 27  14  15  1   
 28  14  37  1   
 29  15  16  1   
 30  15  17  1   
 31  15  38  1   
 32  16  18  ar  
 33  16  19  ar  
 34  17  39  1   
 35  17  40  1   
 36  17  41  1   
 37  18  20  ar  
 38  18  42  1   
 39  19  21  ar  
 40  19  43  1   
 41  20  22  ar  
 42  20  44  1   
 43  21  22  ar  
 44  21  45  1   
 45  22  23  1   
 46  23  24  1   
 47  24  25  1   
 48  24  46  1   
 49  24  47  1   
 50  25  48  1   
 51  25  49  1   
 52  25  50  1   
@<TRIPOS>SUBSTRUCTURE
  1 ****  14 GROUP 4 **** **** 0

# MOE 2024.06 (io_trps.svl 2023.06)
