@<TRIPOS>MOLECULE
NONAME
45 47 1 0 0 
SMALL
USER_CHARGES


@<TRIPOS>ATOM
  1 O        2.8580    -1.1100    -1.5710 O.2   1 <1>  -0.5700 
  2 C        1.9570    -1.5840    -0.9210 C.2   1 <1>   0.5690 
  3 N        2.0580    -1.9620     0.3690 N.am  1 <1>  -0.6600 
  4 C        0.5600    -1.7640    -1.4410 C.3   1 <1>  -0.0990 
  5 C        0.7640    -2.3810     0.9370 C.3   1 <1>   0.1400 
  6 C        3.2870    -1.8670     1.2220 C.3   1 <1>   0.2010 
  7 C       -0.1780    -2.4600    -0.2800 C.3   1 <1>   0.0640 
  8 C        3.6660    -0.4320     1.5880 C.2   1 <1>   0.5690 
  9 C       -0.5120    -3.9110    -0.6250 C.ar  1 <1>  -0.1440 
 10 O        3.7720    -0.1450     2.7550 O.2   1 <1>  -0.5700 
 11 N        3.8710     0.4460     0.5630 N.am  1 <1>  -0.4940 
 12 C        0.4910    -4.8270    -0.9140 C.ar  1 <1>  -0.1500 
 13 C       -1.8340    -4.3300    -0.6520 C.ar  1 <1>  -0.1500 
 14 C        4.2270     1.7970     0.5800 C.2   1 <1>   0.2040 
 15 C        0.1780    -6.1390    -1.2220 C.ar  1 <1>  -0.1500 
 16 C       -2.1490    -5.6430    -0.9600 C.ar  1 <1>  -0.1500 
 17 O        4.4750     2.4490     1.6910 O.3   1 <1>  -0.0190 
 18 C        4.3810     2.6590    -0.4440 C.2   1 <1>  -0.1810 
 19 C       -1.1430    -6.5480    -1.2460 C.ar  1 <1>  -0.1500 
 20 N        4.7850     3.7000     1.4610 N.2   1 <1>  -0.4100 
 21 C        4.7370     3.8510     0.1860 C.2   1 <1>   0.1080 
 22 C        4.2150     2.4200    -1.9360 C.3   1 <1>  -0.0590 
 23 C        5.0350     5.1700    -0.5060 C.3   1 <1>   0.0210 
 24 C        6.5020     5.2500    -0.9420 C.3   1 <1>  -0.2400 
 25 H        0.5640    -2.3560    -2.3380 H     1 <1>   0.0800 
 26 H        0.1330    -0.8000    -1.6440 H     1 <1>   0.0800 
 27 H        0.4220    -1.6390     1.6380 H     1 <1>   0.0800 
 28 H        0.8530    -3.3340     1.4320 H     1 <1>   0.0800 
 29 H        4.1120    -2.3090     0.6940 H     1 <1>   0.0800 
 30 H        3.1380    -2.4260     2.1290 H     1 <1>   0.0800 
 31 H       -1.0870    -1.9290    -0.0550 H     1 <1>   0.0800 
 32 H        3.6770     0.0550    -0.3680 H     1 <1>   0.3700 
 33 H        1.5250    -4.5270    -0.9020 H     1 <1>   0.1500 
 34 H       -2.6310    -3.6420    -0.4340 H     1 <1>   0.1500 
 35 H        0.9620    -6.8410    -1.4450 H     1 <1>   0.1500 
 36 H       -3.1770    -5.9600    -0.9790 H     1 <1>   0.1500 
 37 H       -1.3870    -7.5680    -1.4860 H     1 <1>   0.1500 
 38 H        3.9500     1.3960    -2.1300 H     1 <1>   0.0800 
 39 H        5.1340     2.6370    -2.4480 H     1 <1>   0.0800 
 40 H        3.4380     3.0530    -2.3250 H     1 <1>   0.0800 
 41 H        4.8210     5.9740     0.1760 H     1 <1>   0.0800 
 42 H        4.3920     5.2820    -1.3590 H     1 <1>   0.0800 
 43 H        7.1430     5.1540    -0.0830 H     1 <1>   0.0800 
 44 H        6.6970     6.1950    -1.4160 H     1 <1>   0.0800 
 45 H        6.7320     4.4590    -1.6330 H     1 <1>   0.0800 
@<TRIPOS>BOND
  1   1   2  2   
  2   2   3  am  
  3   2   4  1   
  4   3   5  1   
  5   3   6  1   
  6   4   7  1   
  7   4  25  1   
  8   4  26  1   
  9   5   7  1   
 10   5  27  1   
 11   5  28  1   
 12   6   8  1   
 13   6  29  1   
 14   6  30  1   
 15   7   9  1   
 16   7  31  1   
 17   8  10  2   
 18   8  11  am  
 19   9  12  ar  
 20   9  13  ar  
 21  11  14  1   
 22  11  32  1   
 23  12  15  ar  
 24  12  33  1   
 25  13  16  ar  
 26  13  34  1   
 27  14  17  1   
 28  14  18  2   
 29  15  19  ar  
 30  15  35  1   
 31  16  19  ar  
 32  16  36  1   
 33  17  20  1   
 34  18  21  1   
 35  18  22  1   
 36  19  37  1   
 37  20  21  2   
 38  21  23  1   
 39  22  38  1   
 40  22  39  1   
 41  22  40  1   
 42  23  24  1   
 43  23  41  1   
 44  23  42  1   
 45  24  43  1   
 46  24  44  1   
 47  24  45  1   
@<TRIPOS>SUBSTRUCTURE
  1 ****   2 GROUP 4 **** **** 0

# MOE 2024.06 (io_trps.svl 2023.06)
