@<TRIPOS>MOLECULE
NONAME
47 49 1 0 0 
SMALL
USER_CHARGES


@<TRIPOS>ATOM
  1 O       -0.1650     1.2750    -1.0510 O.2   1 <1>  -0.5700 
  2 C       -1.2800     1.7220    -0.8990 C.2   1 <1>   0.5690 
  3 N       -2.3630     0.8900    -0.7040 N.am  1 <1>  -0.6600 
  4 C       -1.4210     3.2420    -0.9720 C.3   1 <1>   0.1810 
  5 C       -3.7420     1.3980    -0.4210 C.3   1 <1>   0.2200 
  6 C       -2.1550    -0.5920    -0.7100 C.3   1 <1>   0.0600 
  7 O       -1.7550     3.7960     0.2940 O.3   1 <1>  -0.3620 
  8 C       -4.4280     0.7390     0.7750 C.3   1 <1>  -0.1600 
  9 C       -4.7000     1.1750    -1.5870 C.3   1 <1>  -0.1600 
 10 C       -1.0640     4.8920     0.6700 C.ar  1 <1>   0.0820 
 11 C       -5.9240     0.9870     0.5440 C.3   1 <1>  -0.0800 
 12 C       -6.0980     1.2580    -0.9610 C.3   1 <1>  -0.0800 
 13 C        0.2240     4.7870     1.1900 C.ar  1 <1>  -0.1440 
 14 C       -1.6720     6.1300     0.5350 C.ar  1 <1>  -0.1500 
 15 C       -6.4610     2.2270     1.2730 C.3   1 <1>  -0.1600 
 16 C       -6.7410     2.6480    -1.0790 C.3   1 <1>  -0.1600 
 17 C        0.8970     5.9440     1.5480 C.ar  1 <1>  -0.1500 
 18 C        0.9040     3.4370     1.3780 C.3   1 <1>  -0.0970 
 19 C       -0.9910     7.2770     0.8990 C.ar  1 <1>  -0.1500 
 20 C       -7.4010     2.8770     0.2710 C.3   1 <1>   0.2000 
 21 C        0.2950     7.1840     1.4020 C.ar  1 <1>  -0.1500 
 22 O       -7.5120     4.2260     0.5250 O.3   1 <1>  -0.6800 
 23 H       -2.1920     3.5100    -1.6680 H     1 <1>   0.0800 
 24 H       -0.4900     3.6660    -1.3060 H     1 <1>   0.0800 
 25 H       -3.7200     2.4540    -0.2210 H     1 <1>   0.0800 
 26 H       -3.0140    -1.0990    -1.1110 H     1 <1>   0.0800 
 27 H       -1.9800    -0.9330     0.2950 H     1 <1>   0.0800 
 28 H       -1.3020    -0.8510    -1.3120 H     1 <1>   0.0800 
 29 H       -4.2670    -0.3220     0.7770 H     1 <1>   0.0800 
 30 H       -4.0790     1.1500     1.7060 H     1 <1>   0.0800 
 31 H       -4.5540     1.9000    -2.3670 H     1 <1>   0.0800 
 32 H       -4.5650     0.1910    -1.9960 H     1 <1>   0.0800 
 33 H       -6.5000     0.1230     0.8330 H     1 <1>   0.0800 
 34 H       -6.7520     0.5200    -1.3970 H     1 <1>   0.0800 
 35 H       -2.6710     6.1900     0.1460 H     1 <1>   0.1500 
 36 H       -5.6530     2.9000     1.5040 H     1 <1>   0.0800 
 37 H       -6.9780     1.9600     2.1770 H     1 <1>   0.0800 
 38 H       -7.4610     2.6820    -1.8760 H     1 <1>   0.0800 
 39 H       -5.9840     3.3960    -1.2430 H     1 <1>   0.0800 
 40 H        1.8960     5.8870     1.9440 H     1 <1>   0.1500 
 41 H        1.6840     3.5010     2.1140 H     1 <1>   0.0800 
 42 H        1.3340     3.1080     0.4490 H     1 <1>   0.0800 
 43 H        0.1920     2.7010     1.7080 H     1 <1>   0.0800 
 44 H       -1.4590     8.2400     0.7920 H     1 <1>   0.1500 
 45 H       -8.3810     2.4290     0.3060 H     1 <1>   0.0800 
 46 H        0.8290     8.0750     1.6840 H     1 <1>   0.1500 
 47 H       -6.6270     4.6320     0.5530 H     1 <1>   0.4000 
@<TRIPOS>BOND
  1   1   2  2   
  2   2   3  am  
  3   2   4  1   
  4   3   5  1   
  5   3   6  1   
  6   4   7  1   
  7   4  23  1   
  8   4  24  1   
  9   5   8  1   
 10   5   9  1   
 11   5  25  1   
 12   6  26  1   
 13   6  27  1   
 14   6  28  1   
 15   7  10  1   
 16   8  11  1   
 17   8  29  1   
 18   8  30  1   
 19   9  12  1   
 20   9  31  1   
 21   9  32  1   
 22  10  13  ar  
 23  10  14  ar  
 24  11  12  1   
 25  11  15  1   
 26  11  33  1   
 27  12  16  1   
 28  12  34  1   
 29  13  17  ar  
 30  13  18  1   
 31  14  19  ar  
 32  14  35  1   
 33  15  20  1   
 34  15  36  1   
 35  15  37  1   
 36  16  20  1   
 37  16  38  1   
 38  16  39  1   
 39  17  21  ar  
 40  17  40  1   
 41  18  41  1   
 42  18  42  1   
 43  18  43  1   
 44  19  21  ar  
 45  19  44  1   
 46  20  22  1   
 47  20  45  1   
 48  21  46  1   
 49  22  47  1   
@<TRIPOS>SUBSTRUCTURE
  1 ****   7 GROUP 4 **** **** 0

# MOE 2024.06 (io_trps.svl 2023.06)
