@<TRIPOS>MOLECULE
NONAME
47 50 1 0 0 
SMALL
USER_CHARGES


@<TRIPOS>ATOM
  1 O       -0.7930    -0.8250     1.2360 O.2   1 <1>  -0.5700 
  2 C       -0.9300    -1.9370     1.6840 C.2   1 <1>   0.5690 
  3 N       -0.3890    -2.2520     2.8800 N.am  1 <1>  -0.8000 
  4 C       -1.7340    -2.9560     0.8500 C.3   1 <1>   0.4040 
  5 N       -2.4840    -2.3100    -0.2910 N.4   1 <1>  -0.9590 
  6 C       -3.6580    -1.5110     0.2080 C.3   1 <1>   0.3430 
  7 C       -2.8770    -3.2670    -1.3610 C.3   1 <1>   0.3430 
  8 C       -4.3060    -0.6920    -0.9210 C.3   1 <1>   0.1430 
  9 C       -3.4810    -2.4960    -2.5390 C.3   1 <1>  -0.1600 
 10 C       -5.5540    -0.0270    -0.3880 C.ar  1 <1>   0.1670 
 11 C       -4.6640    -1.6090    -2.1110 C.3   1 <1>  -0.1600 
 12 C       -3.4370     0.5210    -1.3540 C.3   1 <1>  -0.1600 
 13 N       -6.4800    -0.6350     0.3100 N.ar  1 <1>  -0.6200 
 14 C       -5.6040     1.2910    -0.7150 C.ar  1 <1>  -0.1440 
 15 C       -4.3950     1.7190    -1.5080 C.3   1 <1>  -0.0170 
 16 C       -7.5230     0.1290     0.6730 C.ar  1 <1>   0.6200 
 17 C       -6.6960     2.0060    -0.2970 C.ar  1 <1>   0.1600 
 18 N       -7.6560     1.4330     0.3920 N.ar  1 <1>  -0.6200 
 19 C       -8.5930    -0.5070     1.4280 C.ar  1 <1>   0.0000 
 20 C       -8.3420    -1.5540     2.3200 C.ar  1 <1>  -0.1500 
 21 C       -9.9230    -0.0980     1.2950 C.ar  1 <1>  -0.1500 
 22 C       -9.3590    -2.1600     3.0360 C.ar  1 <1>  -0.1500 
 23 C      -10.9450    -0.6990     2.0080 C.ar  1 <1>  -0.1500 
 24 C      -10.6640    -1.7330     2.8810 C.ar  1 <1>  -0.1500 
 25 H        0.1430    -1.5340     3.3830 H     1 <1>   0.3700 
 26 H       -0.4220    -3.1600     3.3480 H     1 <1>   0.3700 
 27 H       -2.4220    -3.4740     1.4950 H     1 <1>   0.0800 
 28 H       -1.0350    -3.6740     0.4570 H     1 <1>   0.0800 
 29 H       -1.8230    -1.6170    -0.6840 H     1 <1>   0.4500 
 30 H       -3.3450    -0.8360     0.9890 H     1 <1>   0.0800 
 31 H       -4.4010    -2.1740     0.6190 H     1 <1>   0.0800 
 32 H       -3.6060    -3.9640    -0.9780 H     1 <1>   0.0800 
 33 H       -2.0170    -3.8230    -1.6990 H     1 <1>   0.0800 
 34 H       -3.8220    -3.2020    -3.2770 H     1 <1>   0.0800 
 35 H       -2.7150    -1.9010    -3.0050 H     1 <1>   0.0800 
 36 H       -5.0040    -1.0170    -2.9440 H     1 <1>   0.0800 
 37 H       -5.4840    -2.2460    -1.8220 H     1 <1>   0.0800 
 38 H       -2.8910     0.3460    -2.2640 H     1 <1>   0.0800 
 39 H       -2.7320     0.7590    -0.5760 H     1 <1>   0.0800 
 40 H       -4.6700     1.8610    -2.5390 H     1 <1>   0.0800 
 41 H       -3.9630     2.6260    -1.1180 H     1 <1>   0.0800 
 42 H       -6.7870     3.0550    -0.5280 H     1 <1>   0.1500 
 43 H       -7.3330    -1.8980     2.4570 H     1 <1>   0.1500 
 44 H      -10.1600     0.7070     0.6210 H     1 <1>   0.1500 
 45 H       -9.1360    -2.9640     3.7150 H     1 <1>   0.1500 
 46 H      -11.9590    -0.3600     1.8830 H     1 <1>   0.1500 
 47 H      -11.4580    -2.2030     3.4360 H     1 <1>   0.1500 
@<TRIPOS>BOND
  1   1   2  2   
  2   2   3  am  
  3   2   4  1   
  4   3  25  1   
  5   3  26  1   
  6   4   5  1   
  7   4  27  1   
  8   4  28  1   
  9   5   6  1   
 10   5   7  1   
 11   5  29  1   
 12   6   8  1   
 13   6  30  1   
 14   6  31  1   
 15   7   9  1   
 16   7  32  1   
 17   7  33  1   
 18   8  10  1   
 19   8  11  1   
 20   8  12  1   
 21   9  11  1   
 22   9  34  1   
 23   9  35  1   
 24  10  13  ar  
 25  10  14  ar  
 26  11  36  1   
 27  11  37  1   
 28  12  15  1   
 29  12  38  1   
 30  12  39  1   
 31  13  16  ar  
 32  14  15  1   
 33  14  17  ar  
 34  15  40  1   
 35  15  41  1   
 36  16  18  ar  
 37  16  19  1   
 38  17  18  ar  
 39  17  42  1   
 40  19  20  ar  
 41  19  21  ar  
 42  20  22  ar  
 43  20  43  1   
 44  21  23  ar  
 45  21  44  1   
 46  22  24  ar  
 47  22  45  1   
 48  23  24  ar  
 49  23  46  1   
 50  24  47  1   
@<TRIPOS>SUBSTRUCTURE
  1 ****  13 GROUP 4 **** **** 0

# MOE 2024.06 (io_trps.svl 2023.06)
