@<TRIPOS>MOLECULE
NONAME
42 44 1 0 0 
SMALL
USER_CHARGES


@<TRIPOS>ATOM
  1 F       -1.1850    -0.8290    -0.8570 F     1 <1>  -0.3400 
  2 C        0.0160    -0.7920    -0.2890 C.3   1 <1>   1.1640 
  3 F        0.8140    -0.1670    -1.1460 F     1 <1>  -0.3400 
  4 F       -0.0930     0.0020     0.7680 F     1 <1>  -0.3400 
  5 C        0.5450    -2.1800     0.0860 C.ar  1 <1>  -0.1440 
  6 C       -0.2450    -3.3130     0.0760 C.ar  1 <1>  -0.1500 
  7 C        1.8640    -2.3760     0.4680 C.ar  1 <1>  -0.1500 
  8 C        0.2960    -4.5430     0.4290 C.ar  1 <1>   0.4100 
  9 C        2.3080    -3.6450     0.8060 C.ar  1 <1>   0.1660 
 10 N        1.5490    -4.7240     0.7910 N.ar  1 <1>  -0.6200 
 11 N       -0.4540    -5.6760     0.4230 N.pl3 1 <1>  -0.8690 
 12 C        3.7460    -3.8610     1.2270 C.3   1 <1>  -0.0970 
 13 C       -0.9240    -6.2100    -0.8760 C.3   1 <1>   0.2890 
 14 C       -2.2890    -6.8610    -0.7300 C.3   1 <1>  -0.0800 
 15 C       -0.0710    -7.4110    -1.2720 C.3   1 <1>   0.1200 
 16 C       -1.9370    -8.2610    -0.2240 C.3   1 <1>   0.1200 
 17 C       -3.2960    -6.1070     0.1580 C.3   1 <1>  -0.0160 
 18 O       -0.6200    -8.5170    -0.6180 O.3   1 <1>  -0.5600 
 19 C       -4.6430    -6.8120     0.1720 C.ar  1 <1>  -0.1430 
 20 C       -5.5640    -6.6410    -0.8410 C.ar  1 <1>  -0.1500 
 21 C       -5.0130    -7.6610     1.1960 C.ar  1 <1>  -0.1500 
 22 C       -6.7750    -7.3100    -0.7860 C.ar  1 <1>   0.1600 
 23 C       -6.2490    -8.2830     1.1550 C.ar  1 <1>   0.1600 
 24 N       -7.1390    -8.1290     0.1880 N.ar  1 <1>  -0.6200 
 25 H       -1.2850    -3.2750    -0.1910 H     1 <1>   0.1500 
 26 H        2.5450    -1.5430     0.5050 H     1 <1>   0.1500 
 27 H        0.0520    -6.4150     0.9240 H     1 <1>   0.4000 
 28 H        4.3000    -2.9410     1.2130 H     1 <1>   0.0800 
 29 H        4.2140    -4.5600     0.5580 H     1 <1>   0.0800 
 30 H        3.7700    -4.2670     2.2220 H     1 <1>   0.0800 
 31 H       -0.9090    -5.4430    -1.6320 H     1 <1>   0.0800 
 32 H       -2.7140    -6.9690    -1.7130 H     1 <1>   0.0800 
 33 H        0.9610    -7.2960    -0.9890 H     1 <1>   0.0800 
 34 H       -0.1420    -7.5920    -2.3300 H     1 <1>   0.0800 
 35 H       -2.5840    -9.0160    -0.6370 H     1 <1>   0.0800 
 36 H       -1.9650    -8.3040     0.8510 H     1 <1>   0.0800 
 37 H       -3.4230    -5.1060    -0.2130 H     1 <1>   0.0800 
 38 H       -2.9240    -6.0310     1.1660 H     1 <1>   0.0800 
 39 H       -5.3530    -5.9930    -1.6720 H     1 <1>   0.1500 
 40 H       -4.3530    -7.8440     2.0240 H     1 <1>   0.1500 
 41 H       -7.4820    -7.1650    -1.5840 H     1 <1>   0.1500 
 42 H       -6.5210    -8.9410     1.9620 H     1 <1>   0.1500 
@<TRIPOS>BOND
  1   1   2  1   
  2   2   3  1   
  3   2   4  1   
  4   2   5  1   
  5   5   6  ar  
  6   5   7  ar  
  7   6   8  ar  
  8   6  25  1   
  9   7   9  ar  
 10   7  26  1   
 11   8  10  ar  
 12   8  11  1   
 13   9  10  ar  
 14   9  12  1   
 15  11  13  1   
 16  11  27  1   
 17  12  28  1   
 18  12  29  1   
 19  12  30  1   
 20  13  14  1   
 21  13  15  1   
 22  13  31  1   
 23  14  16  1   
 24  14  17  1   
 25  14  32  1   
 26  15  18  1   
 27  15  33  1   
 28  15  34  1   
 29  16  18  1   
 30  16  35  1   
 31  16  36  1   
 32  17  19  1   
 33  17  37  1   
 34  17  38  1   
 35  19  20  ar  
 36  19  21  ar  
 37  20  22  ar  
 38  20  39  1   
 39  21  23  ar  
 40  21  40  1   
 41  22  24  ar  
 42  22  41  1   
 43  23  24  ar  
 44  23  42  1   
@<TRIPOS>SUBSTRUCTURE
  1 ****  11 GROUP 4 **** **** 0

# MOE 2024.06 (io_trps.svl 2023.06)
