@<TRIPOS>MOLECULE
NONAME
57 60 1 0 0 
SMALL
USER_CHARGES


@<TRIPOS>ATOM
  1 O       -2.0840     0.4570    -1.6650 O.2   1 <1>  -0.5700 
  2 C       -1.7870     0.8250    -0.5450 C.2   1 <1>   0.7160 
  3 N       -1.6360    -0.1180     0.4310 N.am  1 <1>  -0.7300 
  4 C       -1.6120     2.1980    -0.2240 C.2   1 <1>  -0.0860 
  5 C       -1.8700    -1.5750     0.2400 C.3   1 <1>   0.1400 
  6 C       -2.6370     3.0670     0.1420 C.2   1 <1>   0.3720 
  7 C       -0.4920     2.9560    -0.1190 C.2   1 <1>   0.0870 
  8 C       -3.2930    -2.0380     0.6640 C.3   1 <1>   0.4230 
  9 N       -2.1710     4.2240     0.4590 N.2   1 <1>  -0.4100 
 10 N       -3.9910     2.7170     0.1630 N.pl3 1 <1>  -0.8210 
 11 O       -0.8750     4.1390     0.2920 O.3   1 <1>  -0.0190 
 12 C        0.8970     2.6590    -0.3530 C.ar  1 <1>   0.0530 
 13 N       -3.5640    -3.4580     0.2340 N.4   1 <1>  -0.9590 
 14 C       -4.3980    -1.1310     0.0860 C.3   1 <1>  -0.1600 
 15 C       -4.8330     3.5090     1.1130 C.3   1 <1>   0.2090 
 16 C       -4.6120     2.7520    -1.1970 C.3   1 <1>   0.2090 
 17 C        1.2920     1.7450    -1.3310 C.ar  1 <1>  -0.1500 
 18 C        1.8990     3.2750     0.3970 C.ar  1 <1>  -0.1500 
 19 C       -4.9020    -3.9380     0.6940 C.3   1 <1>   0.3430 
 20 C       -2.5140    -4.4330     0.6690 C.3   1 <1>   0.2630 
 21 C       -5.8090    -1.5960     0.4650 C.3   1 <1>  -0.1600 
 22 C       -6.2920     3.0180     1.0870 C.3   1 <1>   0.1200 
 23 C       -6.0830     2.3030    -1.1440 C.3   1 <1>   0.1200 
 24 C        2.6260     1.4480    -1.5390 C.ar  1 <1>  -0.1500 
 25 C        3.2340     2.9820     0.1920 C.ar  1 <1>  -0.1500 
 26 C       -6.0030    -3.0670     0.0940 C.3   1 <1>  -0.1600 
 27 O       -6.8120     3.0550    -0.2130 O.3   1 <1>  -0.5600 
 28 C        3.6010     2.0650    -0.7760 C.ar  1 <1>  -0.1500 
 29 H       -1.3610     0.2120     1.3610 H     1 <1>   0.3700 
 30 H       -1.1280    -2.1060     0.8100 H     1 <1>   0.0800 
 31 H       -1.7230    -1.8120    -0.8000 H     1 <1>   0.0800 
 32 H       -3.3480    -1.9890     1.7390 H     1 <1>   0.0800 
 33 H       -3.5990    -3.4420    -0.7960 H     1 <1>   0.4500 
 34 H       -4.3020    -1.0850    -0.9850 H     1 <1>   0.0800 
 35 H       -4.2730    -0.1290     0.4580 H     1 <1>   0.0800 
 36 H       -4.8080     4.5520     0.8450 H     1 <1>   0.0800 
 37 H       -4.4380     3.4120     2.1090 H     1 <1>   0.0800 
 38 H       -4.0700     2.1060    -1.8650 H     1 <1>   0.0800 
 39 H       -4.5620     3.7530    -1.5920 H     1 <1>   0.0800 
 40 H        0.5510     1.2650    -1.9450 H     1 <1>   0.1500 
 41 H        1.6270     3.9920     1.1520 H     1 <1>   0.1500 
 42 H       -4.9570    -3.8950     1.7700 H     1 <1>   0.0800 
 43 H       -5.0530    -4.9610     0.3870 H     1 <1>   0.0800 
 44 H       -2.4290    -4.4390     1.7430 H     1 <1>   0.0800 
 45 H       -1.5570    -4.1750     0.2460 H     1 <1>   0.0800 
 46 H       -2.7700    -5.4280     0.3390 H     1 <1>   0.0800 
 47 H       -6.5430    -0.9910    -0.0430 H     1 <1>   0.0800 
 48 H       -5.9580    -1.4670     1.5240 H     1 <1>   0.0800 
 49 H       -6.9060     3.6500     1.7030 H     1 <1>   0.0800 
 50 H       -6.3540     2.0090     1.4540 H     1 <1>   0.0800 
 51 H       -6.1480     1.2650    -0.8720 H     1 <1>   0.0800 
 52 H       -6.5450     2.4370    -2.1060 H     1 <1>   0.0800 
 53 H        2.9090     0.7390    -2.2990 H     1 <1>   0.1500 
 54 H        3.9910     3.4680     0.7840 H     1 <1>   0.1500 
 55 H       -6.9580    -3.4030     0.4610 H     1 <1>   0.0800 
 56 H       -6.0120    -3.1820    -0.9770 H     1 <1>   0.0800 
 57 H        4.6400     1.8350    -0.9380 H     1 <1>   0.1500 
@<TRIPOS>BOND
  1   1   2  2   
  2   2   3  am  
  3   2   4  1   
  4   3   5  1   
  5   3  29  1   
  6   4   6  1   
  7   4   7  2   
  8   5   8  1   
  9   5  30  1   
 10   5  31  1   
 11   6   9  2   
 12   6  10  1   
 13   7  11  1   
 14   7  12  1   
 15   8  13  1   
 16   8  14  1   
 17   8  32  1   
 18   9  11  1   
 19  10  15  1   
 20  10  16  1   
 21  12  17  ar  
 22  12  18  ar  
 23  13  19  1   
 24  13  20  1   
 25  13  33  1   
 26  14  21  1   
 27  14  34  1   
 28  14  35  1   
 29  15  22  1   
 30  15  36  1   
 31  15  37  1   
 32  16  23  1   
 33  16  38  1   
 34  16  39  1   
 35  17  24  ar  
 36  17  40  1   
 37  18  25  ar  
 38  18  41  1   
 39  19  26  1   
 40  19  42  1   
 41  19  43  1   
 42  20  44  1   
 43  20  45  1   
 44  20  46  1   
 45  21  26  1   
 46  21  47  1   
 47  21  48  1   
 48  22  27  1   
 49  22  49  1   
 50  22  50  1   
 51  23  27  1   
 52  23  51  1   
 53  23  52  1   
 54  24  28  ar  
 55  24  53  1   
 56  25  28  ar  
 57  25  54  1   
 58  26  55  1   
 59  26  56  1   
 60  28  57  1   
@<TRIPOS>SUBSTRUCTURE
  1 ****   2 GROUP 4 **** **** 0

# MOE 2024.06 (io_trps.svl 2023.06)
