@<TRIPOS>MOLECULE
NONAME
51 53 1 0 0 
SMALL
USER_CHARGES


@<TRIPOS>ATOM
  1 N       -0.0680     0.0830    -0.0750 N.ar  1 <1>  -0.6200 
  2 C        0.9660     0.8210     0.2970 C.ar  1 <1>   0.7710 
  3 C       -1.2180     0.6840    -0.2990 C.ar  1 <1>   0.4100 
  4 N        0.8600     2.1500     0.4560 N.ar  1 <1>  -0.1790 
  5 N        2.1720     0.2270     0.5270 N.pl3 1 <1>  -0.8380 
  6 N       -2.2530    -0.0810    -0.7120 N.pl3 1 <1>  -0.8690 
  7 C       -1.3830     2.0790    -0.1310 C.ar  1 <1>  -0.1430 
  8 C       -0.3010     2.8110     0.2450 C.ar  1 <1>   0.2170 
  9 C        3.4880     0.9090     0.7400 C.3   1 <1>   0.1290 
 10 C        2.3110    -1.2680     0.5190 C.3   1 <1>   0.1290 
 11 C       -2.2560    -1.5470    -0.9300 C.3   1 <1>   0.2090 
 12 C       -2.7450     2.7360    -0.3770 C.3   1 <1>  -0.0170 
 13 C       -0.3220     4.3230     0.4490 C.3   1 <1>  -0.0170 
 14 C       -3.5200    -2.1300    -0.3030 C.3   1 <1>  -0.1600 
 15 C       -2.8260     4.1620     0.1870 C.3   1 <1>  -0.1600 
 16 C       -1.5720     4.9680    -0.1650 C.3   1 <1>  -0.1600 
 17 C       -3.5840    -3.6400    -0.5160 C.3   1 <1>   0.2090 
 18 N       -4.8400    -4.1490     0.0710 N.pl3 1 <1>  -0.8690 
 19 C       -5.0030    -5.5280     0.2220 C.ar  1 <1>   0.1000 
 20 C       -5.4400    -6.0890     1.4260 C.ar  1 <1>   0.1600 
 21 C       -4.7440    -6.3970    -0.8250 C.ar  1 <1>  -0.1500 
 22 N       -5.6140    -7.3800     1.6640 N.ar  1 <1>  -0.6200 
 23 C       -4.9210    -7.7450    -0.6010 C.ar  1 <1>  -0.1500 
 24 C       -5.3490    -8.1790     0.6430 C.ar  1 <1>   0.1600 
 25 H        1.7010     2.6140     0.7670 H     1 <1>   0.4570 
 26 H       -3.1410     0.3630    -0.9520 H     1 <1>   0.4000 
 27 H        3.4740     1.9280     0.3970 H     1 <1>   0.0800 
 28 H        4.2580     0.3920     0.1900 H     1 <1>   0.0800 
 29 H        3.7470     0.8870     1.7860 H     1 <1>   0.0800 
 30 H        1.3750    -1.7530     0.7370 H     1 <1>   0.0800 
 31 H        3.0230    -1.5800     1.2650 H     1 <1>   0.0800 
 32 H        2.6530    -1.5970    -0.4480 H     1 <1>   0.0800 
 33 H       -1.3860    -1.9990    -0.4830 H     1 <1>   0.0800 
 34 H       -2.2380    -1.7470    -1.9880 H     1 <1>   0.0800 
 35 H       -3.5260     2.1510     0.0780 H     1 <1>   0.0800 
 36 H       -2.9270     2.7640    -1.4380 H     1 <1>   0.0800 
 37 H        0.5490     4.7740     0.0060 H     1 <1>   0.0800 
 38 H       -0.3050     4.5290     1.5060 H     1 <1>   0.0800 
 39 H       -4.3830    -1.6790    -0.7580 H     1 <1>   0.0800 
 40 H       -3.5150    -1.9200     0.7520 H     1 <1>   0.0800 
 41 H       -2.9360     4.1180     1.2580 H     1 <1>   0.0800 
 42 H       -3.6990     4.6530    -0.2090 H     1 <1>   0.0800 
 43 H       -1.4690     5.0120    -1.2360 H     1 <1>   0.0800 
 44 H       -1.6740     5.9780     0.1960 H     1 <1>   0.0800 
 45 H       -2.7440    -4.1230    -0.0450 H     1 <1>   0.0800 
 46 H       -3.5680    -3.8630    -1.5700 H     1 <1>   0.0800 
 47 H       -5.1180    -3.6010     0.8920 H     1 <1>   0.4000 
 48 H       -5.6540    -5.4190     2.2380 H     1 <1>   0.1500 
 49 H       -4.4270    -6.0290    -1.7820 H     1 <1>   0.1500 
 50 H       -4.7320    -8.4580    -1.3830 H     1 <1>   0.1500 
 51 H       -5.4830    -9.2350     0.8050 H     1 <1>   0.1500 
@<TRIPOS>BOND
  1   1   2  ar  
  2   1   3  ar  
  3   2   4  ar  
  4   2   5  1   
  5   3   6  1   
  6   3   7  ar  
  7   4   8  ar  
  8   4  25  1   
  9   5   9  1   
 10   5  10  1   
 11   6  11  1   
 12   6  26  1   
 13   7   8  ar  
 14   7  12  1   
 15   8  13  1   
 16   9  27  1   
 17   9  28  1   
 18   9  29  1   
 19  10  30  1   
 20  10  31  1   
 21  10  32  1   
 22  11  14  1   
 23  11  33  1   
 24  11  34  1   
 25  12  15  1   
 26  12  35  1   
 27  12  36  1   
 28  13  16  1   
 29  13  37  1   
 30  13  38  1   
 31  14  17  1   
 32  14  39  1   
 33  14  40  1   
 34  15  16  1   
 35  15  41  1   
 36  15  42  1   
 37  16  43  1   
 38  16  44  1   
 39  17  18  1   
 40  17  45  1   
 41  17  46  1   
 42  18  19  1   
 43  18  47  1   
 44  19  20  ar  
 45  19  21  ar  
 46  20  22  ar  
 47  20  48  1   
 48  21  23  ar  
 49  21  49  1   
 50  22  24  ar  
 51  23  24  ar  
 52  23  50  1   
 53  24  51  1   
@<TRIPOS>SUBSTRUCTURE
  1 ****  11 GROUP 4 **** **** 0

# MOE 2024.06 (io_trps.svl 2023.06)
