@<TRIPOS>MOLECULE
NONAME
55 58 1 0 0 
SMALL
USER_CHARGES


@<TRIPOS>ATOM
  1 O        3.7900    -0.8810     0.7610 O.2   1 <1>  -0.5700 
  2 C        3.1080    -1.2270    -0.1760 C.2   1 <1>   0.5690 
  3 N        3.0410    -0.4510    -1.2930 N.am  1 <1>  -0.6600 
  4 C        2.4020    -2.5630    -0.1420 C.3   1 <1>  -0.0990 
  5 C        4.0060    -0.6900    -2.4070 C.3   1 <1>   0.1400 
  6 C        2.4810     0.9270    -1.2250 C.3   1 <1>   0.1400 
  7 C        1.2710    -2.5810     0.8950 C.3   1 <1>   0.0630 
  8 C        5.4620    -0.3740    -1.9900 C.3   1 <1>   0.3430 
  9 C        3.4640     1.9390    -0.6170 C.3   1 <1>  -0.1600 
 10 C        0.5060    -3.8860     0.8870 C.ar  1 <1>  -0.1440 
 11 C        0.1740    -1.5310     0.6140 C.3   1 <1>  -0.1600 
 12 N        5.5420     0.6420    -0.8920 N.4   1 <1>  -0.9590 
 13 C        4.8750     1.9340    -1.2100 C.3   1 <1>   0.3430 
 14 C       -0.8490    -3.6650     0.9160 C.ar  1 <1>  -0.1440 
 15 C        1.0030    -5.1780     0.8640 C.ar  1 <1>  -0.1500 
 16 C       -1.1690    -2.1930     0.9610 C.3   1 <1>  -0.0170 
 17 C        6.9030     0.7900    -0.3340 C.3   1 <1>   0.5230 
 18 C       -1.7430    -4.7190     0.9080 C.ar  1 <1>  -0.1500 
 19 C        0.1160    -6.2430     0.8560 C.ar  1 <1>  -0.1500 
 20 C        6.7940     1.6090     0.9270 C.2   1 <1>  -0.3320 
 21 C       -1.2520    -6.0150     0.8770 C.ar  1 <1>  -0.1500 
 22 N        7.4940     2.7430     1.1600 N.pl3 1 <1>   0.3140 
 23 C        6.0260     1.3920     2.0200 C.2   1 <1>  -0.1500 
 24 N        7.1750     3.2680     2.3490 N.2   1 <1>  -0.7070 
 25 C        8.5000     3.4010     0.3100 C.3   1 <1>   0.0160 
 26 C        6.3060     2.4560     2.8650 C.2   1 <1>   0.1390 
 27 H        3.1220    -3.3190     0.1040 H     1 <1>   0.0800 
 28 H        1.9990    -2.7880    -1.1130 H     1 <1>   0.0800 
 29 H        3.7370    -0.0810    -3.2530 H     1 <1>   0.0800 
 30 H        3.9430    -1.7170    -2.7240 H     1 <1>   0.0800 
 31 H        1.5850     0.9090    -0.6260 H     1 <1>   0.0800 
 32 H        2.1950     1.2420    -2.2150 H     1 <1>   0.0800 
 33 H        1.6710    -2.4300     1.8840 H     1 <1>   0.0800 
 34 H        6.0180    -0.0430    -2.8510 H     1 <1>   0.0800 
 35 H        5.9110    -1.2910    -1.6450 H     1 <1>   0.0800 
 36 H        3.5230     1.7870     0.4470 H     1 <1>   0.0800 
 37 H        3.0490     2.9210    -0.7560 H     1 <1>   0.0800 
 38 H        0.1630    -1.2890    -0.4340 H     1 <1>   0.0800 
 39 H        0.3310    -0.6310     1.1820 H     1 <1>   0.0800 
 40 H        4.9710     0.2410    -0.1150 H     1 <1>   0.4500 
 41 H        5.4270     2.7500    -0.7710 H     1 <1>   0.0800 
 42 H        4.8350     2.0890    -2.2760 H     1 <1>   0.0800 
 43 H        2.0620    -5.3620     0.8550 H     1 <1>   0.1500 
 44 H       -1.9360    -1.9320     0.2530 H     1 <1>   0.0800 
 45 H       -1.4800    -1.9260     1.9550 H     1 <1>   0.0800 
 46 H        7.5480     1.2750    -1.0490 H     1 <1>   0.0800 
 47 H        7.3130    -0.1780    -0.0940 H     1 <1>   0.0800 
 48 H       -2.8030    -4.5380     0.9290 H     1 <1>   0.1500 
 49 H        0.4890    -7.2520     0.8370 H     1 <1>   0.1500 
 50 H       -1.9350    -6.8460     0.8700 H     1 <1>   0.1500 
 51 H        5.3370     0.5940     2.2400 H     1 <1>   0.1500 
 52 H        9.3210     2.7300     0.1430 H     1 <1>   0.0800 
 53 H        8.8610     4.2790     0.8150 H     1 <1>   0.0800 
 54 H        8.0530     3.6890    -0.6220 H     1 <1>   0.0800 
 55 H        5.8620     2.6020     3.8360 H     1 <1>   0.1500 
@<TRIPOS>BOND
  1   1   2  2   
  2   2   3  am  
  3   2   4  1   
  4   3   5  1   
  5   3   6  1   
  6   4   7  1   
  7   4  27  1   
  8   4  28  1   
  9   5   8  1   
 10   5  29  1   
 11   5  30  1   
 12   6   9  1   
 13   6  31  1   
 14   6  32  1   
 15   7  10  1   
 16   7  11  1   
 17   7  33  1   
 18   8  12  1   
 19   8  34  1   
 20   8  35  1   
 21   9  13  1   
 22   9  36  1   
 23   9  37  1   
 24  10  14  ar  
 25  10  15  ar  
 26  11  16  1   
 27  11  38  1   
 28  11  39  1   
 29  12  13  1   
 30  12  17  1   
 31  12  40  1   
 32  13  41  1   
 33  13  42  1   
 34  14  16  1   
 35  14  18  ar  
 36  15  19  ar  
 37  15  43  1   
 38  16  44  1   
 39  16  45  1   
 40  17  20  1   
 41  17  46  1   
 42  17  47  1   
 43  18  21  ar  
 44  18  48  1   
 45  19  21  ar  
 46  19  49  1   
 47  20  22  1   
 48  20  23  2   
 49  21  50  1   
 50  22  24  1   
 51  22  25  1   
 52  23  26  1   
 53  23  51  1   
 54  24  26  2   
 55  25  52  1   
 56  25  53  1   
 57  25  54  1   
 58  26  55  1   
@<TRIPOS>SUBSTRUCTURE
  1 ****   2 GROUP 4 **** **** 0

# MOE 2024.06 (io_trps.svl 2023.06)
