@<TRIPOS>MOLECULE
NONAME
41 42 1 0 0 
SMALL
USER_CHARGES


@<TRIPOS>ATOM
  1 O        2.5100    -0.1060     1.9490 O.3   1 <1>  -0.3630 
  2 C        2.8960     0.8420     1.0440 C.ar  1 <1>   0.0830 
  3 C        2.0000    -1.3460     1.5090 C.3   1 <1>   0.0400 
  4 C        2.8380     0.7010    -0.3300 C.ar  1 <1>   0.1600 
  5 C        3.3830     2.0410     1.5120 C.ar  1 <1>   0.1600 
  6 N        3.2240     1.6490    -1.1520 N.ar  1 <1>  -0.6200 
  7 N        3.7760     3.0090     0.7150 N.ar  1 <1>  -0.6200 
  8 C        3.6810     2.7710    -0.5930 C.ar  1 <1>   0.7200 
  9 N        4.0910     3.7760    -1.4510 N.pl3 1 <1>  -0.8380 
 10 C        4.2530     5.1800    -0.9940 C.3   1 <1>   0.2090 
 11 C        4.2330     3.5420    -2.9160 C.3   1 <1>   0.1290 
 12 C        5.7300     5.4570    -0.7150 C.3   1 <1>  -0.1600 
 13 C        5.9310     6.8570    -0.1290 C.3   1 <1>   0.0210 
 14 C        7.4050     7.1190     0.1240 C.2   1 <1>  -0.1810 
 15 C        8.3020     7.7630    -0.7280 C.2   1 <1>   0.1080 
 16 C        8.1410     6.7860     1.2070 C.2   1 <1>  -0.3320 
 17 N        9.4930     7.8360    -0.2250 N.2   1 <1>  -0.7070 
 18 C        7.9740     8.3280    -2.0910 C.3   1 <1>  -0.0590 
 19 N        9.3920     7.2310     0.9710 N.pl3 1 <1>   0.3000 
 20 C        7.7410     6.0520     2.4760 C.3   1 <1>  -0.0600 
 21 H        1.7590    -1.9350     2.3760 H     1 <1>   0.0800 
 22 H        2.7520    -1.8480     0.9260 H     1 <1>   0.0800 
 23 H        1.1110    -1.1740     0.9280 H     1 <1>   0.0800 
 24 H        2.4690    -0.2050    -0.7720 H     1 <1>   0.1500 
 25 H        3.4480     2.1980     2.5740 H     1 <1>   0.1500 
 26 H        3.6730     5.3480    -0.1030 H     1 <1>   0.0800 
 27 H        3.8850     5.8490    -1.7520 H     1 <1>   0.0800 
 28 H        4.6150     2.5530    -3.0990 H     1 <1>   0.0800 
 29 H        4.9170     4.2530    -3.3440 H     1 <1>   0.0800 
 30 H        3.2730     3.6400    -3.3900 H     1 <1>   0.0800 
 31 H        6.2950     5.3650    -1.6240 H     1 <1>   0.0800 
 32 H        6.0970     4.7290    -0.0120 H     1 <1>   0.0800 
 33 H        5.3940     6.9410     0.7990 H     1 <1>   0.0800 
 34 H        5.5420     7.6010    -0.8010 H     1 <1>   0.0800 
 35 H        7.4410     7.6000    -2.6720 H     1 <1>   0.0800 
 36 H        8.8830     8.5850    -2.6050 H     1 <1>   0.0800 
 37 H        7.3750     9.2110    -1.9810 H     1 <1>   0.0800 
 38 H       10.1970     7.1350     1.6010 H     1 <1>   0.2700 
 39 H        6.7100     5.7500     2.4310 H     1 <1>   0.0800 
 40 H        7.8730     6.6910     3.3310 H     1 <1>   0.0800 
 41 H        8.3450     5.1710     2.5990 H     1 <1>   0.0800 
@<TRIPOS>BOND
  1   1   2  1   
  2   1   3  1   
  3   2   4  ar  
  4   2   5  ar  
  5   3  21  1   
  6   3  22  1   
  7   3  23  1   
  8   4   6  ar  
  9   4  24  1   
 10   5   7  ar  
 11   5  25  1   
 12   6   8  ar  
 13   7   8  ar  
 14   8   9  1   
 15   9  10  1   
 16   9  11  1   
 17  10  12  1   
 18  10  26  1   
 19  10  27  1   
 20  11  28  1   
 21  11  29  1   
 22  11  30  1   
 23  12  13  1   
 24  12  31  1   
 25  12  32  1   
 26  13  14  1   
 27  13  33  1   
 28  13  34  1   
 29  14  15  1   
 30  14  16  2   
 31  15  17  2   
 32  15  18  1   
 33  16  19  1   
 34  16  20  1   
 35  17  19  1   
 36  18  35  1   
 37  18  36  1   
 38  18  37  1   
 39  19  38  1   
 40  20  39  1   
 41  20  40  1   
 42  20  41  1   
@<TRIPOS>SUBSTRUCTURE
  1 ****  12 GROUP 4 **** **** 0

# MOE 2024.06 (io_trps.svl 2023.06)
