@<TRIPOS>MOLECULE
NONAME
56 57 1 0 0 
SMALL
USER_CHARGES


@<TRIPOS>ATOM
  1 O       -1.4830    -0.2740     1.1780 O.2   1 <1>  -0.5700 
  2 C       -1.7460     0.5240     0.3090 C.2   1 <1>   0.5690 
  3 N       -2.3590     0.1100    -0.8550 N.am  1 <1>  -0.6600 
  4 C       -1.3610     1.9810     0.6090 C.3   1 <1>  -0.0190 
  5 C       -2.5910    -1.3550    -1.0760 C.3   1 <1>   0.1400 
  6 C       -2.7430     0.9700    -2.0100 C.3   1 <1>   0.1400 
  7 C       -2.5660     2.9410     0.7180 C.3   1 <1>  -0.1600 
  8 C       -0.2270     2.5180    -0.3010 C.3   1 <1>  -0.1600 
  9 C       -3.7580    -1.8630    -0.2270 C.3   1 <1>   0.1200 
 10 C       -4.2640     1.0900    -2.0940 C.3   1 <1>  -0.2400 
 11 C       -2.1550     4.3400     1.2210 C.3   1 <1>   0.2000 
 12 C       -0.2540     4.0480    -0.4710 C.3   1 <1>  -0.1600 
 13 O       -4.1320    -3.1390    -0.7020 O.3   1 <1>  -0.3630 
 14 O       -3.0570     5.2730     0.6760 O.3   1 <1>  -0.5600 
 15 C       -0.7060     4.7320     0.8220 C.3   1 <1>   0.2000 
 16 C       -5.1860    -3.8040    -0.1650 C.ar  1 <1>   0.0820 
 17 C       -4.2600     5.4080     1.3680 C.3   1 <1>   0.0400 
 18 O       -0.6400     6.0960     0.6260 O.3   1 <1>  -0.6800 
 19 C       -5.9030    -3.3610     0.9420 C.ar  1 <1>  -0.1500 
 20 C       -5.5500    -4.9910    -0.7760 C.ar  1 <1>  -0.1500 
 21 C       -6.9750    -4.0940     1.4300 C.ar  1 <1>  -0.1440 
 22 C       -6.6170    -5.7260    -0.2930 C.ar  1 <1>  -0.1500 
 23 C       -7.3360    -5.2860     0.8080 C.ar  1 <1>  -0.1440 
 24 C       -7.7330    -3.5750     2.6440 C.3   1 <1>  -0.0970 
 25 C       -8.5040    -6.1240     1.3080 C.3   1 <1>  -0.0970 
 26 H       -0.9420     1.9590     1.6020 H     1 <1>   0.0800 
 27 H       -2.8020    -1.5380    -2.1140 H     1 <1>   0.0800 
 28 H       -1.7010    -1.8990    -0.8090 H     1 <1>   0.0800 
 29 H       -2.3160     1.9500    -1.9230 H     1 <1>   0.0800 
 30 H       -2.3610     0.5370    -2.9200 H     1 <1>   0.0800 
 31 H       -3.2900     2.5200     1.3930 H     1 <1>   0.0800 
 32 H       -3.0310     3.0500    -0.2430 H     1 <1>   0.0800 
 33 H        0.7130     2.2320     0.1400 H     1 <1>   0.0800 
 34 H       -0.2550     2.0600    -1.2720 H     1 <1>   0.0800 
 35 H       -4.6060    -1.2100    -0.3220 H     1 <1>   0.0800 
 36 H       -3.4600    -1.9540     0.8020 H     1 <1>   0.0800 
 37 H       -4.6640     1.4550    -1.1660 H     1 <1>   0.0800 
 38 H       -4.7080     0.1390    -2.3270 H     1 <1>   0.0800 
 39 H       -4.5270     1.7810    -2.8740 H     1 <1>   0.0800 
 40 H       -2.2180     4.3800     2.2960 H     1 <1>   0.0800 
 41 H       -0.9410     4.3070    -1.2580 H     1 <1>   0.0800 
 42 H        0.7260     4.3970    -0.7460 H     1 <1>   0.0800 
 43 H       -0.0220     4.4790     1.6130 H     1 <1>   0.0800 
 44 H       -4.8560     6.1460     0.8600 H     1 <1>   0.0800 
 45 H       -4.0570     5.7380     2.3720 H     1 <1>   0.0800 
 46 H       -4.7800     4.4670     1.3750 H     1 <1>   0.0800 
 47 H       -1.5500     6.3710     0.3690 H     1 <1>   0.4000 
 48 H       -5.6330    -2.4480     1.4340 H     1 <1>   0.1500 
 49 H       -4.9930    -5.3340    -1.6280 H     1 <1>   0.1500 
 50 H       -6.8820    -6.6450    -0.7840 H     1 <1>   0.1500 
 51 H       -7.3180    -2.6470     2.9920 H     1 <1>   0.0800 
 52 H       -7.6780    -4.2900     3.4450 H     1 <1>   0.0800 
 53 H       -8.7640    -3.4100     2.3910 H     1 <1>   0.0800 
 54 H       -8.6340    -7.0040     0.7050 H     1 <1>   0.0800 
 55 H       -9.4130    -5.5510     1.2660 H     1 <1>   0.0800 
 56 H       -8.3290    -6.4320     2.3220 H     1 <1>   0.0800 
@<TRIPOS>BOND
  1   1   2  2   
  2   2   3  am  
  3   2   4  1   
  4   3   5  1   
  5   3   6  1   
  6   4   7  1   
  7   4   8  1   
  8   4  26  1   
  9   5   9  1   
 10   5  27  1   
 11   5  28  1   
 12   6  10  1   
 13   6  29  1   
 14   6  30  1   
 15   7  11  1   
 16   7  31  1   
 17   7  32  1   
 18   8  12  1   
 19   8  33  1   
 20   8  34  1   
 21   9  13  1   
 22   9  35  1   
 23   9  36  1   
 24  10  37  1   
 25  10  38  1   
 26  10  39  1   
 27  11  14  1   
 28  11  15  1   
 29  11  40  1   
 30  12  15  1   
 31  12  41  1   
 32  12  42  1   
 33  13  16  1   
 34  14  17  1   
 35  15  18  1   
 36  15  43  1   
 37  16  19  ar  
 38  16  20  ar  
 39  17  44  1   
 40  17  45  1   
 41  17  46  1   
 42  18  47  1   
 43  19  21  ar  
 44  19  48  1   
 45  20  22  ar  
 46  20  49  1   
 47  21  23  ar  
 48  21  24  1   
 49  22  23  ar  
 50  22  50  1   
 51  23  25  1   
 52  24  51  1   
 53  24  52  1   
 54  24  53  1   
 55  25  54  1   
 56  25  55  1   
 57  25  56  1   
@<TRIPOS>SUBSTRUCTURE
  1 ****   3 GROUP 4 **** **** 0

# MOE 2024.06 (io_trps.svl 2023.06)
