@<TRIPOS>MOLECULE
NONAME
36 38 1 0 0 
SMALL
USER_CHARGES


@<TRIPOS>ATOM
  1 O       -2.3830     0.7520    -2.0930 O.2   1 <1>  -0.5700 
  2 C       -2.1910     0.7490    -0.8890 C.2   1 <1>   0.7150 
  3 N       -2.0650    -0.4430    -0.2440 N.am  1 <1>  -0.7300 
  4 C       -2.1120     1.9850    -0.1440 C.2   1 <1>   0.1010 
  5 C       -2.1200    -1.7910    -0.8530 C.3   1 <1>   0.2200 
  6 N       -1.9600     2.1220     1.1560 N.2   1 <1>  -0.5650 
  7 N       -2.1960     3.1860    -0.7690 N.pl3 1 <1>   0.0330 
  8 C       -3.4090    -2.5110    -0.4830 C.3   1 <1>  -0.0800 
  9 C       -1.0920    -2.6870    -0.1740 C.3   1 <1>   0.1200 
 10 C       -1.9470     3.4480     1.3530 C.2   1 <1>   0.0770 
 11 C       -2.0910     4.1170     0.1880 C.2   1 <1>  -0.3020 
 12 C       -3.0850    -3.1130     0.8870 C.3   1 <1>   0.1200 
 13 C       -4.6910    -1.6570    -0.5110 C.3   1 <1>  -0.0160 
 14 O       -1.6920    -3.1140     1.0110 O.3   1 <1>  -0.5600 
 15 C       -5.9130    -2.5060    -0.1970 C.ar  1 <1>  -0.1430 
 16 C       -6.5130    -3.2980    -1.1540 C.ar  1 <1>  -0.1500 
 17 C       -6.4840    -2.5300     1.0600 C.ar  1 <1>  -0.1500 
 18 C       -7.6210    -4.0590    -0.8170 C.ar  1 <1>   0.1600 
 19 C       -7.5930    -3.3270     1.2920 C.ar  1 <1>   0.1600 
 20 N       -8.1740    -4.0950     0.3840 N.ar  1 <1>  -0.6200 
 21 H       -1.9030    -0.4120     0.7680 H     1 <1>   0.3700 
 22 H       -1.9670    -1.7330    -1.9170 H     1 <1>   0.0800 
 23 H       -2.3170     3.3070    -1.7810 H     1 <1>   0.2700 
 24 H       -3.5360    -3.3290    -1.1700 H     1 <1>   0.0800 
 25 H       -0.1720    -2.1750     0.0480 H     1 <1>   0.0800 
 26 H       -0.8930    -3.5590    -0.7730 H     1 <1>   0.0800 
 27 H       -1.8340     3.8690     2.3390 H     1 <1>   0.1500 
 28 H       -2.1210     5.1760     0.0010 H     1 <1>   0.1500 
 29 H       -3.4480    -4.1220     0.9780 H     1 <1>   0.0800 
 30 H       -3.4790    -2.5110     1.6870 H     1 <1>   0.0800 
 31 H       -4.8050    -1.2140    -1.4850 H     1 <1>   0.0800 
 32 H       -4.6250    -0.8550     0.2030 H     1 <1>   0.0800 
 33 H       -6.1310    -3.3310    -2.1580 H     1 <1>   0.1500 
 34 H       -6.0800    -1.9380     1.8600 H     1 <1>   0.1500 
 35 H       -8.0760    -4.6720    -1.5770 H     1 <1>   0.1500 
 36 H       -8.0240    -3.3330     2.2790 H     1 <1>   0.1500 
@<TRIPOS>BOND
  1   1   2  2   
  2   2   3  am  
  3   2   4  1   
  4   3   5  1   
  5   3  21  1   
  6   4   6  2   
  7   4   7  1   
  8   5   8  1   
  9   5   9  1   
 10   5  22  1   
 11   6  10  1   
 12   7  11  1   
 13   7  23  1   
 14   8  12  1   
 15   8  13  1   
 16   8  24  1   
 17   9  14  1   
 18   9  25  1   
 19   9  26  1   
 20  10  11  2   
 21  10  27  1   
 22  11  28  1   
 23  12  14  1   
 24  12  29  1   
 25  12  30  1   
 26  13  15  1   
 27  13  31  1   
 28  13  32  1   
 29  15  16  ar  
 30  15  17  ar  
 31  16  18  ar  
 32  16  33  1   
 33  17  19  ar  
 34  17  34  1   
 35  18  20  ar  
 36  18  35  1   
 37  19  20  ar  
 38  19  36  1   
@<TRIPOS>SUBSTRUCTURE
  1 ****  13 GROUP 4 **** **** 0

# MOE 2024.06 (io_trps.svl 2023.06)
