@<TRIPOS>MOLECULE
NONAME
48 50 1 0 0 
SMALL
USER_CHARGES


@<TRIPOS>ATOM
  1 S        0.9480     0.1640    -0.3850 S.o2  1 <1>   1.3330 
  2 O        0.4430    -0.0400    -1.7220 O.2   1 <1>  -0.6500 
  3 O        2.3360     0.5250    -0.1960 O.2   1 <1>  -0.6500 
  4 N        0.5680    -1.1710     0.5850 N.am  1 <1>  -0.8490 
  5 C        0.0010     1.4960     0.3480 C.3   1 <1>  -0.0550 
  6 C       -0.6300    -1.8940     0.1400 C.3   1 <1>   0.1160 
  7 C        1.6890    -2.1090     0.7150 C.3   1 <1>   0.1160 
  8 C        0.1590     2.8210    -0.4320 C.3   1 <1>  -0.0800 
  9 C       -0.5750     4.0260     0.1540 C.3   1 <1>   0.2000 
 10 C        1.6200     3.2860    -0.5560 C.3   1 <1>   0.3430 
 11 O       -0.3850     4.0630     1.5330 O.3   1 <1>  -0.6800 
 12 C        0.1790     5.2030    -0.4710 C.3   1 <1>   0.3430 
 13 N        1.6150     4.7800    -0.5210 N.4   1 <1>  -0.9590 
 14 C        2.3660     5.2670     0.6710 C.3   1 <1>   0.4860 
 15 C        2.4480     6.7810     0.6120 C.ar  1 <1>  -0.1440 
 16 C        3.3310     7.4160    -0.2240 C.ar  1 <1>  -0.1500 
 17 C        1.6030     7.5430     1.4310 C.ar  1 <1>  -0.1500 
 18 C        3.3930     8.8230    -0.2910 C.ar  1 <1>   0.0000 
 19 C        1.6480     8.9110     1.3790 C.ar  1 <1>  -0.1500 
 20 C        2.5290     9.5880     0.5220 C.ar  1 <1>   0.3100 
 21 C        4.2800     9.5110    -1.1360 C.ar  1 <1>  -0.1500 
 22 N        2.5140    10.9440     0.5070 N.ar  1 <1>  -0.6200 
 23 C        4.2500    10.8730    -1.1280 C.ar  1 <1>  -0.1500 
 24 C        3.3470    11.5400    -0.2890 C.ar  1 <1>   0.1600 
 25 H       -1.0360     1.2200     0.3670 H     1 <1>   0.0800 
 26 H        0.3270     1.6230     1.3630 H     1 <1>   0.0800 
 27 H       -0.8720    -2.6770     0.8390 H     1 <1>   0.0800 
 28 H       -0.4680    -2.3310    -0.8320 H     1 <1>   0.0800 
 29 H       -1.4700    -1.2230     0.0800 H     1 <1>   0.0800 
 30 H        1.4170    -2.9300     1.3570 H     1 <1>   0.0800 
 31 H        2.5400    -1.6110     1.1510 H     1 <1>   0.0800 
 32 H        1.9720    -2.4940    -0.2510 H     1 <1>   0.0800 
 33 H       -0.2070     2.6630    -1.4330 H     1 <1>   0.0800 
 34 H       -1.6310     4.0500    -0.0600 H     1 <1>   0.0800 
 35 H        2.0570     2.9170    -1.4710 H     1 <1>   0.0800 
 36 H        2.1930     2.9010     0.2730 H     1 <1>   0.0800 
 37 H       -1.0950     3.5780     2.0060 H     1 <1>   0.4000 
 38 H        0.0310     6.1080     0.0930 H     1 <1>   0.0800 
 39 H       -0.1830     5.3550    -1.4750 H     1 <1>   0.0800 
 40 H        2.0660     5.1770    -1.3550 H     1 <1>   0.4500 
 41 H        1.8700     4.9580     1.5780 H     1 <1>   0.0800 
 42 H        3.3630     4.8570     0.6720 H     1 <1>   0.0800 
 43 H        4.0060     6.8610    -0.8520 H     1 <1>   0.1500 
 44 H        0.9180     7.0550     2.1050 H     1 <1>   0.1500 
 45 H        1.0070     9.5130     1.9980 H     1 <1>   0.1500 
 46 H        4.9600     8.9660    -1.7660 H     1 <1>   0.1500 
 47 H        4.9050    11.4540    -1.7530 H     1 <1>   0.1500 
 48 H        3.3470    12.6170    -0.3070 H     1 <1>   0.1500 
@<TRIPOS>BOND
  1   1   2  2   
  2   1   3  2   
  3   1   4  am  
  4   1   5  1   
  5   4   6  1   
  6   4   7  1   
  7   5   8  1   
  8   5  25  1   
  9   5  26  1   
 10   6  27  1   
 11   6  28  1   
 12   6  29  1   
 13   7  30  1   
 14   7  31  1   
 15   7  32  1   
 16   8   9  1   
 17   8  10  1   
 18   8  33  1   
 19   9  11  1   
 20   9  12  1   
 21   9  34  1   
 22  10  13  1   
 23  10  35  1   
 24  10  36  1   
 25  11  37  1   
 26  12  13  1   
 27  12  38  1   
 28  12  39  1   
 29  13  14  1   
 30  13  40  1   
 31  14  15  1   
 32  14  41  1   
 33  14  42  1   
 34  15  16  ar  
 35  15  17  ar  
 36  16  18  ar  
 37  16  43  1   
 38  17  19  ar  
 39  17  44  1   
 40  18  20  ar  
 41  18  21  ar  
 42  19  20  ar  
 43  19  45  1   
 44  20  22  ar  
 45  21  23  ar  
 46  21  46  1   
 47  22  24  ar  
 48  23  24  ar  
 49  23  47  1   
 50  24  48  1   
@<TRIPOS>SUBSTRUCTURE
  1 ****  13 GROUP 4 **** **** 0

# MOE 2024.06 (io_trps.svl 2023.06)
