@<TRIPOS>MOLECULE
NONAME
48 51 1 0 0 
SMALL
USER_CHARGES


@<TRIPOS>ATOM
  1 S       -1.5190     0.6480    -1.4130 S.3   1 <1>  -0.3320 
  2 C       -0.8770     1.8830    -0.2640 C.ar  1 <1>   0.1020 
  3 C       -1.8600    -0.8650    -0.4130 C.3   1 <1>   0.1500 
  4 C       -1.2000     3.2210    -0.4600 C.ar  1 <1>  -0.1440 
  5 C       -0.0720     1.4880     0.7940 C.ar  1 <1>  -0.1500 
  6 C       -2.3350    -1.9530    -1.3820 C.3   1 <1>  -0.1600 
  7 C       -2.9310    -0.5110     0.6280 C.3   1 <1>  -0.1600 
  8 C       -0.7180     4.1590     0.4410 C.ar  1 <1>  -0.1500 
  9 C       -2.0630     3.6730    -1.6290 C.3   1 <1>  -0.0970 
 10 C        0.4010     2.4360     1.6840 C.ar  1 <1>  -0.1500 
 11 C       -2.8520    -3.1790    -0.6280 C.3   1 <1>   0.2090 
 12 C       -3.4240    -1.7640     1.3480 C.3   1 <1>   0.2090 
 13 C        0.0740     3.7690     1.5080 C.ar  1 <1>  -0.1500 
 14 N       -3.9080    -2.7410     0.3310 N.pl3 1 <1>  -0.8380 
 15 C       -5.0800    -3.4320     0.4390 C.ar  1 <1>   0.7710 
 16 N       -6.2030    -2.6940     0.6690 N.ar  1 <1>  -0.1790 
 17 N       -5.0990    -4.7300     0.3040 N.ar  1 <1>  -0.5670 
 18 C       -7.4220    -3.2320     0.8010 C.ar  1 <1>   0.4610 
 19 C       -6.3160    -5.3170     0.4400 C.ar  1 <1>   0.1050 
 20 N       -8.4950    -2.4520     1.0200 N.pl3 1 <1>  -0.9000 
 21 C       -7.4780    -4.6250     0.6870 C.ar  1 <1>   0.0000 
 22 N       -6.6500    -6.6290     0.3730 N.pl3 1 <1>   0.3140 
 23 C       -8.4610    -5.6240     0.7500 C.2   1 <1>   0.1390 
 24 N       -7.9800    -6.8060     0.5660 N.2   1 <1>  -0.7070 
 25 C       -5.7590    -7.7740     0.1310 C.3   1 <1>   0.0160 
 26 H       -0.9400    -1.1640     0.0570 H     1 <1>   0.0800 
 27 H        0.2020     0.4600     0.9250 H     1 <1>   0.1500 
 28 H       -1.5200    -2.2420    -2.0220 H     1 <1>   0.0800 
 29 H       -3.1230    -1.5680    -2.0040 H     1 <1>   0.0800 
 30 H       -3.7590    -0.0250     0.1430 H     1 <1>   0.0800 
 31 H       -2.5240     0.1740     1.3490 H     1 <1>   0.0800 
 32 H       -0.9560     5.2010     0.3170 H     1 <1>   0.1500 
 33 H       -3.0300     3.2060    -1.5750 H     1 <1>   0.0800 
 34 H       -1.5950     3.3980    -2.5570 H     1 <1>   0.0800 
 35 H       -2.1990     4.7390    -1.6210 H     1 <1>   0.0800 
 36 H        1.0260     2.1410     2.5090 H     1 <1>   0.1500 
 37 H       -2.0470    -3.6510    -0.0880 H     1 <1>   0.0800 
 38 H       -3.2470    -3.8930    -1.3340 H     1 <1>   0.0800 
 39 H       -4.2000    -1.5100     2.0500 H     1 <1>   0.0800 
 40 H       -2.6100    -2.2050     1.9020 H     1 <1>   0.0800 
 41 H        0.4410     4.5070     2.2010 H     1 <1>   0.1500 
 42 H       -6.0560    -1.6960     0.6710 H     1 <1>   0.4570 
 43 H       -9.4410    -2.8450     1.1190 H     1 <1>   0.4000 
 44 H       -8.5090    -1.4300     1.1060 H     1 <1>   0.4000 
 45 H       -9.5070    -5.4360     0.9310 H     1 <1>   0.1500 
 46 H       -4.7470    -7.4330     0.0180 H     1 <1>   0.0800 
 47 H       -6.0740    -8.2800    -0.7630 H     1 <1>   0.0800 
 48 H       -5.8240    -8.4490     0.9640 H     1 <1>   0.0800 
@<TRIPOS>BOND
  1   1   2  1   
  2   1   3  1   
  3   2   4  ar  
  4   2   5  ar  
  5   3   6  1   
  6   3   7  1   
  7   3  26  1   
  8   4   8  ar  
  9   4   9  1   
 10   5  10  ar  
 11   5  27  1   
 12   6  11  1   
 13   6  28  1   
 14   6  29  1   
 15   7  12  1   
 16   7  30  1   
 17   7  31  1   
 18   8  13  ar  
 19   8  32  1   
 20   9  33  1   
 21   9  34  1   
 22   9  35  1   
 23  10  13  ar  
 24  10  36  1   
 25  11  14  1   
 26  11  37  1   
 27  11  38  1   
 28  12  14  1   
 29  12  39  1   
 30  12  40  1   
 31  13  41  1   
 32  14  15  1   
 33  15  16  ar  
 34  15  17  ar  
 35  16  18  ar  
 36  16  42  1   
 37  17  19  ar  
 38  18  20  1   
 39  18  21  ar  
 40  19  21  ar  
 41  19  22  1   
 42  20  43  1   
 43  20  44  1   
 44  21  23  1   
 45  22  24  1   
 46  22  25  1   
 47  23  24  2   
 48  23  45  1   
 49  25  46  1   
 50  25  47  1   
 51  25  48  1   
@<TRIPOS>SUBSTRUCTURE
  1 ****  14 GROUP 4 **** **** 0

# MOE 2024.06 (io_trps.svl 2023.06)
