@<TRIPOS>MOLECULE
NONAME
50 52 1 0 0 
SMALL
USER_CHARGES


@<TRIPOS>ATOM
  1 O       -4.5360     3.2630     0.6430 O.2   1 <1>  -0.5700 
  2 C       -3.3750     3.1840     0.3240 C.2   1 <1>   0.5690 
  3 N       -2.9330     2.2260    -0.5290 N.am  1 <1>  -0.7300 
  4 C       -2.3820     4.1820     0.8960 C.3   1 <1>   0.0440 
  5 C       -3.7570     1.1510    -1.1210 C.3   1 <1>   0.2200 
  6 C       -0.9610     3.6250     0.9340 C.ar  1 <1>  -0.1440 
  7 C       -3.3470    -0.1780    -0.5090 C.3   1 <1>  -0.0800 
  8 C       -3.3870     0.9600    -2.5910 C.3   1 <1>   0.1200 
  9 C       -0.0860     3.8620    -0.1130 C.ar  1 <1>  -0.1500 
 10 C       -0.5380     2.8590     2.0050 C.ar  1 <1>  -0.1500 
 11 C       -2.1410    -0.5500    -1.3720 C.3   1 <1>   0.1200 
 12 C       -4.4800    -1.2170    -0.6100 C.3   1 <1>  -0.0160 
 13 O       -2.3870    -0.0180    -2.6390 O.3   1 <1>  -0.5600 
 14 C        1.1980     3.3440    -0.1110 C.ar  1 <1>   0.0820 
 15 C        0.7400     2.3280     2.0250 C.ar  1 <1>  -0.1500 
 16 C       -4.0760    -2.5450     0.0140 C.ar  1 <1>  -0.1430 
 17 O        1.9370     3.6680    -1.2100 O.3   1 <1>  -0.3630 
 18 C        1.6240     2.5520     0.9700 C.ar  1 <1>   0.0820 
 19 C       -4.0490    -2.7260     1.3810 C.ar  1 <1>  -0.1500 
 20 C       -3.7180    -3.6360    -0.7530 C.ar  1 <1>  -0.1500 
 21 C        3.3440     3.7480    -1.1650 C.3   1 <1>   0.0400 
 22 O        2.8740     2.0020     0.9670 O.3   1 <1>  -0.3630 
 23 C       -3.6710    -3.9530     1.9020 C.ar  1 <1>   0.1600 
 24 C       -3.3550    -4.8190    -0.1320 C.ar  1 <1>   0.1600 
 25 C        3.3200     1.1330     1.9850 C.3   1 <1>   0.0400 
 26 N       -3.3210    -5.0040     1.1780 N.ar  1 <1>  -0.6200 
 27 H       -1.9290     2.1710    -0.7310 H     1 <1>   0.3700 
 28 H       -2.4140     5.0720     0.2970 H     1 <1>   0.0800 
 29 H       -2.6940     4.4470     1.8890 H     1 <1>   0.0800 
 30 H       -4.8030     1.3730    -0.9930 H     1 <1>   0.0800 
 31 H       -3.0670    -0.0650     0.5240 H     1 <1>   0.0800 
 32 H       -3.0250     1.8660    -3.0450 H     1 <1>   0.0800 
 33 H       -4.2280     0.5870    -3.1470 H     1 <1>   0.0800 
 34 H       -0.3920     4.4580    -0.9540 H     1 <1>   0.1500 
 35 H       -1.2040     2.6660     2.8300 H     1 <1>   0.1500 
 36 H       -1.9830    -1.6100    -1.4560 H     1 <1>   0.0800 
 37 H       -1.2460    -0.0860    -0.9930 H     1 <1>   0.0800 
 38 H       -4.7530    -1.3720    -1.6390 H     1 <1>   0.0800 
 39 H       -5.3500    -0.8470    -0.0960 H     1 <1>   0.0800 
 40 H        1.0220     1.7390     2.8750 H     1 <1>   0.1500 
 41 H       -4.3180    -1.9260     2.0460 H     1 <1>   0.1500 
 42 H       -3.7150    -3.5760    -1.8260 H     1 <1>   0.1500 
 43 H        3.6750     4.3150    -2.0160 H     1 <1>   0.0800 
 44 H        3.7500     2.7540    -1.2110 H     1 <1>   0.0800 
 45 H        3.6390     4.2410    -0.2550 H     1 <1>   0.0800 
 46 H       -3.6560    -4.0760     2.9710 H     1 <1>   0.1500 
 47 H       -3.0780    -5.6590    -0.7460 H     1 <1>   0.1500 
 48 H        4.3170     0.8140     1.7380 H     1 <1>   0.0800 
 49 H        2.6650     0.2810     2.0300 H     1 <1>   0.0800 
 50 H        3.3300     1.6650     2.9200 H     1 <1>   0.0800 
@<TRIPOS>BOND
  1   1   2  2   
  2   2   3  am  
  3   2   4  1   
  4   3   5  1   
  5   3  27  1   
  6   4   6  1   
  7   4  28  1   
  8   4  29  1   
  9   5   7  1   
 10   5   8  1   
 11   5  30  1   
 12   6   9  ar  
 13   6  10  ar  
 14   7  11  1   
 15   7  12  1   
 16   7  31  1   
 17   8  13  1   
 18   8  32  1   
 19   8  33  1   
 20   9  14  ar  
 21   9  34  1   
 22  10  15  ar  
 23  10  35  1   
 24  11  13  1   
 25  11  36  1   
 26  11  37  1   
 27  12  16  1   
 28  12  38  1   
 29  12  39  1   
 30  14  17  1   
 31  14  18  ar  
 32  15  18  ar  
 33  15  40  1   
 34  16  19  ar  
 35  16  20  ar  
 36  17  21  1   
 37  18  22  1   
 38  19  23  ar  
 39  19  41  1   
 40  20  24  ar  
 41  20  42  1   
 42  21  43  1   
 43  21  44  1   
 44  21  45  1   
 45  22  25  1   
 46  23  26  ar  
 47  23  46  1   
 48  24  26  ar  
 49  24  47  1   
 50  25  48  1   
 51  25  49  1   
 52  25  50  1   
@<TRIPOS>SUBSTRUCTURE
  1 ****  11 GROUP 4 **** **** 0

# MOE 2024.06 (io_trps.svl 2023.06)
