@<TRIPOS>MOLECULE
NONAME
44 45 1 0 0 
SMALL
USER_CHARGES


@<TRIPOS>ATOM
  1 O        0.0870    -0.8660     0.7790 O.3   1 <1>  -0.5600 
  2 C       -0.1850    -2.1080     0.1990 C.3   1 <1>   0.2000 
  3 C       -0.0120     0.2190    -0.0850 C.3   1 <1>   0.1200 
  4 C       -0.7520    -3.0350     1.2830 C.3   1 <1>   0.2090 
  5 C        1.1200    -2.6750    -0.3870 C.3   1 <1>  -0.1600 
  6 C        0.3220     1.4790     0.7090 C.3   1 <1>  -0.1600 
  7 N       -0.9200    -4.4190     0.7380 N.pl3 1 <1>  -0.8380 
  8 C        0.9330    -4.1310    -0.8520 C.3   1 <1>  -0.1600 
  9 C        0.2330     2.7340    -0.1670 C.3   1 <1>  -0.2400 
 10 C       -2.1500    -4.9190     0.3700 C.ar  1 <1>   0.7200 
 11 C        0.3460    -5.0240     0.2480 C.3   1 <1>   0.2090 
 12 N       -3.1430    -4.0430     0.2230 N.ar  1 <1>  -0.6200 
 13 N       -2.2350    -6.2350     0.1850 N.ar  1 <1>  -0.6200 
 14 C       -4.3050    -4.5370    -0.1260 C.ar  1 <1>   0.1600 
 15 C       -3.4110    -6.6970    -0.1620 C.ar  1 <1>   0.1600 
 16 C       -4.5040    -5.8820    -0.3370 C.ar  1 <1>  -0.1430 
 17 C       -5.8620    -6.4360    -0.7370 C.3   1 <1>  -0.0170 
 18 C       -6.6850    -6.7900     0.5060 C.3   1 <1>  -0.1600 
 19 C       -8.0600    -7.3500     0.1290 C.3   1 <1>  -0.2400 
 20 H       -0.9340    -1.9900    -0.5660 H     1 <1>   0.0800 
 21 H       -1.0180     0.2670    -0.4660 H     1 <1>   0.0800 
 22 H        0.6840     0.0880    -0.8960 H     1 <1>   0.0800 
 23 H       -1.6890    -2.6450     1.6390 H     1 <1>   0.0800 
 24 H       -0.0680    -3.0710     2.1120 H     1 <1>   0.0800 
 25 H        1.8820    -2.6460     0.3720 H     1 <1>   0.0800 
 26 H        1.4400    -2.0760    -1.2200 H     1 <1>   0.0800 
 27 H        1.3180     1.3920     1.1060 H     1 <1>   0.0800 
 28 H       -0.3680     1.5690     1.5300 H     1 <1>   0.0800 
 29 H        1.8790    -4.5340    -1.1670 H     1 <1>   0.0800 
 30 H        0.2690    -4.1570    -1.6990 H     1 <1>   0.0800 
 31 H        0.9290     2.6720    -0.9850 H     1 <1>   0.0800 
 32 H        0.4690     3.6060     0.4170 H     1 <1>   0.0800 
 33 H       -0.7620     2.8460    -0.5630 H     1 <1>   0.0800 
 34 H        0.1820    -6.0140    -0.1410 H     1 <1>   0.0800 
 35 H        1.0370    -5.1020     1.0700 H     1 <1>   0.0800 
 36 H       -5.1230    -3.8480    -0.2450 H     1 <1>   0.1500 
 37 H       -3.5040    -7.7590    -0.3090 H     1 <1>   0.1500 
 38 H       -5.7270    -7.3140    -1.3460 H     1 <1>   0.0800 
 39 H       -6.3890    -5.7070    -1.3280 H     1 <1>   0.0800 
 40 H       -6.8140    -5.9100     1.1130 H     1 <1>   0.0800 
 41 H       -6.1530    -7.5200     1.0930 H     1 <1>   0.0800 
 42 H       -8.6210    -6.6270    -0.4380 H     1 <1>   0.0800 
 43 H       -8.6150    -7.5890     1.0190 H     1 <1>   0.0800 
 44 H       -7.9560    -8.2460    -0.4580 H     1 <1>   0.0800 
@<TRIPOS>BOND
  1   1   2  1   
  2   1   3  1   
  3   2   4  1   
  4   2   5  1   
  5   2  20  1   
  6   3   6  1   
  7   3  21  1   
  8   3  22  1   
  9   4   7  1   
 10   4  23  1   
 11   4  24  1   
 12   5   8  1   
 13   5  25  1   
 14   5  26  1   
 15   6   9  1   
 16   6  27  1   
 17   6  28  1   
 18   7  10  1   
 19   7  11  1   
 20   8  11  1   
 21   8  29  1   
 22   8  30  1   
 23   9  31  1   
 24   9  32  1   
 25   9  33  1   
 26  10  12  ar  
 27  10  13  ar  
 28  11  34  1   
 29  11  35  1   
 30  12  14  ar  
 31  13  15  ar  
 32  14  16  ar  
 33  14  36  1   
 34  15  16  ar  
 35  15  37  1   
 36  16  17  1   
 37  17  18  1   
 38  17  38  1   
 39  17  39  1   
 40  18  19  1   
 41  18  40  1   
 42  18  41  1   
 43  19  42  1   
 44  19  43  1   
 45  19  44  1   
@<TRIPOS>SUBSTRUCTURE
  1 ****  12 GROUP 4 **** **** 0

# MOE 2024.06 (io_trps.svl 2023.06)
