@<TRIPOS>MOLECULE
NONAME
51 53 1 0 0 
SMALL
USER_CHARGES


@<TRIPOS>ATOM
  1 F       -1.9500    -0.8500     2.5190 F     1 <1>  -0.1900 
  2 C       -2.0810    -1.4630     1.3700 C.ar  1 <1>   0.1900 
  3 C       -1.9810    -0.7810     0.1530 C.ar  1 <1>   0.0820 
  4 C       -2.3310    -2.8220     1.4300 C.ar  1 <1>  -0.1500 
  5 O       -1.7410     0.5470    -0.0300 O.3   1 <1>  -0.3630 
  6 C       -2.1390    -1.5210    -1.0080 C.ar  1 <1>  -0.1500 
  7 C       -2.4990    -3.5430     0.2560 C.ar  1 <1>  -0.1430 
  8 C       -1.4250     1.4270     1.0280 C.3   1 <1>   0.0400 
  9 C       -2.3910    -2.8830    -0.9610 C.ar  1 <1>  -0.1500 
 10 C       -2.7890    -5.0370     0.3060 C.3   1 <1>   0.4870 
 11 N       -4.2480    -5.2840     0.2860 N.4   1 <1>  -0.9590 
 12 C       -4.9370    -4.9050    -0.9870 C.3   1 <1>   0.3430 
 13 C       -4.9870    -4.7900     1.4940 C.3   1 <1>   0.3430 
 14 C       -6.3340    -5.5670    -1.0880 C.3   1 <1>   0.2000 
 15 C       -6.5140    -4.8360     1.2820 C.3   1 <1>  -0.1600 
 16 O       -6.2450    -6.6790    -1.9100 O.3   1 <1>  -0.6800 
 17 C       -6.9150    -5.9720     0.3020 C.3   1 <1>  -0.1060 
 18 C       -6.2750    -7.2600     0.8520 C.2   1 <1>   0.9060 
 19 C       -8.4490    -6.1750     0.2400 C.3   1 <1>  -0.0170 
 20 O       -6.5740    -7.6320     1.9830 O.co2 1 <1>  -0.9000 
 21 O       -5.3140    -7.7650     0.2460 O.co2 1 <1>  -0.9000 
 22 C       -9.2280    -4.9450    -0.2210 C.ar  1 <1>  -0.1430 
 23 C       -9.5450    -4.7790    -1.5610 C.ar  1 <1>  -0.1500 
 24 C       -9.6390    -3.9890     0.6950 C.ar  1 <1>  -0.1500 
 25 C      -10.2440    -3.6620    -1.9830 C.ar  1 <1>  -0.1500 
 26 C      -10.3390    -2.8710     0.2750 C.ar  1 <1>  -0.1500 
 27 C      -10.6390    -2.7050    -1.0650 C.ar  1 <1>  -0.1500 
 28 H       -2.3910    -3.2960     2.3940 H     1 <1>   0.1500 
 29 H       -2.0600    -1.0170    -1.9560 H     1 <1>   0.1500 
 30 H       -1.2150     2.3940     0.6060 H     1 <1>   0.0800 
 31 H       -0.5560     1.0590     1.5440 H     1 <1>   0.0800 
 32 H       -2.2690     1.4960     1.6910 H     1 <1>   0.0800 
 33 H       -2.4990    -3.4200    -1.8890 H     1 <1>   0.1500 
 34 H       -2.3650    -5.4590     1.2020 H     1 <1>   0.0800 
 35 H       -2.3290    -5.5230    -0.5390 H     1 <1>   0.0800 
 36 H       -4.3700    -6.3310     0.3160 H     1 <1>   0.4500 
 37 H       -5.0570    -3.8350    -1.0090 H     1 <1>   0.0800 
 38 H       -4.3520    -5.2020    -1.8410 H     1 <1>   0.0800 
 39 H       -4.7380    -5.4220     2.3330 H     1 <1>   0.0800 
 40 H       -4.6950    -3.7800     1.7300 H     1 <1>   0.0800 
 41 H       -6.9770    -4.8680    -1.5890 H     1 <1>   0.0800 
 42 H       -6.9830    -4.9920     2.2380 H     1 <1>   0.0800 
 43 H       -6.8500    -3.8830     0.9120 H     1 <1>   0.0800 
 44 H       -5.8530    -7.4150    -1.3560 H     1 <1>   0.4000 
 45 H       -8.6640    -6.9970    -0.4210 H     1 <1>   0.0800 
 46 H       -8.8070    -6.4670     1.2130 H     1 <1>   0.0800 
 47 H       -9.2460    -5.5230    -2.2810 H     1 <1>   0.1500 
 48 H       -9.4190    -4.1150     1.7400 H     1 <1>   0.1500 
 49 H      -10.4830    -3.5400    -3.0250 H     1 <1>   0.1500 
 50 H      -10.6530    -2.1320     0.9920 H     1 <1>   0.1500 
 51 H      -11.1840    -1.8370    -1.3920 H     1 <1>   0.1500 
@<TRIPOS>BOND
  1   1   2  1   
  2   2   3  ar  
  3   2   4  ar  
  4   3   5  1   
  5   3   6  ar  
  6   4   7  ar  
  7   4  28  1   
  8   5   8  1   
  9   6   9  ar  
 10   6  29  1   
 11   7   9  ar  
 12   7  10  1   
 13   8  30  1   
 14   8  31  1   
 15   8  32  1   
 16   9  33  1   
 17  10  11  1   
 18  10  34  1   
 19  10  35  1   
 20  11  12  1   
 21  11  13  1   
 22  11  36  1   
 23  12  14  1   
 24  12  37  1   
 25  12  38  1   
 26  13  15  1   
 27  13  39  1   
 28  13  40  1   
 29  14  16  1   
 30  14  17  1   
 31  14  41  1   
 32  15  17  1   
 33  15  42  1   
 34  15  43  1   
 35  16  44  1   
 36  17  18  1   
 37  17  19  1   
 38  18  20  ar  
 39  18  21  ar  
 40  19  22  1   
 41  19  45  1   
 42  19  46  1   
 43  22  23  ar  
 44  22  24  ar  
 45  23  25  ar  
 46  23  47  1   
 47  24  26  ar  
 48  24  48  1   
 49  25  27  ar  
 50  25  49  1   
 51  26  27  ar  
 52  26  50  1   
 53  27  51  1   
@<TRIPOS>SUBSTRUCTURE
  1 ****  12 GROUP 4 **** **** 0

# MOE 2024.06 (io_trps.svl 2023.06)
