@<TRIPOS>MOLECULE
NONAME
41 43 1 0 0 
SMALL
USER_CHARGES


@<TRIPOS>ATOM
  1 CL      -0.6580    -0.1510     1.1380 Cl    1 <1>  -0.1230 
  2 C       -0.9520    -1.8710     1.0230 C.2   1 <1>   0.4120 
  3 N       -0.7690    -2.6950     1.9890 N.2   1 <1>  -0.4100 
  4 C       -1.4130    -2.4940    -0.1290 C.2   1 <1>  -0.1500 
  5 O       -1.0980    -3.8610     1.5020 O.3   1 <1>  -0.0190 
  6 C       -1.4850    -3.7800     0.2510 C.2   1 <1>  -0.0400 
  7 C       -1.9110    -5.0310    -0.4950 C.3   1 <1>   0.0200 
  8 C       -3.1600    -5.6510     0.1420 C.3   1 <1>  -0.0990 
  9 C       -3.5940    -6.8890    -0.6100 C.2   1 <1>   0.5690 
 10 O       -3.9510    -6.7790    -1.7570 O.2   1 <1>  -0.5700 
 11 N       -3.5710    -8.0860     0.0210 N.am  1 <1>  -0.7300 
 12 C       -3.9690    -9.3690    -0.6010 C.3   1 <1>   0.2200 
 13 C       -5.3600    -9.7460    -0.1210 C.3   1 <1>  -0.0800 
 14 C       -3.1260   -10.5030    -0.0280 C.3   1 <1>   0.1200 
 15 C       -5.0660   -10.4410     1.2140 C.3   1 <1>   0.1200 
 16 C       -6.0690   -10.6780    -1.1220 C.3   1 <1>  -0.0160 
 17 O       -3.7330   -10.8640     1.1760 O.3   1 <1>  -0.5600 
 18 C       -7.4740   -11.0280    -0.6570 C.ar  1 <1>  -0.1430 
 19 C       -7.7880   -12.2660    -0.1340 C.ar  1 <1>  -0.1500 
 20 C       -8.5110   -10.1210    -0.7390 C.ar  1 <1>  -0.1500 
 21 C       -9.0850   -12.5270     0.2770 C.ar  1 <1>   0.1600 
 22 C       -9.7740   -10.4820    -0.3000 C.ar  1 <1>   0.1600 
 23 N      -10.0860   -11.6640     0.2080 N.ar  1 <1>  -0.6200 
 24 H       -1.6390    -2.0180    -1.0640 H     1 <1>   0.1500 
 25 H       -2.1180    -4.7790    -1.5210 H     1 <1>   0.0800 
 26 H       -1.1040    -5.7420    -0.4820 H     1 <1>   0.0800 
 27 H       -3.9660    -4.9400     0.1180 H     1 <1>   0.0800 
 28 H       -2.9610    -5.8980     1.1690 H     1 <1>   0.0800 
 29 H       -3.3000    -8.1620     1.0040 H     1 <1>   0.3700 
 30 H       -3.8920    -9.3050    -1.6740 H     1 <1>   0.0800 
 31 H       -5.9700    -8.8720     0.0260 H     1 <1>   0.0800 
 32 H       -2.1060   -10.2130     0.1520 H     1 <1>   0.0800 
 33 H       -3.1510   -11.3610    -0.6760 H     1 <1>   0.0800 
 34 H       -5.6970   -11.2930     1.3960 H     1 <1>   0.0800 
 35 H       -5.1620    -9.7480     2.0320 H     1 <1>   0.0800 
 36 H       -5.5000   -11.5810    -1.2620 H     1 <1>   0.0800 
 37 H       -6.1380   -10.1870    -2.0780 H     1 <1>   0.0800 
 38 H       -7.0390   -13.0310    -0.0390 H     1 <1>   0.1500 
 39 H       -8.3490    -9.1370    -1.1400 H     1 <1>   0.1500 
 40 H       -9.3120   -13.4980     0.6840 H     1 <1>   0.1500 
 41 H      -10.5700    -9.7610    -0.3720 H     1 <1>   0.1500 
@<TRIPOS>BOND
  1   1   2  1   
  2   2   3  2   
  3   2   4  1   
  4   3   5  1   
  5   4   6  2   
  6   4  24  1   
  7   5   6  1   
  8   6   7  1   
  9   7   8  1   
 10   7  25  1   
 11   7  26  1   
 12   8   9  1   
 13   8  27  1   
 14   8  28  1   
 15   9  10  2   
 16   9  11  am  
 17  11  12  1   
 18  11  29  1   
 19  12  13  1   
 20  12  14  1   
 21  12  30  1   
 22  13  15  1   
 23  13  16  1   
 24  13  31  1   
 25  14  17  1   
 26  14  32  1   
 27  14  33  1   
 28  15  17  1   
 29  15  34  1   
 30  15  35  1   
 31  16  18  1   
 32  16  36  1   
 33  16  37  1   
 34  18  19  ar  
 35  18  20  ar  
 36  19  21  ar  
 37  19  38  1   
 38  20  22  ar  
 39  20  39  1   
 40  21  23  ar  
 41  21  40  1   
 42  22  23  ar  
 43  22  41  1   
@<TRIPOS>SUBSTRUCTURE
  1 ****  11 GROUP 4 **** **** 0

# MOE 2024.06 (io_trps.svl 2023.06)
