@<TRIPOS>MOLECULE
NONAME
48 52 1 0 0 
SMALL
USER_CHARGES


@<TRIPOS>ATOM
  1 O        2.4770    -0.6190    -0.8980 O.3   1 <1>  -0.5600 
  2 C        2.5890    -1.3430     0.3150 C.3   1 <1>   0.4600 
  3 C        1.2100    -0.5580    -1.5200 C.3   1 <1>   0.1200 
  4 C        1.7350    -2.5990     0.2470 C.2   1 <1>  -0.3320 
  5 C        2.1790    -0.4230     1.4700 C.3   1 <1>  -0.1600 
  6 C        4.0760    -1.6950     0.4570 C.3   1 <1>  -0.1600 
  7 C        0.7350    -1.9550    -1.9490 C.3   1 <1>   0.0210 
  8 N        1.6690    -3.6100     1.1710 N.pl3 1 <1>   0.0330 
  9 C        0.9040    -2.8850    -0.7750 C.2   1 <1>  -0.1810 
 10 C        3.0150     0.8620     1.5280 C.3   1 <1>   0.3430 
 11 C        4.9640    -0.4970     0.8170 C.3   1 <1>   0.3430 
 12 C        0.7810    -4.5500     0.7100 C.ar  1 <1>  -0.1520 
 13 C        0.2830    -4.1240    -0.5180 C.ar  1 <1>   0.0000 
 14 N        4.2100     0.7710     0.6300 N.4   1 <1>  -0.9590 
 15 C        0.3640    -5.7590     1.2710 C.ar  1 <1>  -0.1500 
 16 C       -0.6450    -4.9150    -1.2010 C.ar  1 <1>  -0.1500 
 17 C        5.0630     1.9910     0.6170 C.3   1 <1>   0.4860 
 18 C       -0.5510    -6.5280     0.5890 C.ar  1 <1>  -0.1500 
 19 C       -1.0550    -6.1060    -0.6480 C.ar  1 <1>  -0.1500 
 20 C        4.2160     3.1790     0.2230 C.ar  1 <1>  -0.1440 
 21 C        3.9160     4.1750     1.1250 C.ar  1 <1>   0.1600 
 22 C        3.6980     3.3060    -1.0460 C.ar  1 <1>   0.1600 
 23 N        3.1520     5.1920     0.8080 N.ar  1 <1>  -0.6200 
 24 N        2.9310     4.3140    -1.3870 N.ar  1 <1>  -0.6200 
 25 C        2.7030     5.2070    -0.4370 C.ar  1 <1>   0.4700 
 26 H        1.2900     0.0840    -2.3790 H     1 <1>   0.0800 
 27 H        0.5070    -0.1260    -0.8290 H     1 <1>   0.0800 
 28 H        2.2990    -0.9520     2.3960 H     1 <1>   0.0800 
 29 H        1.1350    -0.1780     1.3950 H     1 <1>   0.0800 
 30 H        4.4150    -2.1430    -0.4610 H     1 <1>   0.0800 
 31 H        4.2010    -2.4380     1.2230 H     1 <1>   0.0800 
 32 H        1.3160    -2.3070    -2.7820 H     1 <1>   0.0800 
 33 H       -0.2980    -1.9120    -2.2430 H     1 <1>   0.0800 
 34 H        2.1760    -3.6920     2.0570 H     1 <1>   0.2700 
 35 H        3.3220     1.0470     2.5450 H     1 <1>   0.0800 
 36 H        2.3970     1.6880     1.2110 H     1 <1>   0.0800 
 37 H        5.8410    -0.5080     0.1880 H     1 <1>   0.0800 
 38 H        5.2840    -0.5790     1.8440 H     1 <1>   0.0800 
 39 H        3.7850     0.6650    -0.3140 H     1 <1>   0.4500 
 40 H        0.7540    -6.0790     2.2200 H     1 <1>   0.1500 
 41 H       -1.0240    -4.5810    -2.1490 H     1 <1>   0.1500 
 42 H        5.8650     1.8730    -0.0950 H     1 <1>   0.0800 
 43 H        5.4940     2.1520     1.5920 H     1 <1>   0.0800 
 44 H       -0.8890    -7.4630     0.9990 H     1 <1>   0.1500 
 45 H       -1.7690    -6.7260    -1.1610 H     1 <1>   0.1500 
 46 H        4.3000     4.1470     2.1320 H     1 <1>   0.1500 
 47 H        3.9050     2.5710    -1.8070 H     1 <1>   0.1500 
 48 H        2.0780     6.0440    -0.7090 H     1 <1>   0.1500 
@<TRIPOS>BOND
  1   1   2  1   
  2   1   3  1   
  3   2   4  1   
  4   2   5  1   
  5   2   6  1   
  6   3   7  1   
  7   3  26  1   
  8   3  27  1   
  9   4   8  1   
 10   4   9  2   
 11   5  10  1   
 12   5  28  1   
 13   5  29  1   
 14   6  11  1   
 15   6  30  1   
 16   6  31  1   
 17   7   9  1   
 18   7  32  1   
 19   7  33  1   
 20   8  12  1   
 21   8  34  1   
 22   9  13  1   
 23  10  14  1   
 24  10  35  1   
 25  10  36  1   
 26  11  14  1   
 27  11  37  1   
 28  11  38  1   
 29  12  13  ar  
 30  12  15  ar  
 31  13  16  ar  
 32  14  17  1   
 33  14  39  1   
 34  15  18  ar  
 35  15  40  1   
 36  16  19  ar  
 37  16  41  1   
 38  17  20  1   
 39  17  42  1   
 40  17  43  1   
 41  18  19  ar  
 42  18  44  1   
 43  19  45  1   
 44  20  21  ar  
 45  20  22  ar  
 46  21  23  ar  
 47  21  46  1   
 48  22  24  ar  
 49  22  47  1   
 50  23  25  ar  
 51  24  25  ar  
 52  25  48  1   
@<TRIPOS>SUBSTRUCTURE
  1 ****   2 GROUP 4 **** **** 0

# MOE 2024.06 (io_trps.svl 2023.06)
