@<TRIPOS>MOLECULE
NONAME
38 40 1 0 0 
SMALL
USER_CHARGES


@<TRIPOS>ATOM
  1 O       -0.0170    -0.7530     1.0320 O.3   1 <1>  -0.5600 
  2 C        0.8900     0.2980     1.1820 C.3   1 <1>   0.1200 
  3 C       -1.2890    -0.2870     0.6880 C.3   1 <1>   0.1200 
  4 C        0.2690     1.4960     0.4770 C.3   1 <1>   0.2890 
  5 C       -1.2140     1.2390     0.6540 C.3   1 <1>  -0.0800 
  6 N        0.6630     2.7840     1.0870 N.pl3 1 <1>  -0.8690 
  7 C       -2.0810     1.8850    -0.4390 C.3   1 <1>  -0.0170 
  8 C        0.6850     3.9300     0.3580 C.ar  1 <1>   0.4100 
  9 C       -3.5510     1.5570    -0.2320 C.ar  1 <1>  -0.1440 
 10 N       -0.0530     4.9010     0.8370 N.ar  1 <1>  -0.6200 
 11 C        1.4160     4.0750    -0.8030 C.ar  1 <1>  -0.1500 
 12 C       -4.3120     2.2250     0.7040 C.ar  1 <1>  -0.1500 
 13 C       -4.1990     0.5790    -0.9600 C.ar  1 <1>  -0.1500 
 14 C       -0.0530     6.0160     0.1310 C.ar  1 <1>   0.4770 
 15 C        1.3360     5.2760    -1.4520 C.ar  1 <1>   0.1600 
 16 C       -5.6460     1.8900     0.8670 C.ar  1 <1>   0.1600 
 17 C       -5.5380     0.3210    -0.7180 C.ar  1 <1>   0.1600 
 18 N        0.5930     6.2650    -0.9960 N.ar  1 <1>  -0.6200 
 19 C       -0.8980     7.1470     0.6650 C.3   1 <1>  -0.0970 
 20 N       -6.2770     0.9520     0.1800 N.ar  1 <1>  -0.6200 
 21 H        1.0010     0.4860     2.2360 H     1 <1>   0.0800 
 22 H        1.8320     0.0150     0.7480 H     1 <1>   0.0800 
 23 H       -1.5290    -0.6940    -0.2790 H     1 <1>   0.0800 
 24 H       -2.0010    -0.6390     1.4150 H     1 <1>   0.0800 
 25 H        0.5420     1.4650    -0.5640 H     1 <1>   0.0800 
 26 H       -1.5280     1.5990     1.6180 H     1 <1>   0.0800 
 27 H        0.2140     2.9410     1.9930 H     1 <1>   0.4000 
 28 H       -1.7650     1.5470    -1.4100 H     1 <1>   0.0800 
 29 H       -1.9540     2.9540    -0.4120 H     1 <1>   0.0800 
 30 H        2.0260     3.2740    -1.1680 H     1 <1>   0.1500 
 31 H       -3.8810     3.0030     1.3070 H     1 <1>   0.1500 
 32 H       -3.6780     0.0150    -1.7120 H     1 <1>   0.1500 
 33 H        1.8870     5.4420    -2.3620 H     1 <1>   0.1500 
 34 H       -6.2250     2.4220     1.6030 H     1 <1>   0.1500 
 35 H       -6.0270    -0.4450    -1.2950 H     1 <1>   0.1500 
 36 H       -0.3570     8.0710     0.5890 H     1 <1>   0.0800 
 37 H       -1.1490     6.9750     1.6960 H     1 <1>   0.0800 
 38 H       -1.8010     7.2180     0.0890 H     1 <1>   0.0800 
@<TRIPOS>BOND
  1   1   2  1   
  2   1   3  1   
  3   2   4  1   
  4   2  21  1   
  5   2  22  1   
  6   3   5  1   
  7   3  23  1   
  8   3  24  1   
  9   4   5  1   
 10   4   6  1   
 11   4  25  1   
 12   5   7  1   
 13   5  26  1   
 14   6   8  1   
 15   6  27  1   
 16   7   9  1   
 17   7  28  1   
 18   7  29  1   
 19   8  10  ar  
 20   8  11  ar  
 21   9  12  ar  
 22   9  13  ar  
 23  10  14  ar  
 24  11  15  ar  
 25  11  30  1   
 26  12  16  ar  
 27  12  31  1   
 28  13  17  ar  
 29  13  32  1   
 30  14  18  ar  
 31  14  19  1   
 32  15  18  ar  
 33  15  33  1   
 34  16  20  ar  
 35  16  34  1   
 36  17  20  ar  
 37  17  35  1   
 38  19  36  1   
 39  19  37  1   
 40  19  38  1   
@<TRIPOS>SUBSTRUCTURE
  1 ****   7 GROUP 4 **** **** 0

# MOE 2024.06 (io_trps.svl 2023.06)
