@<TRIPOS>MOLECULE
NONAME
58 60 1 0 0 
SMALL
USER_CHARGES


@<TRIPOS>ATOM
  1 O        0.3950     0.2300    -1.3440 O.3   1 <1>  -0.5600 
  2 C        1.6130    -0.4670    -1.4550 C.3   1 <1>   0.2000 
  3 C        0.4930     1.6210    -1.4190 C.3   1 <1>   0.1200 
  4 C        2.6380     0.0140    -0.3900 C.3   1 <1>   0.5660 
  5 C        1.3330    -1.9700    -1.2870 C.3   1 <1>   0.1200 
  6 C        1.3650     2.1470    -0.2670 C.3   1 <1>   0.3430 
  7 N        2.7200     1.5040    -0.2590 N.4   1 <1>  -0.9590 
  8 C        4.0420    -0.4910    -0.6950 C.ar  1 <1>  -0.1430 
  9 O        1.0970    -2.2680     0.0530 O.3   1 <1>  -0.6800 
 10 C        3.5110     1.8910     0.9400 C.3   1 <1>   0.4870 
 11 C        4.6970    -1.2640     0.2520 C.ar  1 <1>  -0.1500 
 12 C        4.6890    -0.1870    -1.8880 C.ar  1 <1>  -0.1500 
 13 C        3.8310     3.3700     0.8370 C.ar  1 <1>  -0.1430 
 14 C        5.9860    -1.7160     0.0300 C.ar  1 <1>   0.0830 
 15 C        5.9820    -0.6280    -2.1130 C.ar  1 <1>  -0.1500 
 16 C        4.8850     3.8430     0.0580 C.ar  1 <1>  -0.1430 
 17 C        3.0380     4.2680     1.5400 C.ar  1 <1>  -0.1500 
 18 O        6.5430    -2.4810     0.9980 O.3   1 <1>  -0.3620 
 19 C        6.6460    -1.3740    -1.1550 C.ar  1 <1>   0.0830 
 20 C        5.1090     5.2090    -0.0270 C.ar  1 <1>  -0.1500 
 21 C        5.8220     2.9170    -0.7110 C.3   1 <1>  -0.0970 
 22 C        3.2720     5.6260     1.4500 C.ar  1 <1>  -0.1500 
 23 C        6.8410    -3.8190     0.6570 C.3   1 <1>   0.0400 
 24 O        7.9230    -1.7350    -1.4270 O.3   1 <1>  -0.3630 
 25 C        4.3030     6.1070     0.6640 C.ar  1 <1>   0.0830 
 26 C        8.9310    -1.2270    -0.5800 C.3   1 <1>   0.0400 
 27 O        4.4600     7.4530     0.6260 O.3   1 <1>  -0.3630 
 28 C        5.5280     8.0540    -0.0720 C.3   1 <1>   0.0400 
 29 H        1.9870    -0.2960    -2.4480 H     1 <1>   0.0800 
 30 H        0.8980     1.8950    -2.3770 H     1 <1>   0.0800 
 31 H       -0.5030     2.0210    -1.3390 H     1 <1>   0.0800 
 32 H        2.3250    -0.3960     0.5560 H     1 <1>   0.0800 
 33 H        2.1800    -2.5520    -1.6090 H     1 <1>   0.0800 
 34 H        0.4690    -2.2530    -1.8650 H     1 <1>   0.0800 
 35 H        0.8570     1.9410     0.6610 H     1 <1>   0.0800 
 36 H        1.4670     3.2170    -0.3580 H     1 <1>   0.0800 
 37 H        3.2500     1.8530    -1.0620 H     1 <1>   0.4500 
 38 H        0.6880    -3.1550     0.1430 H     1 <1>   0.4000 
 39 H        2.9520     1.6920     1.8390 H     1 <1>   0.0800 
 40 H        4.4310     1.3310     0.9840 H     1 <1>   0.0800 
 41 H        4.2180    -1.5390     1.1770 H     1 <1>   0.1500 
 42 H        4.2100     0.3930    -2.6590 H     1 <1>   0.1500 
 43 H        6.4910    -0.3960    -3.0320 H     1 <1>   0.1500 
 44 H        2.2320     3.9270     2.1680 H     1 <1>   0.1500 
 45 H        5.9180     5.5700    -0.6330 H     1 <1>   0.1500 
 46 H        6.7520     3.4160    -0.9210 H     1 <1>   0.0800 
 47 H        5.3810     2.6320    -1.6480 H     1 <1>   0.0800 
 48 H        6.0590     2.0340    -0.1440 H     1 <1>   0.0800 
 49 H        2.6610     6.3280     1.9910 H     1 <1>   0.1500 
 50 H        7.1850    -4.3230     1.5410 H     1 <1>   0.0800 
 51 H        7.6090    -3.8360    -0.0950 H     1 <1>   0.0800 
 52 H        5.9480    -4.2920     0.2880 H     1 <1>   0.0800 
 53 H        9.8850    -1.5040    -0.9910 H     1 <1>   0.0800 
 54 H        8.8230    -1.6500     0.4020 H     1 <1>   0.0800 
 55 H        8.8450    -0.1560    -0.5380 H     1 <1>   0.0800 
 56 H        5.4600     9.1180     0.0680 H     1 <1>   0.0800 
 57 H        5.4410     7.8180    -1.1170 H     1 <1>   0.0800 
 58 H        6.4570     7.6920     0.3310 H     1 <1>   0.0800 
@<TRIPOS>BOND
  1   1   2  1   
  2   1   3  1   
  3   2   4  1   
  4   2   5  1   
  5   2  29  1   
  6   3   6  1   
  7   3  30  1   
  8   3  31  1   
  9   4   7  1   
 10   4   8  1   
 11   4  32  1   
 12   5   9  1   
 13   5  33  1   
 14   5  34  1   
 15   6   7  1   
 16   6  35  1   
 17   6  36  1   
 18   7  10  1   
 19   7  37  1   
 20   8  11  ar  
 21   8  12  ar  
 22   9  38  1   
 23  10  13  1   
 24  10  39  1   
 25  10  40  1   
 26  11  14  ar  
 27  11  41  1   
 28  12  15  ar  
 29  12  42  1   
 30  13  16  ar  
 31  13  17  ar  
 32  14  18  1   
 33  14  19  ar  
 34  15  19  ar  
 35  15  43  1   
 36  16  20  ar  
 37  16  21  1   
 38  17  22  ar  
 39  17  44  1   
 40  18  23  1   
 41  19  24  1   
 42  20  25  ar  
 43  20  45  1   
 44  21  46  1   
 45  21  47  1   
 46  21  48  1   
 47  22  25  ar  
 48  22  49  1   
 49  23  50  1   
 50  23  51  1   
 51  23  52  1   
 52  24  26  1   
 53  25  27  1   
 54  26  53  1   
 55  26  54  1   
 56  26  55  1   
 57  27  28  1   
 58  28  56  1   
 59  28  57  1   
 60  28  58  1   
@<TRIPOS>SUBSTRUCTURE
  1 ****   7 GROUP 4 **** **** 0

# MOE 2024.06 (io_trps.svl 2023.06)
