@<TRIPOS>MOLECULE
NONAME
50 53 1 0 0 
SMALL
USER_CHARGES


@<TRIPOS>ATOM
  1 CL       0.5490    -0.4920     1.3890 Cl    1 <1>  -0.1770 
  2 C       -0.2570    -1.8700     0.6780 C.ar  1 <1>   0.1770 
  3 C       -0.1960    -3.0900     1.3030 C.ar  1 <1>  -0.1500 
  4 C       -0.9500    -1.6860    -0.5240 C.ar  1 <1>  -0.1500 
  5 C       -0.8510    -4.1780     0.7130 C.ar  1 <1>   0.0000 
  6 C       -1.5960    -2.7500    -1.1110 C.ar  1 <1>  -0.1500 
  7 C       -1.5410    -3.9990    -0.4820 C.ar  1 <1>  -0.1520 
  8 C       -0.9980    -5.5330     1.0560 C.2   1 <1>  -0.1500 
  9 N       -2.0820    -5.2030    -0.8430 N.pl3 1 <1>   0.0330 
 10 C       -1.7610    -6.1470     0.1040 C.2   1 <1>  -0.2370 
 11 C       -2.1770    -7.5210     0.0170 C.2   1 <1>   0.7150 
 12 O       -1.5440    -8.4010     0.5700 O.2   1 <1>  -0.5700 
 13 N       -3.3170    -7.8840    -0.6640 N.am  1 <1>  -0.6600 
 14 C       -3.4620    -9.3010    -1.0940 C.3   1 <1>   0.1400 
 15 C       -4.6120    -7.2270    -0.3350 C.3   1 <1>   0.1400 
 16 C       -4.1070   -10.1150     0.0530 C.3   1 <1>   0.4230 
 17 C       -5.2810    -8.0140     0.8010 C.3   1 <1>  -0.1600 
 18 N       -4.1190   -11.6190    -0.1840 N.4   1 <1>  -0.9590 
 19 C       -5.4840    -9.5260     0.4830 C.3   1 <1>   0.0000 
 20 C       -5.0790   -12.3680     0.6910 C.3   1 <1>   0.3430 
 21 C       -4.2810   -12.0530    -1.6100 C.3   1 <1>   0.2630 
 22 C       -5.9700   -10.2450     1.7760 C.3   1 <1>  -0.1600 
 23 C       -6.5240    -9.7050    -0.6600 C.3   1 <1>   0.1200 
 24 C       -5.3220   -11.6240     2.0030 C.3   1 <1>  -0.1600 
 25 O       -7.6880    -8.9980    -0.4090 O.3   1 <1>  -0.6800 
 26 H        0.3400    -3.2190     2.2240 H     1 <1>   0.1500 
 27 H       -0.9650    -0.7080    -0.9710 H     1 <1>   0.1500 
 28 H       -2.1340    -2.6320    -2.0360 H     1 <1>   0.1500 
 29 H       -0.5660    -5.9860     1.9310 H     1 <1>   0.1500 
 30 H       -2.6100    -5.3810    -1.7030 H     1 <1>   0.2700 
 31 H       -4.0550    -9.3330    -1.9890 H     1 <1>   0.0800 
 32 H       -2.4880    -9.7020    -1.3190 H     1 <1>   0.0800 
 33 H       -4.4510    -6.2110    -0.0140 H     1 <1>   0.0800 
 34 H       -5.2450    -7.2040    -1.2070 H     1 <1>   0.0800 
 35 H       -3.4580    -9.9540     0.9000 H     1 <1>   0.0800 
 36 H       -4.6590    -7.9060     1.6740 H     1 <1>   0.0800 
 37 H       -6.2200    -7.5450     1.0390 H     1 <1>   0.0800 
 38 H       -3.1780   -11.9220     0.1120 H     1 <1>   0.4500 
 39 H       -6.0240   -12.4800     0.1840 H     1 <1>   0.0800 
 40 H       -4.6940   -13.3550     0.8960 H     1 <1>   0.0800 
 41 H       -5.2320   -11.7280    -1.9990 H     1 <1>   0.0800 
 42 H       -4.2310   -13.1280    -1.6810 H     1 <1>   0.0800 
 43 H       -3.4970   -11.6400    -2.2240 H     1 <1>   0.0800 
 44 H       -5.7580    -9.6460     2.6470 H     1 <1>   0.0800 
 45 H       -7.0400   -10.3630     1.7530 H     1 <1>   0.0800 
 46 H       -6.7960   -10.7370    -0.7880 H     1 <1>   0.0800 
 47 H       -6.1470    -9.3350    -1.5960 H     1 <1>   0.0800 
 48 H       -5.9640   -12.2160     2.6330 H     1 <1>   0.0800 
 49 H       -4.3860   -11.5130     2.5240 H     1 <1>   0.0800 
 50 H       -8.1560    -9.3230     0.3860 H     1 <1>   0.4000 
@<TRIPOS>BOND
  1   1   2  1   
  2   2   3  ar  
  3   2   4  ar  
  4   3   5  ar  
  5   3  26  1   
  6   4   6  ar  
  7   4  27  1   
  8   5   7  ar  
  9   5   8  1   
 10   6   7  ar  
 11   6  28  1   
 12   7   9  1   
 13   8  10  2   
 14   8  29  1   
 15   9  10  1   
 16   9  30  1   
 17  10  11  1   
 18  11  12  2   
 19  11  13  am  
 20  13  14  1   
 21  13  15  1   
 22  14  16  1   
 23  14  31  1   
 24  14  32  1   
 25  15  17  1   
 26  15  33  1   
 27  15  34  1   
 28  16  18  1   
 29  16  19  1   
 30  16  35  1   
 31  17  19  1   
 32  17  36  1   
 33  17  37  1   
 34  18  20  1   
 35  18  21  1   
 36  18  38  1   
 37  19  22  1   
 38  19  23  1   
 39  20  24  1   
 40  20  39  1   
 41  20  40  1   
 42  21  41  1   
 43  21  42  1   
 44  21  43  1   
 45  22  24  1   
 46  22  44  1   
 47  22  45  1   
 48  23  25  1   
 49  23  46  1   
 50  23  47  1   
 51  24  48  1   
 52  24  49  1   
 53  25  50  1   
@<TRIPOS>SUBSTRUCTURE
  1 ****  11 GROUP 4 **** **** 0

# MOE 2024.06 (io_trps.svl 2023.06)
