@<TRIPOS>MOLECULE
NONAME
44 46 1 0 0 
SMALL
USER_CHARGES


@<TRIPOS>ATOM
  1 F        0.1800    -0.1520    -0.8750 F     1 <1>  -0.3400 
  2 C       -0.0660    -1.3640    -0.4000 C.3   1 <1>   1.3000 
  3 F       -0.1340    -1.2740     0.9230 F     1 <1>  -0.3400 
  4 F        0.9660    -2.1390    -0.7140 F     1 <1>  -0.3400 
  5 O       -1.2700    -1.8610    -0.9460 O.3   1 <1>  -0.3630 
  6 C       -1.6800    -3.0820    -0.5590 C.ar  1 <1>   0.0830 
  7 C       -2.5240    -3.2150     0.5330 C.ar  1 <1>  -0.1500 
  8 C       -1.2730    -4.2060    -1.2600 C.ar  1 <1>  -0.1500 
  9 C       -2.9510    -4.4710     0.9210 C.ar  1 <1>  -0.1500 
 10 C       -1.7070    -5.4580    -0.8640 C.ar  1 <1>  -0.1500 
 11 C       -2.5620    -5.6180     0.2270 C.ar  1 <1>   0.0860 
 12 C       -3.0270    -6.9340     0.6200 C.2   1 <1>   0.5440 
 13 O       -2.2070    -7.7900     0.8930 O.2   1 <1>  -0.5700 
 14 N       -4.3710    -7.2510     0.6820 N.am  1 <1>  -0.6600 
 15 C       -5.4030    -6.4440    -0.0370 C.3   1 <1>   0.2200 
 16 C       -4.7910    -8.5320     1.3310 C.3   1 <1>   0.0600 
 17 C       -6.2770    -7.2580    -0.9880 C.3   1 <1>  -0.1600 
 18 C       -6.3950    -5.7700     0.9060 C.3   1 <1>  -0.1600 
 19 C       -7.5070    -6.3710    -1.2220 C.3   1 <1>  -0.0800 
 20 C       -7.6170    -5.4640     0.0300 C.3   1 <1>  -0.0800 
 21 C       -8.7700    -7.1810    -1.5800 C.3   1 <1>   0.1400 
 22 C       -8.9500    -5.5950     0.7910 C.3   1 <1>  -0.0990 
 23 N       -9.9780    -6.3830    -1.2870 N.am  1 <1>  -0.7300 
 24 C      -10.1110    -5.6260    -0.1780 C.2   1 <1>   0.5690 
 25 O      -11.1160    -5.0020     0.0430 O.2   1 <1>  -0.5700 
 26 H       -2.8410    -2.3410     1.0740 H     1 <1>   0.1500 
 27 H       -0.6190    -4.1030    -2.1090 H     1 <1>   0.1500 
 28 H       -3.5940    -4.5770     1.7770 H     1 <1>   0.1500 
 29 H       -1.3850    -6.3350    -1.3990 H     1 <1>   0.1500 
 30 H       -4.9290    -5.6760    -0.6240 H     1 <1>   0.0800 
 31 H       -5.7810    -8.4510     1.7410 H     1 <1>   0.0800 
 32 H       -4.1130    -8.7790     2.1310 H     1 <1>   0.0800 
 33 H       -4.7670    -9.3260     0.6060 H     1 <1>   0.0800 
 34 H       -5.7610    -7.4740    -1.9060 H     1 <1>   0.0800 
 35 H       -6.5860    -8.1760    -0.5250 H     1 <1>   0.0800 
 36 H       -6.6670    -6.4420     1.6990 H     1 <1>   0.0800 
 37 H       -5.9860    -4.8710     1.3300 H     1 <1>   0.0800 
 38 H       -7.2910    -5.7310    -2.0610 H     1 <1>   0.0800 
 39 H       -7.5410    -4.4440    -0.3130 H     1 <1>   0.0800 
 40 H       -8.8150    -8.0850    -0.9950 H     1 <1>   0.0800 
 41 H       -8.7520    -7.4510    -2.6220 H     1 <1>   0.0800 
 42 H       -9.0720    -4.7720     1.4720 H     1 <1>   0.0800 
 43 H       -8.9760    -6.5090     1.3550 H     1 <1>   0.0800 
 44 H      -10.7760    -6.4330    -1.9250 H     1 <1>   0.3700 
@<TRIPOS>BOND
  1   1   2  1   
  2   2   3  1   
  3   2   4  1   
  4   2   5  1   
  5   5   6  1   
  6   6   7  ar  
  7   6   8  ar  
  8   7   9  ar  
  9   7  26  1   
 10   8  10  ar  
 11   8  27  1   
 12   9  11  ar  
 13   9  28  1   
 14  10  11  ar  
 15  10  29  1   
 16  11  12  1   
 17  12  13  2   
 18  12  14  am  
 19  14  15  1   
 20  14  16  1   
 21  15  17  1   
 22  15  18  1   
 23  15  30  1   
 24  16  31  1   
 25  16  32  1   
 26  16  33  1   
 27  17  19  1   
 28  17  34  1   
 29  17  35  1   
 30  18  20  1   
 31  18  36  1   
 32  18  37  1   
 33  19  20  1   
 34  19  21  1   
 35  19  38  1   
 36  20  22  1   
 37  20  39  1   
 38  21  23  1   
 39  21  40  1   
 40  21  41  1   
 41  22  24  1   
 42  22  42  1   
 43  22  43  1   
 44  23  24  am  
 45  23  44  1   
 46  24  25  2   
@<TRIPOS>SUBSTRUCTURE
  1 ****  15 GROUP 4 **** **** 0

# MOE 2024.06 (io_trps.svl 2023.06)
