@<TRIPOS>MOLECULE
NONAME
54 58 1 0 0 
SMALL
USER_CHARGES


@<TRIPOS>ATOM
  1 N        0.8680    -0.5330    -2.0240 N.ar  1 <1>  -0.1790 
  2 C        1.5320    -0.5120    -0.8260 C.ar  1 <1>   0.7710 
  3 C       -0.2610    -1.2230    -2.2320 C.ar  1 <1>   0.4610 
  4 N        1.0900    -1.1520     0.2250 N.ar  1 <1>  -0.5670 
  5 N        2.6970     0.2210    -0.7520 N.pl3 1 <1>  -0.8380 
  6 N       -0.8660    -1.1990    -3.4310 N.pl3 1 <1>  -0.9000 
  7 C       -0.7400    -1.9400    -1.1310 C.ar  1 <1>   0.0000 
  8 C       -0.0470    -1.8750     0.0530 C.ar  1 <1>   0.1050 
  9 C        3.2010     0.6620     0.6030 C.3   1 <1>   0.2890 
 10 C        3.7530     0.0580    -1.8070 C.3   1 <1>   0.2090 
 11 C       -1.8240    -2.7850    -0.8480 C.2   1 <1>   0.1390 
 12 N       -0.7210    -2.6520     0.9390 N.pl3 1 <1>   0.3140 
 13 C        3.6140     2.1610     0.6030 C.3   1 <1>   0.3430 
 14 C        4.3210    -0.2910     1.0600 C.3   1 <1>  -0.1600 
 15 C        5.1720     0.3200    -1.2760 C.3   1 <1>  -0.0800 
 16 N       -1.8180    -3.2080     0.3690 N.2   1 <1>  -0.7070 
 17 C       -0.3840    -2.9200     2.3460 C.3   1 <1>   0.0160 
 18 N        4.9850     2.5260     0.0800 N.4   1 <1>  -0.9590 
 19 C        5.4290    -0.4940     0.0070 C.3   1 <1>  -0.1600 
 20 C        5.4540     1.8330    -1.1700 C.3   1 <1>   0.3430 
 21 C        6.0190     2.5150     1.1610 C.3   1 <1>   0.4860 
 22 C        7.2390     3.2640     0.6660 C.ar  1 <1>  -0.1430 
 23 C        8.3930     2.5690     0.3290 C.ar  1 <1>  -0.1500 
 24 C        7.2110     4.6460     0.5380 C.ar  1 <1>  -0.1500 
 25 C        9.5000     3.2490    -0.1460 C.ar  1 <1>  -0.1500 
 26 C        8.3200     5.3220     0.0620 C.ar  1 <1>  -0.1500 
 27 C        9.4630     4.6240    -0.2820 C.ar  1 <1>  -0.1500 
 28 H        1.2490     0.0430    -2.7580 H     1 <1>   0.4570 
 29 H       -0.5690    -0.6950    -4.2740 H     1 <1>   0.4000 
 30 H       -1.7360    -1.7210    -3.6060 H     1 <1>   0.4000 
 31 H        2.3990     0.5910     1.3200 H     1 <1>   0.0800 
 32 H        3.7210    -0.9550    -2.1770 H     1 <1>   0.0800 
 33 H        3.5500     0.7190    -2.6330 H     1 <1>   0.0800 
 34 H       -2.5840    -3.0590    -1.5630 H     1 <1>   0.1500 
 35 H        3.5370     2.5170     1.6170 H     1 <1>   0.0800 
 36 H        2.8690     2.6930     0.0350 H     1 <1>   0.0800 
 37 H        4.7430     0.0560     1.9860 H     1 <1>   0.0800 
 38 H        3.8740    -1.2480     1.2770 H     1 <1>   0.0800 
 39 H        5.8490    -0.0450    -2.0300 H     1 <1>   0.0800 
 40 H        0.5550    -2.4620     2.5920 H     1 <1>   0.0800 
 41 H       -0.3190    -3.9830     2.4920 H     1 <1>   0.0800 
 42 H       -1.1600    -2.5220     2.9730 H     1 <1>   0.0800 
 43 H        4.9510     3.5230    -0.1750 H     1 <1>   0.4500 
 44 H        5.4520    -1.5400    -0.2540 H     1 <1>   0.0800 
 45 H        6.3980    -0.2650     0.4160 H     1 <1>   0.0800 
 46 H        5.0020     2.3150    -2.0220 H     1 <1>   0.0800 
 47 H        6.5170     1.9810    -1.2720 H     1 <1>   0.0800 
 48 H        5.6430     3.0090     2.0420 H     1 <1>   0.0800 
 49 H        6.2890     1.5090     1.4270 H     1 <1>   0.0800 
 50 H        8.4510     1.4990     0.4330 H     1 <1>   0.1500 
 51 H        6.3400     5.2170     0.8100 H     1 <1>   0.1500 
 52 H       10.3970     2.7110    -0.4080 H     1 <1>   0.1500 
 53 H        8.3010     6.3950    -0.0380 H     1 <1>   0.1500 
 54 H       10.3270     5.1530    -0.6510 H     1 <1>   0.1500 
@<TRIPOS>BOND
  1   1   2  ar  
  2   1   3  ar  
  3   1  28  1   
  4   2   4  ar  
  5   2   5  1   
  6   3   6  1   
  7   3   7  ar  
  8   4   8  ar  
  9   5   9  1   
 10   5  10  1   
 11   6  29  1   
 12   6  30  1   
 13   7   8  ar  
 14   7  11  1   
 15   8  12  1   
 16   9  13  1   
 17   9  14  1   
 18   9  31  1   
 19  10  15  1   
 20  10  32  1   
 21  10  33  1   
 22  11  16  2   
 23  11  34  1   
 24  12  16  1   
 25  12  17  1   
 26  13  18  1   
 27  13  35  1   
 28  13  36  1   
 29  14  19  1   
 30  14  37  1   
 31  14  38  1   
 32  15  19  1   
 33  15  20  1   
 34  15  39  1   
 35  17  40  1   
 36  17  41  1   
 37  17  42  1   
 38  18  20  1   
 39  18  21  1   
 40  18  43  1   
 41  19  44  1   
 42  19  45  1   
 43  20  46  1   
 44  20  47  1   
 45  21  22  1   
 46  21  48  1   
 47  21  49  1   
 48  22  23  ar  
 49  22  24  ar  
 50  23  25  ar  
 51  23  50  1   
 52  24  26  ar  
 53  24  51  1   
 54  25  27  ar  
 55  25  52  1   
 56  26  27  ar  
 57  26  53  1   
 58  27  54  1   
@<TRIPOS>SUBSTRUCTURE
  1 ****   5 GROUP 4 **** **** 0

# MOE 2024.06 (io_trps.svl 2023.06)
