@<TRIPOS>MOLECULE
NONAME
38 39 1 0 0 
SMALL
USER_CHARGES


@<TRIPOS>ATOM
  1 CL      -1.9160     0.8350     0.9580 Cl    1 <1>  -0.1240 
  2 C       -2.0020    -0.8400     0.5000 C.2   1 <1>   0.1640 
  3 S       -2.7660    -1.9290     1.6300 S.3   1 <1>  -0.0800 
  4 C       -1.5780    -1.4800    -0.6030 C.2   1 <1>  -0.1500 
  5 C       -2.4980    -3.3110     0.5540 C.2   1 <1>  -0.0450 
  6 C       -1.8600    -2.8780    -0.5690 C.2   1 <1>  -0.1500 
  7 C       -2.9650    -4.6060     0.9800 C.2   1 <1>   0.7150 
  8 O       -3.0470    -4.8890     2.1580 O.2   1 <1>  -0.5700 
  9 N       -3.4180    -5.5360     0.0780 N.am  1 <1>  -0.6600 
 10 C       -3.0130    -6.9630     0.2630 C.3   1 <1>   0.3200 
 11 C       -4.2720    -5.1590    -1.1030 C.3   1 <1>   0.1400 
 12 C       -4.2450    -7.8270     0.4200 C.2   1 <1>  -0.3320 
 13 C       -5.7710    -5.5530    -0.9810 C.3   1 <1>   0.3430 
 14 N       -4.6160    -8.8170    -0.4180 N.pl3 1 <1>   0.0330 
 15 C       -5.1890    -7.7720     1.3850 C.2   1 <1>   0.0770 
 16 N       -6.6470    -4.7770    -0.0220 N.4   1 <1>  -0.9590 
 17 C       -5.7960    -9.2580     0.0660 C.2   1 <1>   0.0360 
 18 N       -6.1870    -8.6370     1.1320 N.2   1 <1>  -0.5650 
 19 C       -6.0090    -4.3870     1.2750 C.3   1 <1>   0.2630 
 20 C       -7.8560    -5.6080     0.2810 C.3   1 <1>   0.2630 
 21 H       -1.0760    -1.0140    -1.4330 H     1 <1>   0.1500 
 22 H       -1.5620    -3.5110    -1.3870 H     1 <1>   0.1500 
 23 H       -2.3950    -7.0650     1.1410 H     1 <1>   0.0800 
 24 H       -2.4320    -7.2830    -0.5860 H     1 <1>   0.0800 
 25 H       -3.8680    -5.6510    -1.9700 H     1 <1>   0.0800 
 26 H       -4.2130    -4.1010    -1.2870 H     1 <1>   0.0800 
 27 H       -5.8260    -6.5960    -0.7310 H     1 <1>   0.0800 
 28 H       -6.2050    -5.4620    -1.9630 H     1 <1>   0.0800 
 29 H       -4.1150    -9.1920    -1.2320 H     1 <1>   0.2700 
 30 H       -5.2040    -7.1370     2.2570 H     1 <1>   0.1500 
 31 H       -6.9590    -3.9110    -0.4860 H     1 <1>   0.4500 
 32 H       -6.3460   -10.0580    -0.4030 H     1 <1>   0.1500 
 33 H       -5.5450    -5.2390     1.7420 H     1 <1>   0.0800 
 34 H       -6.7450    -3.9840     1.9520 H     1 <1>   0.0800 
 35 H       -5.2560    -3.6350     1.1120 H     1 <1>   0.0800 
 36 H       -7.5660    -6.5260     0.7700 H     1 <1>   0.0800 
 37 H       -8.3820    -5.8560    -0.6270 H     1 <1>   0.0800 
 38 H       -8.5280    -5.0720     0.9310 H     1 <1>   0.0800 
@<TRIPOS>BOND
  1   1   2  1   
  2   2   3  1   
  3   2   4  2   
  4   3   5  1   
  5   4   6  1   
  6   4  21  1   
  7   5   6  2   
  8   5   7  1   
  9   6  22  1   
 10   7   8  2   
 11   7   9  am  
 12   9  10  1   
 13   9  11  1   
 14  10  12  1   
 15  10  23  1   
 16  10  24  1   
 17  11  13  1   
 18  11  25  1   
 19  11  26  1   
 20  12  14  1   
 21  12  15  2   
 22  13  16  1   
 23  13  27  1   
 24  13  28  1   
 25  14  17  1   
 26  14  29  1   
 27  15  18  1   
 28  15  30  1   
 29  16  19  1   
 30  16  20  1   
 31  16  31  1   
 32  17  18  2   
 33  17  32  1   
 34  19  33  1   
 35  19  34  1   
 36  19  35  1   
 37  20  36  1   
 38  20  37  1   
 39  20  38  1   
@<TRIPOS>SUBSTRUCTURE
  1 ****   9 GROUP 4 **** **** 0

# MOE 2024.06 (io_trps.svl 2023.06)
