@<TRIPOS>MOLECULE
NONAME
51 53 1 0 0 
SMALL
USER_CHARGES


@<TRIPOS>ATOM
  1 O        0.8810     1.2250    -0.9020 O.2   1 <1>  -0.5700 
  2 C        0.3220     2.2630    -0.6560 C.2   1 <1>   0.5690 
  3 N       -0.7950     2.2830     0.1010 N.am  1 <1>  -0.7300 
  4 C        0.8480     3.5780    -1.2300 C.3   1 <1>   0.1810 
  5 C       -1.5950     3.5040     0.3710 C.3   1 <1>   0.3640 
  6 O        0.3960     4.6990    -0.5030 O.3   1 <1>  -0.5600 
  7 C       -3.0260     3.2310    -0.0850 C.ar  1 <1>  -0.1440 
  8 C       -1.0150     4.7720    -0.3250 C.3   1 <1>   0.2610 
  9 C       -4.0950     3.5750     0.7330 C.ar  1 <1>   0.1600 
 10 C       -3.2980     2.6420    -1.3080 C.ar  1 <1>  -0.1500 
 11 C       -1.3740     6.0410     0.4640 C.2   1 <1>   0.5690 
 12 N       -5.3710     3.3750     0.4400 N.ar  1 <1>  -0.6200 
 13 C       -4.6210     2.4320    -1.6290 C.ar  1 <1>  -0.1500 
 14 O       -2.4010     6.0860     1.0990 O.2   1 <1>  -0.5700 
 15 N       -0.5230     7.1000     0.4290 N.am  1 <1>  -0.7300 
 16 C       -5.6040     2.8110    -0.7320 C.ar  1 <1>   0.1600 
 17 C       -0.7270     8.3900     1.1070 C.3   1 <1>   0.2200 
 18 C       -0.9240     9.4820     0.0550 C.3   1 <1>  -0.1600 
 19 C        0.4820     8.6940     1.9910 C.3   1 <1>  -0.1600 
 20 C       -1.0730    10.8510     0.7210 C.3   1 <1>   0.1400 
 21 C        0.3350    10.0650     2.6540 C.3   1 <1>   0.1400 
 22 N        0.0910    11.1030     1.6140 N.am  1 <1>  -0.6600 
 23 C        0.8590    12.2380     1.5440 C.2   1 <1>   0.7800 
 24 O        1.7890    12.4510     2.2990 O.2   1 <1>  -0.5700 
 25 O        0.5580    13.1380     0.6050 O.3   1 <1>  -0.4300 
 26 C        1.3010    14.3290     0.4800 C.3   1 <1>   0.1200 
 27 C        0.7100    15.1360    -0.6720 C.3   1 <1>  -0.2400 
 28 H       -1.1610     1.3960     0.4520 H     1 <1>   0.3700 
 29 H        0.5310     3.6800    -2.2520 H     1 <1>   0.0800 
 30 H        1.9230     3.5760    -1.1960 H     1 <1>   0.0800 
 31 H       -1.5890     3.6660     1.4360 H     1 <1>   0.0800 
 32 H       -1.4540     4.8660    -1.3010 H     1 <1>   0.0800 
 33 H       -3.8970     4.0460     1.6820 H     1 <1>   0.1500 
 34 H       -2.5160     2.3490    -1.9880 H     1 <1>   0.1500 
 35 H       -4.8930     1.9770    -2.5640 H     1 <1>   0.1500 
 36 H        0.3720     6.9760    -0.0520 H     1 <1>   0.3700 
 37 H       -6.6350     2.6410    -0.9910 H     1 <1>   0.1500 
 38 H       -1.6090     8.3370     1.7250 H     1 <1>   0.0800 
 39 H       -0.0820     9.5120    -0.6140 H     1 <1>   0.0800 
 40 H       -1.8100     9.2730    -0.5170 H     1 <1>   0.0800 
 41 H        0.5660     7.9430     2.7550 H     1 <1>   0.0800 
 42 H        1.3840     8.6900     1.4050 H     1 <1>   0.0800 
 43 H       -1.9750    10.8760     1.3090 H     1 <1>   0.0800 
 44 H       -1.1500    11.6110    -0.0380 H     1 <1>   0.0800 
 45 H        1.2260    10.2910     3.2150 H     1 <1>   0.0800 
 46 H       -0.4970    10.0560     3.3380 H     1 <1>   0.0800 
 47 H        1.2330    14.8710     1.4080 H     1 <1>   0.0800 
 48 H        2.3280    14.0710     0.2860 H     1 <1>   0.0800 
 49 H       -0.3180    15.3740    -0.4670 H     1 <1>   0.0800 
 50 H        0.7770    14.5770    -1.5880 H     1 <1>   0.0800 
 51 H        1.2580    16.0540    -0.7890 H     1 <1>   0.0800 
@<TRIPOS>BOND
  1   1   2  2   
  2   2   3  am  
  3   2   4  1   
  4   3   5  1   
  5   3  28  1   
  6   4   6  1   
  7   4  29  1   
  8   4  30  1   
  9   5   7  1   
 10   5   8  1   
 11   5  31  1   
 12   6   8  1   
 13   7   9  ar  
 14   7  10  ar  
 15   8  11  1   
 16   8  32  1   
 17   9  12  ar  
 18   9  33  1   
 19  10  13  ar  
 20  10  34  1   
 21  11  14  2   
 22  11  15  am  
 23  12  16  ar  
 24  13  16  ar  
 25  13  35  1   
 26  15  17  1   
 27  15  36  1   
 28  16  37  1   
 29  17  18  1   
 30  17  19  1   
 31  17  38  1   
 32  18  20  1   
 33  18  39  1   
 34  18  40  1   
 35  19  21  1   
 36  19  41  1   
 37  19  42  1   
 38  20  22  1   
 39  20  43  1   
 40  20  44  1   
 41  21  22  1   
 42  21  45  1   
 43  21  46  1   
 44  22  23  am  
 45  23  24  2   
 46  23  25  1   
 47  25  26  1   
 48  26  27  1   
 49  26  47  1   
 50  26  48  1   
 51  27  49  1   
 52  27  50  1   
 53  27  51  1   
@<TRIPOS>SUBSTRUCTURE
  1 ****  15 GROUP 4 **** **** 0

# MOE 2024.06 (io_trps.svl 2023.06)
