@<TRIPOS>MOLECULE
NONAME
52 54 1 0 0 
SMALL
USER_CHARGES


@<TRIPOS>ATOM
  1 O       -0.4650     0.0970     0.2840 O.2   1 <1>  -0.5700 
  2 C       -1.4290     0.7440     0.6440 C.2   1 <1>   0.5440 
  3 N       -2.6240     0.0940     0.8630 N.am  1 <1>  -0.6600 
  4 C       -1.3090     2.1660     0.8260 C.ar  1 <1>   0.0860 
  5 C       -2.7320    -1.4000     0.8400 C.3   1 <1>   0.1400 
  6 C       -3.9610     0.7650     0.8090 C.3   1 <1>   0.1400 
  7 C       -0.9200     3.0520    -0.1710 C.ar  1 <1>   0.1660 
  8 C       -1.6000     2.7420     2.0500 C.ar  1 <1>   0.1600 
  9 C       -3.6420    -1.8660    -0.3090 C.3   1 <1>   0.3440 
 10 C       -4.8100     0.1940    -0.3530 C.3   1 <1>   0.2000 
 11 N       -0.8540     4.3470     0.0280 N.ar  1 <1>  -0.6200 
 12 C       -0.5500     2.5690    -1.5630 C.3   1 <1>  -0.0970 
 13 N       -1.5470     4.0310     2.2750 N.ar  1 <1>  -0.6200 
 14 O       -4.8790    -1.2050    -0.2390 O.3   1 <1>  -0.5600 
 15 C       -3.8630    -3.3740    -0.2390 C.ar  1 <1>  -0.1440 
 16 C       -6.2550     0.7730    -0.4470 C.3   1 <1>   0.0000 
 17 C       -1.1770     4.7650     1.2400 C.ar  1 <1>   0.7200 
 18 C       -4.9090    -3.9220     0.4910 C.ar  1 <1>  -0.1500 
 19 C       -2.9920    -4.2230    -0.9070 C.ar  1 <1>  -0.1500 
 20 C       -7.0970     0.4420     0.7990 C.3   1 <1>  -0.2400 
 21 C       -6.9650     0.1800    -1.6790 C.3   1 <1>  -0.2400 
 22 C       -6.2230     2.3030    -0.6220 C.3   1 <1>  -0.2400 
 23 N       -1.1110     6.0760     1.4450 N.pl3 1 <1>  -0.9000 
 24 C       -5.0820    -5.2940     0.5530 C.ar  1 <1>  -0.1500 
 25 C       -3.1630    -5.5960    -0.8460 C.ar  1 <1>  -0.1500 
 26 C       -4.2080    -6.1320    -0.1150 C.ar  1 <1>  -0.1500 
 27 H       -1.7640    -1.8550     0.7290 H     1 <1>   0.0800 
 28 H       -3.1460    -1.7400     1.7730 H     1 <1>   0.0800 
 29 H       -4.4680     0.6030     1.7430 H     1 <1>   0.0800 
 30 H       -3.8440     1.8240     0.6720 H     1 <1>   0.0800 
 31 H       -1.8900     2.1010     2.8660 H     1 <1>   0.1500 
 32 H       -3.1880    -1.6180    -1.2520 H     1 <1>   0.0800 
 33 H       -4.3060     0.4160    -1.2780 H     1 <1>   0.0800 
 34 H       -1.2300     1.8060    -1.8960 H     1 <1>   0.0800 
 35 H        0.4470     2.1660    -1.5500 H     1 <1>   0.0800 
 36 H       -0.5820     3.3830    -2.2650 H     1 <1>   0.0800 
 37 H       -5.5960    -3.2780     1.0120 H     1 <1>   0.1500 
 38 H       -2.1730    -3.8210    -1.4790 H     1 <1>   0.1500 
 39 H       -8.1050     0.7970     0.6770 H     1 <1>   0.0800 
 40 H       -6.6900     0.9010     1.6810 H     1 <1>   0.0800 
 41 H       -7.1340    -0.6220     0.9550 H     1 <1>   0.0800 
 42 H       -7.9550     0.5880    -1.7850 H     1 <1>   0.0800 
 43 H       -7.0540    -0.8890    -1.5860 H     1 <1>   0.0800 
 44 H       -6.4110     0.3940    -2.5750 H     1 <1>   0.0800 
 45 H       -7.2160     2.6820    -0.7890 H     1 <1>   0.0800 
 46 H       -5.6150     2.5760    -1.4660 H     1 <1>   0.0800 
 47 H       -5.8340     2.7910     0.2540 H     1 <1>   0.0800 
 48 H       -0.6330     6.6440     0.7510 H     1 <1>   0.4000 
 49 H       -1.1420     6.4140     2.4020 H     1 <1>   0.4000 
 50 H       -5.8970    -5.7070     1.1210 H     1 <1>   0.1500 
 51 H       -2.4830    -6.2460    -1.3680 H     1 <1>   0.1500 
 52 H       -4.3410    -7.1990    -0.0680 H     1 <1>   0.1500 
@<TRIPOS>BOND
  1   1   2  2   
  2   2   3  am  
  3   2   4  1   
  4   3   5  1   
  5   3   6  1   
  6   4   7  ar  
  7   4   8  ar  
  8   5   9  1   
  9   5  27  1   
 10   5  28  1   
 11   6  10  1   
 12   6  29  1   
 13   6  30  1   
 14   7  11  ar  
 15   7  12  1   
 16   8  13  ar  
 17   8  31  1   
 18   9  14  1   
 19   9  15  1   
 20   9  32  1   
 21  10  14  1   
 22  10  16  1   
 23  10  33  1   
 24  11  17  ar  
 25  12  34  1   
 26  12  35  1   
 27  12  36  1   
 28  13  17  ar  
 29  15  18  ar  
 30  15  19  ar  
 31  16  20  1   
 32  16  21  1   
 33  16  22  1   
 34  17  23  1   
 35  18  24  ar  
 36  18  37  1   
 37  19  25  ar  
 38  19  38  1   
 39  20  39  1   
 40  20  40  1   
 41  20  41  1   
 42  21  42  1   
 43  21  43  1   
 44  21  44  1   
 45  22  45  1   
 46  22  46  1   
 47  22  47  1   
 48  23  48  1   
 49  23  49  1   
 50  24  26  ar  
 51  24  50  1   
 52  25  26  ar  
 53  25  51  1   
 54  26  52  1   
@<TRIPOS>SUBSTRUCTURE
  1 ****   3 GROUP 4 **** **** 0

# MOE 2024.06 (io_trps.svl 2023.06)
