@<TRIPOS>MOLECULE
NONAME
37 38 1 0 0 
SMALL
USER_CHARGES


@<TRIPOS>ATOM
  1 O       -2.3120     0.5960     1.3350 O.2   1 <1>  -0.5700 
  2 C       -2.0260     0.9470     0.2200 C.2   1 <1>   0.6590 
  3 O       -1.7790     0.0970    -0.7650 O.3   1 <1>  -0.4300 
  4 C       -1.9390     2.4190    -0.1370 C.3   1 <1>  -0.0190 
  5 C       -1.8340    -1.3040    -0.6010 C.3   1 <1>   0.1200 
  6 C       -0.5020     2.8760    -0.4900 C.3   1 <1>  -0.0800 
  7 C       -2.5310     3.2390     1.0100 C.3   1 <1>   0.3430 
  8 C       -3.2740    -1.7690    -0.8080 C.3   1 <1>  -0.2400 
  9 C       -0.4380     4.4120    -0.7060 C.3   1 <1>  -0.0800 
 10 C        0.5670     2.4410     0.5350 C.3   1 <1>  -0.1600 
 11 N       -2.5050     4.6950     0.6790 N.4   1 <1>  -0.9060 
 12 C       -1.1240     5.1920     0.4310 C.3   1 <1>   0.3430 
 13 C        1.0130     4.9360    -0.8550 C.3   1 <1>  -0.1600 
 14 C        1.9930     2.7900     0.0640 C.3   1 <1>  -0.1600 
 15 C        2.0380     3.8200    -1.0770 C.3   1 <1>  -0.1600 
 16 H       -2.5640     2.5560    -1.0000 H     1 <1>   0.0800 
 17 H       -1.1880    -1.7460    -1.3410 H     1 <1>   0.0800 
 18 H       -1.4730    -1.5640     0.3800 H     1 <1>   0.0800 
 19 H       -0.2530     2.3950    -1.4240 H     1 <1>   0.0800 
 20 H       -1.9590     3.0540     1.9060 H     1 <1>   0.0800 
 21 H       -3.5440     2.9170     1.1930 H     1 <1>   0.0800 
 22 H       -3.6220    -1.4880    -1.7860 H     1 <1>   0.0800 
 23 H       -3.9180    -1.3470    -0.0570 H     1 <1>   0.0800 
 24 H       -3.3210    -2.8400    -0.7250 H     1 <1>   0.0800 
 25 H       -0.9560     4.6360    -1.6240 H     1 <1>   0.0800 
 26 H        0.3870     2.9180     1.4820 H     1 <1>   0.0800 
 27 H        0.5280     1.3780     0.7030 H     1 <1>   0.0800 
 28 H       -3.0840     4.8720    -0.1520 H     1 <1>   0.4500 
 29 H       -2.9250     5.2270     1.4530 H     1 <1>   0.4500 
 30 H       -1.1480     6.2400     0.1790 H     1 <1>   0.0800 
 31 H       -0.5370     5.0790     1.3290 H     1 <1>   0.0800 
 32 H        1.0640     5.6300    -1.6780 H     1 <1>   0.0800 
 33 H        1.3150     5.4740     0.0280 H     1 <1>   0.0800 
 34 H        2.5540     3.1640     0.9040 H     1 <1>   0.0800 
 35 H        2.4890     1.8940    -0.2710 H     1 <1>   0.0800 
 36 H        1.8370     3.3300    -2.0150 H     1 <1>   0.0800 
 37 H        3.0290     4.2380    -1.1440 H     1 <1>   0.0800 
@<TRIPOS>BOND
  1   1   2  2   
  2   2   3  1   
  3   2   4  1   
  4   3   5  1   
  5   4   6  1   
  6   4   7  1   
  7   4  16  1   
  8   5   8  1   
  9   5  17  1   
 10   5  18  1   
 11   6   9  1   
 12   6  10  1   
 13   6  19  1   
 14   7  11  1   
 15   7  20  1   
 16   7  21  1   
 17   8  22  1   
 18   8  23  1   
 19   8  24  1   
 20   9  12  1   
 21   9  13  1   
 22   9  25  1   
 23  10  14  1   
 24  10  26  1   
 25  10  27  1   
 26  11  12  1   
 27  11  28  1   
 28  11  29  1   
 29  12  30  1   
 30  12  31  1   
 31  13  15  1   
 32  13  32  1   
 33  13  33  1   
 34  14  15  1   
 35  14  34  1   
 36  14  35  1   
 37  15  36  1   
 38  15  37  1   
@<TRIPOS>SUBSTRUCTURE
  1 ****   6 GROUP 4 **** **** 0

# MOE 2024.06 (io_trps.svl 2023.06)
