@<TRIPOS>MOLECULE
NONAME
56 58 1 0 0 
SMALL
USER_CHARGES


@<TRIPOS>ATOM
  1 O       -1.3750     0.6590    -2.0540 O.2   1 <1>  -0.5700 
  2 C       -2.2370     0.7620    -1.2090 C.2   1 <1>   0.5690 
  3 N       -3.2100    -0.2090    -1.0920 N.am  1 <1>  -0.6600 
  4 C       -2.2220     1.9810    -0.2680 C.3   1 <1>   0.2680 
  5 C       -3.0500    -1.5370    -1.7520 C.3   1 <1>   0.1400 
  6 C       -4.5150    -0.0380    -0.4020 C.3   1 <1>   0.1400 
  7 C       -3.1300     3.1250    -0.7420 C.ar  1 <1>  -0.1440 
  8 C       -0.8070     2.4750     0.0580 C.ar  1 <1>  -0.1440 
  9 C       -3.1680    -2.7160    -0.7530 C.3   1 <1>   0.0000 
 10 C       -4.6290    -1.0860     0.7010 C.3   1 <1>  -0.1600 
 11 C       -3.4250     3.3210    -2.0850 C.ar  1 <1>  -0.1500 
 12 C       -3.6750     3.9900     0.1970 C.ar  1 <1>  -0.1500 
 13 C       -0.1400     3.3500    -0.7870 C.ar  1 <1>  -0.1500 
 14 C       -0.1700     2.0430     1.2150 C.ar  1 <1>  -0.1500 
 15 C       -4.4300    -2.4980     0.1340 C.3   1 <1>   0.2000 
 16 C       -3.4380    -4.0020    -1.5770 C.3   1 <1>   0.1200 
 17 C       -1.8320    -2.9370     0.0350 C.3   1 <1>  -0.1600 
 18 C       -4.2580     4.3540    -2.4790 C.ar  1 <1>  -0.1500 
 19 C       -4.5090     5.0230    -0.1950 C.ar  1 <1>  -0.1500 
 20 C        1.1360     3.7910    -0.4810 C.ar  1 <1>  -0.1500 
 21 C        1.1050     2.4830     1.5230 C.ar  1 <1>  -0.1500 
 22 O       -4.4380    -3.3900     1.1890 O.3   1 <1>  -0.6800 
 23 O       -2.3980    -4.2920    -2.4550 O.3   1 <1>  -0.6800 
 24 C       -1.4350    -1.9360     1.1350 C.3   1 <1>  -0.1600 
 25 C       -4.8030     5.2050    -1.5340 C.ar  1 <1>  -0.1500 
 26 C        1.7590     3.3590     0.6750 C.ar  1 <1>  -0.1500 
 27 C       -0.0260    -2.2300     1.6560 C.3   1 <1>  -0.2400 
 28 H       -2.6280     1.6360     0.6630 H     1 <1>   0.0800 
 29 H       -3.8160    -1.6230    -2.5040 H     1 <1>   0.0800 
 30 H       -2.1000    -1.5930    -2.2550 H     1 <1>   0.0800 
 31 H       -4.6230     0.9490     0.0090 H     1 <1>   0.0800 
 32 H       -5.3070    -0.1770    -1.1190 H     1 <1>   0.0800 
 33 H       -5.6110    -1.0220     1.1360 H     1 <1>   0.0800 
 34 H       -3.9180    -0.8590     1.4690 H     1 <1>   0.0800 
 35 H       -3.0060     2.6780    -2.8420 H     1 <1>   0.1500 
 36 H       -3.4480     3.8690     1.2420 H     1 <1>   0.1500 
 37 H       -0.6100     3.6900    -1.6940 H     1 <1>   0.1500 
 38 H       -0.6580     1.3590     1.8860 H     1 <1>   0.1500 
 39 H       -5.3030    -2.7210    -0.4570 H     1 <1>   0.0800 
 40 H       -4.3400    -3.9080    -2.1580 H     1 <1>   0.0800 
 41 H       -3.5490    -4.8490    -0.9210 H     1 <1>   0.0800 
 42 H       -1.8560    -3.9160     0.4820 H     1 <1>   0.0800 
 43 H       -1.0280    -2.9600    -0.6820 H     1 <1>   0.0800 
 44 H       -4.4800     4.4970    -3.5220 H     1 <1>   0.1500 
 45 H       -4.9250     5.6880     0.5410 H     1 <1>   0.1500 
 46 H        1.6410     4.4690    -1.1460 H     1 <1>   0.1500 
 47 H        1.5910     2.1430     2.4210 H     1 <1>   0.1500 
 48 H       -3.5900    -3.3290     1.6700 H     1 <1>   0.4000 
 49 H       -2.2500    -3.5680    -3.0930 H     1 <1>   0.4000 
 50 H       -1.4460    -0.9340     0.7510 H     1 <1>   0.0800 
 51 H       -2.1160    -1.9990     1.9630 H     1 <1>   0.0800 
 52 H       -5.4500     6.0080    -1.8400 H     1 <1>   0.1500 
 53 H        2.7510     3.7010     0.9120 H     1 <1>   0.1500 
 54 H        0.6940    -2.1340     0.8610 H     1 <1>   0.0800 
 55 H        0.0310    -3.2270     2.0560 H     1 <1>   0.0800 
 56 H        0.2330    -1.5330     2.4330 H     1 <1>   0.0800 
@<TRIPOS>BOND
  1   1   2  2   
  2   2   3  am  
  3   2   4  1   
  4   3   5  1   
  5   3   6  1   
  6   4   7  1   
  7   4   8  1   
  8   4  28  1   
  9   5   9  1   
 10   5  29  1   
 11   5  30  1   
 12   6  10  1   
 13   6  31  1   
 14   6  32  1   
 15   7  11  ar  
 16   7  12  ar  
 17   8  13  ar  
 18   8  14  ar  
 19   9  15  1   
 20   9  16  1   
 21   9  17  1   
 22  10  15  1   
 23  10  33  1   
 24  10  34  1   
 25  11  18  ar  
 26  11  35  1   
 27  12  19  ar  
 28  12  36  1   
 29  13  20  ar  
 30  13  37  1   
 31  14  21  ar  
 32  14  38  1   
 33  15  22  1   
 34  15  39  1   
 35  16  23  1   
 36  16  40  1   
 37  16  41  1   
 38  17  24  1   
 39  17  42  1   
 40  17  43  1   
 41  18  25  ar  
 42  18  44  1   
 43  19  25  ar  
 44  19  45  1   
 45  20  26  ar  
 46  20  46  1   
 47  21  26  ar  
 48  21  47  1   
 49  22  48  1   
 50  23  49  1   
 51  24  27  1   
 52  24  50  1   
 53  24  51  1   
 54  25  52  1   
 55  26  53  1   
 56  27  54  1   
 57  27  55  1   
 58  27  56  1   
@<TRIPOS>SUBSTRUCTURE
  1 ****   2 GROUP 4 **** **** 0

# MOE 2024.06 (io_trps.svl 2023.06)
