@<TRIPOS>MOLECULE
NONAME
44 46 1 0 0 
SMALL
USER_CHARGES


@<TRIPOS>ATOM
  1 O       -0.4400    -0.3590     2.4480 O.2   1 <1>  -0.5700 
  2 C       -1.1350     0.4050     1.8250 C.2   1 <1>   0.5690 
  3 N       -2.0480    -0.0320     0.9050 N.am  1 <1>  -0.6600 
  4 C       -0.9520     1.8900     2.0870 C.3   1 <1>  -0.0990 
  5 C       -2.9650     0.8020     0.0870 C.3   1 <1>   0.1400 
  6 C       -2.2310    -1.4700     0.5910 C.3   1 <1>   0.1400 
  7 C        0.0170     2.5260     1.0770 C.3   1 <1>  -0.1600 
  8 C       -3.7050    -0.1860    -0.8150 C.3   1 <1>   0.2000 
  9 C       -3.5740    -1.5480    -0.1380 C.3   1 <1>  -0.0800 
 10 C        0.2210     4.0210     1.3530 C.3   1 <1>   0.0960 
 11 O       -5.0430     0.1530    -0.9460 O.3   1 <1>  -0.6800 
 12 C       -3.6830    -2.7150    -1.1340 C.3   1 <1>  -0.0170 
 13 N        0.9930     4.6450     0.2630 N.pl3 1 <1>   0.3140 
 14 C       -3.5700    -4.0620    -0.4390 C.ar  1 <1>   0.1660 
 15 N        0.4260     5.0770    -0.8540 N.2   1 <1>  -0.7070 
 16 C        2.3090     4.8620     0.1860 C.2   1 <1>   0.0360 
 17 N       -2.3430    -4.5070    -0.2170 N.ar  1 <1>  -0.6200 
 18 C       -4.7210    -4.7460    -0.0740 C.ar  1 <1>  -0.1500 
 19 C        1.4370     5.5250    -1.5230 C.2   1 <1>   0.3660 
 20 N        2.6310     5.4180    -0.9260 N.2   1 <1>  -0.5650 
 21 C       -2.2580    -5.6770     0.3950 C.ar  1 <1>   0.1600 
 22 C       -4.6180    -5.9640     0.5620 C.ar  1 <1>  -0.1500 
 23 C       -3.3440    -6.4340     0.7990 C.ar  1 <1>  -0.1500 
 24 H       -1.9060     2.3820     2.0570 H     1 <1>   0.0800 
 25 H       -0.5600     2.0050     3.0820 H     1 <1>   0.0800 
 26 H       -3.6520     1.3180     0.7350 H     1 <1>   0.0800 
 27 H       -2.4090     1.5060    -0.5070 H     1 <1>   0.0800 
 28 H       -1.4260    -1.7950    -0.0480 H     1 <1>   0.0800 
 29 H       -2.2300    -2.0680     1.4870 H     1 <1>   0.0800 
 30 H       -0.3770     2.4010     0.0830 H     1 <1>   0.0800 
 31 H        0.9640     2.0160     1.1290 H     1 <1>   0.0800 
 32 H       -3.2570    -0.1890    -1.7940 H     1 <1>   0.0800 
 33 H       -4.3350    -1.6520     0.6160 H     1 <1>   0.0800 
 34 H        0.7440     4.1670     2.2810 H     1 <1>   0.0800 
 35 H       -0.7290     4.5210     1.4090 H     1 <1>   0.0800 
 36 H       -5.4920     0.1040    -0.0810 H     1 <1>   0.4000 
 37 H       -2.9090    -2.6400    -1.8770 H     1 <1>   0.0800 
 38 H       -4.6270    -2.6560    -1.6460 H     1 <1>   0.0800 
 39 H        2.9960     4.5960     0.9680 H     1 <1>   0.1500 
 40 H       -5.6890    -4.3300    -0.2830 H     1 <1>   0.1500 
 41 H        1.3510     5.9640    -2.5040 H     1 <1>   0.1500 
 42 H       -1.2670    -6.0530     0.5860 H     1 <1>   0.1500 
 43 H       -5.4890    -6.5220     0.8590 H     1 <1>   0.1500 
 44 H       -3.1910    -7.3770     1.2920 H     1 <1>   0.1500 
@<TRIPOS>BOND
  1   1   2  2   
  2   2   3  am  
  3   2   4  1   
  4   3   5  1   
  5   3   6  1   
  6   4   7  1   
  7   4  24  1   
  8   4  25  1   
  9   5   8  1   
 10   5  26  1   
 11   5  27  1   
 12   6   9  1   
 13   6  28  1   
 14   6  29  1   
 15   7  10  1   
 16   7  30  1   
 17   7  31  1   
 18   8   9  1   
 19   8  11  1   
 20   8  32  1   
 21   9  12  1   
 22   9  33  1   
 23  10  13  1   
 24  10  34  1   
 25  10  35  1   
 26  11  36  1   
 27  12  14  1   
 28  12  37  1   
 29  12  38  1   
 30  13  15  1   
 31  13  16  1   
 32  14  17  ar  
 33  14  18  ar  
 34  15  19  2   
 35  16  20  2   
 36  16  39  1   
 37  17  21  ar  
 38  18  22  ar  
 39  18  40  1   
 40  19  20  1   
 41  19  41  1   
 42  21  23  ar  
 43  21  42  1   
 44  22  23  ar  
 45  22  43  1   
 46  23  44  1   
@<TRIPOS>SUBSTRUCTURE
  1 ****   3 GROUP 4 **** **** 0

# MOE 2024.06 (io_trps.svl 2023.06)
