@<TRIPOS>MOLECULE
NONAME
46 48 1 0 0 
SMALL
USER_CHARGES


@<TRIPOS>ATOM
  1 O        0.0050     1.3720    -0.6530 O.2   1 <1>  -0.5700 
  2 C       -0.7820     2.1410    -0.1510 C.2   1 <1>   0.5690 
  3 N       -2.1360     1.9240    -0.2100 N.am  1 <1>  -0.6600 
  4 C       -0.2340     3.3810     0.5390 C.3   1 <1>  -0.0990 
  5 C       -3.1890     2.8640     0.2970 C.3   1 <1>   0.1400 
  6 C       -2.6940     0.6760    -0.8080 C.3   1 <1>   0.1400 
  7 C        1.2830     3.3310     0.7270 C.3   1 <1>   0.1200 
  8 C       -4.1680     3.2580    -0.8250 C.3   1 <1>   0.1440 
  9 C       -3.6730     1.0210    -1.9370 C.3   1 <1>  -0.1600 
 10 O        1.6910     4.5070     1.3360 O.3   1 <1>  -0.6800 
 11 C       -5.2270     4.1670    -0.2310 C.ar  1 <1>   0.1670 
 12 C       -4.7720     1.9880    -1.4610 C.3   1 <1>  -0.1600 
 13 C       -3.4960     4.1740    -1.8850 C.3   1 <1>  -0.1600 
 14 N       -6.1820     3.7860     0.5800 N.ar  1 <1>  -0.6200 
 15 C       -5.0590     5.4600    -0.6230 C.ar  1 <1>  -0.1430 
 16 C       -3.8690     5.6250    -1.5350 C.3   1 <1>  -0.0170 
 17 C       -7.0010     4.7560     0.9930 C.ar  1 <1>   0.7200 
 18 C       -5.9480     6.3900    -0.1480 C.ar  1 <1>   0.1600 
 19 N       -6.9230     6.0490     0.6610 N.ar  1 <1>  -0.6200 
 20 N       -8.0220     4.3890     1.8480 N.pl3 1 <1>  -0.8380 
 21 C       -8.8200     5.3930     2.6030 C.3   1 <1>   0.1290 
 22 C       -8.4340     2.9690     2.0260 C.3   1 <1>   0.1290 
 23 H       -0.6870     3.4610     1.5100 H     1 <1>   0.0800 
 24 H       -0.4940     4.2370    -0.0530 H     1 <1>   0.0800 
 25 H       -2.7570     3.7550     0.7120 H     1 <1>   0.0800 
 26 H       -3.7370     2.3740     1.0830 H     1 <1>   0.0800 
 27 H       -3.2050     0.1220    -0.0400 H     1 <1>   0.0800 
 28 H       -1.9070     0.0510    -1.1960 H     1 <1>   0.0800 
 29 H        1.7970     3.2330    -0.2150 H     1 <1>   0.0800 
 30 H        1.5580     2.5080     1.3660 H     1 <1>   0.0800 
 31 H       -4.1250     0.1150    -2.2990 H     1 <1>   0.0800 
 32 H       -3.1220     1.4560    -2.7530 H     1 <1>   0.0800 
 33 H        1.6770     5.2490     0.7020 H     1 <1>   0.4000 
 34 H       -5.4170     2.2520    -2.2800 H     1 <1>   0.0800 
 35 H       -5.3780     1.4860    -0.7260 H     1 <1>   0.0800 
 36 H       -3.9030     3.9540    -2.8570 H     1 <1>   0.0800 
 37 H       -2.4300     4.0370    -1.9330 H     1 <1>   0.0800 
 38 H       -4.1180     6.1920    -2.4150 H     1 <1>   0.0800 
 39 H       -3.0680     6.1070    -1.0020 H     1 <1>   0.0800 
 40 H       -5.8580     7.4250    -0.4310 H     1 <1>   0.1500 
 41 H       -8.2260     6.2660     2.8140 H     1 <1>   0.0800 
 42 H       -9.1520     4.9770     3.5370 H     1 <1>   0.0800 
 43 H       -9.6750     5.6860     2.0180 H     1 <1>   0.0800 
 44 H       -8.2020     2.3940     1.1460 H     1 <1>   0.0800 
 45 H       -9.4940     2.9100     2.1970 H     1 <1>   0.0800 
 46 H       -7.9130     2.5470     2.8670 H     1 <1>   0.0800 
@<TRIPOS>BOND
  1   1   2  2   
  2   2   3  am  
  3   2   4  1   
  4   3   5  1   
  5   3   6  1   
  6   4   7  1   
  7   4  23  1   
  8   4  24  1   
  9   5   8  1   
 10   5  25  1   
 11   5  26  1   
 12   6   9  1   
 13   6  27  1   
 14   6  28  1   
 15   7  10  1   
 16   7  29  1   
 17   7  30  1   
 18   8  11  1   
 19   8  12  1   
 20   8  13  1   
 21   9  12  1   
 22   9  31  1   
 23   9  32  1   
 24  10  33  1   
 25  11  14  ar  
 26  11  15  ar  
 27  12  34  1   
 28  12  35  1   
 29  13  16  1   
 30  13  36  1   
 31  13  37  1   
 32  14  17  ar  
 33  15  16  1   
 34  15  18  ar  
 35  16  38  1   
 36  16  39  1   
 37  17  19  ar  
 38  17  20  1   
 39  18  19  ar  
 40  18  40  1   
 41  20  21  1   
 42  20  22  1   
 43  21  41  1   
 44  21  42  1   
 45  21  43  1   
 46  22  44  1   
 47  22  45  1   
 48  22  46  1   
@<TRIPOS>SUBSTRUCTURE
  1 ****   8 GROUP 4 **** **** 0

# MOE 2024.06 (io_trps.svl 2023.06)
