@<TRIPOS>MOLECULE
NONAME
49 51 1 0 0 
SMALL
USER_CHARGES


@<TRIPOS>ATOM
  1 O        0.2320     2.8610    -1.9950 O.co2 1 <1>  -0.9000 
  2 C       -0.7360     2.5310    -1.2970 C.2   1 <1>   0.9060 
  3 O       -1.8850     2.8180    -1.6400 O.co2 1 <1>  -0.9000 
  4 C       -0.4690     2.0120     0.1160 C.3   1 <1>  -0.1060 
  5 C       -1.7590     2.0970     0.9880 C.3   1 <1>   0.2000 
  6 C        0.5640     2.9850     0.6880 C.3   1 <1>   0.3430 
  7 C        0.0910     0.5510     0.0820 C.3   1 <1>  -0.1600 
  8 O       -1.6850     1.2540     2.0910 O.3   1 <1>  -0.6800 
  9 C       -2.0720     3.4920     1.5580 C.3   1 <1>  -0.1600 
 10 N        0.0900     4.4170     0.7670 N.4   1 <1>  -0.9590 
 11 C        1.3370     0.3170    -0.7910 C.3   1 <1>  -0.1600 
 12 C       -1.3970     4.6000     0.7650 C.3   1 <1>   0.3430 
 13 C        0.6730     5.1880    -0.3720 C.3   1 <1>   0.4810 
 14 C        1.8460    -1.1190    -0.6440 C.3   1 <1>  -0.2400 
 15 C        0.5060     6.6750    -0.1390 C.2   1 <1>  -0.1240 
 16 C        1.0550     7.2090     1.0670 C.2   1 <1>   0.6160 
 17 C       -0.1270     7.4820    -1.0280 C.2   1 <1>  -0.1780 
 18 O        1.5600     6.5090     1.9290 O.2   1 <1>  -0.5700 
 19 N        0.9570     8.5480     1.2810 N.am  1 <1>  -0.5470 
 20 C       -0.2500     8.8870    -0.7780 C.ar  1 <1>   0.0280 
 21 C        0.3130     9.4120     0.3990 C.ar  1 <1>   0.1170 
 22 C       -0.9010     9.7560    -1.6550 C.ar  1 <1>  -0.1500 
 23 C        0.2150    10.7750     0.6660 C.ar  1 <1>  -0.1500 
 24 C       -0.9930    11.1030    -1.3770 C.ar  1 <1>  -0.1500 
 25 C       -0.4330    11.6150    -0.2140 C.ar  1 <1>  -0.1500 
 26 H       -2.5980     1.7500     0.4040 H     1 <1>   0.0800 
 27 H        1.4540     2.9350     0.0810 H     1 <1>   0.0800 
 28 H        0.8260     2.6480     1.6760 H     1 <1>   0.0800 
 29 H        0.3350     0.2340     1.0800 H     1 <1>   0.0800 
 30 H       -0.6940    -0.0970    -0.2730 H     1 <1>   0.0800 
 31 H       -0.9420     1.4930     2.6720 H     1 <1>   0.4000 
 32 H       -3.1360     3.6430     1.5130 H     1 <1>   0.0800 
 33 H       -1.7690     3.5790     2.5860 H     1 <1>   0.0800 
 34 H        0.4980     4.8530     1.6120 H     1 <1>   0.4500 
 35 H        1.0950     0.4880    -1.8280 H     1 <1>   0.0800 
 36 H        2.1260     0.9960    -0.5220 H     1 <1>   0.0800 
 37 H       -1.6510     5.5610     1.1810 H     1 <1>   0.0800 
 38 H       -1.7660     4.5720    -0.2490 H     1 <1>   0.0800 
 39 H        1.7200     4.9570    -0.4720 H     1 <1>   0.0800 
 40 H        0.1830     4.9170    -1.2930 H     1 <1>   0.0800 
 41 H        1.0810    -1.8170    -0.9370 H     1 <1>   0.0800 
 42 H        2.1290    -1.3200     0.3740 H     1 <1>   0.0800 
 43 H        2.7040    -1.2690    -1.2750 H     1 <1>   0.0800 
 44 H       -0.5510     7.1030    -1.9440 H     1 <1>   0.1500 
 45 H        1.3720     8.8990     2.1430 H     1 <1>   0.3700 
 46 H       -1.3360     9.3660    -2.5590 H     1 <1>   0.1500 
 47 H        0.6470    11.1740     1.5660 H     1 <1>   0.1500 
 48 H       -1.4980    11.7650    -2.0610 H     1 <1>   0.1500 
 49 H       -0.5080    12.6690    -0.0050 H     1 <1>   0.1500 
@<TRIPOS>BOND
  1   1   2  ar  
  2   2   3  ar  
  3   2   4  1   
  4   4   5  1   
  5   4   6  1   
  6   4   7  1   
  7   5   8  1   
  8   5   9  1   
  9   5  26  1   
 10   6  10  1   
 11   6  27  1   
 12   6  28  1   
 13   7  11  1   
 14   7  29  1   
 15   7  30  1   
 16   8  31  1   
 17   9  12  1   
 18   9  32  1   
 19   9  33  1   
 20  10  12  1   
 21  10  13  1   
 22  10  34  1   
 23  11  14  1   
 24  11  35  1   
 25  11  36  1   
 26  12  37  1   
 27  12  38  1   
 28  13  15  1   
 29  13  39  1   
 30  13  40  1   
 31  14  41  1   
 32  14  42  1   
 33  14  43  1   
 34  15  16  1   
 35  15  17  2   
 36  16  18  2   
 37  16  19  am  
 38  17  20  1   
 39  17  44  1   
 40  19  21  1   
 41  19  45  1   
 42  20  21  ar  
 43  20  22  ar  
 44  21  23  ar  
 45  22  24  ar  
 46  22  46  1   
 47  23  25  ar  
 48  23  47  1   
 49  24  25  ar  
 50  24  48  1   
 51  25  49  1   
@<TRIPOS>SUBSTRUCTURE
  1 ****  13 GROUP 4 **** **** 0

# MOE 2024.06 (io_trps.svl 2023.06)
