@<TRIPOS>MOLECULE
NONAME
55 57 1 0 0 
SMALL
USER_CHARGES


@<TRIPOS>ATOM
  1 O       -0.3940    -1.2600     1.9500 O.3   1 <1>  -0.5600 
  2 C        0.0960    -1.8200     0.7730 C.3   1 <1>   0.2800 
  3 C       -1.0110     0.0100     1.9160 C.3   1 <1>   0.1200 
  4 C       -1.0510    -1.9800    -0.2660 C.3   1 <1>  -0.1600 
  5 C        0.6480    -3.1840     1.2060 C.3   1 <1>  -0.1600 
  6 C        1.2610    -0.9450     0.2690 C.3   1 <1>  -0.1600 
  7 C       -1.8780     0.2060     0.6630 C.3   1 <1>   0.2000 
  8 C       -2.3050    -1.1500     0.0580 C.3   1 <1>   0.2800 
  9 C        1.4580    -3.8540     0.1020 C.3   1 <1>   0.3430 
 10 C        2.0870    -1.6450    -0.8080 C.3   1 <1>   0.3430 
 11 O       -2.9800     0.9960     0.9680 O.3   1 <1>  -0.6800 
 12 O       -2.9600    -0.9050    -1.1340 O.3   1 <1>  -0.6800 
 13 C       -3.2980    -1.9340     0.9310 C.3   1 <1>  -0.2400 
 14 N        2.5760    -2.9590    -0.3030 N.4   1 <1>  -0.9590 
 15 C        3.4840    -3.6320    -1.2600 C.3   1 <1>   0.4810 
 16 C        4.7840    -2.8650    -1.2610 C.2   1 <1>  -0.2880 
 17 C        5.9110    -3.2660    -0.6460 C.2   1 <1>  -0.1780 
 18 C        7.1870    -2.5860    -0.6060 C.ar  1 <1>   0.0280 
 19 C        7.5140    -1.5530    -1.4840 C.ar  1 <1>  -0.1500 
 20 C        8.1450    -2.9580     0.3340 C.ar  1 <1>  -0.1500 
 21 C        8.7390    -0.9170    -1.4170 C.ar  1 <1>  -0.1500 
 22 C        9.3740    -2.3270     0.4060 C.ar  1 <1>  -0.1500 
 23 C        9.6790    -1.2950    -0.4740 C.ar  1 <1>   0.0820 
 24 O       10.8550    -0.6220    -0.4750 O.3   1 <1>  -0.3620 
 25 C       11.8840    -0.9350     0.4360 C.3   1 <1>   0.0400 
 26 H       -1.6240     0.0800     2.7980 H     1 <1>   0.0800 
 27 H       -0.2470     0.7640     1.9660 H     1 <1>   0.0800 
 28 H       -0.6850    -1.6860    -1.2330 H     1 <1>   0.0800 
 29 H       -1.3370    -3.0120    -0.3510 H     1 <1>   0.0800 
 30 H        1.2760    -3.0620     2.0710 H     1 <1>   0.0800 
 31 H       -0.1650    -3.8280     1.4900 H     1 <1>   0.0800 
 32 H        0.8890    -0.0260    -0.1420 H     1 <1>   0.0800 
 33 H        1.9080    -0.6980     1.0930 H     1 <1>   0.0800 
 34 H       -1.3060     0.7470    -0.0700 H     1 <1>   0.0800 
 35 H        0.8220    -4.0560    -0.7440 H     1 <1>   0.0800 
 36 H        1.8480    -4.7920     0.4680 H     1 <1>   0.0800 
 37 H        2.9220    -1.0160    -1.0730 H     1 <1>   0.0800 
 38 H        1.4840    -1.7930    -1.6900 H     1 <1>   0.0800 
 39 H       -3.5870     0.9800     0.1990 H     1 <1>   0.4000 
 40 H       -3.5360    -1.6620    -1.3530 H     1 <1>   0.4000 
 41 H       -2.8560    -2.1650     1.8840 H     1 <1>   0.0800 
 42 H       -3.5810    -2.8600     0.4650 H     1 <1>   0.0800 
 43 H       -4.1830    -1.3510     1.1170 H     1 <1>   0.0800 
 44 H        3.1500    -2.7680     0.5320 H     1 <1>   0.4500 
 45 H        3.6740    -4.6420    -0.9340 H     1 <1>   0.0800 
 46 H        3.0560    -3.6640    -2.2500 H     1 <1>   0.0800 
 47 H        4.7280    -1.9450    -1.8140 H     1 <1>   0.1500 
 48 H        5.9200    -4.1970    -0.1020 H     1 <1>   0.1500 
 49 H        6.8150    -1.2400    -2.2350 H     1 <1>   0.1500 
 50 H        7.9310    -3.7530     1.0250 H     1 <1>   0.1500 
 51 H        8.9810    -0.1220    -2.1000 H     1 <1>   0.1500 
 52 H       10.0790    -2.6490     1.1490 H     1 <1>   0.1500 
 53 H       12.7120    -0.2760     0.2430 H     1 <1>   0.0800 
 54 H       12.1860    -1.9560     0.2850 H     1 <1>   0.0800 
 55 H       11.5220    -0.7830     1.4380 H     1 <1>   0.0800 
@<TRIPOS>BOND
  1   1   2  1   
  2   1   3  1   
  3   2   4  1   
  4   2   5  1   
  5   2   6  1   
  6   3   7  1   
  7   3  26  1   
  8   3  27  1   
  9   4   8  1   
 10   4  28  1   
 11   4  29  1   
 12   5   9  1   
 13   5  30  1   
 14   5  31  1   
 15   6  10  1   
 16   6  32  1   
 17   6  33  1   
 18   7   8  1   
 19   7  11  1   
 20   7  34  1   
 21   8  12  1   
 22   8  13  1   
 23   9  14  1   
 24   9  35  1   
 25   9  36  1   
 26  10  14  1   
 27  10  37  1   
 28  10  38  1   
 29  11  39  1   
 30  12  40  1   
 31  13  41  1   
 32  13  42  1   
 33  13  43  1   
 34  14  15  1   
 35  14  44  1   
 36  15  16  1   
 37  15  45  1   
 38  15  46  1   
 39  16  17  2   
 40  16  47  1   
 41  17  18  1   
 42  17  48  1   
 43  18  19  ar  
 44  18  20  ar  
 45  19  21  ar  
 46  19  49  1   
 47  20  22  ar  
 48  20  50  1   
 49  21  23  ar  
 50  21  51  1   
 51  22  23  ar  
 52  22  52  1   
 53  23  24  1   
 54  24  25  1   
 55  25  53  1   
 56  25  54  1   
 57  25  55  1   
@<TRIPOS>SUBSTRUCTURE
  1 ****  10 GROUP 4 **** **** 0

# MOE 2024.06 (io_trps.svl 2023.06)
