@<TRIPOS>MOLECULE
NONAME
44 46 1 0 0 
SMALL
USER_CHARGES


@<TRIPOS>ATOM
  1 O        0.2820    -0.1160    -0.2940 O.3   1 <1>  -0.5600 
  2 C        1.4520     0.4570    -0.7600 C.3   1 <1>   0.2000 
  3 C       -0.0150    -1.3960    -0.7970 C.3   1 <1>   0.2640 
  4 C        2.5980     0.0210     0.1580 C.3   1 <1>  -0.1600 
  5 C        1.2410     1.9690    -0.7020 C.3   1 <1>  -0.1600 
  6 C       -1.2040    -2.0330    -0.0840 C.ar  1 <1>   0.1660 
  7 C        3.8650     0.8260    -0.1140 C.3   1 <1>   0.3430 
  8 C        2.5400     2.7240    -0.9600 C.3   1 <1>   0.3430 
  9 N       -1.3290    -3.3420    -0.2600 N.ar  1 <1>  -0.6200 
 10 C       -2.0810    -1.2730     0.6810 C.ar  1 <1>  -0.1500 
 11 N        3.5760     2.2840     0.0220 N.4   1 <1>  -0.9590 
 12 C       -2.3570    -3.9110     0.3510 C.ar  1 <1>   0.1600 
 13 C       -3.1460    -1.8800     1.3110 C.ar  1 <1>  -0.1500 
 14 C        4.8460     3.0720    -0.0910 C.3   1 <1>   0.3430 
 15 C       -3.2780    -3.2390     1.1340 C.ar  1 <1>  -0.1500 
 16 C        4.6780     4.5270     0.3560 C.3   1 <1>   0.0210 
 17 C        6.0320     5.2010     0.3210 C.2   1 <1>  -0.1810 
 18 C        7.0550     5.0580     1.2550 C.2   1 <1>   0.1390 
 19 C        6.5270     6.0530    -0.6020 C.2   1 <1>  -0.3020 
 20 N        8.1030     5.7480     0.9390 N.2   1 <1>  -0.7070 
 21 N        7.7760     6.3730    -0.2070 N.pl3 1 <1>   0.3000 
 22 H        1.6250     0.1480    -1.7790 H     1 <1>   0.0800 
 23 H        0.8420    -2.0310    -0.6640 H     1 <1>   0.0800 
 24 H       -0.2350    -1.3110    -1.8460 H     1 <1>   0.0800 
 25 H        2.8140    -1.0200     0.0000 H     1 <1>   0.0800 
 26 H        2.3110     0.1490     1.1870 H     1 <1>   0.0800 
 27 H        0.8530     2.2490     0.2620 H     1 <1>   0.0800 
 28 H        0.5170     2.2510    -1.4460 H     1 <1>   0.0800 
 29 H        4.2210     0.6150    -1.1100 H     1 <1>   0.0800 
 30 H        4.6290     0.5330     0.5880 H     1 <1>   0.0800 
 31 H        2.3570     3.7820    -0.8640 H     1 <1>   0.0800 
 32 H        2.8800     2.5290    -1.9650 H     1 <1>   0.0800 
 33 H       -1.9350    -0.2140     0.7870 H     1 <1>   0.1500 
 34 H        3.1880     2.4240     0.9660 H     1 <1>   0.4500 
 35 H       -2.4710    -4.9740     0.2190 H     1 <1>   0.1500 
 36 H       -3.8400    -1.3170     1.9110 H     1 <1>   0.1500 
 37 H        5.2040     3.0540    -1.1080 H     1 <1>   0.0800 
 38 H        5.6030     2.6190     0.5290 H     1 <1>   0.0800 
 39 H       -4.0870    -3.7750     1.5970 H     1 <1>   0.1500 
 40 H        4.2920     4.5740     1.3590 H     1 <1>   0.0800 
 41 H        4.0150     5.0550    -0.3040 H     1 <1>   0.0800 
 42 H        7.0060     4.4520     2.1460 H     1 <1>   0.1500 
 43 H        6.0820     6.4500    -1.4970 H     1 <1>   0.1500 
 44 H        8.4260     7.0090    -0.6870 H     1 <1>   0.2700 
@<TRIPOS>BOND
  1   1   2  1   
  2   1   3  1   
  3   2   4  1   
  4   2   5  1   
  5   2  22  1   
  6   3   6  1   
  7   3  23  1   
  8   3  24  1   
  9   4   7  1   
 10   4  25  1   
 11   4  26  1   
 12   5   8  1   
 13   5  27  1   
 14   5  28  1   
 15   6   9  ar  
 16   6  10  ar  
 17   7  11  1   
 18   7  29  1   
 19   7  30  1   
 20   8  11  1   
 21   8  31  1   
 22   8  32  1   
 23   9  12  ar  
 24  10  13  ar  
 25  10  33  1   
 26  11  14  1   
 27  11  34  1   
 28  12  15  ar  
 29  12  35  1   
 30  13  15  ar  
 31  13  36  1   
 32  14  16  1   
 33  14  37  1   
 34  14  38  1   
 35  15  39  1   
 36  16  17  1   
 37  16  40  1   
 38  16  41  1   
 39  17  18  1   
 40  17  19  2   
 41  18  20  2   
 42  18  42  1   
 43  19  21  1   
 44  19  43  1   
 45  20  21  1   
 46  21  44  1   
@<TRIPOS>SUBSTRUCTURE
  1 ****   4 GROUP 4 **** **** 0

# MOE 2024.06 (io_trps.svl 2023.06)
