@<TRIPOS>MOLECULE
NONAME
41 43 1 0 0 
SMALL
USER_CHARGES


@<TRIPOS>ATOM
  1 O       -0.4810    -0.6460    -0.6470 O.2   1 <1>  -0.5700 
  2 C       -1.5340    -0.0710    -0.5160 C.2   1 <1>   0.5690 
  3 N       -1.8480     1.0810    -1.1290 N.am  1 <1>  -0.7300 
  4 C       -2.6980    -0.5610     0.3370 C.3   1 <1>   0.2810 
  5 C       -3.2120     1.5460    -0.8550 C.3   1 <1>   0.1400 
  6 N       -3.0670    -1.9780     0.0760 N.am  1 <1>  -0.7300 
  7 C       -3.8450     0.3850    -0.0690 C.3   1 <1>  -0.1600 
  8 C       -3.8810    -2.7240     0.8760 C.2   1 <1>   0.5440 
  9 O       -4.4650    -2.1570     1.7810 O.2   1 <1>  -0.5700 
 10 C       -4.0100    -4.1420     0.6460 C.ar  1 <1>   0.0860 
 11 C       -5.2690    -4.7640     0.4090 C.ar  1 <1>   0.0000 
 12 C       -2.8710    -4.9240     0.6400 C.ar  1 <1>  -0.1500 
 13 C       -5.3260    -6.1610     0.1740 C.ar  1 <1>   0.0000 
 14 C       -6.4850    -4.0400     0.3900 C.ar  1 <1>  -0.1500 
 15 C       -2.9260    -6.2870     0.3930 C.ar  1 <1>  -0.1500 
 16 C       -4.1220    -6.9210     0.1470 C.ar  1 <1>   0.1000 
 17 C       -6.5920    -6.7570    -0.0170 C.ar  1 <1>  -0.1500 
 18 C       -7.6910    -4.6480     0.1810 C.ar  1 <1>  -0.1500 
 19 N       -4.1230    -8.2780    -0.1400 N.pl3 1 <1>  -0.8380 
 20 C       -7.7470    -6.0260    -0.0190 C.ar  1 <1>  -0.1500 
 21 C       -3.4590    -9.2500     0.7660 C.3   1 <1>   0.1290 
 22 C       -4.3590    -8.7330    -1.5340 C.3   1 <1>   0.1290 
 23 H       -1.2000     1.5650    -1.7550 H     1 <1>   0.3700 
 24 H       -2.4490    -0.4310     1.3750 H     1 <1>   0.0800 
 25 H       -3.7430     1.7330    -1.7740 H     1 <1>   0.0800 
 26 H       -3.1770     2.4440    -0.2600 H     1 <1>   0.0800 
 27 H       -2.4790    -2.4410    -0.6230 H     1 <1>   0.3700 
 28 H       -4.3690     0.7460     0.7980 H     1 <1>   0.0800 
 29 H       -4.5460    -0.1260    -0.7050 H     1 <1>   0.0800 
 30 H       -1.9130    -4.4730     0.8300 H     1 <1>   0.1500 
 31 H       -6.4680    -2.9770     0.5500 H     1 <1>   0.1500 
 32 H       -2.0150    -6.8570     0.3820 H     1 <1>   0.1500 
 33 H       -6.6380    -7.8200    -0.1590 H     1 <1>   0.1500 
 34 H       -8.6040    -4.0770     0.1750 H     1 <1>   0.1500 
 35 H       -8.7020    -6.5000    -0.1710 H     1 <1>   0.1500 
 36 H       -3.3120    -8.8050     1.7360 H     1 <1>   0.0800 
 37 H       -2.5040    -9.5370     0.3620 H     1 <1>   0.0800 
 38 H       -4.0770   -10.1230     0.8780 H     1 <1>   0.0800 
 39 H       -4.7360    -7.9180    -2.1280 H     1 <1>   0.0800 
 40 H       -5.0810    -9.5310    -1.5390 H     1 <1>   0.0800 
 41 H       -3.4390    -9.0820    -1.9680 H     1 <1>   0.0800 
@<TRIPOS>BOND
  1   1   2  2   
  2   2   3  am  
  3   2   4  1   
  4   3   5  1   
  5   3  23  1   
  6   4   6  1   
  7   4   7  1   
  8   4  24  1   
  9   5   7  1   
 10   5  25  1   
 11   5  26  1   
 12   6   8  am  
 13   6  27  1   
 14   7  28  1   
 15   7  29  1   
 16   8   9  2   
 17   8  10  1   
 18  10  11  ar  
 19  10  12  ar  
 20  11  13  ar  
 21  11  14  ar  
 22  12  15  ar  
 23  12  30  1   
 24  13  16  ar  
 25  13  17  ar  
 26  14  18  ar  
 27  14  31  1   
 28  15  16  ar  
 29  15  32  1   
 30  16  19  1   
 31  17  20  ar  
 32  17  33  1   
 33  18  20  ar  
 34  18  34  1   
 35  19  21  1   
 36  19  22  1   
 37  20  35  1   
 38  21  36  1   
 39  21  37  1   
 40  21  38  1   
 41  22  39  1   
 42  22  40  1   
 43  22  41  1   
@<TRIPOS>SUBSTRUCTURE
  1 ****  10 GROUP 4 **** **** 0

# MOE 2024.06 (io_trps.svl 2023.06)
