@<TRIPOS>MOLECULE
NONAME
52 55 1 0 0 
SMALL
USER_CHARGES


@<TRIPOS>ATOM
  1 O       -1.0840    -1.7600     2.2460 O.2   1 <1>  -0.5700 
  2 C       -1.6180    -1.5360     1.1740 C.2   1 <1>   0.7160 
  3 N       -1.3350    -2.3570     0.0960 N.am  1 <1>  -0.6600 
  4 C       -2.4750    -0.3680     1.0460 C.2   1 <1>   0.1410 
  5 C        0.0340    -2.9000    -0.2170 C.3   1 <1>   0.2200 
  6 C       -2.2870    -2.5140    -1.0380 C.3   1 <1>   0.1400 
  7 N       -3.8330    -0.3790     0.8570 N.2   1 <1>  -0.5650 
  8 C       -2.0850     0.9270     1.0920 C.2   1 <1>  -0.0400 
  9 C       -0.0170    -4.4200    -0.5300 C.3   1 <1>   0.0000 
 10 C        1.1620    -2.5790     0.7780 C.3   1 <1>   0.1400 
 11 C       -2.3750    -3.9880    -1.4530 C.3   1 <1>  -0.1600 
 12 C       -4.1410     0.8640     0.8140 C.2   1 <1>   0.3280 
 13 O       -3.1290     1.6850     0.9460 O.3   1 <1>  -0.2800 
 14 C       -0.7200     1.5630     1.2690 C.3   1 <1>  -0.0600 
 15 C        1.3980    -4.8990    -0.9830 C.3   1 <1>  -0.1600 
 16 C       -0.9900    -4.6050    -1.7230 C.3   1 <1>  -0.1600 
 17 C       -0.5800    -5.2380     0.6730 C.3   1 <1>   0.1200 
 18 N        2.4550    -2.9530     0.1360 N.am  1 <1>  -0.6600 
 19 C        2.5780    -4.4120    -0.1140 C.3   1 <1>   0.1400 
 20 O        0.3860    -5.6190     1.5930 O.3   1 <1>  -0.6800 
 21 C        3.4110    -2.0420    -0.2830 C.2   1 <1>   0.7160 
 22 O        4.5350    -2.4620    -0.5050 O.2   1 <1>  -0.5700 
 23 C        3.1420    -0.6210    -0.4780 C.2   1 <1>   0.2030 
 24 N        2.0030    -0.0420    -0.7400 N.2   1 <1>  -0.4100 
 25 C        4.1170     0.3650    -0.4350 C.2   1 <1>  -0.1500 
 26 O        2.1610     1.2530    -0.8590 O.3   1 <1>  -0.0190 
 27 C        3.4410     1.4910    -0.6770 C.2   1 <1>  -0.0400 
 28 C        3.9340     2.9200    -0.7670 C.3   1 <1>  -0.0600 
 29 H        0.3310    -2.4040    -1.1260 H     1 <1>   0.0800 
 30 H       -3.2710    -2.1800    -0.7630 H     1 <1>   0.0800 
 31 H       -1.9470    -1.9170    -1.8670 H     1 <1>   0.0800 
 32 H        1.0340    -3.1460     1.6840 H     1 <1>   0.0800 
 33 H        1.1550    -1.5390     1.0410 H     1 <1>   0.0800 
 34 H       -2.8840    -4.5340    -0.6780 H     1 <1>   0.0800 
 35 H       -2.9780    -4.0630    -2.3410 H     1 <1>   0.0800 
 36 H       -5.1260     1.2780     0.6820 H     1 <1>   0.1500 
 37 H        0.0350     0.8090     1.3950 H     1 <1>   0.0800 
 38 H       -0.7250     2.1970     2.1370 H     1 <1>   0.0800 
 39 H       -0.4780     2.1540     0.4050 H     1 <1>   0.0800 
 40 H        1.5900    -4.5330    -1.9770 H     1 <1>   0.0800 
 41 H        1.4200    -5.9720    -1.0420 H     1 <1>   0.0800 
 42 H       -0.5810    -4.1270    -2.5970 H     1 <1>   0.0800 
 43 H       -1.1010    -5.6500    -1.9530 H     1 <1>   0.0800 
 44 H       -1.0470    -6.1420     0.3250 H     1 <1>   0.0800 
 45 H       -1.3210    -4.6690     1.2080 H     1 <1>   0.0800 
 46 H        3.5030    -4.6320    -0.6200 H     1 <1>   0.0800 
 47 H        2.6040    -4.9210     0.8330 H     1 <1>   0.0800 
 48 H        0.9630    -6.3090     1.2170 H     1 <1>   0.4000 
 49 H        5.1630     0.2020    -0.2500 H     1 <1>   0.1500 
 50 H        4.9950     2.9590    -0.5990 H     1 <1>   0.0800 
 51 H        3.4410     3.5230    -0.0260 H     1 <1>   0.0800 
 52 H        3.7200     3.3190    -1.7420 H     1 <1>   0.0800 
@<TRIPOS>BOND
  1   1   2  2   
  2   2   3  am  
  3   2   4  1   
  4   3   5  1   
  5   3   6  1   
  6   4   7  1   
  7   4   8  2   
  8   5   9  1   
  9   5  10  1   
 10   5  29  1   
 11   6  11  1   
 12   6  30  1   
 13   6  31  1   
 14   7  12  2   
 15   8  13  1   
 16   8  14  1   
 17   9  15  1   
 18   9  16  1   
 19   9  17  1   
 20  10  18  1   
 21  10  32  1   
 22  10  33  1   
 23  11  16  1   
 24  11  34  1   
 25  11  35  1   
 26  12  13  1   
 27  12  36  1   
 28  14  37  1   
 29  14  38  1   
 30  14  39  1   
 31  15  19  1   
 32  15  40  1   
 33  15  41  1   
 34  16  42  1   
 35  16  43  1   
 36  17  20  1   
 37  17  44  1   
 38  17  45  1   
 39  18  19  1   
 40  18  21  am  
 41  19  46  1   
 42  19  47  1   
 43  20  48  1   
 44  21  22  2   
 45  21  23  1   
 46  23  24  2   
 47  23  25  1   
 48  24  26  1   
 49  25  27  2   
 50  25  49  1   
 51  26  27  1   
 52  27  28  1   
 53  28  50  1   
 54  28  51  1   
 55  28  52  1   
@<TRIPOS>SUBSTRUCTURE
  1 ****   5 GROUP 4 **** **** 0

# MOE 2024.06 (io_trps.svl 2023.06)
