@<TRIPOS>MOLECULE
NONAME
50 53 1 0 0 
SMALL
USER_CHARGES


@<TRIPOS>ATOM
  1 O        2.4740     1.0620     1.9550 O.co2 1 <1>  -0.9000 
  2 C        2.2670     0.6330     0.8100 C.2   1 <1>   0.9060 
  3 O        2.3890    -0.5630     0.5480 O.co2 1 <1>  -0.9000 
  4 C        2.1750     1.6200    -0.3640 C.3   1 <1>  -0.1060 
  5 C        3.5150     1.4140    -1.1060 C.3   1 <1>   0.2000 
  6 C        2.1030     3.1090     0.1130 C.3   1 <1>  -0.1600 
  7 C        0.9570     1.2590    -1.2530 C.3   1 <1>  -0.0160 
  8 O        3.6090     2.3010    -2.1810 O.3   1 <1>  -0.6800 
  9 C        4.7100     1.6740    -0.1490 C.3   1 <1>   0.3430 
 10 C        3.4650     3.7180     0.4950 C.3   1 <1>   0.3430 
 11 C       -0.3820     1.5870    -0.6010 C.ar  1 <1>  -0.1440 
 12 N        4.3760     2.6430     0.9580 N.4   1 <1>  -0.9590 
 13 C       -1.0990     2.7100    -0.9870 C.ar  1 <1>  -0.1500 
 14 C       -0.8990     0.7610     0.3850 C.ar  1 <1>  -0.1500 
 15 C        5.5460     3.1280     1.7310 C.3   1 <1>   0.5240 
 16 C       -2.3130     3.0070    -0.3910 C.ar  1 <1>  -0.1500 
 17 C       -2.1110     1.0560     0.9830 C.ar  1 <1>  -0.1500 
 18 C        6.4560     4.0100     0.8860 C.2   1 <1>   0.1080 
 19 C       -2.8200     2.1800     0.5960 C.ar  1 <1>  -0.1500 
 20 N        6.2410     5.2600     0.6660 N.2   1 <1>  -0.4100 
 21 C        7.6200     3.5910     0.2420 C.2   1 <1>  -0.1500 
 22 O        7.2160     5.6660    -0.0960 O.3   1 <1>  -0.0190 
 23 C        8.0540     4.7030    -0.3690 C.2   1 <1>   0.0550 
 24 C        9.2610     4.9760    -1.2470 C.3   1 <1>  -0.0150 
 25 C       10.5030     4.1490    -1.1420 C.3   1 <1>  -0.2000 
 26 C       10.4970     5.5710    -0.6550 C.3   1 <1>  -0.2000 
 27 H        3.5870     0.4140    -1.5030 H     1 <1>   0.0800 
 28 H        1.4330     3.1840     0.9520 H     1 <1>   0.0800 
 29 H        1.6890     3.7240    -0.6660 H     1 <1>   0.0800 
 30 H        1.0150     1.7870    -2.1870 H     1 <1>   0.0800 
 31 H        0.9780     0.2080    -1.4860 H     1 <1>   0.0800 
 32 H        2.9180     2.0960    -2.8420 H     1 <1>   0.4000 
 33 H        5.5410     2.0330    -0.7320 H     1 <1>   0.0800 
 34 H        4.9860     0.7320     0.2980 H     1 <1>   0.0800 
 35 H        3.3270     4.4580     1.2660 H     1 <1>   0.0800 
 36 H        3.9000     4.2000    -0.3670 H     1 <1>   0.0800 
 37 H        3.7700     2.0840     1.6170 H     1 <1>   0.4500 
 38 H       -0.7180     3.3610    -1.7530 H     1 <1>   0.1500 
 39 H       -0.3560    -0.1170     0.6960 H     1 <1>   0.1500 
 40 H        5.2000     3.7000     2.5760 H     1 <1>   0.0800 
 41 H        6.1050     2.2870     2.1050 H     1 <1>   0.0800 
 42 H       -2.8640     3.8790    -0.6950 H     1 <1>   0.1500 
 43 H       -2.4970     0.4090     1.7510 H     1 <1>   0.1500 
 44 H       -3.7610     2.4090     1.0630 H     1 <1>   0.1500 
 45 H        8.0540     2.6090     0.2430 H     1 <1>   0.1500 
 46 H        8.9760     5.3190    -2.2270 H     1 <1>   0.1000 
 47 H       10.5600     3.3640    -0.4090 H     1 <1>   0.1000 
 48 H       11.0460     3.9150    -2.0410 H     1 <1>   0.1000 
 49 H       11.0270     6.3190    -1.2190 H     1 <1>   0.1000 
 50 H       10.5210     5.7600     0.4040 H     1 <1>   0.1000 
@<TRIPOS>BOND
  1   1   2  ar  
  2   2   3  ar  
  3   2   4  1   
  4   4   5  1   
  5   4   6  1   
  6   4   7  1   
  7   5   8  1   
  8   5   9  1   
  9   5  27  1   
 10   6  10  1   
 11   6  28  1   
 12   6  29  1   
 13   7  11  1   
 14   7  30  1   
 15   7  31  1   
 16   8  32  1   
 17   9  12  1   
 18   9  33  1   
 19   9  34  1   
 20  10  12  1   
 21  10  35  1   
 22  10  36  1   
 23  11  13  ar  
 24  11  14  ar  
 25  12  15  1   
 26  12  37  1   
 27  13  16  ar  
 28  13  38  1   
 29  14  17  ar  
 30  14  39  1   
 31  15  18  1   
 32  15  40  1   
 33  15  41  1   
 34  16  19  ar  
 35  16  42  1   
 36  17  19  ar  
 37  17  43  1   
 38  18  20  2   
 39  18  21  1   
 40  19  44  1   
 41  20  22  1   
 42  21  23  2   
 43  21  45  1   
 44  22  23  1   
 45  23  24  1   
 46  24  25  1   
 47  24  26  1   
 48  24  46  1   
 49  25  26  1   
 50  25  47  1   
 51  25  48  1   
 52  26  49  1   
 53  26  50  1   
@<TRIPOS>SUBSTRUCTURE
  1 ****  10 GROUP 4 **** **** 0

# MOE 2024.06 (io_trps.svl 2023.06)
