@<TRIPOS>MOLECULE
NONAME
51 54 1 0 0 
SMALL
USER_CHARGES


@<TRIPOS>ATOM
  1 O        0.7000     0.4160    -1.6280 O.2   1 <1>  -0.5700 
  2 C        1.4850    -0.2210    -0.9680 C.2   1 <1>   0.5690 
  3 N        2.2980     0.3730    -0.0320 N.am  1 <1>  -0.6600 
  4 C        1.5200    -1.7150    -1.2130 C.3   1 <1>  -0.0990 
  5 C        3.2720    -0.3280     0.8540 C.3   1 <1>   0.1400 
  6 C        2.3260     1.8560     0.1120 C.3   1 <1>   0.1400 
  7 C        0.6780    -2.4590    -0.1680 C.3   1 <1>   0.1760 
  8 C        4.6850     0.1660     0.5460 C.3   1 <1>  -0.1600 
  9 C        3.7330     2.3760    -0.1960 C.3   1 <1>  -0.1600 
 10 N        1.0170    -3.9010    -0.1920 N.pl3 1 <1>   0.0480 
 11 C       -0.8310    -2.2710    -0.3830 C.3   1 <1>  -0.2400 
 12 C        4.7950     1.6950     0.6830 C.3   1 <1>   0.1000 
 13 C        1.5470    -4.6290     0.8170 C.2   1 <1>   0.0360 
 14 C        0.9030    -4.7730    -1.2120 C.2   1 <1>  -0.3020 
 15 C        6.1930     2.2040     0.3360 C.2   1 <1>   0.0060 
 16 N        1.7730    -5.8660     0.5150 N.2   1 <1>  -0.5650 
 17 C        1.3650    -5.9600    -0.7640 C.2   1 <1>   0.0770 
 18 N        6.5670     3.4840     0.5990 N.pl3 1 <1>   0.0330 
 19 N        7.1250     1.5030    -0.2150 N.2   1 <1>  -0.5650 
 20 C        7.8490     3.6000     0.1750 C.ar  1 <1>  -0.1520 
 21 C        8.1790     2.3580    -0.3290 C.ar  1 <1>   0.2270 
 22 C        8.7660     4.6540     0.1720 C.ar  1 <1>  -0.1500 
 23 C        9.4510     2.1400    -0.8530 C.ar  1 <1>  -0.1500 
 24 C       10.0240     4.4350    -0.3480 C.ar  1 <1>  -0.1440 
 25 C       10.3630     3.1740    -0.8600 C.ar  1 <1>  -0.1500 
 26 C       11.0620     5.5420    -0.3770 C.3   1 <1>  -0.0970 
 27 H        2.5380    -2.0530    -1.2000 H     1 <1>   0.0800 
 28 H        1.1310    -1.9090    -2.1960 H     1 <1>   0.0800 
 29 H        3.2320    -1.3940     0.7290 H     1 <1>   0.0800 
 30 H        3.0290    -0.1100     1.8810 H     1 <1>   0.0800 
 31 H        2.0460     2.1170     1.1180 H     1 <1>   0.0800 
 32 H        1.6210     2.3210    -0.5570 H     1 <1>   0.0800 
 33 H        0.9290    -2.0860     0.8100 H     1 <1>   0.0800 
 34 H        4.9480    -0.1290    -0.4560 H     1 <1>   0.0800 
 35 H        5.3850    -0.3030     1.2150 H     1 <1>   0.0800 
 36 H        3.7540     3.4390    -0.0450 H     1 <1>   0.0800 
 37 H        3.9530     2.1890    -1.2340 H     1 <1>   0.0800 
 38 H       -1.1230    -2.6110    -1.3610 H     1 <1>   0.0800 
 39 H       -1.0930    -1.2310    -0.2970 H     1 <1>   0.0800 
 40 H       -1.3840    -2.8190     0.3590 H     1 <1>   0.0800 
 41 H        4.6010     1.9480     1.7110 H     1 <1>   0.0800 
 42 H        1.7580    -4.2010     1.7810 H     1 <1>   0.1500 
 43 H        0.5080    -4.5120    -2.1770 H     1 <1>   0.1500 
 44 H        1.4270    -6.8920    -1.3010 H     1 <1>   0.1500 
 45 H        6.0060     4.2220     1.0270 H     1 <1>   0.2700 
 46 H        8.4830     5.6120     0.5700 H     1 <1>   0.1500 
 47 H        9.6880     1.1670    -1.2390 H     1 <1>   0.1500 
 48 H       11.3480     3.0150    -1.2630 H     1 <1>   0.1500 
 49 H       10.6690     6.4490     0.0460 H     1 <1>   0.0800 
 50 H       11.3590     5.7370    -1.3920 H     1 <1>   0.0800 
 51 H       11.9270     5.2460     0.1880 H     1 <1>   0.0800 
@<TRIPOS>BOND
  1   1   2  2   
  2   2   3  am  
  3   2   4  1   
  4   3   5  1   
  5   3   6  1   
  6   4   7  1   
  7   4  27  1   
  8   4  28  1   
  9   5   8  1   
 10   5  29  1   
 11   5  30  1   
 12   6   9  1   
 13   6  31  1   
 14   6  32  1   
 15   7  10  1   
 16   7  11  1   
 17   7  33  1   
 18   8  12  1   
 19   8  34  1   
 20   8  35  1   
 21   9  12  1   
 22   9  36  1   
 23   9  37  1   
 24  10  13  1   
 25  10  14  1   
 26  11  38  1   
 27  11  39  1   
 28  11  40  1   
 29  12  15  1   
 30  12  41  1   
 31  13  16  2   
 32  13  42  1   
 33  14  17  2   
 34  14  43  1   
 35  15  18  1   
 36  15  19  2   
 37  16  17  1   
 38  17  44  1   
 39  18  20  1   
 40  18  45  1   
 41  19  21  1   
 42  20  21  ar  
 43  20  22  ar  
 44  21  23  ar  
 45  22  24  ar  
 46  22  46  1   
 47  23  25  ar  
 48  23  47  1   
 49  24  25  ar  
 50  24  26  1   
 51  25  48  1   
 52  26  49  1   
 53  26  50  1   
 54  26  51  1   
@<TRIPOS>SUBSTRUCTURE
  1 ****   8 GROUP 4 **** **** 0

# MOE 2024.06 (io_trps.svl 2023.06)
