@<TRIPOS>MOLECULE
NONAME
46 48 1 0 0 
SMALL
USER_CHARGES


@<TRIPOS>ATOM
  1 O        0.2790    -0.0860    -0.9670 O.3   1 <1>  -0.5600 
  2 C        1.5480    -0.6970    -0.9820 C.3   1 <1>   0.2000 
  3 C        0.2780     1.3020    -1.1220 C.3   1 <1>   0.1200 
  4 C        2.4830    -0.0790     0.0930 C.3   1 <1>   0.5660 
  5 C        1.3670    -2.2040    -0.7330 C.3   1 <1>   0.1200 
  6 C        1.0660     1.9610     0.0230 C.3   1 <1>   0.3430 
  7 N        2.4610     1.4180     0.1100 N.4   1 <1>  -0.9590 
  8 C        3.9260    -0.5170    -0.1130 C.ar  1 <1>  -0.1440 
  9 O        1.0840    -2.4410     0.6110 O.3   1 <1>  -0.6800 
 10 C        3.2020     1.9590     1.2770 C.3   1 <1>   0.4870 
 11 C        4.5310    -1.3150     0.8480 C.ar  1 <1>  -0.1500 
 12 C        4.6560    -0.1300    -1.2320 C.ar  1 <1>  -0.1500 
 13 C        3.4720     3.4220     1.0010 C.ar  1 <1>  -0.1440 
 14 C        5.8490    -1.7100     0.7010 C.ar  1 <1>  -0.1500 
 15 C        5.9730    -0.5270    -1.3770 C.ar  1 <1>  -0.1500 
 16 C        4.4960     3.7800     0.1360 C.ar  1 <1>  -0.1500 
 17 C        2.7010     4.4090     1.5970 C.ar  1 <1>  -0.1500 
 18 C        6.5710    -1.3140    -0.4100 C.ar  1 <1>  -0.1500 
 19 C        4.7420     5.1130    -0.1480 C.ar  1 <1>  -0.1440 
 20 C        2.9440     5.7410     1.3140 C.ar  1 <1>  -0.1500 
 21 C        3.9580     6.0900     0.4410 C.ar  1 <1>  -0.1500 
 22 C        5.8610     5.5110    -1.0940 C.3   1 <1>  -0.0970 
 23 H        1.9600    -0.5570    -1.9650 H     1 <1>   0.0800 
 24 H        0.6970     1.5500    -2.0810 H     1 <1>   0.0800 
 25 H       -0.7470     1.6310    -1.1000 H     1 <1>   0.0800 
 26 H        2.1480    -0.4390     1.0520 H     1 <1>   0.0800 
 27 H        2.2690    -2.7390    -0.9790 H     1 <1>   0.0800 
 28 H        0.5570    -2.5840    -1.3320 H     1 <1>   0.0800 
 29 H        0.5420     1.7740     0.9460 H     1 <1>   0.0800 
 30 H        1.0960     3.0280    -0.1320 H     1 <1>   0.0800 
 31 H        2.9800     1.7340    -0.7130 H     1 <1>   0.4500 
 32 H        0.7330    -3.3480     0.7340 H     1 <1>   0.4000 
 33 H        2.6260     1.8430     2.1810 H     1 <1>   0.0800 
 34 H        4.1430     1.4460     1.3990 H     1 <1>   0.0800 
 35 H        3.9850    -1.6430     1.7180 H     1 <1>   0.1500 
 36 H        4.2190     0.4750    -2.0080 H     1 <1>   0.1500 
 37 H        6.3160    -2.3290     1.4490 H     1 <1>   0.1500 
 38 H        6.5400    -0.2280    -2.2440 H     1 <1>   0.1500 
 39 H        5.1160     3.0260    -0.3200 H     1 <1>   0.1500 
 40 H        1.9110     4.1600     2.2850 H     1 <1>   0.1500 
 41 H        7.5970    -1.6230    -0.5230 H     1 <1>   0.1500 
 42 H        2.3470     6.5110     1.7730 H     1 <1>   0.1500 
 43 H        4.1400     7.1300     0.2270 H     1 <1>   0.1500 
 44 H        6.3530     6.3980    -0.7350 H     1 <1>   0.0800 
 45 H        5.4620     5.7110    -2.0720 H     1 <1>   0.0800 
 46 H        6.5960     4.7290    -1.1710 H     1 <1>   0.0800 
@<TRIPOS>BOND
  1   1   2  1   
  2   1   3  1   
  3   2   4  1   
  4   2   5  1   
  5   2  23  1   
  6   3   6  1   
  7   3  24  1   
  8   3  25  1   
  9   4   7  1   
 10   4   8  1   
 11   4  26  1   
 12   5   9  1   
 13   5  27  1   
 14   5  28  1   
 15   6   7  1   
 16   6  29  1   
 17   6  30  1   
 18   7  10  1   
 19   7  31  1   
 20   8  11  ar  
 21   8  12  ar  
 22   9  32  1   
 23  10  13  1   
 24  10  33  1   
 25  10  34  1   
 26  11  14  ar  
 27  11  35  1   
 28  12  15  ar  
 29  12  36  1   
 30  13  16  ar  
 31  13  17  ar  
 32  14  18  ar  
 33  14  37  1   
 34  15  18  ar  
 35  15  38  1   
 36  16  19  ar  
 37  16  39  1   
 38  17  20  ar  
 39  17  40  1   
 40  18  41  1   
 41  19  21  ar  
 42  19  22  1   
 43  20  21  ar  
 44  20  42  1   
 45  21  43  1   
 46  22  44  1   
 47  22  45  1   
 48  22  46  1   
@<TRIPOS>SUBSTRUCTURE
  1 ****   7 GROUP 4 **** **** 0

# MOE 2024.06 (io_trps.svl 2023.06)
