@<TRIPOS>MOLECULE
NONAME
57 59 1 0 0 
SMALL
USER_CHARGES


@<TRIPOS>ATOM
  1 O       -0.2460     0.1120     0.0550 O.2   1 <1>  -0.5700 
  2 C        0.8390    -0.3940     0.2640 C.2   1 <1>   0.7160 
  3 N        1.8660     0.3980     0.6460 N.am  1 <1>  -0.7300 
  4 C        1.0180    -1.8200     0.1230 C.2   1 <1>  -0.0860 
  5 C        1.9210     1.8620     0.5050 C.3   1 <1>   0.3210 
  6 C        2.1200    -2.5940    -0.0920 C.2   1 <1>  -0.0400 
  7 C       -0.0420    -2.7470     0.1900 C.2   1 <1>  -0.1500 
  8 C        3.3680     2.2720     0.2370 C.2   1 <1>   0.1080 
  9 O        1.7980    -3.8640    -0.1410 O.3   1 <1>  -0.2800 
 10 C        3.5820    -2.2410    -0.2960 C.3   1 <1>  -0.0600 
 11 C        0.4980    -3.9720     0.0200 C.2   1 <1>  -0.0400 
 12 N        4.3740     1.4430     0.3070 N.2   1 <1>  -0.7070 
 13 C        3.7790     3.5610    -0.1060 C.2   1 <1>  -0.1810 
 14 C       -0.1020    -5.3650    -0.0210 C.3   1 <1>   0.5230 
 15 N        5.4520     2.1930     0.0100 N.pl3 1 <1>   0.3000 
 16 C        5.1170     3.4730    -0.2440 C.2   1 <1>  -0.3320 
 17 C        2.9240     4.8010    -0.2940 C.3   1 <1>   0.0210 
 18 N       -1.5900    -5.2950    -0.1630 N.4   1 <1>  -0.9590 
 19 C        6.1120     4.5580    -0.6090 C.3   1 <1>   0.0200 
 20 C        3.4120     5.9700     0.5720 C.3   1 <1>  -0.1600 
 21 C       -2.2390    -6.6020     0.1200 C.3   1 <1>   0.3430 
 22 C       -1.9540    -4.7700    -1.5090 C.3   1 <1>   0.3430 
 23 C        5.9850     5.7750     0.3160 C.3   1 <1>  -0.1600 
 24 C        4.7200     6.6190     0.0850 C.3   1 <1>  -0.1600 
 25 C       -2.2140    -6.8750     1.6200 C.3   1 <1>  -0.2400 
 26 C       -3.3660    -4.2000    -1.4670 C.3   1 <1>  -0.2400 
 27 H        2.8160     0.0220     0.7240 H     1 <1>   0.3700 
 28 H        1.5780     2.3200     1.4150 H     1 <1>   0.0800 
 29 H        1.2920     2.1770    -0.3090 H     1 <1>   0.0800 
 30 H       -1.0630    -2.4470     0.3490 H     1 <1>   0.1500 
 31 H        3.7140    -1.1890    -0.4620 H     1 <1>   0.0800 
 32 H        3.9630    -2.7630    -1.1550 H     1 <1>   0.0800 
 33 H        4.1530    -2.5340     0.5670 H     1 <1>   0.0800 
 34 H        0.1700    -5.8770     0.8860 H     1 <1>   0.0800 
 35 H        0.3200    -5.9060    -0.8520 H     1 <1>   0.0800 
 36 H        6.4020     1.8040    -0.0100 H     1 <1>   0.2700 
 37 H        1.9070     4.5800    -0.0260 H     1 <1>   0.0800 
 38 H        2.9320     5.0840    -1.3320 H     1 <1>   0.0800 
 39 H       -1.9130    -4.6140     0.5340 H     1 <1>   0.4500 
 40 H        5.9610     4.8550    -1.6320 H     1 <1>   0.0800 
 41 H        7.1110     4.1670    -0.5260 H     1 <1>   0.0800 
 42 H        3.5260     5.6390     1.5900 H     1 <1>   0.0800 
 43 H        2.6470     6.7260     0.5650 H     1 <1>   0.0800 
 44 H       -1.7380    -7.3950    -0.4140 H     1 <1>   0.0800 
 45 H       -3.2670    -6.5780    -0.2060 H     1 <1>   0.0800 
 46 H       -1.8870    -5.5520    -2.2490 H     1 <1>   0.0800 
 47 H       -1.2740    -3.9810    -1.7930 H     1 <1>   0.0800 
 48 H        6.8390     6.4070     0.1470 H     1 <1>   0.0800 
 49 H        6.0250     5.4510     1.3420 H     1 <1>   0.0800 
 50 H        4.8440     7.5430     0.6240 H     1 <1>   0.0800 
 51 H        4.6350     6.8740    -0.9580 H     1 <1>   0.0800 
 52 H       -1.2120    -7.0030     1.9870 H     1 <1>   0.0800 
 53 H       -2.7500    -7.7870     1.8180 H     1 <1>   0.0800 
 54 H       -2.7020    -6.0830     2.1610 H     1 <1>   0.0800 
 55 H       -4.0970    -4.9600    -1.2590 H     1 <1>   0.0800 
 56 H       -3.6010    -3.7760    -2.4280 H     1 <1>   0.0800 
 57 H       -3.4410    -3.4140    -0.7360 H     1 <1>   0.0800 
@<TRIPOS>BOND
  1   1   2  2   
  2   2   3  am  
  3   2   4  1   
  4   3   5  1   
  5   3  27  1   
  6   4   6  2   
  7   4   7  1   
  8   5   8  1   
  9   5  28  1   
 10   5  29  1   
 11   6   9  1   
 12   6  10  1   
 13   7  11  2   
 14   7  30  1   
 15   8  12  2   
 16   8  13  1   
 17   9  11  1   
 18  10  31  1   
 19  10  32  1   
 20  10  33  1   
 21  11  14  1   
 22  12  15  1   
 23  13  16  2   
 24  13  17  1   
 25  14  18  1   
 26  14  34  1   
 27  14  35  1   
 28  15  16  1   
 29  15  36  1   
 30  16  19  1   
 31  17  20  1   
 32  17  37  1   
 33  17  38  1   
 34  18  21  1   
 35  18  22  1   
 36  18  39  1   
 37  19  23  1   
 38  19  40  1   
 39  19  41  1   
 40  20  24  1   
 41  20  42  1   
 42  20  43  1   
 43  21  25  1   
 44  21  44  1   
 45  21  45  1   
 46  22  26  1   
 47  22  46  1   
 48  22  47  1   
 49  23  24  1   
 50  23  48  1   
 51  23  49  1   
 52  24  50  1   
 53  24  51  1   
 54  25  52  1   
 55  25  53  1   
 56  25  54  1   
 57  26  55  1   
 58  26  56  1   
 59  26  57  1   
@<TRIPOS>SUBSTRUCTURE
  1 ****   3 GROUP 4 **** **** 0

# MOE 2024.06 (io_trps.svl 2023.06)
