@<TRIPOS>MOLECULE
NONAME
55 59 1 0 0 
SMALL
USER_CHARGES


@<TRIPOS>ATOM
  1 O       -0.8780     5.9180    -1.2390 O.2   1 <1>  -0.5700 
  2 C       -0.7760     4.7790    -0.8090 C.2   1 <1>   0.5440 
  3 N       -1.9480     4.1230    -0.4650 N.am  1 <1>  -0.6600 
  4 C        0.5640     4.1960    -0.6590 C.ar  1 <1>   0.3960 
  5 C       -3.2910     4.6580    -0.8430 C.3   1 <1>   0.1400 
  6 C       -1.9860     2.9120     0.4130 C.3   1 <1>   0.1400 
  7 N        0.7690     2.8780    -0.7310 N.ar  1 <1>  -0.6200 
  8 C        1.6480     5.0300    -0.4460 C.ar  1 <1>  -0.1500 
  9 C       -4.0760     5.1140     0.4070 C.3   1 <1>   0.1440 
 10 C       -3.3080     2.8060     1.1950 C.3   1 <1>  -0.1600 
 11 C        2.0080     2.4590    -0.5880 C.ar  1 <1>   0.4770 
 12 C        2.8970     4.4810    -0.3070 C.ar  1 <1>   0.1660 
 13 C       -5.5440     5.1650     0.0220 C.ar  1 <1>   0.1660 
 14 C       -3.8120     4.1920     1.6280 C.3   1 <1>  -0.1600 
 15 C       -3.7790     6.5970     0.7500 C.3   1 <1>  -0.1600 
 16 N        3.0870     3.1860    -0.3740 N.ar  1 <1>  -0.6200 
 17 C        2.2310     0.9680    -0.6740 C.3   1 <1>  -0.0970 
 18 C        4.1180     5.3430    -0.0720 C.3   1 <1>  -0.0970 
 19 N       -6.3290     4.1250    -0.1270 N.ar  1 <1>  -0.6200 
 20 C       -5.9660     6.4440    -0.1740 C.ar  1 <1>  -0.1440 
 21 C       -4.8560     7.4410     0.0480 C.3   1 <1>  -0.0160 
 22 C       -7.5940     4.3930    -0.4780 C.ar  1 <1>   0.6200 
 23 C       -7.2740     6.6360    -0.5350 C.ar  1 <1>   0.1600 
 24 N       -8.0930     5.6200    -0.6870 N.ar  1 <1>  -0.6200 
 25 C       -8.4960     3.2610    -0.6460 C.ar  1 <1>   0.0000 
 26 C       -8.0270     1.9990    -1.0250 C.ar  1 <1>  -0.1500 
 27 C       -9.8720     3.3820    -0.4350 C.ar  1 <1>  -0.1500 
 28 C       -8.8800     0.9220    -1.1840 C.ar  1 <1>  -0.1500 
 29 C      -10.7320     2.3100    -0.5920 C.ar  1 <1>  -0.1500 
 30 C      -10.2370     1.0750    -0.9670 C.ar  1 <1>  -0.1500 
 31 H       -3.8340     3.8700    -1.3360 H     1 <1>   0.0800 
 32 H       -3.2060     5.4680    -1.5460 H     1 <1>   0.0800 
 33 H       -1.1740     2.9700     1.1170 H     1 <1>   0.0800 
 34 H       -1.8450     2.0300    -0.1890 H     1 <1>   0.0800 
 35 H        1.5030     6.0920    -0.3940 H     1 <1>   0.1500 
 36 H       -3.1600     2.1800     2.0570 H     1 <1>   0.0800 
 37 H       -4.0510     2.3300     0.5790 H     1 <1>   0.0800 
 38 H       -4.7070     4.0940     2.2170 H     1 <1>   0.0800 
 39 H       -3.0550     4.6310     2.2540 H     1 <1>   0.0800 
 40 H       -2.7850     6.8900     0.4590 H     1 <1>   0.0800 
 41 H       -3.8820     6.7480     1.8100 H     1 <1>   0.0800 
 42 H        1.3100     0.4580    -0.8910 H     1 <1>   0.0800 
 43 H        2.6200     0.6110     0.2600 H     1 <1>   0.0800 
 44 H        2.9390     0.7580    -1.4540 H     1 <1>   0.0800 
 45 H        3.8570     6.3840    -0.0380 H     1 <1>   0.0800 
 46 H        4.8260     5.1880    -0.8660 H     1 <1>   0.0800 
 47 H        4.5780     5.0680     0.8600 H     1 <1>   0.0800 
 48 H       -4.4960     7.8020    -0.9000 H     1 <1>   0.0800 
 49 H       -5.1730     8.2670     0.6600 H     1 <1>   0.0800 
 50 H       -7.6530     7.6300    -0.7020 H     1 <1>   0.1500 
 51 H       -6.9740     1.8600    -1.1990 H     1 <1>   0.1500 
 52 H      -10.2760     4.3360    -0.1420 H     1 <1>   0.1500 
 53 H       -8.4880    -0.0370    -1.4760 H     1 <1>   0.1500 
 54 H      -11.7870     2.4370    -0.4220 H     1 <1>   0.1500 
 55 H      -10.9030     0.2390    -1.0900 H     1 <1>   0.1500 
@<TRIPOS>BOND
  1   1   2  2   
  2   2   3  am  
  3   2   4  1   
  4   3   5  1   
  5   3   6  1   
  6   4   7  ar  
  7   4   8  ar  
  8   5   9  1   
  9   5  31  1   
 10   5  32  1   
 11   6  10  1   
 12   6  33  1   
 13   6  34  1   
 14   7  11  ar  
 15   8  12  ar  
 16   8  35  1   
 17   9  13  1   
 18   9  14  1   
 19   9  15  1   
 20  10  14  1   
 21  10  36  1   
 22  10  37  1   
 23  11  16  ar  
 24  11  17  1   
 25  12  16  ar  
 26  12  18  1   
 27  13  19  ar  
 28  13  20  ar  
 29  14  38  1   
 30  14  39  1   
 31  15  21  1   
 32  15  40  1   
 33  15  41  1   
 34  17  42  1   
 35  17  43  1   
 36  17  44  1   
 37  18  45  1   
 38  18  46  1   
 39  18  47  1   
 40  19  22  ar  
 41  20  21  1   
 42  20  23  ar  
 43  21  48  1   
 44  21  49  1   
 45  22  24  ar  
 46  22  25  1   
 47  23  24  ar  
 48  23  50  1   
 49  25  26  ar  
 50  25  27  ar  
 51  26  28  ar  
 52  26  51  1   
 53  27  29  ar  
 54  27  52  1   
 55  28  30  ar  
 56  28  53  1   
 57  29  30  ar  
 58  29  54  1   
 59  30  55  1   
@<TRIPOS>SUBSTRUCTURE
  1 ****   5 GROUP 4 **** **** 0

# MOE 2024.06 (io_trps.svl 2023.06)
