@<TRIPOS>MOLECULE
NONAME
45 47 1 0 0 
SMALL
USER_CHARGES


@<TRIPOS>ATOM
  1 O       -0.2220    -2.1350    -2.5270 O.co2 1 <1>  -0.9000 
  2 C        0.8900    -2.3890    -2.0090 C.2   1 <1>   0.9790 
  3 O        1.8990    -1.9770    -2.6180 O.co2 1 <1>  -0.9000 
  4 C        0.9590    -3.1650    -0.7490 C.ar  1 <1>   0.1310 
  5 N        2.1070    -3.3100    -0.0440 N.ar  1 <1>  -0.6200 
  6 C       -0.2170    -3.7610    -0.2940 C.ar  1 <1>  -0.1500 
  7 C        2.0520    -4.0250     1.0640 C.ar  1 <1>   0.1600 
  8 C       -0.2710    -4.5150     0.8640 C.ar  1 <1>   0.1000 
  9 C        0.9180    -4.6360     1.5520 C.ar  1 <1>  -0.1500 
 10 N       -1.4260    -5.1370     1.3220 N.pl3 1 <1>  -0.8380 
 11 C       -1.5150    -6.6180     1.1230 C.3   1 <1>   0.2090 
 12 C       -2.7480    -4.4480     1.1610 C.3   1 <1>   0.2090 
 13 C       -2.3500    -6.9790    -0.1210 C.3   1 <1>   0.3440 
 14 C       -3.5570    -4.9660    -0.0580 C.3   1 <1>   0.2000 
 15 O       -3.6110    -6.3690    -0.0440 O.3   1 <1>  -0.5600 
 16 C       -2.5200    -8.4910    -0.2360 C.ar  1 <1>  -0.1440 
 17 C       -5.0050    -4.4240    -0.0990 C.3   1 <1>  -0.0800 
 18 C       -3.5230    -9.1590     0.4540 C.ar  1 <1>  -0.1500 
 19 C       -1.6510    -9.2210    -1.0350 C.ar  1 <1>  -0.1500 
 20 C       -5.7890    -4.9930    -1.2950 C.3   1 <1>  -0.2400 
 21 C       -5.0420    -2.8880    -0.1750 C.3   1 <1>  -0.2400 
 22 C       -3.6520   -10.5330     0.3520 C.ar  1 <1>  -0.1500 
 23 C       -1.7780   -10.5960    -1.1380 C.ar  1 <1>  -0.1500 
 24 C       -2.7790   -11.2530    -0.4440 C.ar  1 <1>  -0.1500 
 25 H       -1.1050    -3.6300    -0.8780 H     1 <1>   0.1500 
 26 H        2.9710    -4.1260     1.6130 H     1 <1>   0.1500 
 27 H        0.9450    -5.2010     2.4630 H     1 <1>   0.1500 
 28 H       -0.5270    -7.0300     1.0110 H     1 <1>   0.0800 
 29 H       -1.9620    -7.0660     1.9910 H     1 <1>   0.0800 
 30 H       -3.3260    -4.6000     2.0550 H     1 <1>   0.0800 
 31 H       -2.5810    -3.3900     1.0610 H     1 <1>   0.0800 
 32 H       -1.8550    -6.6090    -1.0020 H     1 <1>   0.0800 
 33 H       -3.0590    -4.6680    -0.9650 H     1 <1>   0.0800 
 34 H       -5.5020    -4.7270     0.8070 H     1 <1>   0.0800 
 35 H       -4.2090    -8.6050     1.0720 H     1 <1>   0.1500 
 36 H       -0.8680    -8.7220    -1.5810 H     1 <1>   0.1500 
 37 H       -5.3070    -4.7300    -2.2200 H     1 <1>   0.0800 
 38 H       -6.7940    -4.6100    -1.3050 H     1 <1>   0.0800 
 39 H       -5.8430    -6.0660    -1.2330 H     1 <1>   0.0800 
 40 H       -4.4880    -2.5400    -1.0310 H     1 <1>   0.0800 
 41 H       -4.6220    -2.4440     0.7090 H     1 <1>   0.0800 
 42 H       -6.0560    -2.5420    -0.2640 H     1 <1>   0.0800 
 43 H       -4.4330   -11.0400     0.8910 H     1 <1>   0.1500 
 44 H       -1.1000   -11.1550    -1.7600 H     1 <1>   0.1500 
 45 H       -2.8790   -12.3210    -0.5240 H     1 <1>   0.1500 
@<TRIPOS>BOND
  1   1   2  ar  
  2   2   3  ar  
  3   2   4  1   
  4   4   5  ar  
  5   4   6  ar  
  6   5   7  ar  
  7   6   8  ar  
  8   6  25  1   
  9   7   9  ar  
 10   7  26  1   
 11   8   9  ar  
 12   8  10  1   
 13   9  27  1   
 14  10  11  1   
 15  10  12  1   
 16  11  13  1   
 17  11  28  1   
 18  11  29  1   
 19  12  14  1   
 20  12  30  1   
 21  12  31  1   
 22  13  15  1   
 23  13  16  1   
 24  13  32  1   
 25  14  15  1   
 26  14  17  1   
 27  14  33  1   
 28  16  18  ar  
 29  16  19  ar  
 30  17  20  1   
 31  17  21  1   
 32  17  34  1   
 33  18  22  ar  
 34  18  35  1   
 35  19  23  ar  
 36  19  36  1   
 37  20  37  1   
 38  20  38  1   
 39  20  39  1   
 40  21  40  1   
 41  21  41  1   
 42  21  42  1   
 43  22  24  ar  
 44  22  43  1   
 45  23  24  ar  
 46  23  44  1   
 47  24  45  1   
@<TRIPOS>SUBSTRUCTURE
  1 ****  13 GROUP 4 **** **** 0

# MOE 2024.06 (io_trps.svl 2023.06)
