@<TRIPOS>MOLECULE
NONAME
47 50 1 0 0 
SMALL
USER_CHARGES


@<TRIPOS>ATOM
  1 CL      -1.2450    -1.0370     2.5980 Cl    1 <1>  -0.1770 
  2 C       -2.6250    -1.0360     1.5300 C.ar  1 <1>   0.1770 
  3 C       -3.3700     0.1140     1.3840 C.ar  1 <1>  -0.1500 
  4 C       -2.9470    -2.1910     0.8450 C.ar  1 <1>  -0.1500 
  5 C       -4.4830     0.1450     0.5430 C.ar  1 <1>   0.0860 
  6 C       -4.0390    -2.1850    -0.0020 C.ar  1 <1>  -0.1500 
  7 C       -5.2380     1.3770     0.4240 C.2   1 <1>   0.5440 
  8 C       -4.8080    -1.0300    -0.1550 C.ar  1 <1>   0.0830 
  9 O       -4.6530     2.4420     0.3620 O.2   1 <1>  -0.5700 
 10 N       -6.6040     1.3900     0.4090 N.am  1 <1>  -0.7300 
 11 O       -5.8770    -1.0080    -0.9880 O.3   1 <1>  -0.3630 
 12 C       -7.4320     2.5940     0.1860 C.3   1 <1>   0.2200 
 13 C       -6.5630    -2.1840    -1.3600 C.3   1 <1>   0.1200 
 14 C       -8.7260     2.5580     1.0030 C.3   1 <1>   0.1400 
 15 C       -7.8630     2.6610    -1.2770 C.3   1 <1>  -0.1600 
 16 C       -7.9950    -1.8190    -1.7650 C.3   1 <1>   0.0960 
 17 N       -9.8340     2.7440     0.0270 N.am  1 <1>  -0.6600 
 18 C       -9.2770     3.2250    -1.2510 C.3   1 <1>   0.1400 
 19 N       -8.7990    -1.2990    -0.6360 N.pl3 1 <1>   0.3140 
 20 C      -11.1180     2.2830     0.1330 C.2   1 <1>   0.5690 
 21 N       -8.4150    -1.2970     0.6490 N.2   1 <1>  -0.4180 
 22 C      -10.0450    -0.8320    -0.7170 C.2   1 <1>  -0.3020 
 23 O      -11.9230     2.4460    -0.7530 O.2   1 <1>  -0.5700 
 24 C      -11.5900     1.5200     1.3580 C.3   1 <1>  -0.0990 
 25 N       -9.3820    -0.8460     1.3670 N.2   1 <1>  -0.2270 
 26 C      -10.3950    -0.5520     0.5460 C.2   1 <1>   0.0460 
 27 C      -11.7070     0.0220     1.0470 C.3   1 <1>   0.0210 
 28 H       -3.0890     1.0000     1.9260 H     1 <1>   0.1500 
 29 H       -2.3460    -3.0730     0.9750 H     1 <1>   0.1500 
 30 H       -4.2700    -3.0840    -0.5410 H     1 <1>   0.1500 
 31 H       -7.1120     0.4950     0.4520 H     1 <1>   0.3700 
 32 H       -6.8780     3.4800     0.4490 H     1 <1>   0.0800 
 33 H       -6.5790    -2.8670    -0.5280 H     1 <1>   0.0800 
 34 H       -6.0360    -2.6270    -2.1860 H     1 <1>   0.0800 
 35 H       -8.7350     3.3680     1.7110 H     1 <1>   0.0800 
 36 H       -8.8170     1.6250     1.5240 H     1 <1>   0.0800 
 37 H       -7.8970     1.6740    -1.7040 H     1 <1>   0.0800 
 38 H       -7.2020     3.2780    -1.8570 H     1 <1>   0.0800 
 39 H       -8.4890    -2.6960    -2.1400 H     1 <1>   0.0800 
 40 H       -7.9730    -1.0810    -2.5440 H     1 <1>   0.0800 
 41 H       -9.8560     2.8790    -2.0920 H     1 <1>   0.0800 
 42 H       -9.2590     4.3010    -1.2440 H     1 <1>   0.0800 
 43 H      -10.5950    -0.7220    -1.6320 H     1 <1>   0.1500 
 44 H      -12.5550     1.8980     1.6370 H     1 <1>   0.0800 
 45 H      -10.9300     1.6730     2.1890 H     1 <1>   0.0800 
 46 H      -12.4580    -0.1200     0.2890 H     1 <1>   0.0800 
 47 H      -12.0170    -0.5130     1.9260 H     1 <1>   0.0800 
@<TRIPOS>BOND
  1   1   2  1   
  2   2   3  ar  
  3   2   4  ar  
  4   3   5  ar  
  5   3  28  1   
  6   4   6  ar  
  7   4  29  1   
  8   5   7  1   
  9   5   8  ar  
 10   6   8  ar  
 11   6  30  1   
 12   7   9  2   
 13   7  10  am  
 14   8  11  1   
 15  10  12  1   
 16  10  31  1   
 17  11  13  1   
 18  12  14  1   
 19  12  15  1   
 20  12  32  1   
 21  13  16  1   
 22  13  33  1   
 23  13  34  1   
 24  14  17  1   
 25  14  35  1   
 26  14  36  1   
 27  15  18  1   
 28  15  37  1   
 29  15  38  1   
 30  16  19  1   
 31  16  39  1   
 32  16  40  1   
 33  17  18  1   
 34  17  20  am  
 35  18  41  1   
 36  18  42  1   
 37  19  21  1   
 38  19  22  1   
 39  20  23  2   
 40  20  24  1   
 41  21  25  2   
 42  22  26  2   
 43  22  43  1   
 44  24  27  1   
 45  24  44  1   
 46  24  45  1   
 47  25  26  1   
 48  26  27  1   
 49  27  46  1   
 50  27  47  1   
@<TRIPOS>SUBSTRUCTURE
  1 ****  10 GROUP 4 **** **** 0

# MOE 2024.06 (io_trps.svl 2023.06)
