@<TRIPOS>MOLECULE
NONAME
45 47 1 0 0 
SMALL
USER_CHARGES


@<TRIPOS>ATOM
  1 CL      -0.6390    -0.4930    -0.4390 Cl    1 <1>  -0.1230 
  2 C       -1.7120     0.8340    -0.0200 C.2   1 <1>   0.1230 
  3 C       -3.0210     0.7170     0.4580 C.2   1 <1>   0.2030 
  4 C       -1.4250     2.1440    -0.1220 C.2   1 <1>  -0.3320 
  5 N       -3.5240     1.9340     0.6330 N.2   1 <1>  -0.7070 
  6 C       -3.6750    -0.5600     0.7140 C.2   1 <1>   0.7160 
  7 N       -2.5410     2.7850     0.2850 N.pl3 1 <1>   0.3000 
  8 C       -0.1570     2.8420    -0.5830 C.3   1 <1>  -0.0600 
  9 O       -3.0580    -1.4420     1.2900 O.2   1 <1>  -0.5700 
 10 N       -4.9860    -0.8320     0.3390 N.am  1 <1>  -0.6600 
 11 C       -5.6770    -2.0900     0.7590 C.3   1 <1>   0.1400 
 12 C       -5.8000     0.1070    -0.4840 C.3   1 <1>   0.1400 
 13 C       -6.9210    -1.8110     1.6150 C.3   1 <1>   0.1400 
 14 C       -6.7260     0.9170     0.4280 C.3   1 <1>  -0.1600 
 15 N       -8.0330    -1.2370     0.7920 N.am  1 <1>  -0.6600 
 16 C       -8.0820     0.2570     0.7170 C.3   1 <1>   0.1400 
 17 C       -8.9890    -1.9930     0.1590 C.2   1 <1>   0.5690 
 18 O       -9.8630    -1.4900    -0.5060 O.2   1 <1>  -0.5700 
 19 C       -8.9810    -3.5090     0.2770 C.3   1 <1>  -0.0990 
 20 C      -10.0810    -4.1670    -0.5690 C.3   1 <1>   0.0960 
 21 N      -10.0340    -5.6320    -0.4170 N.pl3 1 <1>   0.0480 
 22 C       -9.3730    -6.5270    -1.1530 C.2   1 <1>   0.0370 
 23 C      -10.6240    -6.3930     0.5050 C.2   1 <1>   0.0370 
 24 N       -9.5410    -7.7260    -0.7140 N.2   1 <1>  -0.3380 
 25 N      -10.3430    -7.6400     0.3500 N.2   1 <1>  -0.3380 
 26 H       -2.6550     3.8060     0.3360 H     1 <1>   0.2700 
 27 H        0.5900     2.1160    -0.8550 H     1 <1>   0.0800 
 28 H        0.2390     3.4560     0.2060 H     1 <1>   0.0800 
 29 H       -0.3590     3.4590    -1.4410 H     1 <1>   0.0800 
 30 H       -5.0100    -2.7060     1.3360 H     1 <1>   0.0800 
 31 H       -5.9510    -2.6520    -0.1160 H     1 <1>   0.0800 
 32 H       -6.3710    -0.4400    -1.2140 H     1 <1>   0.0800 
 33 H       -5.1520     0.7760    -1.0220 H     1 <1>   0.0800 
 34 H       -6.6630    -1.1340     2.4120 H     1 <1>   0.0800 
 35 H       -7.2410    -2.7280     2.0740 H     1 <1>   0.0800 
 36 H       -6.9240     1.8620    -0.0450 H     1 <1>   0.0800 
 37 H       -6.2210     1.1420     1.3510 H     1 <1>   0.0800 
 38 H       -8.7630     0.5530    -0.0630 H     1 <1>   0.0800 
 39 H       -8.4760     0.6410     1.6420 H     1 <1>   0.0800 
 40 H       -9.1330    -3.7660     1.3090 H     1 <1>   0.0800 
 41 H       -8.0250    -3.8750    -0.0450 H     1 <1>   0.0800 
 42 H       -9.9490    -3.9180    -1.6080 H     1 <1>   0.0800 
 43 H      -11.0490    -3.8150    -0.2580 H     1 <1>   0.0800 
 44 H       -8.7740    -6.2660    -2.0060 H     1 <1>   0.1500 
 45 H      -11.2550    -5.9990     1.2810 H     1 <1>   0.1500 
@<TRIPOS>BOND
  1   1   2  1   
  2   2   3  1   
  3   2   4  2   
  4   3   5  2   
  5   3   6  1   
  6   4   7  1   
  7   4   8  1   
  8   5   7  1   
  9   6   9  2   
 10   6  10  am  
 11   7  26  1   
 12   8  27  1   
 13   8  28  1   
 14   8  29  1   
 15  10  11  1   
 16  10  12  1   
 17  11  13  1   
 18  11  30  1   
 19  11  31  1   
 20  12  14  1   
 21  12  32  1   
 22  12  33  1   
 23  13  15  1   
 24  13  34  1   
 25  13  35  1   
 26  14  16  1   
 27  14  36  1   
 28  14  37  1   
 29  15  16  1   
 30  15  17  am  
 31  16  38  1   
 32  16  39  1   
 33  17  18  2   
 34  17  19  1   
 35  19  20  1   
 36  19  40  1   
 37  19  41  1   
 38  20  21  1   
 39  20  42  1   
 40  20  43  1   
 41  21  22  1   
 42  21  23  1   
 43  22  24  2   
 44  22  44  1   
 45  23  25  2   
 46  23  45  1   
 47  24  25  1   
@<TRIPOS>SUBSTRUCTURE
  1 ****  11 GROUP 4 **** **** 0

# MOE 2024.06 (io_trps.svl 2023.06)
