@<TRIPOS>MOLECULE
NONAME
43 46 1 0 0 
SMALL
USER_CHARGES


@<TRIPOS>ATOM
  1 S        0.2960    -0.4090    -0.7620 S.3   1 <1>  -0.0800 
  2 C       -0.7890     0.9530    -0.4240 C.ar  1 <1>   0.0400 
  3 C       -0.9540    -1.5720    -0.3260 C.2   1 <1>  -0.1100 
  4 C       -0.5610     2.3170    -0.5270 C.ar  1 <1>   0.4100 
  5 C       -2.0120     0.4880    -0.0170 C.ar  1 <1>   0.2560 
  6 C       -2.0900    -0.9470     0.0370 C.2   1 <1>  -0.1810 
  7 N       -1.5400     3.1590    -0.2400 N.ar  1 <1>  -0.6200 
  8 N        0.6560     2.8520    -0.9080 N.pl3 1 <1>  -0.8380 
  9 N       -2.9960     1.3330     0.2820 N.ar  1 <1>  -0.5660 
 10 C       -3.3700    -1.6380     0.4730 C.3   1 <1>  -0.0590 
 11 C       -2.6890     2.6080     0.1440 C.ar  1 <1>   0.4700 
 12 C        1.8610     2.6080    -0.0560 C.3   1 <1>   0.2090 
 13 C        0.7190     4.1850    -1.5840 C.3   1 <1>   0.2090 
 14 C        2.0660     3.7390     0.9740 C.3   1 <1>   0.2090 
 15 C        0.9000     5.3310    -0.5680 C.3   1 <1>   0.2090 
 16 N        2.0710     5.1040     0.3460 N.pl3 1 <1>  -0.8380 
 17 C        3.2710     5.7170     0.0200 C.ar  1 <1>   0.4100 
 18 N        4.2010     4.8850    -0.4510 N.ar  1 <1>  -0.6200 
 19 C        3.4650     7.1110     0.1510 C.ar  1 <1>   0.0860 
 20 C        5.3400     5.4200    -0.8400 C.ar  1 <1>   0.1600 
 21 C        2.4770     8.0010     0.7210 C.2   1 <1>   0.5440 
 22 C        4.6780     7.6310    -0.2850 C.ar  1 <1>  -0.1500 
 23 C        5.6260     6.7710    -0.7860 C.ar  1 <1>  -0.1500 
 24 O        2.4110     9.1690     0.3980 O.2   1 <1>  -0.5700 
 25 N        1.5850     7.5990     1.6520 N.am  1 <1>  -0.8000 
 26 H       -0.6940    -2.6140    -0.3920 H     1 <1>   0.1500 
 27 H       -3.2500    -2.7060     0.4550 H     1 <1>   0.0800 
 28 H       -4.1740    -1.3670    -0.1880 H     1 <1>   0.0800 
 29 H       -3.6280    -1.3330     1.4720 H     1 <1>   0.0800 
 30 H       -3.4770     3.3050     0.3750 H     1 <1>   0.1500 
 31 H        2.7310     2.5440    -0.6860 H     1 <1>   0.0800 
 32 H        1.7640     1.6750     0.4670 H     1 <1>   0.0800 
 33 H       -0.1800     4.3480    -2.1540 H     1 <1>   0.0800 
 34 H        1.5480     4.1910    -2.2700 H     1 <1>   0.0800 
 35 H        2.9930     3.5760     1.4950 H     1 <1>   0.0800 
 36 H        1.2710     3.6910     1.6970 H     1 <1>   0.0800 
 37 H        0.0040     5.4150     0.0210 H     1 <1>   0.0800 
 38 H        1.0270     6.2540    -1.1060 H     1 <1>   0.0800 
 39 H        6.0890     4.7490    -1.2270 H     1 <1>   0.1500 
 40 H        4.8670     8.6900    -0.2230 H     1 <1>   0.1500 
 41 H        6.5770     7.1380    -1.1290 H     1 <1>   0.1500 
 42 H        0.8660     8.2410     1.9800 H     1 <1>   0.3700 
 43 H        1.4310     6.5920     1.7840 H     1 <1>   0.3700 
@<TRIPOS>BOND
  1   1   2  1   
  2   1   3  1   
  3   2   4  ar  
  4   2   5  ar  
  5   3   6  2   
  6   3  26  1   
  7   4   7  ar  
  8   4   8  1   
  9   5   6  1   
 10   5   9  ar  
 11   6  10  1   
 12   7  11  ar  
 13   8  12  1   
 14   8  13  1   
 15   9  11  ar  
 16  10  27  1   
 17  10  28  1   
 18  10  29  1   
 19  11  30  1   
 20  12  14  1   
 21  12  31  1   
 22  12  32  1   
 23  13  15  1   
 24  13  33  1   
 25  13  34  1   
 26  14  16  1   
 27  14  35  1   
 28  14  36  1   
 29  15  16  1   
 30  15  37  1   
 31  15  38  1   
 32  16  17  1   
 33  17  18  ar  
 34  17  19  ar  
 35  18  20  ar  
 36  19  21  1   
 37  19  22  ar  
 38  20  23  ar  
 39  20  39  1   
 40  21  24  2   
 41  21  25  am  
 42  22  23  ar  
 43  22  40  1   
 44  23  41  1   
 45  25  42  1   
 46  25  43  1   
@<TRIPOS>SUBSTRUCTURE
  1 ****   8 GROUP 4 **** **** 0

# MOE 2024.06 (io_trps.svl 2023.06)
