@<TRIPOS>MOLECULE
NONAME
52 54 1 0 0 
SMALL
USER_CHARGES


@<TRIPOS>ATOM
  1 O       -0.8810    -0.4310     2.4410 O.2   1 <1>  -0.5700 
  2 C       -1.2970     0.4810     1.7650 C.2   1 <1>   0.5690 
  3 N       -2.2050     0.2430     0.7570 N.am  1 <1>  -0.6600 
  4 C       -0.7740     1.8790     2.0830 C.3   1 <1>   0.0440 
  5 C       -2.4960    -1.1570     0.3210 C.3   1 <1>   0.1400 
  6 C       -2.8930     1.3100    -0.0280 C.3   1 <1>   0.1400 
  7 C       -0.1630     2.5890     0.8770 C.ar  1 <1>  -0.1440 
  8 C       -4.0160    -1.4040     0.3200 C.3   1 <1>   0.4230 
  9 C       -4.4020     1.0230    -0.1060 C.3   1 <1>  -0.1600 
 10 C       -0.5160     3.8950     0.5750 C.ar  1 <1>  -0.1500 
 11 C        0.7520     1.9330     0.0680 C.ar  1 <1>  -0.1500 
 12 N       -4.4150    -2.8660     0.1910 N.4   1 <1>  -0.9590 
 13 C       -4.7570    -0.4000    -0.6160 C.3   1 <1>   0.0000 
 14 C        0.0250     4.5290    -0.5300 C.ar  1 <1>  -0.1500 
 15 C        1.2920     2.5670    -1.0360 C.ar  1 <1>  -0.1500 
 16 C       -5.8220    -3.0590    -0.2850 C.3   1 <1>   0.3430 
 17 C       -3.4970    -3.6940    -0.6560 C.3   1 <1>   0.2630 
 18 C       -6.3010    -0.5820    -0.4950 C.3   1 <1>  -0.1600 
 19 C       -4.3160    -0.4640    -2.1090 C.3   1 <1>   0.1200 
 20 C        0.9290     3.8680    -1.3440 C.ar  1 <1>  -0.1430 
 21 C       -6.7170    -1.9070     0.1680 C.3   1 <1>  -0.1600 
 22 O       -4.6320    -1.6770    -2.7030 O.3   1 <1>  -0.6800 
 23 C        1.5260     4.5650    -2.5530 C.3   1 <1>  -0.0970 
 24 H       -1.5810     2.4570     2.4930 H     1 <1>   0.0800 
 25 H       -0.0200     1.7980     2.8450 H     1 <1>   0.0800 
 26 H       -2.0830    -1.3050    -0.6600 H     1 <1>   0.0800 
 27 H       -2.0310    -1.8570     0.9910 H     1 <1>   0.0800 
 28 H       -2.7570     2.2710     0.4350 H     1 <1>   0.0800 
 29 H       -2.4560     1.3630    -1.0110 H     1 <1>   0.0800 
 30 H       -4.3280    -1.1190     1.3110 H     1 <1>   0.0800 
 31 H       -4.8050     1.1660     0.8820 H     1 <1>   0.0800 
 32 H       -4.8600     1.7650    -0.7380 H     1 <1>   0.0800 
 33 H       -1.2120     4.4310     1.1960 H     1 <1>   0.1500 
 34 H        1.0510     0.9230     0.2930 H     1 <1>   0.1500 
 35 H       -4.3730    -3.2450     1.1460 H     1 <1>   0.4500 
 36 H       -0.2570     5.5430    -0.7510 H     1 <1>   0.1500 
 37 H        2.0010     2.0440    -1.6540 H     1 <1>   0.1500 
 38 H       -5.8400    -3.1000    -1.3620 H     1 <1>   0.0800 
 39 H       -6.2090    -3.9930     0.0880 H     1 <1>   0.0800 
 40 H       -3.4580    -3.3090    -1.6600 H     1 <1>   0.0800 
 41 H       -3.8440    -4.7130    -0.6950 H     1 <1>   0.0800 
 42 H       -2.4990    -3.6910    -0.2470 H     1 <1>   0.0800 
 43 H       -6.7460     0.2200     0.0690 H     1 <1>   0.0800 
 44 H       -6.7450    -0.5370    -1.4760 H     1 <1>   0.0800 
 45 H       -3.2570    -0.3140    -2.2230 H     1 <1>   0.0800 
 46 H       -4.8220     0.3060    -2.6670 H     1 <1>   0.0800 
 47 H       -7.7350    -2.1270    -0.1010 H     1 <1>   0.0800 
 48 H       -6.6800    -1.8230     1.2410 H     1 <1>   0.0800 
 49 H       -4.5420    -1.6100    -3.6780 H     1 <1>   0.4000 
 50 H        0.8310     5.2800    -2.9570 H     1 <1>   0.0800 
 51 H        1.7630     3.8510    -3.3210 H     1 <1>   0.0800 
 52 H        2.4260     5.0790    -2.2670 H     1 <1>   0.0800 
@<TRIPOS>BOND
  1   1   2  2   
  2   2   3  am  
  3   2   4  1   
  4   3   5  1   
  5   3   6  1   
  6   4   7  1   
  7   4  24  1   
  8   4  25  1   
  9   5   8  1   
 10   5  26  1   
 11   5  27  1   
 12   6   9  1   
 13   6  28  1   
 14   6  29  1   
 15   7  10  ar  
 16   7  11  ar  
 17   8  12  1   
 18   8  13  1   
 19   8  30  1   
 20   9  13  1   
 21   9  31  1   
 22   9  32  1   
 23  10  14  ar  
 24  10  33  1   
 25  11  15  ar  
 26  11  34  1   
 27  12  16  1   
 28  12  17  1   
 29  12  35  1   
 30  13  18  1   
 31  13  19  1   
 32  14  20  ar  
 33  14  36  1   
 34  15  20  ar  
 35  15  37  1   
 36  16  21  1   
 37  16  38  1   
 38  16  39  1   
 39  17  40  1   
 40  17  41  1   
 41  17  42  1   
 42  18  21  1   
 43  18  43  1   
 44  18  44  1   
 45  19  22  1   
 46  19  45  1   
 47  19  46  1   
 48  20  23  1   
 49  21  47  1   
 50  21  48  1   
 51  22  49  1   
 52  23  50  1   
 53  23  51  1   
 54  23  52  1   
@<TRIPOS>SUBSTRUCTURE
  1 ****   3 GROUP 4 **** **** 0

# MOE 2024.06 (io_trps.svl 2023.06)
