@<TRIPOS>MOLECULE
NONAME
43 45 1 0 0 
SMALL
USER_CHARGES


@<TRIPOS>ATOM
  1 S        1.0460     0.6810     0.2970 S.o2  1 <1>   1.0900 
  2 O        0.5510    -0.2720    -0.6730 O.2   1 <1>  -0.6500 
  3 O        2.3390     0.5340     0.9210 O.2   1 <1>  -0.6500 
  4 C       -0.2110     0.9170     1.5100 C.3   1 <1>  -0.0550 
  5 C        0.8140     2.3090    -0.3520 C.3   1 <1>  -0.0550 
  6 C       -1.3140     1.6630     0.7710 C.3   1 <1>   0.2000 
  7 C       -0.7040     2.5440    -0.3680 C.3   1 <1>   0.1900 
  8 O       -2.1620     0.7160     0.2090 O.3   1 <1>  -0.6800 
  9 N       -1.0340     3.9860    -0.2200 N.3   1 <1>  -0.8100 
 10 C       -0.4020     4.8550    -1.2440 C.3   1 <1>   0.2480 
 11 C       -2.4920     4.2290    -0.2150 C.3   1 <1>   0.0300 
 12 C       -0.1170     6.2240    -0.6530 C.2   1 <1>  -0.1240 
 13 C        1.0810     6.3740     0.1190 C.2   1 <1>   0.6160 
 14 C       -0.9510     7.2720    -0.8470 C.2   1 <1>  -0.1780 
 15 O        1.8930     5.4620     0.2130 O.2   1 <1>  -0.5700 
 16 N        1.3320     7.5960     0.7320 N.am  1 <1>  -0.4770 
 17 C       -0.6700     8.5480    -0.2710 C.ar  1 <1>   0.0280 
 18 C        0.4830     8.7030     0.5220 C.ar  1 <1>   0.1170 
 19 C        2.5210     7.7300     1.6270 C.3   1 <1>   0.0600 
 20 C       -1.5170     9.6380    -0.4810 C.ar  1 <1>  -0.1500 
 21 C        0.7400     9.9650     1.0700 C.ar  1 <1>  -0.1500 
 22 C       -1.2420    10.8670     0.0740 C.ar  1 <1>  -0.1500 
 23 C       -0.1070    11.0310     0.8520 C.ar  1 <1>  -0.1500 
 24 H       -0.5590    -0.0050     1.9350 H     1 <1>   0.0800 
 25 H        0.1660     1.5470     2.2920 H     1 <1>   0.0800 
 26 H        1.2780     3.0180     0.3070 H     1 <1>   0.0800 
 27 H        1.2400     2.3940    -1.3320 H     1 <1>   0.0800 
 28 H       -1.8860     2.2380     1.4760 H     1 <1>   0.0800 
 29 H       -1.0890     2.1970    -1.3130 H     1 <1>   0.0800 
 30 H       -1.6590     0.0890    -0.3590 H     1 <1>   0.4000 
 31 H        0.5250     4.4470    -1.6030 H     1 <1>   0.0800 
 32 H       -1.0510     4.9480    -2.0980 H     1 <1>   0.0800 
 33 H       -2.6920     5.2820    -0.1120 H     1 <1>   0.0800 
 34 H       -2.9700     3.7360     0.6110 H     1 <1>   0.0800 
 35 H       -2.9370     3.8760    -1.1300 H     1 <1>   0.0800 
 36 H       -1.8490     7.1810    -1.4300 H     1 <1>   0.1500 
 37 H        2.2120     8.1130     2.5830 H     1 <1>   0.0800 
 38 H        3.2320     8.4030     1.1820 H     1 <1>   0.0800 
 39 H        3.0040     6.7830     1.7910 H     1 <1>   0.0800 
 40 H       -2.3970     9.5120    -1.0850 H     1 <1>   0.1500 
 41 H        1.6110    10.1300     1.6740 H     1 <1>   0.1500 
 42 H       -1.9020    11.7020    -0.0940 H     1 <1>   0.1500 
 43 H        0.1080    11.9930     1.2840 H     1 <1>   0.1500 
@<TRIPOS>BOND
  1   1   2  2   
  2   1   3  2   
  3   1   4  1   
  4   1   5  1   
  5   4   6  1   
  6   4  24  1   
  7   4  25  1   
  8   5   7  1   
  9   5  26  1   
 10   5  27  1   
 11   6   7  1   
 12   6   8  1   
 13   6  28  1   
 14   7   9  1   
 15   7  29  1   
 16   8  30  1   
 17   9  10  1   
 18   9  11  1   
 19  10  12  1   
 20  10  31  1   
 21  10  32  1   
 22  11  33  1   
 23  11  34  1   
 24  11  35  1   
 25  12  13  1   
 26  12  14  2   
 27  13  15  2   
 28  13  16  am  
 29  14  17  1   
 30  14  36  1   
 31  16  18  1   
 32  16  19  1   
 33  17  18  ar  
 34  17  20  ar  
 35  18  21  ar  
 36  19  37  1   
 37  19  38  1   
 38  19  39  1   
 39  20  22  ar  
 40  20  40  1   
 41  21  23  ar  
 42  21  41  1   
 43  22  23  ar  
 44  22  42  1   
 45  23  43  1   
@<TRIPOS>SUBSTRUCTURE
  1 ****  12 GROUP 4 **** **** 0

# MOE 2024.06 (io_trps.svl 2023.06)
