@<TRIPOS>MOLECULE
NONAME
40 42 1 0 0 
SMALL
USER_CHARGES


@<TRIPOS>ATOM
  1 F       -0.9580     1.4920     1.7750 F     1 <1>  -0.1900 
  2 C       -0.5570     2.2780     0.8130 C.ar  1 <1>   0.1900 
  3 C       -1.3480     2.4470    -0.3310 C.ar  1 <1>   0.3960 
  4 C        0.6470     2.9230     0.9900 C.ar  1 <1>  -0.1500 
  5 N       -0.9610     3.2850    -1.3220 N.ar  1 <1>  -0.6200 
  6 C       -2.5960     1.7020    -0.4420 C.2   1 <1>   0.5440 
  7 C        1.0080     3.7520    -0.0450 C.ar  1 <1>   0.1900 
  8 C        0.1980     3.9060    -1.1610 C.ar  1 <1>   0.1600 
  9 O       -2.5520     0.4970    -0.6310 O.2   1 <1>  -0.5700 
 10 N       -3.8400     2.3020    -0.3210 N.am  1 <1>  -0.6600 
 11 F        2.1330     4.4070     0.0280 F     1 <1>  -0.1900 
 12 C       -4.0150     3.7840    -0.2280 C.3   1 <1>   0.1400 
 13 C       -5.0820     1.4710    -0.2690 C.3   1 <1>   0.1400 
 14 C       -5.3990     4.1830    -0.7340 C.3   1 <1>  -0.1600 
 15 C       -6.1380     2.1420     0.6110 C.3   1 <1>  -0.1600 
 16 C       -6.5070     3.5570     0.1290 C.3   1 <1>   0.4180 
 17 O       -6.6510     4.3220     1.3010 O.3   1 <1>  -0.5600 
 18 C       -7.8230     3.5100    -0.6480 C.2   1 <1>  -0.2880 
 19 C       -7.4440     5.4760     1.2410 C.3   1 <1>   0.1200 
 20 C       -8.9180     4.1980    -0.3170 C.2   1 <1>  -0.2760 
 21 C       -8.8930     5.1250     0.8820 C.3   1 <1>  -0.0220 
 22 C      -10.2410     4.1220    -1.0590 C.3   1 <1>  -0.1020 
 23 H        1.2540     2.7900     1.8660 H     1 <1>   0.1500 
 24 H        0.5270     4.5690    -1.9440 H     1 <1>   0.1500 
 25 H       -3.2720     4.2850    -0.8230 H     1 <1>   0.0800 
 26 H       -3.9010     4.0920     0.7990 H     1 <1>   0.0800 
 27 H       -4.8570     0.4970     0.1320 H     1 <1>   0.0800 
 28 H       -5.4590     1.3410    -1.2690 H     1 <1>   0.0800 
 29 H       -5.4930     3.8410    -1.7490 H     1 <1>   0.0800 
 30 H       -5.4920     5.2510    -0.7540 H     1 <1>   0.0800 
 31 H       -5.7450     2.1870     1.6110 H     1 <1>   0.0800 
 32 H       -7.0180     1.5270     0.6400 H     1 <1>   0.0800 
 33 H       -7.7800     2.8480    -1.4940 H     1 <1>   0.1500 
 34 H       -7.0290     6.1440     0.5080 H     1 <1>   0.0800 
 35 H       -7.4030     5.9530     2.2050 H     1 <1>   0.0800 
 36 H       -9.4200     6.0360     0.6620 H     1 <1>   0.0800 
 37 H       -9.3730     4.6520     1.7210 H     1 <1>   0.0800 
 38 H      -11.0180     3.7860    -0.3950 H     1 <1>   0.0800 
 39 H      -10.1730     3.4330    -1.8810 H     1 <1>   0.0800 
 40 H      -10.5070     5.0900    -1.4460 H     1 <1>   0.0800 
@<TRIPOS>BOND
  1   1   2  1   
  2   2   3  ar  
  3   2   4  ar  
  4   3   5  ar  
  5   3   6  1   
  6   4   7  ar  
  7   4  23  1   
  8   5   8  ar  
  9   6   9  2   
 10   6  10  am  
 11   7   8  ar  
 12   7  11  1   
 13   8  24  1   
 14  10  12  1   
 15  10  13  1   
 16  12  14  1   
 17  12  25  1   
 18  12  26  1   
 19  13  15  1   
 20  13  27  1   
 21  13  28  1   
 22  14  16  1   
 23  14  29  1   
 24  14  30  1   
 25  15  16  1   
 26  15  31  1   
 27  15  32  1   
 28  16  17  1   
 29  16  18  1   
 30  17  19  1   
 31  18  20  2   
 32  18  33  1   
 33  19  21  1   
 34  19  34  1   
 35  19  35  1   
 36  20  21  1   
 37  20  22  1   
 38  21  36  1   
 39  21  37  1   
 40  22  38  1   
 41  22  39  1   
 42  22  40  1   
@<TRIPOS>SUBSTRUCTURE
  1 ****  12 GROUP 4 **** **** 0

# MOE 2024.06 (io_trps.svl 2023.06)
