@<TRIPOS>MOLECULE
NONAME
51 53 1 0 0 
SMALL
USER_CHARGES


@<TRIPOS>ATOM
  1 F       -2.1860    -0.3630    -1.2920 F     1 <1>  -0.1900 
  2 C       -2.1390     0.5170    -0.3270 C.ar  1 <1>   0.1900 
  3 C       -2.5320     0.1310     0.9540 C.ar  1 <1>   0.0860 
  4 C       -1.6910     1.7950    -0.6350 C.ar  1 <1>  -0.1440 
  5 C       -3.0130    -1.1990     1.2650 C.2   1 <1>   0.5440 
  6 C       -2.4310     1.0980     1.9540 C.ar  1 <1>  -0.1500 
  7 C       -1.6220     2.7290     0.3860 C.ar  1 <1>  -0.1500 
  8 C       -1.2760     2.1700    -2.0510 C.3   1 <1>  -0.0960 
  9 O       -2.4460    -1.8240     2.1420 O.2   1 <1>  -0.5700 
 10 N       -4.0970    -1.7850     0.6330 N.am  1 <1>  -0.6600 
 11 C       -1.9880     2.3790     1.6760 C.ar  1 <1>  -0.1500 
 12 C       -5.1300    -1.0130    -0.1340 C.3   1 <1>   0.2200 
 13 C       -4.1350    -3.2790     0.5340 C.3   1 <1>   0.0600 
 14 C       -5.6440     0.2100     0.6340 C.3   1 <1>  -0.1600 
 15 C       -6.4160    -1.8030    -0.4040 C.3   1 <1>  -0.1600 
 16 C       -7.0180     0.5280     0.0270 C.3   1 <1>  -0.0800 
 17 C       -7.4910    -0.7450    -0.6750 C.3   1 <1>  -0.0800 
 18 C       -8.1180     0.8810     1.0370 C.3   1 <1>  -0.1600 
 19 C       -8.8800    -1.0590    -0.0950 C.3   1 <1>  -0.1600 
 20 C       -9.4030     0.2650     0.4720 C.3   1 <1>   0.4230 
 21 N       -9.9780     1.1160    -0.6210 N.4   1 <1>  -0.9590 
 22 C      -10.3410     2.4950    -0.1580 C.3   1 <1>   0.2630 
 23 C      -11.1890     0.4980    -1.2540 C.3   1 <1>   0.2630 
 24 H       -2.7040     0.8300     2.9610 H     1 <1>   0.1500 
 25 H       -1.2770     3.7300     0.1880 H     1 <1>   0.1500 
 26 H       -0.9610     3.1960    -2.1030 H     1 <1>   0.0800 
 27 H       -2.1010     2.0300    -2.7260 H     1 <1>   0.0800 
 28 H       -0.4600     1.5460    -2.3690 H     1 <1>   0.0800 
 29 H       -1.9210     3.1070     2.4660 H     1 <1>   0.1500 
 30 H       -4.7140    -0.6980    -1.0760 H     1 <1>   0.0800 
 31 H       -4.3210    -3.5800    -0.4820 H     1 <1>   0.0800 
 32 H       -4.9040    -3.6690     1.1770 H     1 <1>   0.0800 
 33 H       -3.1940    -3.7040     0.8370 H     1 <1>   0.0800 
 34 H       -5.7340    -0.0460     1.6750 H     1 <1>   0.0800 
 35 H       -4.9900     1.0560     0.5280 H     1 <1>   0.0800 
 36 H       -6.3040    -2.4680    -1.2420 H     1 <1>   0.0800 
 37 H       -6.6730    -2.3660     0.4760 H     1 <1>   0.0800 
 38 H       -6.9160     1.3130    -0.7050 H     1 <1>   0.0800 
 39 H       -7.5560    -0.5580    -1.7340 H     1 <1>   0.0800 
 40 H       -8.1670     1.9340     1.2410 H     1 <1>   0.0800 
 41 H       -7.9150     0.3860     1.9710 H     1 <1>   0.0800 
 42 H       -8.7790    -1.7380     0.7350 H     1 <1>   0.0800 
 43 H       -9.5230    -1.5310    -0.8130 H     1 <1>   0.0800 
 44 H      -10.1350     0.1030     1.2470 H     1 <1>   0.0800 
 45 H       -9.2410     1.1960    -1.3360 H     1 <1>   0.4500 
 46 H      -11.0410     2.4440     0.6600 H     1 <1>   0.0800 
 47 H      -10.7930     3.0520    -0.9630 H     1 <1>   0.0800 
 48 H       -9.4650     3.0310     0.1680 H     1 <1>   0.0800 
 49 H      -11.9500     0.3210    -0.5120 H     1 <1>   0.0800 
 50 H      -10.9400    -0.4390    -1.7240 H     1 <1>   0.0800 
 51 H      -11.5910     1.1540    -2.0090 H     1 <1>   0.0800 
@<TRIPOS>BOND
  1   1   2  1   
  2   2   3  ar  
  3   2   4  ar  
  4   3   5  1   
  5   3   6  ar  
  6   4   7  ar  
  7   4   8  1   
  8   5   9  2   
  9   5  10  am  
 10   6  11  ar  
 11   6  24  1   
 12   7  11  ar  
 13   7  25  1   
 14   8  26  1   
 15   8  27  1   
 16   8  28  1   
 17  10  12  1   
 18  10  13  1   
 19  11  29  1   
 20  12  14  1   
 21  12  15  1   
 22  12  30  1   
 23  13  31  1   
 24  13  32  1   
 25  13  33  1   
 26  14  16  1   
 27  14  34  1   
 28  14  35  1   
 29  15  17  1   
 30  15  36  1   
 31  15  37  1   
 32  16  17  1   
 33  16  18  1   
 34  16  38  1   
 35  17  19  1   
 36  17  39  1   
 37  18  20  1   
 38  18  40  1   
 39  18  41  1   
 40  19  20  1   
 41  19  42  1   
 42  19  43  1   
 43  20  21  1   
 44  20  44  1   
 45  21  22  1   
 46  21  23  1   
 47  21  45  1   
 48  22  46  1   
 49  22  47  1   
 50  22  48  1   
 51  23  49  1   
 52  23  50  1   
 53  23  51  1   
@<TRIPOS>SUBSTRUCTURE
  1 ****  14 GROUP 4 **** **** 0

# MOE 2024.06 (io_trps.svl 2023.06)
