@<TRIPOS>MOLECULE
NONAME
27 28 1 0 0 
SMALL
USER_CHARGES


@<TRIPOS>ATOM
  1 CL       1.6170    -0.3410     2.3820 Cl    1 <1>  -0.1770 
  2 C        2.1140     0.6500     1.0280 C.ar  1 <1>   0.1770 
  3 C        2.5770     0.1050    -0.1760 C.ar  1 <1>   0.1660 
  4 C        2.0310     2.0150     1.1970 C.ar  1 <1>  -0.1500 
  5 N        2.9560     0.8570    -1.2060 N.ar  1 <1>  -0.6200 
  6 C        2.6990    -1.4020    -0.4410 C.3   1 <1>   0.0630 
  7 C        2.4260     2.7790     0.1240 C.ar  1 <1>   0.1770 
  8 C        2.8730     2.1730    -1.0370 C.ar  1 <1>   0.1600 
  9 C        1.3420    -2.1300    -0.4320 C.3   1 <1>  -0.1600 
 10 C        3.7270    -2.0960     0.4700 C.3   1 <1>  -0.1600 
 11 CL       2.3600     4.5190     0.2340 Cl    1 <1>  -0.1770 
 12 C        1.5100    -3.6200    -0.7240 C.3   1 <1>   0.3430 
 13 C        3.8320    -3.5870     0.1540 C.3   1 <1>   0.3430 
 14 N        2.4810    -4.2090     0.2390 N.4   1 <1>  -0.9060 
 15 H        1.6790     2.4590     2.1100 H     1 <1>   0.1500 
 16 H        3.0800    -1.5050    -1.4450 H     1 <1>   0.0800 
 17 H        3.1750     2.8010    -1.8580 H     1 <1>   0.1500 
 18 H        0.7080    -1.6960    -1.1860 H     1 <1>   0.0800 
 19 H        0.8380    -2.0150     0.5090 H     1 <1>   0.0800 
 20 H        3.4800    -1.9780     1.5070 H     1 <1>   0.0800 
 21 H        4.6910    -1.6400     0.3200 H     1 <1>   0.0800 
 22 H        1.8710    -3.7510    -1.7320 H     1 <1>   0.0800 
 23 H        0.5550    -4.1150    -0.6390 H     1 <1>   0.0800 
 24 H        4.5040    -4.0590     0.8540 H     1 <1>   0.0800 
 25 H        4.2320    -3.7180    -0.8390 H     1 <1>   0.0800 
 26 H        2.5560    -5.2220     0.0790 H     1 <1>   0.4500 
 27 H        2.1190    -4.0860     1.1940 H     1 <1>   0.4500 
@<TRIPOS>BOND
  1   1   2  1   
  2   2   3  ar  
  3   2   4  ar  
  4   3   5  ar  
  5   3   6  1   
  6   4   7  ar  
  7   4  15  1   
  8   5   8  ar  
  9   6   9  1   
 10   6  10  1   
 11   6  16  1   
 12   7   8  ar  
 13   7  11  1   
 14   8  17  1   
 15   9  12  1   
 16   9  18  1   
 17   9  19  1   
 18  10  13  1   
 19  10  20  1   
 20  10  21  1   
 21  12  14  1   
 22  12  22  1   
 23  12  23  1   
 24  13  14  1   
 25  13  24  1   
 26  13  25  1   
 27  14  26  1   
 28  14  27  1   
@<TRIPOS>SUBSTRUCTURE
  1 ****   3 GROUP 4 **** **** 0

# MOE 2024.06 (io_trps.svl 2023.06)
