@<TRIPOS>MOLECULE
NONAME
47 50 1 0 0 
SMALL
USER_CHARGES


@<TRIPOS>ATOM
  1 S        1.4640    -0.0810    -0.9350 S.3   1 <1>  -0.0800 
  2 C        0.4670    -1.3250    -1.6440 C.2   1 <1>   0.1980 
  3 C        1.3580    -0.9060     0.5850 C.2   1 <1>  -0.1100 
  4 N        0.1040    -2.2320    -0.8320 N.2   1 <1>  -0.5650 
  5 C        0.1450    -1.2040    -3.1150 C.3   1 <1>  -0.0600 
  6 C        0.5990    -2.0190     0.4710 C.2   1 <1>   0.1410 
  7 C        0.3360    -2.9420     1.5750 C.2   1 <1>   0.7160 
  8 O        1.1670    -3.0310     2.4640 O.2   1 <1>  -0.5700 
  9 N       -0.8070    -3.7180     1.6800 N.am  1 <1>  -0.6600 
 10 C       -0.8580    -4.9410     2.5240 C.3   1 <1>   0.1400 
 11 C       -2.0820    -3.4450     0.9660 C.3   1 <1>   0.1400 
 12 C       -1.1560    -6.1450     1.6260 C.3   1 <1>  -0.1600 
 13 C       -2.3820    -4.6180     0.0330 C.3   1 <1>  -0.1600 
 14 C       -2.4400    -5.9510     0.8030 C.3   1 <1>   0.4240 
 15 O       -3.4750    -5.8600     1.7550 O.3   1 <1>  -0.5600 
 16 C       -2.6490    -7.1430    -0.1580 C.ar  1 <1>  -0.1430 
 17 C       -4.7710    -6.1400     1.3270 C.3   1 <1>   0.1200 
 18 C       -3.7910    -7.9350    -0.0880 C.ar  1 <1>  -0.1430 
 19 C       -1.6930    -7.4450    -1.1220 C.ar  1 <1>  -0.1500 
 20 C       -4.8540    -7.6140     0.9440 C.3   1 <1>  -0.0170 
 21 C       -3.9650    -9.0060    -0.9500 C.ar  1 <1>  -0.1500 
 22 C       -1.8660    -8.5120    -1.9840 C.ar  1 <1>  -0.1500 
 23 C       -2.9990    -9.3010    -1.9060 C.ar  1 <1>   0.0820 
 24 O       -3.0920   -10.3300    -2.7850 O.3   1 <1>  -0.3620 
 25 C       -4.1950   -11.2070    -2.7740 C.3   1 <1>   0.0400 
 26 H        1.8760    -0.4920     1.4300 H     1 <1>   0.1500 
 27 H        1.0530    -1.2100    -3.6880 H     1 <1>   0.0800 
 28 H       -0.3840    -0.2870    -3.2970 H     1 <1>   0.0800 
 29 H       -0.4690    -2.0310    -3.4210 H     1 <1>   0.0800 
 30 H       -1.6310    -4.8290     3.2650 H     1 <1>   0.0800 
 31 H        0.0770    -5.0950     3.0350 H     1 <1>   0.0800 
 32 H       -2.0320    -2.5250     0.4120 H     1 <1>   0.0800 
 33 H       -2.8720    -3.3440     1.6910 H     1 <1>   0.0800 
 34 H       -1.2530    -7.0320     2.2240 H     1 <1>   0.0800 
 35 H       -0.3160    -6.2870     0.9730 H     1 <1>   0.0800 
 36 H       -1.6060    -4.6610    -0.7080 H     1 <1>   0.0800 
 37 H       -3.3050    -4.4500    -0.4870 H     1 <1>   0.0800 
 38 H       -5.0150    -5.5070     0.4920 H     1 <1>   0.0800 
 39 H       -5.4410    -5.9240     2.1410 H     1 <1>   0.0800 
 40 H       -0.8010    -6.8510    -1.2120 H     1 <1>   0.1500 
 41 H       -5.8320    -7.8210     0.5480 H     1 <1>   0.0800 
 42 H       -4.7060    -8.2200     1.8190 H     1 <1>   0.0800 
 43 H       -4.8540    -9.6000    -0.8670 H     1 <1>   0.1500 
 44 H       -1.1220    -8.7390    -2.7260 H     1 <1>   0.1500 
 45 H       -4.0460   -11.9410    -3.5450 H     1 <1>   0.0800 
 46 H       -5.0900   -10.6450    -2.9720 H     1 <1>   0.0800 
 47 H       -4.2470   -11.6910    -1.8140 H     1 <1>   0.0800 
@<TRIPOS>BOND
  1   1   2  1   
  2   1   3  1   
  3   2   4  2   
  4   2   5  1   
  5   3   6  2   
  6   3  26  1   
  7   4   6  1   
  8   5  27  1   
  9   5  28  1   
 10   5  29  1   
 11   6   7  1   
 12   7   8  2   
 13   7   9  am  
 14   9  10  1   
 15   9  11  1   
 16  10  12  1   
 17  10  30  1   
 18  10  31  1   
 19  11  13  1   
 20  11  32  1   
 21  11  33  1   
 22  12  14  1   
 23  12  34  1   
 24  12  35  1   
 25  13  14  1   
 26  13  36  1   
 27  13  37  1   
 28  14  15  1   
 29  14  16  1   
 30  15  17  1   
 31  16  18  ar  
 32  16  19  ar  
 33  17  20  1   
 34  17  38  1   
 35  17  39  1   
 36  18  20  1   
 37  18  21  ar  
 38  19  22  ar  
 39  19  40  1   
 40  20  41  1   
 41  20  42  1   
 42  21  23  ar  
 43  21  43  1   
 44  22  23  ar  
 45  22  44  1   
 46  23  24  1   
 47  24  25  1   
 48  25  45  1   
 49  25  46  1   
 50  25  47  1   
@<TRIPOS>SUBSTRUCTURE
  1 ****  13 GROUP 4 **** **** 0

# MOE 2024.06 (io_trps.svl 2023.06)
