@<TRIPOS>MOLECULE
NONAME
50 52 1 0 0 
SMALL
USER_CHARGES


@<TRIPOS>ATOM
  1 F       -0.1710    -0.7580    -0.3270 F     1 <1>  -0.1900 
  2 C       -0.3290    -2.0500    -0.2030 C.ar  1 <1>   0.1900 
  3 C       -0.2730    -2.6090     1.0600 C.ar  1 <1>  -0.1500 
  4 C       -0.5440    -2.8070    -1.3380 C.ar  1 <1>  -0.1500 
  5 C       -0.4410    -3.9780     1.1920 C.ar  1 <1>  -0.1500 
  6 C       -0.7110    -4.1740    -1.1970 C.ar  1 <1>  -0.1500 
  7 C       -0.6640    -4.7640     0.0600 C.ar  1 <1>   0.0830 
  8 O       -0.8470    -6.1060     0.1020 O.3   1 <1>  -0.3630 
  9 C       -0.9590    -6.7950     1.3390 C.3   1 <1>   0.1810 
 10 C       -1.2890    -8.2720     1.1240 C.2   1 <1>   0.5690 
 11 O       -0.5970    -9.0830     1.6940 O.2   1 <1>  -0.5700 
 12 N       -2.3480    -8.6880     0.3470 N.am  1 <1>  -0.6600 
 13 C       -2.5240   -10.1270     0.0060 C.3   1 <1>   0.1400 
 14 C       -3.4030    -7.7900    -0.2050 C.3   1 <1>   0.1400 
 15 C       -3.9010   -10.6250     0.4980 C.3   1 <1>   0.4230 
 16 C       -4.7690    -8.2710     0.2980 C.3   1 <1>  -0.1600 
 17 N       -4.1080   -12.1250     0.3270 N.4   1 <1>  -0.9590 
 18 C       -5.0730    -9.7570    -0.0490 C.3   1 <1>   0.0000 
 19 C       -5.5420   -12.5580     0.3970 C.3   1 <1>   0.3430 
 20 C       -3.4500   -12.7360    -0.8760 C.3   1 <1>   0.2630 
 21 C       -6.3950   -10.1740     0.6620 C.3   1 <1>  -0.1600 
 22 C       -5.2040    -9.9360    -1.5890 C.3   1 <1>   0.1200 
 23 C       -6.3640   -11.5960     1.2530 C.3   1 <1>  -0.1600 
 24 O       -6.0920    -9.0270    -2.1370 O.3   1 <1>  -0.6800 
 25 H       -0.1000    -1.9820     1.9160 H     1 <1>   0.1500 
 26 H       -0.5800    -2.3360    -2.3040 H     1 <1>   0.1500 
 27 H       -0.3910    -4.4070     2.1750 H     1 <1>   0.1500 
 28 H       -0.8790    -4.7920    -2.0620 H     1 <1>   0.1500 
 29 H       -0.0190    -6.7110     1.8540 H     1 <1>   0.0800 
 30 H       -1.7370    -6.3360     1.9200 H     1 <1>   0.0800 
 31 H       -2.4290   -10.2320    -1.0590 H     1 <1>   0.0800 
 32 H       -1.7510   -10.7150     0.4680 H     1 <1>   0.0800 
 33 H       -3.2540    -6.7720     0.1110 H     1 <1>   0.0800 
 34 H       -3.3660    -7.8050    -1.2820 H     1 <1>   0.0800 
 35 H       -3.8930   -10.4440     1.5600 H     1 <1>   0.0800 
 36 H       -4.7840    -8.1330     1.3660 H     1 <1>   0.0800 
 37 H       -5.5300    -7.6250    -0.1040 H     1 <1>   0.0800 
 38 H       -3.6490   -12.5410     1.1520 H     1 <1>   0.4500 
 39 H       -5.9660   -12.5780    -0.5950 H     1 <1>   0.0800 
 40 H       -5.6050   -13.5550     0.8040 H     1 <1>   0.0800 
 41 H       -3.8510   -12.3140    -1.7820 H     1 <1>   0.0800 
 42 H       -3.6170   -13.8020    -0.8910 H     1 <1>   0.0800 
 43 H       -2.3860   -12.5640    -0.8550 H     1 <1>   0.0800 
 44 H       -6.6210    -9.4970     1.4700 H     1 <1>   0.0800 
 45 H       -7.2220   -10.1000    -0.0240 H     1 <1>   0.0800 
 46 H       -5.5530   -10.9200    -1.8460 H     1 <1>   0.0800 
 47 H       -4.2630    -9.7720    -2.0840 H     1 <1>   0.0800 
 48 H       -7.3720   -11.9660     1.3330 H     1 <1>   0.0800 
 49 H       -5.9570   -11.5760     2.2500 H     1 <1>   0.0800 
 50 H       -7.0030    -9.1490    -1.8060 H     1 <1>   0.4000 
@<TRIPOS>BOND
  1   1   2  1   
  2   2   3  ar  
  3   2   4  ar  
  4   3   5  ar  
  5   3  25  1   
  6   4   6  ar  
  7   4  26  1   
  8   5   7  ar  
  9   5  27  1   
 10   6   7  ar  
 11   6  28  1   
 12   7   8  1   
 13   8   9  1   
 14   9  10  1   
 15   9  29  1   
 16   9  30  1   
 17  10  11  2   
 18  10  12  am  
 19  12  13  1   
 20  12  14  1   
 21  13  15  1   
 22  13  31  1   
 23  13  32  1   
 24  14  16  1   
 25  14  33  1   
 26  14  34  1   
 27  15  17  1   
 28  15  18  1   
 29  15  35  1   
 30  16  18  1   
 31  16  36  1   
 32  16  37  1   
 33  17  19  1   
 34  17  20  1   
 35  17  38  1   
 36  18  21  1   
 37  18  22  1   
 38  19  23  1   
 39  19  39  1   
 40  19  40  1   
 41  20  41  1   
 42  20  42  1   
 43  20  43  1   
 44  21  23  1   
 45  21  44  1   
 46  21  45  1   
 47  22  24  1   
 48  22  46  1   
 49  22  47  1   
 50  23  48  1   
 51  23  49  1   
 52  24  50  1   
@<TRIPOS>SUBSTRUCTURE
  1 ****  14 GROUP 4 **** **** 0

# MOE 2024.06 (io_trps.svl 2023.06)
