@<TRIPOS>MOLECULE
NONAME
45 46 1 0 0 
SMALL
USER_CHARGES


@<TRIPOS>ATOM
  1 S       -0.2290    -0.3280    -0.8510 S.o2  1 <1>   1.3330 
  2 O       -1.1920     0.5120    -1.5240 O.2   1 <1>  -0.6500 
  3 O        0.5440    -1.2900    -1.6010 O.2   1 <1>  -0.6500 
  4 N       -1.0410    -1.1490     0.3940 N.am  1 <1>  -0.8490 
  5 C        0.9230     0.6990     0.0360 C.3   1 <1>  -0.1350 
  6 C       -1.6420    -2.4050    -0.0950 C.3   1 <1>   0.1960 
  7 C       -2.0660    -0.3110     1.0390 C.3   1 <1>   0.1160 
  8 C       -1.9710    -3.3700     1.0520 C.3   1 <1>   0.1400 
  9 N       -2.5030    -4.6460     0.5130 N.am  1 <1>  -0.7300 
 10 C       -3.8130    -4.9100     0.2590 C.2   1 <1>   0.5690 
 11 O       -4.6650    -4.0850     0.4880 O.2   1 <1>  -0.5700 
 12 C       -4.1970    -6.2740    -0.3320 C.3   1 <1>   0.2610 
 13 O       -3.0350    -7.0930    -0.4540 O.3   1 <1>  -0.5600 
 14 C       -5.3050    -6.9380     0.5370 C.3   1 <1>   0.3640 
 15 C       -3.2690    -8.3820    -0.9720 C.3   1 <1>   0.1810 
 16 N       -5.2470    -8.4220     0.5200 N.am  1 <1>  -0.7300 
 17 C       -6.7000    -6.5220     0.0690 C.ar  1 <1>  -0.1440 
 18 C       -4.3430    -9.1320    -0.1860 C.2   1 <1>   0.5690 
 19 C       -7.4050    -5.5550     0.7720 C.ar  1 <1>  -0.1500 
 20 C       -7.2840    -7.0910    -1.0570 C.ar  1 <1>  -0.1500 
 21 O       -4.3950   -10.3340    -0.2240 O.2   1 <1>  -0.5700 
 22 C       -8.6680    -5.1650     0.3620 C.ar  1 <1>  -0.1500 
 23 C       -8.5460    -6.7020    -1.4690 C.ar  1 <1>  -0.1500 
 24 C       -9.2400    -5.7390    -0.7590 C.ar  1 <1>  -0.1500 
 25 H        0.4030     1.3970     0.6610 H     1 <1>   0.0800 
 26 H        1.5310     1.2460    -0.6570 H     1 <1>   0.0800 
 27 H        1.5600     0.0910     0.6470 H     1 <1>   0.0800 
 28 H       -2.5310    -2.1900    -0.6650 H     1 <1>   0.0800 
 29 H       -0.9480    -2.9140    -0.7400 H     1 <1>   0.0800 
 30 H       -2.4720    -0.8030     1.9050 H     1 <1>   0.0800 
 31 H       -2.8690    -0.0990     0.3510 H     1 <1>   0.0800 
 32 H       -1.6380     0.6220     1.3610 H     1 <1>   0.0800 
 33 H       -2.7110    -2.9350     1.7000 H     1 <1>   0.0800 
 34 H       -1.0820    -3.5700     1.6230 H     1 <1>   0.0800 
 35 H       -1.8250    -5.3800     0.2780 H     1 <1>   0.3700 
 36 H       -4.5770    -6.1060    -1.3230 H     1 <1>   0.0800 
 37 H       -5.1720    -6.6190     1.5560 H     1 <1>   0.0800 
 38 H       -3.5690    -8.2910    -2.0000 H     1 <1>   0.0800 
 39 H       -2.3450    -8.9300    -0.9240 H     1 <1>   0.0800 
 40 H       -6.0040    -8.9210     0.9910 H     1 <1>   0.3700 
 41 H       -6.9730    -5.0890     1.6420 H     1 <1>   0.1500 
 42 H       -6.7630    -7.8440    -1.6220 H     1 <1>   0.1500 
 43 H       -9.2030    -4.4130     0.9140 H     1 <1>   0.1500 
 44 H       -8.9910    -7.1490    -2.3410 H     1 <1>   0.1500 
 45 H      -10.2220    -5.4350    -1.0780 H     1 <1>   0.1500 
@<TRIPOS>BOND
  1   1   2  2   
  2   1   3  2   
  3   1   4  am  
  4   1   5  1   
  5   4   6  1   
  6   4   7  1   
  7   5  25  1   
  8   5  26  1   
  9   5  27  1   
 10   6   8  1   
 11   6  28  1   
 12   6  29  1   
 13   7  30  1   
 14   7  31  1   
 15   7  32  1   
 16   8   9  1   
 17   8  33  1   
 18   8  34  1   
 19   9  10  am  
 20   9  35  1   
 21  10  11  2   
 22  10  12  1   
 23  12  13  1   
 24  12  14  1   
 25  12  36  1   
 26  13  15  1   
 27  14  16  1   
 28  14  17  1   
 29  14  37  1   
 30  15  18  1   
 31  15  38  1   
 32  15  39  1   
 33  16  18  am  
 34  16  40  1   
 35  17  19  ar  
 36  17  20  ar  
 37  18  21  2   
 38  19  22  ar  
 39  19  41  1   
 40  20  23  ar  
 41  20  42  1   
 42  22  24  ar  
 43  22  43  1   
 44  23  24  ar  
 45  23  44  1   
 46  24  45  1   
@<TRIPOS>SUBSTRUCTURE
  1 ****  10 GROUP 4 **** **** 0

# MOE 2024.06 (io_trps.svl 2023.06)
