@<TRIPOS>MOLECULE
NONAME
47 50 1 0 0 
SMALL
USER_CHARGES


@<TRIPOS>ATOM
  1 CL       0.1870    -0.2500    -1.6950 Cl    1 <1>  -0.1770 
  2 C        0.0580    -1.9280    -1.2560 C.ar  1 <1>   0.1770 
  3 C        1.0210    -2.5040    -0.4750 C.ar  1 <1>  -0.1500 
  4 C       -1.0170    -2.6700    -1.7280 C.ar  1 <1>  -0.1500 
  5 C        0.9180    -3.8570    -0.1270 C.ar  1 <1>   0.3610 
  6 C       -1.1360    -3.9870    -1.3660 C.ar  1 <1>  -0.1500 
  7 N        1.9600    -4.4740     0.5270 N.ar  1 <1>  -0.1790 
  8 C       -0.2190    -4.6150    -0.4910 C.ar  1 <1>   0.0000 
  9 C        1.9330    -5.7840     0.8190 C.ar  1 <1>   0.2110 
 10 C       -0.3390    -5.9630    -0.0010 C.ar  1 <1>   0.1000 
 11 C        0.8160    -6.5260     0.5550 C.ar  1 <1>  -0.1500 
 12 N       -1.4960    -6.6840     0.0060 N.pl3 1 <1>  -0.8380 
 13 C       -2.8810    -6.1320    -0.0730 C.3   1 <1>   0.2090 
 14 C       -1.6130    -8.1450     0.3070 C.3   1 <1>   0.2090 
 15 C       -3.7670    -7.1040     0.7080 C.3   1 <1>  -0.0800 
 16 C       -3.1040    -8.4640     0.4540 C.3   1 <1>  -0.0800 
 17 C       -5.2920    -7.0400     0.3900 C.3   1 <1>   0.2800 
 18 C       -3.6980    -9.1440    -0.7910 C.3   1 <1>  -0.1600 
 19 O       -5.4970    -6.5130    -0.8720 O.3   1 <1>  -0.6800 
 20 C       -5.8950    -8.4570     0.3740 C.3   1 <1>  -0.1600 
 21 C       -6.0690    -6.1450     1.3810 C.3   1 <1>  -0.1600 
 22 C       -5.2060    -9.4110    -0.6270 C.3   1 <1>  -0.1600 
 23 C       -5.6280    -4.6720     1.4320 C.3   1 <1>  -0.2400 
 24 H        1.8530    -1.9060    -0.1520 H     1 <1>   0.1500 
 25 H       -1.7360    -2.1990    -2.3780 H     1 <1>   0.1500 
 26 H       -1.9480    -4.5510    -1.7810 H     1 <1>   0.1500 
 27 H        2.7840    -3.9100     0.7490 H     1 <1>   0.4570 
 28 H        2.8000    -6.2380     1.2750 H     1 <1>   0.1500 
 29 H        0.8300    -7.5670     0.8180 H     1 <1>   0.1500 
 30 H       -2.9360    -5.1390     0.3360 H     1 <1>   0.0800 
 31 H       -3.1730    -6.1200    -1.1080 H     1 <1>   0.0800 
 32 H       -1.1630    -8.7290    -0.4780 H     1 <1>   0.0800 
 33 H       -1.1250    -8.3620     1.2410 H     1 <1>   0.0800 
 34 H       -3.6310    -6.8910     1.7530 H     1 <1>   0.0800 
 35 H       -3.2460    -9.1170     1.2980 H     1 <1>   0.0800 
 36 H       -3.5510    -8.5010    -1.6430 H     1 <1>   0.0800 
 37 H       -3.1890   -10.0700    -0.9930 H     1 <1>   0.0800 
 38 H       -6.4460    -6.5530    -1.0860 H     1 <1>   0.4000 
 39 H       -5.7860    -8.8720     1.3610 H     1 <1>   0.0800 
 40 H       -6.9500    -8.4180     0.1690 H     1 <1>   0.0800 
 41 H       -7.1160    -6.1800     1.1360 H     1 <1>   0.0800 
 42 H       -5.9700    -6.5610     2.3690 H     1 <1>   0.0800 
 43 H       -5.3590   -10.4240    -0.2960 H     1 <1>   0.0800 
 44 H       -5.6740    -9.3140    -1.5920 H     1 <1>   0.0800 
 45 H       -5.6730    -4.2250     0.4540 H     1 <1>   0.0800 
 46 H       -4.6260    -4.5830     1.8100 H     1 <1>   0.0800 
 47 H       -6.2800    -4.1200     2.0860 H     1 <1>   0.0800 
@<TRIPOS>BOND
  1   1   2  1   
  2   2   3  ar  
  3   2   4  ar  
  4   3   5  ar  
  5   3  24  1   
  6   4   6  ar  
  7   4  25  1   
  8   5   7  ar  
  9   5   8  ar  
 10   6   8  ar  
 11   6  26  1   
 12   7   9  ar  
 13   7  27  1   
 14   8  10  ar  
 15   9  11  ar  
 16   9  28  1   
 17  10  11  ar  
 18  10  12  1   
 19  11  29  1   
 20  12  13  1   
 21  12  14  1   
 22  13  15  1   
 23  13  30  1   
 24  13  31  1   
 25  14  16  1   
 26  14  32  1   
 27  14  33  1   
 28  15  16  1   
 29  15  17  1   
 30  15  34  1   
 31  16  18  1   
 32  16  35  1   
 33  17  19  1   
 34  17  20  1   
 35  17  21  1   
 36  18  22  1   
 37  18  36  1   
 38  18  37  1   
 39  19  38  1   
 40  20  22  1   
 41  20  39  1   
 42  20  40  1   
 43  21  23  1   
 44  21  41  1   
 45  21  42  1   
 46  22  43  1   
 47  22  44  1   
 48  23  45  1   
 49  23  46  1   
 50  23  47  1   
@<TRIPOS>SUBSTRUCTURE
  1 ****  13 GROUP 4 **** **** 0

# MOE 2024.06 (io_trps.svl 2023.06)
