@<TRIPOS>MOLECULE
NONAME
41 42 1 0 0 
SMALL
USER_CHARGES


@<TRIPOS>ATOM
  1 S       -0.7000     0.1770     0.7200 S.o2  1 <1>   1.0900 
  2 O       -1.9120     0.7030     0.1390 O.2   1 <1>  -0.6500 
  3 O       -0.3590     0.4890     2.0870 O.2   1 <1>  -0.6500 
  4 C       -0.7490    -1.6070     0.5650 C.3   1 <1>  -0.0550 
  5 C        0.6700     0.6730    -0.3080 C.3   1 <1>  -0.1350 
  6 C       -1.1500    -2.0940    -0.8360 C.3   1 <1>  -0.0990 
  7 C       -1.2320    -3.6040    -0.8550 C.2   1 <1>   0.5690 
  8 O       -0.2130    -4.2070    -1.0860 O.2   1 <1>  -0.5700 
  9 N       -2.4080    -4.2470    -0.5910 N.am  1 <1>  -0.6600 
 10 C       -3.7300    -3.6280    -0.3110 C.3   1 <1>   0.1400 
 11 C       -2.5000    -5.7260    -0.5370 C.3   1 <1>   0.1400 
 12 C       -4.7030    -4.8040    -0.2210 C.3   1 <1>   0.2000 
 13 C       -3.8460    -6.0190     0.1260 C.3   1 <1>  -0.0800 
 14 O       -5.6640    -4.6010     0.7560 O.3   1 <1>  -0.6800 
 15 C       -4.4770    -7.3470    -0.3200 C.3   1 <1>   0.0200 
 16 C       -3.5560    -8.5120    -0.0170 C.2   1 <1>  -0.0400 
 17 O       -3.2390    -8.7900     1.2200 O.3   1 <1>  -0.0190 
 18 C       -2.9330    -9.3960    -0.8110 C.2   1 <1>  -0.1500 
 19 N       -2.4340    -9.8090     1.2960 N.2   1 <1>  -0.4100 
 20 C       -2.2320   -10.1960     0.0870 C.2   1 <1>   0.1080 
 21 C       -1.3490   -11.3620    -0.2960 C.3   1 <1>  -0.0590 
 22 H        0.2070    -2.0220     0.8220 H     1 <1>   0.0800 
 23 H       -1.4610    -1.9900     1.2710 H     1 <1>   0.0800 
 24 H        0.4920     0.4140    -1.3330 H     1 <1>   0.0800 
 25 H        1.5770     0.2020     0.0190 H     1 <1>   0.0800 
 26 H        0.8020     1.7360    -0.2480 H     1 <1>   0.0800 
 27 H       -2.0890    -1.6630    -1.1290 H     1 <1>   0.0800 
 28 H       -0.4140    -1.7890    -1.5560 H     1 <1>   0.0800 
 29 H       -3.6850    -3.0940     0.6230 H     1 <1>   0.0800 
 30 H       -4.0160    -2.9650    -1.1090 H     1 <1>   0.0800 
 31 H       -2.4700    -6.1130    -1.5420 H     1 <1>   0.0800 
 32 H       -1.6830    -6.1440     0.0280 H     1 <1>   0.0800 
 33 H       -5.2040    -4.9310    -1.1660 H     1 <1>   0.0800 
 34 H       -3.6750    -6.0450     1.1880 H     1 <1>   0.0800 
 35 H       -5.2530    -4.5660     1.6420 H     1 <1>   0.4000 
 36 H       -4.6810    -7.3220    -1.3750 H     1 <1>   0.0800 
 37 H       -5.4090    -7.4950     0.1970 H     1 <1>   0.0800 
 38 H       -2.9440    -9.4940    -1.8800 H     1 <1>   0.1500 
 39 H       -1.9220   -12.0900    -0.8420 H     1 <1>   0.0800 
 40 H       -0.9490   -11.8250     0.5870 H     1 <1>   0.0800 
 41 H       -0.5360   -11.0170    -0.9070 H     1 <1>   0.0800 
@<TRIPOS>BOND
  1   1   2  2   
  2   1   3  2   
  3   1   4  1   
  4   1   5  1   
  5   4   6  1   
  6   4  22  1   
  7   4  23  1   
  8   5  24  1   
  9   5  25  1   
 10   5  26  1   
 11   6   7  1   
 12   6  27  1   
 13   6  28  1   
 14   7   8  2   
 15   7   9  am  
 16   9  10  1   
 17   9  11  1   
 18  10  12  1   
 19  10  29  1   
 20  10  30  1   
 21  11  13  1   
 22  11  31  1   
 23  11  32  1   
 24  12  13  1   
 25  12  14  1   
 26  12  33  1   
 27  13  15  1   
 28  13  34  1   
 29  14  35  1   
 30  15  16  1   
 31  15  36  1   
 32  15  37  1   
 33  16  17  1   
 34  16  18  2   
 35  17  19  1   
 36  18  20  1   
 37  18  38  1   
 38  19  20  2   
 39  20  21  1   
 40  21  39  1   
 41  21  40  1   
 42  21  41  1   
@<TRIPOS>SUBSTRUCTURE
  1 ****   9 GROUP 4 **** **** 0

# MOE 2024.06 (io_trps.svl 2023.06)
