@<TRIPOS>MOLECULE
NONAME
52 53 1 0 0 
SMALL
USER_CHARGES


@<TRIPOS>ATOM
  1 O       -0.7510     0.7370     1.4830 O.2   1 <1>  -0.5700 
  2 C       -1.3610     1.0310     0.4770 C.2   1 <1>   0.5690 
  3 N       -2.2130     0.1140    -0.1050 N.am  1 <1>  -0.6600 
  4 C       -1.0820     2.4490    -0.0750 C.3   1 <1>   0.2610 
  5 C       -2.2810    -1.2730     0.4300 C.3   1 <1>   0.3200 
  6 C       -3.1850     0.4240    -1.1990 C.3   1 <1>   0.1400 
  7 O       -2.2550     3.1560    -0.4670 O.3   1 <1>  -0.3630 
  8 C       -0.1050     2.4320    -1.2800 C.3   1 <1>  -0.0800 
  9 C       -3.4780    -1.4070     1.3510 C.2   1 <1>  -0.3320 
 10 C       -4.5760     0.7460    -0.6290 C.3   1 <1>   0.1200 
 11 C       -3.1900     3.6180     0.4000 C.ar  1 <1>   0.0820 
 12 C        1.2480     1.8020    -0.9100 C.3   1 <1>  -0.2400 
 13 C        0.1480     3.8430    -1.8430 C.3   1 <1>  -0.2400 
 14 N       -4.5410    -2.2140     1.1570 N.pl3 1 <1>   0.0480 
 15 C       -3.6990    -0.7550     2.5130 C.2   1 <1>   0.0770 
 16 O       -5.1980     1.6880    -1.4290 O.3   1 <1>  -0.6800 
 17 C       -4.1830     4.4440    -0.1210 C.ar  1 <1>  -0.1440 
 18 C       -3.2070     3.2850     1.7530 C.ar  1 <1>  -0.1500 
 19 C       -5.3410    -1.9860     2.2230 C.2   1 <1>   0.0360 
 20 C       -4.8010    -3.1420     0.0420 C.3   1 <1>   0.0160 
 21 N       -4.8730    -1.1190     3.0600 N.2   1 <1>  -0.5650 
 22 C       -5.1930     4.9040     0.7080 C.ar  1 <1>  -0.1500 
 23 C       -4.1700     4.8670    -1.5860 C.3   1 <1>  -0.0970 
 24 C       -4.2220     3.7490     2.5690 C.ar  1 <1>  -0.1500 
 25 C       -5.2170     4.5550     2.0470 C.ar  1 <1>  -0.1500 
 26 H       -0.6280     3.0260     0.7100 H     1 <1>   0.0800 
 27 H       -1.3860    -1.5060     0.9830 H     1 <1>   0.0800 
 28 H       -2.3420    -1.9700    -0.3860 H     1 <1>   0.0800 
 29 H       -3.2630    -0.4200    -1.8600 H     1 <1>   0.0800 
 30 H       -2.8310     1.2520    -1.7830 H     1 <1>   0.0800 
 31 H       -0.5430     1.8310    -2.0580 H     1 <1>   0.0800 
 32 H       -4.5090     1.1500     0.3670 H     1 <1>   0.0800 
 33 H       -5.1930    -0.1340    -0.6140 H     1 <1>   0.0800 
 34 H        1.7120     2.3470    -0.1050 H     1 <1>   0.0800 
 35 H        1.9120     1.8130    -1.7570 H     1 <1>   0.0800 
 36 H        1.1260     0.7790    -0.6010 H     1 <1>   0.0800 
 37 H        0.5570     4.4860    -1.0820 H     1 <1>   0.0800 
 38 H       -0.7670     4.2800    -2.2020 H     1 <1>   0.0800 
 39 H        0.8390     3.8020    -2.6660 H     1 <1>   0.0800 
 40 H       -3.0580    -0.0280     2.9860 H     1 <1>   0.1500 
 41 H       -4.9240     2.5840    -1.1310 H     1 <1>   0.4000 
 42 H       -2.4510     2.6640     2.1950 H     1 <1>   0.1500 
 43 H       -6.2820    -2.4910     2.3500 H     1 <1>   0.1500 
 44 H       -4.0470    -3.9070     0.0330 H     1 <1>   0.0800 
 45 H       -4.7800    -2.6000    -0.8860 H     1 <1>   0.0800 
 46 H       -5.7670    -3.5950     0.1670 H     1 <1>   0.0800 
 47 H       -5.9690     5.5400     0.3190 H     1 <1>   0.1500 
 48 H       -3.9450     4.0330    -2.2260 H     1 <1>   0.0800 
 49 H       -3.4170     5.6210    -1.7320 H     1 <1>   0.0800 
 50 H       -5.1220     5.2700    -1.8790 H     1 <1>   0.0800 
 51 H       -4.2390     3.4790     3.6110 H     1 <1>   0.1500 
 52 H       -6.0080     4.9110     2.6830 H     1 <1>   0.1500 
@<TRIPOS>BOND
  1   1   2  2   
  2   2   3  am  
  3   2   4  1   
  4   3   5  1   
  5   3   6  1   
  6   4   7  1   
  7   4   8  1   
  8   4  26  1   
  9   5   9  1   
 10   5  27  1   
 11   5  28  1   
 12   6  10  1   
 13   6  29  1   
 14   6  30  1   
 15   7  11  1   
 16   8  12  1   
 17   8  13  1   
 18   8  31  1   
 19   9  14  1   
 20   9  15  2   
 21  10  16  1   
 22  10  32  1   
 23  10  33  1   
 24  11  17  ar  
 25  11  18  ar  
 26  12  34  1   
 27  12  35  1   
 28  12  36  1   
 29  13  37  1   
 30  13  38  1   
 31  13  39  1   
 32  14  19  1   
 33  14  20  1   
 34  15  21  1   
 35  15  40  1   
 36  16  41  1   
 37  17  22  ar  
 38  17  23  1   
 39  18  24  ar  
 40  18  42  1   
 41  19  21  2   
 42  19  43  1   
 43  20  44  1   
 44  20  45  1   
 45  20  46  1   
 46  22  25  ar  
 47  22  47  1   
 48  23  48  1   
 49  23  49  1   
 50  23  50  1   
 51  24  25  ar  
 52  24  51  1   
 53  25  52  1   
@<TRIPOS>SUBSTRUCTURE
  1 ****   3 GROUP 4 **** **** 0

# MOE 2024.06 (io_trps.svl 2023.06)
