@<TRIPOS>MOLECULE
NONAME
61 64 1 0 0 
SMALL
USER_CHARGES


@<TRIPOS>ATOM
  1 O       -3.7780     2.1610    -1.5180 O.2   1 <1>  -0.5700 
  2 C       -3.1640     1.4590    -0.7470 C.2   1 <1>   0.5690 
  3 N       -3.2890     0.0900    -0.8070 N.am  1 <1>  -0.6600 
  4 C       -2.2600     2.1700     0.2730 C.3   1 <1>  -0.0190 
  5 C       -2.5470    -0.8680     0.0930 C.3   1 <1>   0.3640 
  6 C       -4.2830    -0.4800    -1.7710 C.3   1 <1>   0.1400 
  7 C       -3.0010     3.2900     1.0260 C.3   1 <1>  -0.1600 
  8 C       -1.0080     2.7540    -0.4070 C.3   1 <1>  -0.1600 
  9 C       -1.0440    -0.7710    -0.1940 C.ar  1 <1>  -0.1430 
 10 C       -2.9770    -2.3690     0.0260 C.3   1 <1>   0.2000 
 11 C       -4.1580    -1.9920    -1.9560 C.3   1 <1>   0.1200 
 12 C       -2.0810     3.9890     2.0320 C.3   1 <1>   0.1400 
 13 C       -0.0980     3.4450     0.6100 C.3   1 <1>   0.1400 
 14 C       -0.5580    -0.7850    -1.4950 C.ar  1 <1>  -0.1500 
 15 C       -0.1430    -0.6690     0.8580 C.ar  1 <1>  -0.1500 
 16 O       -4.1480    -2.5990    -0.7070 O.3   1 <1>  -0.5600 
 17 C       -3.2160    -2.9640     1.4220 C.3   1 <1>   0.1200 
 18 N       -0.8640     4.4990     1.3360 N.am  1 <1>  -0.6600 
 19 C        0.8020    -0.6950    -1.7400 C.ar  1 <1>  -0.1500 
 20 C        1.2160    -0.5780     0.6150 C.ar  1 <1>  -0.1500 
 21 O       -2.0890    -2.8220     2.2270 O.3   1 <1>  -0.6800 
 22 C       -0.5380     5.8370     1.3850 C.2   1 <1>   0.5690 
 23 C        1.6900    -0.5910    -0.6850 C.ar  1 <1>  -0.1500 
 24 O       -1.1860     6.6120     2.0520 O.2   1 <1>  -0.5700 
 25 C        0.6580     6.3930     0.5940 C.3   1 <1>  -0.0190 
 26 C        1.1130     7.8070     0.9760 C.3   1 <1>  -0.1600 
 27 C        0.3910     6.5210    -0.9100 C.3   1 <1>  -0.1600 
 28 C        1.9630     8.2730    -0.2060 C.3   1 <1>  -0.1600 
 29 C        1.4270     7.5230    -1.4310 C.3   1 <1>  -0.1600 
 30 H       -1.9330     1.4760     1.0180 H     1 <1>   0.0800 
 31 H       -2.7170    -0.5420     1.1040 H     1 <1>   0.0800 
 32 H       -5.2740    -0.2550    -1.4150 H     1 <1>   0.0800 
 33 H       -4.1670    -0.0010    -2.7280 H     1 <1>   0.0800 
 34 H       -3.8480     2.8790     1.5450 H     1 <1>   0.0800 
 35 H       -3.3700     4.0230     0.3290 H     1 <1>   0.0800 
 36 H       -1.3010     3.4640    -1.1610 H     1 <1>   0.0800 
 37 H       -0.4580     1.9700    -0.8930 H     1 <1>   0.0800 
 38 H       -2.2010    -2.9390    -0.4540 H     1 <1>   0.0800 
 39 H       -3.2590    -2.2510    -2.4880 H     1 <1>   0.0800 
 40 H       -5.0050    -2.3680    -2.5000 H     1 <1>   0.0800 
 41 H       -1.7800     3.2980     2.8000 H     1 <1>   0.0800 
 42 H       -2.6200     4.7920     2.5050 H     1 <1>   0.0800 
 43 H        0.7550     3.8490     0.1000 H     1 <1>   0.0800 
 44 H        0.2600     2.7210     1.3230 H     1 <1>   0.0800 
 45 H       -1.2360    -0.8570    -2.3260 H     1 <1>   0.1500 
 46 H       -0.4940    -0.6620     1.8760 H     1 <1>   0.1500 
 47 H       -3.4490    -4.0120     1.3500 H     1 <1>   0.0800 
 48 H       -4.0290    -2.4490     1.9050 H     1 <1>   0.0800 
 49 H        1.1680    -0.7050    -2.7520 H     1 <1>   0.1500 
 50 H        1.9060    -0.5000     1.4370 H     1 <1>   0.1500 
 51 H       -1.3720    -3.4190     1.9300 H     1 <1>   0.4000 
 52 H        2.7470    -0.5210    -0.8750 H     1 <1>   0.1500 
 53 H        1.5020     5.7470     0.7480 H     1 <1>   0.0800 
 54 H        0.2560     8.4540     1.0660 H     1 <1>   0.0800 
 55 H        1.6580     7.8180     1.9030 H     1 <1>   0.0800 
 56 H        0.4560     5.5770    -1.4200 H     1 <1>   0.0800 
 57 H       -0.5970     6.9260    -1.0550 H     1 <1>   0.0800 
 58 H        1.9000     9.3400    -0.3330 H     1 <1>   0.0800 
 59 H        2.9910     8.0010    -0.0390 H     1 <1>   0.0800 
 60 H        2.2330     7.0060    -1.9230 H     1 <1>   0.0800 
 61 H        0.9710     8.2020    -2.1310 H     1 <1>   0.0800 
@<TRIPOS>BOND
  1   1   2  2   
  2   2   3  am  
  3   2   4  1   
  4   3   5  1   
  5   3   6  1   
  6   4   7  1   
  7   4   8  1   
  8   4  30  1   
  9   5   9  1   
 10   5  10  1   
 11   5  31  1   
 12   6  11  1   
 13   6  32  1   
 14   6  33  1   
 15   7  12  1   
 16   7  34  1   
 17   7  35  1   
 18   8  13  1   
 19   8  36  1   
 20   8  37  1   
 21   9  14  ar  
 22   9  15  ar  
 23  10  16  1   
 24  10  17  1   
 25  10  38  1   
 26  11  16  1   
 27  11  39  1   
 28  11  40  1   
 29  12  18  1   
 30  12  41  1   
 31  12  42  1   
 32  13  18  1   
 33  13  43  1   
 34  13  44  1   
 35  14  19  ar  
 36  14  45  1   
 37  15  20  ar  
 38  15  46  1   
 39  17  21  1   
 40  17  47  1   
 41  17  48  1   
 42  18  22  am  
 43  19  23  ar  
 44  19  49  1   
 45  20  23  ar  
 46  20  50  1   
 47  21  51  1   
 48  22  24  2   
 49  22  25  1   
 50  23  52  1   
 51  25  26  1   
 52  25  27  1   
 53  25  53  1   
 54  26  28  1   
 55  26  54  1   
 56  26  55  1   
 57  27  29  1   
 58  27  56  1   
 59  27  57  1   
 60  28  29  1   
 61  28  58  1   
 62  28  59  1   
 63  29  60  1   
 64  29  61  1   
@<TRIPOS>SUBSTRUCTURE
  1 ****   8 GROUP 4 **** **** 0

# MOE 2024.06 (io_trps.svl 2023.06)
