@<TRIPOS>MOLECULE
NONAME
61 65 1 0 0 
SMALL
USER_CHARGES


@<TRIPOS>ATOM
  1 O        1.5960    -2.2930    -2.7190 O.2   1 <1>  -0.5700 
  2 C        1.7980    -2.7220    -1.6100 C.2   1 <1>   0.5690 
  3 N        2.7410    -2.2920    -0.7450 N.am  1 <1>  -0.6600 
  4 C        1.0010    -3.8460    -1.0130 C.3   1 <1>  -0.0990 
  5 C        2.7630    -3.0850     0.4970 C.3   1 <1>   0.1400 
  6 C        3.7850    -1.2810    -1.0420 C.3   1 <1>   0.1400 
  7 C        1.4090    -3.8180     0.4730 C.3   1 <1>  -0.0190 
  8 C        3.2650     0.1500    -0.8160 C.3   1 <1>  -0.0800 
  9 C        1.4240    -5.2010     1.1200 C.2   1 <1>   0.5690 
 10 C        4.3420     1.1660    -1.2170 C.3   1 <1>  -0.2400 
 11 C        2.8360     0.4040     0.6370 C.3   1 <1>  -0.2400 
 12 O        2.4970    -5.7140     1.3330 O.2   1 <1>  -0.5700 
 13 N        0.2510    -5.8500     1.4300 N.am  1 <1>  -0.6600 
 14 C       -1.1290    -5.3490     1.1770 C.3   1 <1>   0.1400 
 15 C        0.2590    -7.2250     2.0060 C.3   1 <1>   0.1400 
 16 C       -1.8000    -6.2660     0.1530 C.3   1 <1>  -0.1600 
 17 C       -0.3960    -8.1820     1.0090 C.3   1 <1>  -0.1600 
 18 C       -1.8090    -7.7250     0.6320 C.3   1 <1>   0.4600 
 19 O       -2.5810    -7.8150     1.8110 O.3   1 <1>  -0.5600 
 20 C       -2.3970    -8.6460    -0.4300 C.2   1 <1>  -0.3320 
 21 C       -3.9810    -7.9050     1.6870 C.3   1 <1>   0.1200 
 22 N       -1.8500    -8.9330    -1.6510 N.pl3 1 <1>   0.0330 
 23 C       -3.5590    -9.3140    -0.2960 C.2   1 <1>  -0.1810 
 24 C       -4.3960    -9.1910     0.9530 C.3   1 <1>   0.0210 
 25 C       -2.6910    -9.8060    -2.2970 C.ar  1 <1>  -0.1520 
 26 C       -3.7780   -10.0690    -1.4670 C.ar  1 <1>   0.0000 
 27 C       -2.5930   -10.4010    -3.5580 C.ar  1 <1>  -0.1500 
 28 C       -4.7840   -10.9390    -1.8980 C.ar  1 <1>  -0.1500 
 29 C       -3.5910   -11.2550    -3.9700 C.ar  1 <1>  -0.1500 
 30 C       -4.6860   -11.5240    -3.1390 C.ar  1 <1>  -0.1500 
 31 H        1.3010    -4.7650    -1.4830 H     1 <1>   0.0800 
 32 H       -0.0500    -3.6810    -1.1550 H     1 <1>   0.0800 
 33 H        2.8540    -2.4550     1.3650 H     1 <1>   0.0800 
 34 H        3.5950    -3.7670     0.4540 H     1 <1>   0.0800 
 35 H        4.0790    -1.3900    -2.0730 H     1 <1>   0.0800 
 36 H        4.6490    -1.4650    -0.4280 H     1 <1>   0.0800 
 37 H        0.7230    -3.1950     1.0140 H     1 <1>   0.0800 
 38 H        2.4140     0.2980    -1.4610 H     1 <1>   0.0800 
 39 H        5.2170     1.0570    -0.6000 H     1 <1>   0.0800 
 40 H        3.9670     2.1690    -1.1090 H     1 <1>   0.0800 
 41 H        4.6240     1.0230    -2.2450 H     1 <1>   0.0800 
 42 H        3.6490     0.2060     1.3130 H     1 <1>   0.0800 
 43 H        2.0050    -0.2260     0.8970 H     1 <1>   0.0800 
 44 H        2.5250     1.4270     0.7600 H     1 <1>   0.0800 
 45 H       -1.1290    -4.3390     0.8160 H     1 <1>   0.0800 
 46 H       -1.6830    -5.3680     2.1010 H     1 <1>   0.0800 
 47 H       -0.2890    -7.2260     2.9330 H     1 <1>   0.0800 
 48 H        1.2640    -7.5520     2.2160 H     1 <1>   0.0800 
 49 H       -1.2590    -6.2010    -0.7720 H     1 <1>   0.0800 
 50 H       -2.8020    -5.9360    -0.0410 H     1 <1>   0.0800 
 51 H       -0.4460    -9.1700     1.4270 H     1 <1>   0.0800 
 52 H        0.2210    -8.2300     0.1320 H     1 <1>   0.0800 
 53 H       -4.3340    -7.0420     1.1520 H     1 <1>   0.0800 
 54 H       -4.4000    -7.8930     2.6770 H     1 <1>   0.0800 
 55 H       -0.9640    -8.5840    -2.0270 H     1 <1>   0.2700 
 56 H       -5.4380    -9.1440     0.6980 H     1 <1>   0.0800 
 57 H       -4.2320   -10.0450     1.5850 H     1 <1>   0.0800 
 58 H       -1.7490   -10.1900    -4.1890 H     1 <1>   0.1500 
 59 H       -5.6170   -11.1370    -1.2500 H     1 <1>   0.1500 
 60 H       -3.5390   -11.7260    -4.9360 H     1 <1>   0.1500 
 61 H       -5.4520   -12.1960    -3.4850 H     1 <1>   0.1500 
@<TRIPOS>BOND
  1   1   2  2   
  2   2   3  am  
  3   2   4  1   
  4   3   5  1   
  5   3   6  1   
  6   4   7  1   
  7   4  31  1   
  8   4  32  1   
  9   5   7  1   
 10   5  33  1   
 11   5  34  1   
 12   6   8  1   
 13   6  35  1   
 14   6  36  1   
 15   7   9  1   
 16   7  37  1   
 17   8  10  1   
 18   8  11  1   
 19   8  38  1   
 20   9  12  2   
 21   9  13  am  
 22  10  39  1   
 23  10  40  1   
 24  10  41  1   
 25  11  42  1   
 26  11  43  1   
 27  11  44  1   
 28  13  14  1   
 29  13  15  1   
 30  14  16  1   
 31  14  45  1   
 32  14  46  1   
 33  15  17  1   
 34  15  47  1   
 35  15  48  1   
 36  16  18  1   
 37  16  49  1   
 38  16  50  1   
 39  17  18  1   
 40  17  51  1   
 41  17  52  1   
 42  18  19  1   
 43  18  20  1   
 44  19  21  1   
 45  20  22  1   
 46  20  23  2   
 47  21  24  1   
 48  21  53  1   
 49  21  54  1   
 50  22  25  1   
 51  22  55  1   
 52  23  24  1   
 53  23  26  1   
 54  24  56  1   
 55  24  57  1   
 56  25  26  ar  
 57  25  27  ar  
 58  26  28  ar  
 59  27  29  ar  
 60  27  58  1   
 61  28  30  ar  
 62  28  59  1   
 63  29  30  ar  
 64  29  60  1   
 65  30  61  1   
@<TRIPOS>SUBSTRUCTURE
  1 ****  16 GROUP 4 **** **** 0

# MOE 2024.06 (io_trps.svl 2023.06)
