@<TRIPOS>MOLECULE
NONAME
44 46 1 0 0 
SMALL
USER_CHARGES


@<TRIPOS>ATOM
  1 O       -0.7050     0.3960    -0.2230 O.2   1 <1>  -0.5700 
  2 C       -1.7750     0.8860     0.0510 C.2   1 <1>   0.5690 
  3 N       -2.8830     0.0970     0.2200 N.am  1 <1>  -0.6600 
  4 C       -1.8770     2.4090     0.1950 C.3   1 <1>  -0.0190 
  5 C       -4.2800     0.5430     0.4450 C.3   1 <1>   0.1400 
  6 C       -2.8200    -1.3800     0.0970 C.3   1 <1>   0.1400 
  7 C       -2.1380     3.0840    -1.1620 C.3   1 <1>  -0.1600 
  8 C       -0.6230     3.0390     0.8290 C.3   1 <1>  -0.1600 
  9 C       -5.1300    -0.7050     0.2090 C.3   1 <1>   0.2000 
 10 C       -4.2050    -1.8810     0.5080 C.3   1 <1>  -0.0800 
 11 C       -2.1620     4.6100    -1.0170 C.3   1 <1>   0.1200 
 12 C       -0.7370     4.5660     0.8600 C.3   1 <1>   0.1200 
 13 O       -6.2350    -0.7330     1.0430 O.3   1 <1>  -0.6800 
 14 C       -4.6250    -3.1790    -0.1970 C.3   1 <1>   0.0210 
 15 O       -0.9740     5.0410    -0.4300 O.3   1 <1>  -0.5600 
 16 C       -3.6210    -4.2840     0.0610 C.2   1 <1>   0.1080 
 17 N       -3.3800    -4.7500     1.2470 N.2   1 <1>  -0.7070 
 18 C       -2.8490    -4.9050    -0.9150 C.2   1 <1>  -0.1500 
 19 N       -2.4370    -5.6930     1.0570 N.pl3 1 <1>   0.3000 
 20 C       -2.0980    -5.8040    -0.2440 C.2   1 <1>  -0.3320 
 21 C       -1.0610    -6.7760    -0.7750 C.3   1 <1>  -0.0600 
 22 H       -2.7000     2.6340     0.8470 H     1 <1>   0.0800 
 23 H       -4.3820     0.8840     1.4610 H     1 <1>   0.0800 
 24 H       -4.5510     1.3220    -0.2440 H     1 <1>   0.0800 
 25 H       -2.6010    -1.6360    -0.9260 H     1 <1>   0.0800 
 26 H       -2.0510    -1.7860     0.7340 H     1 <1>   0.0800 
 27 H       -3.0730     2.7470    -1.5710 H     1 <1>   0.0800 
 28 H       -1.3600     2.8140    -1.8560 H     1 <1>   0.0800 
 29 H        0.2520     2.7730     0.2600 H     1 <1>   0.0800 
 30 H       -0.4900     2.6630     1.8270 H     1 <1>   0.0800 
 31 H       -5.4720    -0.7210    -0.8110 H     1 <1>   0.0800 
 32 H       -4.1720    -2.0540     1.5700 H     1 <1>   0.0800 
 33 H       -2.9850     4.9350    -0.4030 H     1 <1>   0.0800 
 34 H       -2.2380     5.0790    -1.9830 H     1 <1>   0.0800 
 35 H        0.1820     5.0050     1.2070 H     1 <1>   0.0800 
 36 H       -1.5430     4.8890     1.4980 H     1 <1>   0.0800 
 37 H       -5.9630    -0.9400     1.9590 H     1 <1>   0.4000 
 38 H       -4.7100    -3.0150    -1.2560 H     1 <1>   0.0800 
 39 H       -5.5850    -3.4940     0.1710 H     1 <1>   0.0800 
 40 H       -2.8650    -4.6940    -1.9690 H     1 <1>   0.1500 
 41 H       -2.0470    -6.2390     1.8340 H     1 <1>   0.2700 
 42 H       -0.9700    -6.6740    -1.8420 H     1 <1>   0.0800 
 43 H       -1.3500    -7.7880    -0.5510 H     1 <1>   0.0800 
 44 H       -0.1020    -6.5770    -0.3300 H     1 <1>   0.0800 
@<TRIPOS>BOND
  1   1   2  2   
  2   2   3  am  
  3   2   4  1   
  4   3   5  1   
  5   3   6  1   
  6   4   7  1   
  7   4   8  1   
  8   4  22  1   
  9   5   9  1   
 10   5  23  1   
 11   5  24  1   
 12   6  10  1   
 13   6  25  1   
 14   6  26  1   
 15   7  11  1   
 16   7  27  1   
 17   7  28  1   
 18   8  12  1   
 19   8  29  1   
 20   8  30  1   
 21   9  10  1   
 22   9  13  1   
 23   9  31  1   
 24  10  14  1   
 25  10  32  1   
 26  11  15  1   
 27  11  33  1   
 28  11  34  1   
 29  12  15  1   
 30  12  35  1   
 31  12  36  1   
 32  13  37  1   
 33  14  16  1   
 34  14  38  1   
 35  14  39  1   
 36  16  17  2   
 37  16  18  1   
 38  17  19  1   
 39  18  20  2   
 40  18  40  1   
 41  19  20  1   
 42  19  41  1   
 43  20  21  1   
 44  21  42  1   
 45  21  43  1   
 46  21  44  1   
@<TRIPOS>SUBSTRUCTURE
  1 ****   6 GROUP 4 **** **** 0

# MOE 2024.06 (io_trps.svl 2023.06)
