@<TRIPOS>MOLECULE
NONAME
34 36 1 0 0 
SMALL
USER_CHARGES


@<TRIPOS>ATOM
  1 S       -0.3500     0.0670     0.5270 S.3   1 <1>  -0.0800 
  2 C       -1.3140    -0.9750    -0.4650 C.2   1 <1>   0.4420 
  3 C       -0.2520     1.1520    -0.8220 C.2   1 <1>   0.1980 
  4 N       -1.4820    -0.5010    -1.6450 N.2   1 <1>  -0.3380 
  5 N       -1.7590    -2.1360     0.1260 N.am  1 <1>  -0.4940 
  6 N       -0.8750     0.7090    -1.8420 N.2   1 <1>  -0.3380 
  7 C        0.5520     2.4410    -0.6470 C.3   1 <1>   0.3800 
  8 C       -2.4920    -3.1750    -0.3900 C.2   1 <1>   0.7150 
  9 O        0.2070     3.0370     0.5730 O.3   1 <1>  -0.5600 
 10 C        0.2830     3.4540    -1.7660 C.3   1 <1>  -0.2400 
 11 O       -2.7920    -3.1730    -1.5670 O.2   1 <1>  -0.5700 
 12 C       -2.8770    -4.2460     0.4820 C.2   1 <1>  -0.0450 
 13 C        1.1940     3.8230     1.1670 C.3   1 <1>   0.0400 
 14 S       -2.4060    -4.1760     2.2020 S.3   1 <1>  -0.0800 
 15 C       -3.5800    -5.3960     0.2900 C.2   1 <1>   0.0620 
 16 C       -3.1810    -5.7100     2.5700 C.2   1 <1>  -0.1100 
 17 O       -4.1050    -5.7900    -0.8880 O.3   1 <1>  -0.3420 
 18 C       -3.7420    -6.2130     1.4570 C.2   1 <1>   0.0620 
 19 C       -5.0480    -6.8440    -0.8740 C.3   1 <1>   0.1200 
 20 O       -4.4150    -7.3930     1.4040 O.3   1 <1>  -0.3420 
 21 C       -4.6080    -7.9390     0.1110 C.3   1 <1>   0.1200 
 22 H       -1.5250    -2.2400     1.1080 H     1 <1>   0.3700 
 23 H        1.5960     2.1820    -0.6230 H     1 <1>   0.0800 
 24 H       -0.7560     3.7340    -1.7630 H     1 <1>   0.0800 
 25 H        0.5090     3.0090    -2.7180 H     1 <1>   0.0800 
 26 H        0.8930     4.3300    -1.6520 H     1 <1>   0.0800 
 27 H        0.8040     4.1990     2.0970 H     1 <1>   0.0800 
 28 H        1.4390     4.6490     0.5230 H     1 <1>   0.0800 
 29 H        2.0640     3.2190     1.3610 H     1 <1>   0.0800 
 30 H       -3.1370    -6.0800     3.5780 H     1 <1>   0.1500 
 31 H       -5.1200    -7.2340    -1.8730 H     1 <1>   0.0800 
 32 H       -6.0000    -6.4370    -0.5830 H     1 <1>   0.0800 
 33 H       -3.6800    -8.3790    -0.2090 H     1 <1>   0.0800 
 34 H       -5.3560    -8.7070     0.1850 H     1 <1>   0.0800 
@<TRIPOS>BOND
  1   1   2  1   
  2   1   3  1   
  3   2   4  2   
  4   2   5  1   
  5   3   6  2   
  6   3   7  1   
  7   4   6  1   
  8   5   8  am  
  9   5  22  1   
 10   7   9  1   
 11   7  10  1   
 12   7  23  1   
 13   8  11  2   
 14   8  12  1   
 15   9  13  1   
 16  10  24  1   
 17  10  25  1   
 18  10  26  1   
 19  12  14  1   
 20  12  15  2   
 21  13  27  1   
 22  13  28  1   
 23  13  29  1   
 24  14  16  1   
 25  15  17  1   
 26  15  18  1   
 27  16  18  2   
 28  16  30  1   
 29  17  19  1   
 30  18  20  1   
 31  19  21  1   
 32  19  31  1   
 33  19  32  1   
 34  20  21  1   
 35  21  33  1   
 36  21  34  1   
@<TRIPOS>SUBSTRUCTURE
  1 ****   5 GROUP 4 **** **** 0

# MOE 2024.06 (io_trps.svl 2023.06)
