@<TRIPOS>MOLECULE
NONAME
44 46 1 0 0 
SMALL
USER_CHARGES


@<TRIPOS>ATOM
  1 S        1.6540     1.1880    -0.3730 S.o2  1 <1>   1.3330 
  2 O        1.7300     1.7010    -1.7220 O.2   1 <1>  -0.6500 
  3 O        2.1050    -0.1600    -0.1100 O.2   1 <1>  -0.6500 
  4 N        2.5310     2.2180     0.6500 N.am  1 <1>  -0.8490 
  5 C       -0.0550     1.3170     0.1820 C.3   1 <1>  -0.0550 
  6 C        3.7360     2.7530     0.0120 C.3   1 <1>   0.1160 
  7 C        2.8760     1.6210     1.9440 C.3   1 <1>   0.1160 
  8 C       -0.7620     2.6970     0.1880 C.3   1 <1>  -0.0800 
  9 C       -0.6540     3.4910    -1.1220 C.3   1 <1>   0.2000 
 10 C       -0.2610     3.6530     1.2820 C.3   1 <1>   0.1400 
 11 O       -1.8550     4.1630    -1.2940 O.3   1 <1>  -0.6800 
 12 C        0.4340     4.5370    -0.8760 C.3   1 <1>   0.1400 
 13 N        0.3750     4.7930     0.5850 N.am  1 <1>  -0.6600 
 14 C        1.0010     5.8010     1.2670 C.2   1 <1>   0.5690 
 15 O        0.9940     5.8280     2.4770 O.2   1 <1>  -0.5700 
 16 C        1.6880     6.9460     0.5420 C.3   1 <1>   0.0820 
 17 C        3.1040     6.5930     0.1290 C.2   1 <1>   0.0460 
 18 N        3.3620     6.0470    -1.0830 N.2   1 <1>  -0.5650 
 19 C        4.2400     6.7720     0.8520 C.2   1 <1>  -0.3020 
 20 C        4.6460     5.9180    -1.0330 C.2   1 <1>   0.2420 
 21 N        5.2630     6.3280     0.0910 N.pl3 1 <1>   0.3340 
 22 S        5.8310     5.2600    -2.1760 S.3   1 <1>  -0.1570 
 23 C        6.6620     6.1430     0.1000 C.2   1 <1>  -0.1810 
 24 C        7.1510     5.5870    -1.0210 C.2   1 <1>  -0.0490 
 25 H       -0.6360     0.6700    -0.4450 H     1 <1>   0.0800 
 26 H       -0.1180     0.9110     1.1730 H     1 <1>   0.0800 
 27 H        4.2240     3.4510     0.6690 H     1 <1>   0.0800 
 28 H        3.4780     3.2750    -0.8940 H     1 <1>   0.0800 
 29 H        4.4170     1.9560    -0.2350 H     1 <1>   0.0800 
 30 H        3.3300     2.3620     2.5800 H     1 <1>   0.0800 
 31 H        3.5620     0.8010     1.8090 H     1 <1>   0.0800 
 32 H        1.9900     1.2530     2.4310 H     1 <1>   0.0800 
 33 H       -1.7980     2.4840     0.3870 H     1 <1>   0.0800 
 34 H       -0.4790     2.8890    -1.9980 H     1 <1>   0.0800 
 35 H        0.4470     3.1850     1.9430 H     1 <1>   0.0800 
 36 H       -1.0870     4.0210     1.8670 H     1 <1>   0.0800 
 37 H       -1.9380     4.8350    -0.5890 H     1 <1>   0.4000 
 38 H        0.2670     5.4270    -1.4560 H     1 <1>   0.0800 
 39 H        1.3990     4.1360    -1.1230 H     1 <1>   0.0800 
 40 H        1.1170     7.2380    -0.3180 H     1 <1>   0.0800 
 41 H        1.7240     7.7880     1.2070 H     1 <1>   0.0800 
 42 H        4.3780     7.1750     1.8380 H     1 <1>   0.1500 
 43 H        7.2050     6.4510     0.9740 H     1 <1>   0.1500 
 44 H        8.1460     5.3170    -1.3340 H     1 <1>   0.1500 
@<TRIPOS>BOND
  1   1   2  2   
  2   1   3  2   
  3   1   4  am  
  4   1   5  1   
  5   4   6  1   
  6   4   7  1   
  7   5   8  1   
  8   5  25  1   
  9   5  26  1   
 10   6  27  1   
 11   6  28  1   
 12   6  29  1   
 13   7  30  1   
 14   7  31  1   
 15   7  32  1   
 16   8   9  1   
 17   8  10  1   
 18   8  33  1   
 19   9  11  1   
 20   9  12  1   
 21   9  34  1   
 22  10  13  1   
 23  10  35  1   
 24  10  36  1   
 25  11  37  1   
 26  12  13  1   
 27  12  38  1   
 28  12  39  1   
 29  13  14  am  
 30  14  15  2   
 31  14  16  1   
 32  16  17  1   
 33  16  40  1   
 34  16  41  1   
 35  17  18  1   
 36  17  19  2   
 37  18  20  2   
 38  19  21  1   
 39  19  42  1   
 40  20  21  1   
 41  20  22  1   
 42  21  23  1   
 43  22  24  1   
 44  23  24  2   
 45  23  43  1   
 46  24  44  1   
@<TRIPOS>SUBSTRUCTURE
  1 ****   6 GROUP 4 **** **** 0

# MOE 2024.06 (io_trps.svl 2023.06)
