@<TRIPOS>MOLECULE
NONAME
56 58 1 0 0 
SMALL
USER_CHARGES


@<TRIPOS>ATOM
  1 S        1.5780     0.7080    -0.8010 S.o2  1 <1>   1.0900 
  2 O        1.0480     0.4200    -2.1130 O.2   1 <1>  -0.6500 
  3 O        1.5750    -0.2780     0.2550 O.2   1 <1>  -0.6500 
  4 C        3.2150     1.3690    -0.9550 C.3   1 <1>  -0.0550 
  5 C        0.8590     2.2110    -0.1670 C.3   1 <1>  -0.0550 
  6 C        3.3170     2.5290     0.0380 C.3   1 <1>   0.1900 
  7 C        1.9680     3.2670    -0.0620 C.3   1 <1>  -0.1600 
  8 N        4.4490     3.4260    -0.2920 N.3   1 <1>  -0.8100 
  9 C        4.5870     4.5450     0.6680 C.3   1 <1>   0.1100 
 10 C        5.7290     2.6880    -0.3750 C.3   1 <1>   0.0300 
 11 C        5.3660     5.7040     0.0400 C.3   1 <1>  -0.0990 
 12 C        5.2400     6.9480     0.8900 C.2   1 <1>   0.5690 
 13 O        5.4840     6.8710     2.0710 O.2   1 <1>  -0.5700 
 14 N        4.8520     8.1050     0.2780 N.am  1 <1>  -0.4940 
 15 C        4.7730     9.4180     0.7990 C.2   1 <1>  -0.0880 
 16 N        5.6960    10.0400     1.5900 N.pl3 1 <1>   0.3140 
 17 C        3.7890    10.3200     0.5750 C.2   1 <1>  -0.1810 
 18 N        5.3170    11.3150     1.8680 N.2   1 <1>  -0.7070 
 19 C        7.0090     9.5360     2.0600 C.3   1 <1>   0.2390 
 20 C        4.1810    11.4620     1.2620 C.2   1 <1>   0.1390 
 21 C        2.5130    10.1740    -0.2340 C.3   1 <1>  -0.0590 
 22 C        7.8790     9.0180     0.9150 C.ar  1 <1>  -0.1430 
 23 C        8.1110     9.8040    -0.2050 C.ar  1 <1>  -0.1500 
 24 C        8.4440     7.7540     0.9850 C.ar  1 <1>  -0.1500 
 25 C        8.8900     9.3340    -1.2490 C.ar  1 <1>  -0.1430 
 26 C        9.2250     7.2800    -0.0540 C.ar  1 <1>  -0.1500 
 27 C        9.4470     8.0690    -1.1690 C.ar  1 <1>  -0.1500 
 28 C        9.1330    10.2060    -2.4680 C.3   1 <1>  -0.0970 
 29 H        3.3530     1.7500    -1.9490 H     1 <1>   0.0800 
 30 H        3.9470     0.6110    -0.7530 H     1 <1>   0.0800 
 31 H        0.4510     2.0210     0.8080 H     1 <1>   0.0800 
 32 H        0.0680     2.5580    -0.8050 H     1 <1>   0.0800 
 33 H        3.4380     2.1320     1.0340 H     1 <1>   0.0800 
 34 H        1.7840     3.8930     0.7910 H     1 <1>   0.0800 
 35 H        1.9640     3.8680    -0.9550 H     1 <1>   0.0800 
 36 H        5.0720     4.2130     1.5720 H     1 <1>   0.0800 
 37 H        3.6230     4.9290     0.9440 H     1 <1>   0.0800 
 38 H        5.7060     1.9720    -1.1770 H     1 <1>   0.0800 
 39 H        5.9290     2.1750     0.5510 H     1 <1>   0.0800 
 40 H        6.5440     3.3580    -0.5800 H     1 <1>   0.0800 
 41 H        4.9830     5.8950    -0.9440 H     1 <1>   0.0800 
 42 H        6.4090     5.4640    -0.0320 H     1 <1>   0.0800 
 43 H        4.6030     8.0230    -0.7060 H     1 <1>   0.3700 
 44 H        6.8360     8.7700     2.7900 H     1 <1>   0.0800 
 45 H        7.5200    10.3450     2.5470 H     1 <1>   0.0800 
 46 H        3.6130    12.3770     1.2950 H     1 <1>   0.1500 
 47 H        2.4030     9.1660    -0.5880 H     1 <1>   0.0800 
 48 H        2.5360    10.8400    -1.0770 H     1 <1>   0.0800 
 49 H        1.6640    10.4160     0.3800 H     1 <1>   0.0800 
 50 H        7.6780    10.7890    -0.2620 H     1 <1>   0.1500 
 51 H        8.2730     7.1310     1.8470 H     1 <1>   0.1500 
 52 H        9.6620     6.2990     0.0060 H     1 <1>   0.1500 
 53 H       10.0580     7.6940    -1.9710 H     1 <1>   0.1500 
 54 H        8.2710    10.8170    -2.6680 H     1 <1>   0.0800 
 55 H        9.3270     9.5990    -3.3340 H     1 <1>   0.0800 
 56 H        9.9800    10.8450    -2.2940 H     1 <1>   0.0800 
@<TRIPOS>BOND
  1   1   2  2   
  2   1   3  2   
  3   1   4  1   
  4   1   5  1   
  5   4   6  1   
  6   4  29  1   
  7   4  30  1   
  8   5   7  1   
  9   5  31  1   
 10   5  32  1   
 11   6   7  1   
 12   6   8  1   
 13   6  33  1   
 14   7  34  1   
 15   7  35  1   
 16   8   9  1   
 17   8  10  1   
 18   9  11  1   
 19   9  36  1   
 20   9  37  1   
 21  10  38  1   
 22  10  39  1   
 23  10  40  1   
 24  11  12  1   
 25  11  41  1   
 26  11  42  1   
 27  12  13  2   
 28  12  14  am  
 29  14  15  1   
 30  14  43  1   
 31  15  16  1   
 32  15  17  2   
 33  16  18  1   
 34  16  19  1   
 35  17  20  1   
 36  17  21  1   
 37  18  20  2   
 38  19  22  1   
 39  19  44  1   
 40  19  45  1   
 41  20  46  1   
 42  21  47  1   
 43  21  48  1   
 44  21  49  1   
 45  22  23  ar  
 46  22  24  ar  
 47  23  25  ar  
 48  23  50  1   
 49  24  26  ar  
 50  24  51  1   
 51  25  27  ar  
 52  25  28  1   
 53  26  27  ar  
 54  26  52  1   
 55  27  53  1   
 56  28  54  1   
 57  28  55  1   
 58  28  56  1   
@<TRIPOS>SUBSTRUCTURE
  1 ****  11 GROUP 4 **** **** 0

# MOE 2024.06 (io_trps.svl 2023.06)
