@<TRIPOS>MOLECULE
NONAME
56 59 1 0 0 
SMALL
USER_CHARGES


@<TRIPOS>ATOM
  1 O       -0.3010    -1.8370     0.8710 O.2   1 <1>  -0.5700 
  2 C        0.7430    -1.2930     0.6070 C.2   1 <1>   0.5950 
  3 C        1.8650    -1.9950     0.0440 C.2   1 <1>  -0.0860 
  4 C        0.8670     0.1870     0.8920 C.3   1 <1>  -0.1790 
  5 C        3.1350    -1.5730    -0.2630 C.2   1 <1>  -0.3020 
  6 C        1.8450    -3.3520    -0.3140 C.2   1 <1>  -0.1500 
  7 N        3.8700    -2.5850    -0.7730 N.pl3 1 <1>   0.0480 
  8 C        3.0710    -3.6920    -0.7970 C.2   1 <1>  -0.3320 
  9 C        5.2730    -2.4660    -1.2170 C.3   1 <1>   0.0160 
 10 C        3.5470    -5.0390    -1.3070 C.3   1 <1>   0.5230 
 11 N        2.6280    -6.0550    -0.7610 N.4   1 <1>  -0.9590 
 12 C        2.7710    -6.2650     0.7030 C.3   1 <1>   0.3430 
 13 C        2.5370    -7.3190    -1.5370 C.3   1 <1>   0.3430 
 14 C        1.5560    -7.0190     1.2570 C.3   1 <1>  -0.1600 
 15 C        1.5060    -8.2680    -0.9090 C.3   1 <1>  -0.1600 
 16 C        0.6340    -7.6080     0.1720 C.3   1 <1>   0.4240 
 17 O       -0.0120    -6.5320    -0.4760 O.3   1 <1>  -0.5600 
 18 C       -0.3720    -8.6200     0.7550 C.ar  1 <1>  -0.1430 
 19 C       -1.1820    -6.0320     0.1070 C.3   1 <1>   0.1200 
 20 C       -1.7420    -8.3840     0.6960 C.ar  1 <1>  -0.1430 
 21 C        0.0720    -9.7940     1.3560 C.ar  1 <1>  -0.1500 
 22 C       -2.2590    -7.1100     0.0570 C.3   1 <1>  -0.0170 
 23 C       -2.6420    -9.3000     1.2170 C.ar  1 <1>  -0.1500 
 24 C       -0.8250   -10.7070     1.8780 C.ar  1 <1>  -0.1500 
 25 C       -2.1860   -10.4710     1.8130 C.ar  1 <1>   0.0830 
 26 O       -2.9980   -11.4170     2.3470 O.3   1 <1>  -0.3630 
 27 C       -4.4010   -11.2850     2.3150 C.3   1 <1>   0.0400 
 28 H        1.1520     0.7060    -0.0030 H     1 <1>   0.0800 
 29 H        1.6080     0.3480     1.6520 H     1 <1>   0.0800 
 30 H       -0.0750     0.5750     1.2350 H     1 <1>   0.0800 
 31 H        3.5370    -0.5820    -0.1340 H     1 <1>   0.1500 
 32 H        0.9580    -3.9520    -0.1960 H     1 <1>   0.1500 
 33 H        5.6060    -1.4520    -1.0870 H     1 <1>   0.0800 
 34 H        5.3460    -2.7270    -2.2570 H     1 <1>   0.0800 
 35 H        5.8950    -3.1160    -0.6290 H     1 <1>   0.0800 
 36 H        4.5540    -5.2370    -0.9790 H     1 <1>   0.0800 
 37 H        3.5180    -5.0440    -2.3840 H     1 <1>   0.0800 
 38 H        1.6840    -5.6370    -0.8610 H     1 <1>   0.4500 
 39 H        2.8540    -5.3140     1.2060 H     1 <1>   0.0800 
 40 H        3.6690    -6.8290     0.9010 H     1 <1>   0.0800 
 41 H        3.4990    -7.8040    -1.5760 H     1 <1>   0.0800 
 42 H        2.2300    -7.0930    -2.5460 H     1 <1>   0.0800 
 43 H        0.9950    -6.3750     1.9080 H     1 <1>   0.0800 
 44 H        1.9280    -7.8130     1.8780 H     1 <1>   0.0800 
 45 H        2.0370    -9.0990    -0.4860 H     1 <1>   0.0800 
 46 H        0.8710    -8.6700    -1.6780 H     1 <1>   0.0800 
 47 H       -1.4930    -5.1670    -0.4530 H     1 <1>   0.0800 
 48 H       -0.9820    -5.7370     1.1220 H     1 <1>   0.0800 
 49 H        1.1200   -10.0190     1.4300 H     1 <1>   0.1500 
 50 H       -2.5310    -7.3010    -0.9660 H     1 <1>   0.0800 
 51 H       -3.1320    -6.7600     0.5780 H     1 <1>   0.0800 
 52 H       -3.6930    -9.0920     1.1540 H     1 <1>   0.1500 
 53 H       -0.4790   -11.6140     2.3410 H     1 <1>   0.1500 
 54 H       -4.8280   -12.1530     2.7840 H     1 <1>   0.0800 
 55 H       -4.7230   -11.2280     1.2900 H     1 <1>   0.0800 
 56 H       -4.6810   -10.4000     2.8580 H     1 <1>   0.0800 
@<TRIPOS>BOND
  1   1   2  2   
  2   2   3  1   
  3   2   4  1   
  4   3   5  2   
  5   3   6  1   
  6   4  28  1   
  7   4  29  1   
  8   4  30  1   
  9   5   7  1   
 10   5  31  1   
 11   6   8  2   
 12   6  32  1   
 13   7   8  1   
 14   7   9  1   
 15   8  10  1   
 16   9  33  1   
 17   9  34  1   
 18   9  35  1   
 19  10  11  1   
 20  10  36  1   
 21  10  37  1   
 22  11  12  1   
 23  11  13  1   
 24  11  38  1   
 25  12  14  1   
 26  12  39  1   
 27  12  40  1   
 28  13  15  1   
 29  13  41  1   
 30  13  42  1   
 31  14  16  1   
 32  14  43  1   
 33  14  44  1   
 34  15  16  1   
 35  15  45  1   
 36  15  46  1   
 37  16  17  1   
 38  16  18  1   
 39  17  19  1   
 40  18  20  ar  
 41  18  21  ar  
 42  19  22  1   
 43  19  47  1   
 44  19  48  1   
 45  20  22  1   
 46  20  23  ar  
 47  21  24  ar  
 48  21  49  1   
 49  22  50  1   
 50  22  51  1   
 51  23  25  ar  
 52  23  52  1   
 53  24  25  ar  
 54  24  53  1   
 55  25  26  1   
 56  26  27  1   
 57  27  54  1   
 58  27  55  1   
 59  27  56  1   
@<TRIPOS>SUBSTRUCTURE
  1 ****  17 GROUP 4 **** **** 0

# MOE 2024.06 (io_trps.svl 2023.06)
