@<TRIPOS>MOLECULE
NONAME
56 60 1 0 0 
SMALL
USER_CHARGES


@<TRIPOS>ATOM
  1 O       -1.3380     0.9260    -2.8970 O.2   1 <1>  -0.5700 
  2 C       -2.0660     1.3240    -2.0070 C.2   1 <1>   0.5440 
  3 N       -3.2190     0.6190    -1.7230 N.am  1 <1>  -0.6600 
  4 C       -1.7230     2.5490    -1.3260 C.ar  1 <1>   0.0860 
  5 C       -4.2290     1.0150    -0.6950 C.3   1 <1>   0.1400 
  6 C       -3.4990    -0.7250    -2.3140 C.3   1 <1>   0.1400 
  7 C       -1.3800     2.5730     0.0360 C.ar  1 <1>   0.3920 
  8 C       -1.7250     3.7550    -2.0160 C.ar  1 <1>  -0.1500 
  9 C       -4.3510    -0.0750     0.3860 C.3   1 <1>   0.1900 
 10 C       -3.6810    -1.7800    -1.2080 C.3   1 <1>   0.1100 
 11 O       -1.3500     1.3970     0.7000 O.3   1 <1>  -0.3630 
 12 N       -1.0900     3.6730     0.7350 N.ar  1 <1>  -0.6200 
 13 C       -1.4130     4.8870    -1.3020 C.ar  1 <1>  -0.1430 
 14 N       -4.7160    -1.3780    -0.2270 N.3   1 <1>  -0.8100 
 15 C       -5.3840     0.3350     1.4530 C.3   1 <1>   0.1200 
 16 C       -0.9830     1.3130     2.0630 C.3   1 <1>   0.0400 
 17 C       -1.1170     4.7880     0.0340 C.ar  1 <1>   0.1670 
 18 C       -1.3350     6.3130    -1.7870 C.3   1 <1>  -0.0170 
 19 C       -4.8930    -2.3980     0.8340 C.3   1 <1>   0.3330 
 20 O       -5.5010    -0.6590     2.4310 O.3   1 <1>  -0.5600 
 21 C       -0.8110     6.1390     0.6240 C.3   1 <1>  -0.0170 
 22 C       -1.2130     7.1290    -0.4870 C.3   1 <1>  -0.1600 
 23 C       -5.3960    -3.7180     0.2510 C.ar  1 <1>  -0.1430 
 24 C       -5.8860    -1.9030     1.9080 C.3   1 <1>   0.1200 
 25 C       -6.4520    -3.7420    -0.6500 C.ar  1 <1>  -0.1500 
 26 C       -4.8030    -4.9150     0.6260 C.ar  1 <1>  -0.1500 
 27 C       -6.9090    -4.9420    -1.1670 C.ar  1 <1>  -0.1500 
 28 C       -5.2580    -6.1160     0.1090 C.ar  1 <1>  -0.1500 
 29 C       -6.3120    -6.1300    -0.7880 C.ar  1 <1>  -0.1500 
 30 H       -3.9630     1.9490    -0.2340 H     1 <1>   0.0800 
 31 H       -5.1830     1.1450    -1.1750 H     1 <1>   0.0800 
 32 H       -4.3970    -0.6720    -2.9030 H     1 <1>   0.0800 
 33 H       -2.6970    -1.0310    -2.9620 H     1 <1>   0.0800 
 34 H       -1.9590     3.7870    -3.0660 H     1 <1>   0.1500 
 35 H       -3.3970    -0.1670     0.8750 H     1 <1>   0.0800 
 36 H       -2.7380    -1.9280    -0.7100 H     1 <1>   0.0800 
 37 H       -3.9600    -2.7110    -1.6720 H     1 <1>   0.0800 
 38 H       -6.3500     0.4950     1.0070 H     1 <1>   0.0800 
 39 H       -5.0720     1.2390     1.9450 H     1 <1>   0.0800 
 40 H       -1.0240     0.2810     2.3620 H     1 <1>   0.0800 
 41 H       -1.6730     1.8960     2.6470 H     1 <1>   0.0800 
 42 H        0.0180     1.6920     2.1770 H     1 <1>   0.0800 
 43 H       -0.4580     6.4380    -2.3980 H     1 <1>   0.0800 
 44 H       -2.2120     6.5900    -2.3460 H     1 <1>   0.0800 
 45 H       -3.9450    -2.5670     1.3160 H     1 <1>   0.0800 
 46 H       -1.3760     6.3020     1.5250 H     1 <1>   0.0800 
 47 H        0.2410     6.2020     0.8370 H     1 <1>   0.0800 
 48 H       -2.1750     7.5490    -0.2470 H     1 <1>   0.0800 
 49 H       -0.4990     7.9280    -0.5840 H     1 <1>   0.0800 
 50 H       -5.9250    -2.6050     2.7210 H     1 <1>   0.0800 
 51 H       -6.8720    -1.8090     1.4880 H     1 <1>   0.0800 
 52 H       -6.9150    -2.8180    -0.9520 H     1 <1>   0.1500 
 53 H       -3.9830    -4.9200     1.3220 H     1 <1>   0.1500 
 54 H       -7.7270    -4.9480    -1.8660 H     1 <1>   0.1500 
 55 H       -4.7920    -7.0400     0.4040 H     1 <1>   0.1500 
 56 H       -6.6660    -7.0630    -1.1890 H     1 <1>   0.1500 
@<TRIPOS>BOND
  1   1   2  2   
  2   2   3  am  
  3   2   4  1   
  4   3   5  1   
  5   3   6  1   
  6   4   7  ar  
  7   4   8  ar  
  8   5   9  1   
  9   5  30  1   
 10   5  31  1   
 11   6  10  1   
 12   6  32  1   
 13   6  33  1   
 14   7  11  1   
 15   7  12  ar  
 16   8  13  ar  
 17   8  34  1   
 18   9  14  1   
 19   9  15  1   
 20   9  35  1   
 21  10  14  1   
 22  10  36  1   
 23  10  37  1   
 24  11  16  1   
 25  12  17  ar  
 26  13  17  ar  
 27  13  18  1   
 28  14  19  1   
 29  15  20  1   
 30  15  38  1   
 31  15  39  1   
 32  16  40  1   
 33  16  41  1   
 34  16  42  1   
 35  17  21  1   
 36  18  22  1   
 37  18  43  1   
 38  18  44  1   
 39  19  23  1   
 40  19  24  1   
 41  19  45  1   
 42  20  24  1   
 43  21  22  1   
 44  21  46  1   
 45  21  47  1   
 46  22  48  1   
 47  22  49  1   
 48  23  25  ar  
 49  23  26  ar  
 50  24  50  1   
 51  24  51  1   
 52  25  27  ar  
 53  25  52  1   
 54  26  28  ar  
 55  26  53  1   
 56  27  29  ar  
 57  27  54  1   
 58  28  29  ar  
 59  28  55  1   
 60  29  56  1   
@<TRIPOS>SUBSTRUCTURE
  1 ****   5 GROUP 4 **** **** 0

# MOE 2024.06 (io_trps.svl 2023.06)
