@<TRIPOS>MOLECULE
NONAME
45 49 1 0 0 
SMALL
USER_CHARGES


@<TRIPOS>ATOM
  1 S       -1.4840     1.9850    -1.5580 S.3   1 <1>  -0.0800 
  2 C       -0.4360     3.1510    -0.7800 C.2   1 <1>  -0.1400 
  3 C       -0.0900     1.1380    -2.2100 C.2   1 <1>  -0.1100 
  4 C        0.8580     2.8890    -1.0030 C.2   1 <1>  -0.1810 
  5 C       -0.9720     4.2990     0.0300 C.3   1 <1>   0.0200 
  6 C        1.0580     1.7330    -1.8320 C.2   1 <1>  -0.1500 
  7 C        1.9500     3.7690    -0.3990 C.3   1 <1>   0.4610 
  8 C        0.1620     5.3290     0.1570 C.3   1 <1>   0.1200 
  9 O        1.3850     4.7120     0.5030 O.3   1 <1>  -0.5600 
 10 C        2.9210     2.9250     0.4310 C.3   1 <1>  -0.1600 
 11 C        2.7410     4.5270    -1.4760 C.3   1 <1>  -0.1600 
 12 C        4.0420     3.7480     1.0760 C.3   1 <1>   0.3430 
 13 C        4.0310     5.1720    -0.9550 C.3   1 <1>   0.3430 
 14 N        4.0760     5.1350     0.5350 N.4   1 <1>  -0.9590 
 15 C        5.1790     5.9540     1.0960 C.3   1 <1>   0.5240 
 16 C        4.9060     7.4060     0.7970 C.2   1 <1>  -0.1810 
 17 C        5.3380     8.0950    -0.2880 C.2   1 <1>  -0.0260 
 18 C        4.1870     8.3220     1.5470 C.2   1 <1>   0.1390 
 19 N        6.0830     7.6730    -1.3680 N.2   1 <1>  -0.5760 
 20 N        4.8730     9.3820    -0.1310 N.pl3 1 <1>   0.6010 
 21 N        4.1500     9.5040     1.0010 N.2   1 <1>  -0.7070 
 22 C        6.3620     8.5820    -2.2500 C.2   1 <1>   0.3760 
 23 C        5.1790    10.3280    -1.0850 C.2   1 <1>  -0.1810 
 24 C        5.9280     9.9360    -2.1500 C.2   1 <1>  -0.1360 
 25 H       -0.2840     0.2710    -2.8170 H     1 <1>   0.1500 
 26 H       -1.2790     3.9540     1.0010 H     1 <1>   0.0800 
 27 H       -1.8170     4.7450    -0.4630 H     1 <1>   0.0800 
 28 H        2.0400     1.3940    -2.1110 H     1 <1>   0.1500 
 29 H       -0.0780     6.0470     0.9220 H     1 <1>   0.0800 
 30 H        0.2910     5.8510    -0.7750 H     1 <1>   0.0800 
 31 H        3.3700     2.1790    -0.1990 H     1 <1>   0.0800 
 32 H        2.3740     2.3980     1.1920 H     1 <1>   0.0800 
 33 H        2.1200     5.2720    -1.9360 H     1 <1>   0.0800 
 34 H        3.0140     3.8420    -2.2570 H     1 <1>   0.0800 
 35 H        4.9880     3.2590     0.9040 H     1 <1>   0.0800 
 36 H        3.8740     3.7880     2.1410 H     1 <1>   0.0800 
 37 H        4.0740     6.1910    -1.3040 H     1 <1>   0.0800 
 38 H        4.8870     4.6510    -1.3550 H     1 <1>   0.0800 
 39 H        3.1800     5.5610     0.8330 H     1 <1>   0.4500 
 40 H        6.1180     5.6660     0.6500 H     1 <1>   0.0800 
 41 H        5.2440     5.8150     2.1620 H     1 <1>   0.0800 
 42 H        3.7000     8.1110     2.4870 H     1 <1>   0.1500 
 43 H        6.9500     8.3140    -3.1100 H     1 <1>   0.0600 
 44 H        4.8020    11.3190    -0.9160 H     1 <1>   0.1500 
 45 H        6.2110    10.6160    -2.9330 H     1 <1>   0.1500 
@<TRIPOS>BOND
  1   1   2  1   
  2   1   3  1   
  3   2   4  2   
  4   2   5  1   
  5   3   6  2   
  6   3  25  1   
  7   4   6  1   
  8   4   7  1   
  9   5   8  1   
 10   5  26  1   
 11   5  27  1   
 12   6  28  1   
 13   7   9  1   
 14   7  10  1   
 15   7  11  1   
 16   8   9  1   
 17   8  29  1   
 18   8  30  1   
 19  10  12  1   
 20  10  31  1   
 21  10  32  1   
 22  11  13  1   
 23  11  33  1   
 24  11  34  1   
 25  12  14  1   
 26  12  35  1   
 27  12  36  1   
 28  13  14  1   
 29  13  37  1   
 30  13  38  1   
 31  14  15  1   
 32  14  39  1   
 33  15  16  1   
 34  15  40  1   
 35  15  41  1   
 36  16  17  2   
 37  16  18  1   
 38  17  19  1   
 39  17  20  1   
 40  18  21  2   
 41  18  42  1   
 42  19  22  2   
 43  20  21  1   
 44  20  23  1   
 45  22  24  1   
 46  22  43  1   
 47  23  24  2   
 48  23  44  1   
 49  24  45  1   
@<TRIPOS>SUBSTRUCTURE
  1 ****  13 GROUP 4 **** **** 0

# MOE 2024.06 (io_trps.svl 2023.06)
