@<TRIPOS>MOLECULE
NONAME
40 43 1 0 0 
SMALL
USER_CHARGES


@<TRIPOS>ATOM
  1 F       -0.6180    -1.2020    -2.7000 F     1 <1>  -0.1900 
  2 C        0.1450    -2.1370    -2.2020 C.ar  1 <1>   0.1900 
  3 C        1.3720    -1.7870    -1.6750 C.ar  1 <1>  -0.1500 
  4 C       -0.3010    -3.4440    -2.2200 C.ar  1 <1>  -0.1500 
  5 C        2.1750    -2.7840    -1.1470 C.ar  1 <1>  -0.1500 
  6 C        0.5120    -4.4310    -1.6900 C.ar  1 <1>  -0.1500 
  7 C        1.7540    -4.1100    -1.1450 C.ar  1 <1>  -0.1080 
  8 C        2.6820    -5.1710    -0.5480 C.3   1 <1>   0.3330 
  9 N        2.0380    -6.4800    -0.2050 N.am  1 <1>  -0.5100 
 10 C        2.9360    -4.9660     0.9650 C.3   1 <1>   0.0000 
 11 C        1.9020    -7.5470    -1.0390 C.2   1 <1>   0.6300 
 12 C        2.6570    -6.4690     1.1540 C.3   1 <1>   0.2250 
 13 O        1.9610    -7.4220    -2.2420 O.2   1 <1>  -0.5700 
 14 C        1.6540    -8.9380    -0.4450 C.3   1 <1>   0.0320 
 15 C        0.2670    -9.0610     0.1710 C.ar  1 <1>  -0.0320 
 16 C        2.8040    -9.7260     0.1260 C.3   1 <1>  -0.2000 
 17 C        2.1800   -10.1530    -1.1620 C.3   1 <1>  -0.2000 
 18 C        0.0870    -9.0670     1.5460 C.ar  1 <1>  -0.1500 
 19 C       -0.8400    -9.1580    -0.6580 C.ar  1 <1>  -0.1500 
 20 C       -1.1840    -9.1710     2.0850 C.ar  1 <1>  -0.1500 
 21 C       -2.1120    -9.2630    -0.1220 C.ar  1 <1>  -0.1500 
 22 C       -2.2840    -9.2700     1.2510 C.ar  1 <1>  -0.1500 
 23 H        1.6860    -0.7590    -1.6800 H     1 <1>   0.1500 
 24 H       -1.2610    -3.6820    -2.6420 H     1 <1>   0.1500 
 25 H        3.1350    -2.5220    -0.7360 H     1 <1>   0.1500 
 26 H        0.1690    -5.4500    -1.7100 H     1 <1>   0.1500 
 27 H        3.5880    -5.3250    -1.1080 H     1 <1>   0.0000 
 28 H        2.1990    -4.3470     1.4470 H     1 <1>   0.0000 
 29 H        3.9450    -4.6780     1.2000 H     1 <1>   0.0000 
 30 H        3.5470    -7.0720     1.1880 H     1 <1>   0.0000 
 31 H        1.9410    -6.6830     1.9270 H     1 <1>   0.0000 
 32 H        2.6450   -10.3450     0.9920 H     1 <1>   0.1000 
 33 H        3.7950    -9.3110     0.0910 H     1 <1>   0.1000 
 34 H        2.7230   -10.0090    -2.0800 H     1 <1>   0.1000 
 35 H        1.5740   -11.0410    -1.1760 H     1 <1>   0.1000 
 36 H        0.9350    -8.9890     2.2020 H     1 <1>   0.1500 
 37 H       -0.7090    -9.1500    -1.7270 H     1 <1>   0.1500 
 38 H       -1.3170    -9.1760     3.1530 H     1 <1>   0.1500 
 39 H       -2.9650    -9.3370    -0.7730 H     1 <1>   0.1500 
 40 H       -3.2720    -9.3510     1.6700 H     1 <1>   0.1500 
@<TRIPOS>BOND
  1   1   2  1   
  2   2   3  ar  
  3   2   4  ar  
  4   3   5  ar  
  5   3  23  1   
  6   4   6  ar  
  7   4  24  1   
  8   5   7  ar  
  9   5  25  1   
 10   6   7  ar  
 11   6  26  1   
 12   7   8  1   
 13   8   9  1   
 14   8  10  1   
 15   8  27  1   
 16   9  11  am  
 17   9  12  1   
 18  10  12  1   
 19  10  28  1   
 20  10  29  1   
 21  11  13  2   
 22  11  14  1   
 23  12  30  1   
 24  12  31  1   
 25  14  15  1   
 26  14  16  1   
 27  14  17  1   
 28  15  18  ar  
 29  15  19  ar  
 30  16  17  1   
 31  16  32  1   
 32  16  33  1   
 33  17  34  1   
 34  17  35  1   
 35  18  20  ar  
 36  18  36  1   
 37  19  21  ar  
 38  19  37  1   
 39  20  22  ar  
 40  20  38  1   
 41  21  22  ar  
 42  21  39  1   
 43  22  40  1   
@<TRIPOS>SUBSTRUCTURE
  1 ****   9 GROUP 4 **** **** 0

# MOE 2024.06 (io_trps.svl 2023.06)
