@<TRIPOS>MOLECULE
NONAME
55 57 1 0 0 
SMALL
USER_CHARGES


@<TRIPOS>ATOM
  1 O        4.6380    -0.1470     2.2120 O.co2 1 <1>  -0.9000 
  2 C        4.3150     1.0250     1.9640 C.2   1 <1>   0.9060 
  3 O        4.5630     1.9410     2.7450 O.co2 1 <1>  -0.9000 
  4 C        3.5900     1.3180     0.6360 C.3   1 <1>  -0.1060 
  5 C        4.2360     0.4450    -0.4650 C.3   1 <1>   0.4230 
  6 C        3.7680     2.8080     0.2180 C.3   1 <1>  -0.1600 
  7 C        2.0750     0.9940     0.7910 C.3   1 <1>  -0.1600 
  8 N        3.9750    -1.0070    -0.1800 N.4   1 <1>  -0.9590 
  9 C        5.7240     0.8160    -0.6420 C.3   1 <1>   0.1400 
 10 C        5.2380     3.1830    -0.0380 C.3   1 <1>   0.1400 
 11 C        1.6070    -0.1340    -0.1440 C.3   1 <1>  -0.1600 
 12 C        2.5270    -1.3620    -0.0840 C.3   1 <1>   0.3430 
 13 C        4.7570    -1.9820    -0.9850 C.3   1 <1>   0.2630 
 14 N        5.8120     2.2490    -1.0520 N.am  1 <1>  -0.6600 
 15 C        6.3390     2.6110    -2.2680 C.2   1 <1>   0.5690 
 16 O        6.6190     1.7720    -3.0950 O.2   1 <1>  -0.5700 
 17 C        6.5720     4.0690    -2.6490 C.3   1 <1>   0.0440 
 18 C        7.5080     4.8060    -1.6940 C.ar  1 <1>  -0.1430 
 19 C        7.1700     6.0640    -1.2160 C.ar  1 <1>  -0.1500 
 20 C        8.7020     4.2250    -1.2920 C.ar  1 <1>  -0.1500 
 21 C        8.0010     6.7330    -0.3350 C.ar  1 <1>   0.0830 
 22 C        9.5330     4.8790    -0.3990 C.ar  1 <1>  -0.1500 
 23 O        7.6140     7.9700     0.0650 O.3   1 <1>  -0.3620 
 24 C        9.1820     6.1210     0.1010 C.ar  1 <1>   0.0830 
 25 C        8.4710     9.0400    -0.2680 C.3   1 <1>   0.0400 
 26 O       10.0060     6.6870     1.0150 O.3   1 <1>  -0.3630 
 27 C        9.5010     6.7560     2.3300 C.3   1 <1>   0.0400 
 28 H        3.7570     0.6830    -1.3990 H     1 <1>   0.0800 
 29 H        3.3890     3.4460     0.9990 H     1 <1>   0.0800 
 30 H        3.2020     3.0160    -0.6720 H     1 <1>   0.0800 
 31 H        1.8830     0.6970     1.8100 H     1 <1>   0.0800 
 32 H        1.4750     1.8710     0.6140 H     1 <1>   0.0800 
 33 H        4.3180    -1.0540     0.8190 H     1 <1>   0.4500 
 34 H        6.1740     0.1960    -1.3940 H     1 <1>   0.0800 
 35 H        6.2670     0.6780     0.2770 H     1 <1>   0.0800 
 36 H        5.8080     3.1110     0.8750 H     1 <1>   0.0800 
 37 H        5.2870     4.2030    -0.3700 H     1 <1>   0.0800 
 38 H        1.5640     0.2260    -1.1570 H     1 <1>   0.0800 
 39 H        0.6100    -0.4310     0.1280 H     1 <1>   0.0800 
 40 H        2.2610    -2.0360    -0.8810 H     1 <1>   0.0800 
 41 H        2.3630    -1.8720     0.8520 H     1 <1>   0.0800 
 42 H        4.5110    -1.8860    -2.0300 H     1 <1>   0.0800 
 43 H        4.5390    -2.9870    -0.6630 H     1 <1>   0.0800 
 44 H        5.8130    -1.8090    -0.8570 H     1 <1>   0.0800 
 45 H        6.9990     4.1020    -3.6340 H     1 <1>   0.0800 
 46 H        5.6190     4.5610    -2.6950 H     1 <1>   0.0800 
 47 H        6.2580     6.5430    -1.5220 H     1 <1>   0.1500 
 48 H        8.9880     3.2550    -1.6640 H     1 <1>   0.1500 
 49 H       10.4520     4.4240    -0.0770 H     1 <1>   0.1500 
 50 H        7.9580     9.9600    -0.0540 H     1 <1>   0.0800 
 51 H        8.7080     8.9840    -1.3160 H     1 <1>   0.0800 
 52 H        9.3670     8.9770     0.3220 H     1 <1>   0.0800 
 53 H       10.2660     7.1630     2.9650 H     1 <1>   0.0800 
 54 H        9.2400     5.7640     2.6540 H     1 <1>   0.0800 
 55 H        8.6330     7.3920     2.3450 H     1 <1>   0.0800 
@<TRIPOS>BOND
  1   1   2  ar  
  2   2   3  ar  
  3   2   4  1   
  4   4   5  1   
  5   4   6  1   
  6   4   7  1   
  7   5   8  1   
  8   5   9  1   
  9   5  28  1   
 10   6  10  1   
 11   6  29  1   
 12   6  30  1   
 13   7  11  1   
 14   7  31  1   
 15   7  32  1   
 16   8  12  1   
 17   8  13  1   
 18   8  33  1   
 19   9  14  1   
 20   9  34  1   
 21   9  35  1   
 22  10  14  1   
 23  10  36  1   
 24  10  37  1   
 25  11  12  1   
 26  11  38  1   
 27  11  39  1   
 28  12  40  1   
 29  12  41  1   
 30  13  42  1   
 31  13  43  1   
 32  13  44  1   
 33  14  15  am  
 34  15  16  2   
 35  15  17  1   
 36  17  18  1   
 37  17  45  1   
 38  17  46  1   
 39  18  19  ar  
 40  18  20  ar  
 41  19  21  ar  
 42  19  47  1   
 43  20  22  ar  
 44  20  48  1   
 45  21  23  1   
 46  21  24  ar  
 47  22  24  ar  
 48  22  49  1   
 49  23  25  1   
 50  24  26  1   
 51  25  50  1   
 52  25  51  1   
 53  25  52  1   
 54  26  27  1   
 55  27  53  1   
 56  27  54  1   
 57  27  55  1   
@<TRIPOS>SUBSTRUCTURE
  1 ****  10 GROUP 4 **** **** 0

# MOE 2024.06 (io_trps.svl 2023.06)
