@<TRIPOS>MOLECULE
NONAME
49 50 1 0 0 
SMALL
USER_CHARGES


@<TRIPOS>ATOM
  1 O       -1.7720    -1.4780    -0.7180 O.2   1 <1>  -0.5700 
  2 C       -0.9340    -1.7290     0.1250 C.2   1 <1>   0.7800 
  3 O        0.3310    -1.9040    -0.2220 O.3   1 <1>  -0.4300 
  4 N       -1.1860    -1.8480     1.4440 N.am  1 <1>  -0.7300 
  5 C        0.7170    -1.7930    -1.5730 C.3   1 <1>   0.2630 
  6 C       -2.4450    -1.6290     2.2390 C.3   1 <1>   0.2810 
  7 C        2.2160    -2.0220    -1.6650 C.ar  1 <1>  -0.1440 
  8 C       -3.7080    -2.3990     1.7860 C.2   1 <1>   0.5690 
  9 C       -2.7240    -0.1220     2.4880 C.3   1 <1>  -0.0800 
 10 C        2.7180    -3.2820    -1.9550 C.ar  1 <1>  -0.1500 
 11 C        3.0960    -0.9700    -1.4600 C.ar  1 <1>  -0.1500 
 12 O       -4.4130    -2.8840     2.6410 O.2   1 <1>  -0.5700 
 13 N       -4.0350    -2.5070     0.4750 N.am  1 <1>  -0.7300 
 14 C       -3.0930     0.6850     1.2300 C.3   1 <1>  -0.2400 
 15 C       -1.5530     0.5670     3.2100 C.3   1 <1>  -0.2400 
 16 C        4.0840    -3.4870    -2.0440 C.ar  1 <1>  -0.1500 
 17 C        4.4620    -1.1740    -1.5490 C.ar  1 <1>  -0.1500 
 18 C       -5.3100    -3.0020    -0.0600 C.3   1 <1>   0.2840 
 19 C        4.9570    -2.4320    -1.8410 C.ar  1 <1>  -0.1500 
 20 C       -5.9930    -1.8510    -0.7760 C.ar  1 <1>  -0.1430 
 21 C       -5.8130    -1.6590    -2.1370 C.ar  1 <1>  -0.1500 
 22 C       -6.7940    -0.9720    -0.0640 C.ar  1 <1>  -0.1500 
 23 C       -6.4330    -0.6020    -2.7810 C.ar  1 <1>  -0.1500 
 24 C       -7.4140     0.0860    -0.7060 C.ar  1 <1>  -0.1500 
 25 C       -7.2350     0.2710    -2.0650 C.ar  1 <1>  -0.1500 
 26 H       -0.3620    -2.0320     2.0130 H     1 <1>   0.3700 
 27 H        0.4580    -0.8090    -1.9240 H     1 <1>   0.0800 
 28 H        0.1780    -2.5290    -2.1440 H     1 <1>   0.0800 
 29 H       -2.2360    -2.0410     3.2100 H     1 <1>   0.0800 
 30 H       -3.5750    -0.0770     3.1480 H     1 <1>   0.0800 
 31 H        2.0480    -4.1090    -2.1100 H     1 <1>   0.1500 
 32 H        2.7200     0.0110    -1.2280 H     1 <1>   0.1500 
 33 H       -3.4250    -2.0430    -0.2130 H     1 <1>   0.3700 
 34 H       -2.2580     0.7550     0.5570 H     1 <1>   0.0800 
 35 H       -3.3830     1.6830     1.5040 H     1 <1>   0.0800 
 36 H       -3.9190     0.2340     0.7090 H     1 <1>   0.0800 
 37 H       -0.6810     0.6010     2.5810 H     1 <1>   0.0800 
 38 H       -1.3070     0.0420     4.1160 H     1 <1>   0.0800 
 39 H       -1.8210     1.5760     3.4710 H     1 <1>   0.0800 
 40 H        4.4680    -4.4660    -2.2690 H     1 <1>   0.1500 
 41 H        5.1400    -0.3540    -1.3890 H     1 <1>   0.1500 
 42 H       -5.9360    -3.3680     0.7370 H     1 <1>   0.0800 
 43 H       -5.1220    -3.8120    -0.7430 H     1 <1>   0.0800 
 44 H        6.0190    -2.5910    -1.9100 H     1 <1>   0.1500 
 45 H       -5.1870    -2.3280    -2.7010 H     1 <1>   0.1500 
 46 H       -6.9310    -1.1090     0.9960 H     1 <1>   0.1500 
 47 H       -6.2910    -0.4570    -3.8370 H     1 <1>   0.1500 
 48 H       -8.0350     0.7640    -0.1470 H     1 <1>   0.1500 
 49 H       -7.7160     1.0930    -2.5650 H     1 <1>   0.1500 
@<TRIPOS>BOND
  1   1   2  2   
  2   2   3  1   
  3   2   4  am  
  4   3   5  1   
  5   4   6  1   
  6   4  26  1   
  7   5   7  1   
  8   5  27  1   
  9   5  28  1   
 10   6   8  1   
 11   6   9  1   
 12   6  29  1   
 13   7  10  ar  
 14   7  11  ar  
 15   8  12  2   
 16   8  13  am  
 17   9  14  1   
 18   9  15  1   
 19   9  30  1   
 20  10  16  ar  
 21  10  31  1   
 22  11  17  ar  
 23  11  32  1   
 24  13  18  1   
 25  13  33  1   
 26  14  34  1   
 27  14  35  1   
 28  14  36  1   
 29  15  37  1   
 30  15  38  1   
 31  15  39  1   
 32  16  19  ar  
 33  16  40  1   
 34  17  19  ar  
 35  17  41  1   
 36  18  20  1   
 37  18  42  1   
 38  18  43  1   
 39  19  44  1   
 40  20  21  ar  
 41  20  22  ar  
 42  21  23  ar  
 43  21  45  1   
 44  22  24  ar  
 45  22  46  1   
 46  23  25  ar  
 47  23  47  1   
 48  24  25  ar  
 49  24  48  1   
 50  25  49  1   
@<TRIPOS>SUBSTRUCTURE
  1 ****   1 GROUP 4 **** **** 0

# MOE 2024.06 (io_trps.svl 2023.06)
