@<TRIPOS>MOLECULE
NONAME
45 48 1 0 0 
SMALL
USER_CHARGES


@<TRIPOS>ATOM
  1 S       -0.2250    -0.0340    -1.2820 S.o2  1 <1>   1.5010 
  2 O       -0.4710     0.8500    -2.4010 O.2   1 <1>  -0.6500 
  3 O       -0.0090    -1.4430    -1.5340 O.2   1 <1>  -0.6500 
  4 N       -1.5560     0.1220    -0.2340 N.am  1 <1>  -0.8490 
  5 C        1.1370     0.6170    -0.3020 C.2   1 <1>  -0.0630 
  6 C       -2.8680     0.0670    -0.8840 C.3   1 <1>   0.1960 
  7 C       -1.5130    -0.6530     1.0130 C.3   1 <1>   0.1960 
  8 C        1.3630     1.8210     0.2880 C.2   1 <1>  -0.3320 
  9 C        2.2610    -0.1280     0.0250 C.2   1 <1>   0.1390 
 10 C       -3.2830    -1.3760    -1.1760 C.3   1 <1>  -0.1600 
 11 C       -1.9410    -2.1110     0.8180 C.3   1 <1>  -0.1600 
 12 N        2.5570     1.7410     0.9110 N.pl3 1 <1>   0.3140 
 13 C        0.4750     3.0570     0.2770 C.3   1 <1>  -0.0600 
 14 N        3.1100     0.5300     0.7520 N.2   1 <1>  -0.7070 
 15 C       -3.2900    -2.2180     0.1040 C.3   1 <1>   0.4610 
 16 C        3.2360     2.7920     1.6810 C.3   1 <1>   0.0160 
 17 O       -4.2430    -1.6810     1.0040 O.3   1 <1>  -0.5600 
 18 C       -3.6190    -3.6810    -0.1980 C.2   1 <1>  -0.1810 
 19 C       -5.6000    -2.0190     0.8320 C.3   1 <1>   0.1200 
 20 C       -4.7570    -4.2380     0.2360 C.2   1 <1>  -0.1400 
 21 C       -2.7980    -4.5930    -0.9430 C.2   1 <1>  -0.1500 
 22 C       -5.8280    -3.5290     1.0180 C.3   1 <1>   0.0200 
 23 S       -4.8770    -5.9230    -0.2250 S.3   1 <1>  -0.0800 
 24 C       -3.3260    -5.8280    -1.0470 C.2   1 <1>  -0.1100 
 25 H       -2.8570     0.6410    -1.7950 H     1 <1>   0.0800 
 26 H       -3.5950     0.5180    -0.2290 H     1 <1>   0.0800 
 27 H       -2.1860    -0.1930     1.7190 H     1 <1>   0.0800 
 28 H       -0.5260    -0.6150     1.4420 H     1 <1>   0.0800 
 29 H        2.4160    -1.1490    -0.2880 H     1 <1>   0.1500 
 30 H       -2.6020    -1.8060    -1.8860 H     1 <1>   0.0800 
 31 H       -4.2540    -1.3930    -1.6320 H     1 <1>   0.0800 
 32 H       -2.0160    -2.5970     1.7730 H     1 <1>   0.0800 
 33 H       -1.1890    -2.6370     0.2640 H     1 <1>   0.0800 
 34 H       -0.4190     2.8740    -0.2940 H     1 <1>   0.0800 
 35 H        0.9950     3.8860    -0.1690 H     1 <1>   0.0800 
 36 H        0.1880     3.3190     1.2800 H     1 <1>   0.0800 
 37 H        2.6110     3.0870     2.5020 H     1 <1>   0.0800 
 38 H        3.4240     3.6320     1.0390 H     1 <1>   0.0800 
 39 H        4.1670     2.4090     2.0550 H     1 <1>   0.0800 
 40 H       -5.9050    -1.7150    -0.1540 H     1 <1>   0.0800 
 41 H       -6.1720    -1.4660     1.5550 H     1 <1>   0.0800 
 42 H       -1.8560    -4.2810    -1.3640 H     1 <1>   0.1500 
 43 H       -6.8020    -3.7990     0.6530 H     1 <1>   0.0800 
 44 H       -5.7600    -3.7920     2.0580 H     1 <1>   0.0800 
 45 H       -2.9690    -6.7210    -1.5280 H     1 <1>   0.1500 
@<TRIPOS>BOND
  1   1   2  2   
  2   1   3  2   
  3   1   4  am  
  4   1   5  1   
  5   4   6  1   
  6   4   7  1   
  7   5   8  2   
  8   5   9  1   
  9   6  10  1   
 10   6  25  1   
 11   6  26  1   
 12   7  11  1   
 13   7  27  1   
 14   7  28  1   
 15   8  12  1   
 16   8  13  1   
 17   9  14  2   
 18   9  29  1   
 19  10  15  1   
 20  10  30  1   
 21  10  31  1   
 22  11  15  1   
 23  11  32  1   
 24  11  33  1   
 25  12  14  1   
 26  12  16  1   
 27  13  34  1   
 28  13  35  1   
 29  13  36  1   
 30  15  17  1   
 31  15  18  1   
 32  16  37  1   
 33  16  38  1   
 34  16  39  1   
 35  17  19  1   
 36  18  20  2   
 37  18  21  1   
 38  19  22  1   
 39  19  40  1   
 40  19  41  1   
 41  20  22  1   
 42  20  23  1   
 43  21  24  2   
 44  21  42  1   
 45  22  43  1   
 46  22  44  1   
 47  23  24  1   
 48  24  45  1   
@<TRIPOS>SUBSTRUCTURE
  1 ****   7 GROUP 4 **** **** 0

# MOE 2024.06 (io_trps.svl 2023.06)
