@<TRIPOS>MOLECULE
NONAME
44 46 1 0 0 
SMALL
USER_CHARGES


@<TRIPOS>ATOM
  1 F       -2.5440     2.0100     2.5910 F     1 <1>  -0.3400 
  2 C       -2.1360     2.5200     1.4370 C.3   1 <1>   0.8800 
  3 F       -0.8880     2.0960     1.2780 F     1 <1>  -0.3400 
  4 O       -2.1050     3.9250     1.5770 O.3   1 <1>  -0.3630 
  5 C       -1.9500     4.6570     0.4550 C.ar  1 <1>   0.0830 
  6 C       -2.9820     4.7810    -0.4830 C.ar  1 <1>   0.0860 
  7 C       -0.7420     5.3110     0.2720 C.ar  1 <1>  -0.1500 
  8 C       -4.2610     4.1420    -0.2860 C.2   1 <1>   0.5440 
  9 C       -2.7420     5.5550    -1.6170 C.ar  1 <1>  -0.1500 
 10 C       -0.5310     6.0800    -0.8570 C.ar  1 <1>  -0.1500 
 11 O       -4.4210     3.0090    -0.7010 O.2   1 <1>  -0.5700 
 12 N       -5.2810     4.7730     0.3890 N.am  1 <1>  -0.6600 
 13 C       -1.5330     6.1980    -1.8050 C.ar  1 <1>  -0.1500 
 14 C       -6.6150     4.1340     0.5910 C.3   1 <1>   0.1400 
 15 C       -5.1170     6.1270     0.9970 C.3   1 <1>   0.1400 
 16 C       -7.7520     4.9860    -0.0380 C.3   1 <1>   0.0000 
 17 C       -6.4740     6.7860     1.2860 C.3   1 <1>  -0.1600 
 18 C       -9.0910     4.4880     0.5530 C.3   1 <1>   0.2000 
 19 C       -7.4710     6.5100     0.1510 C.3   1 <1>  -0.1600 
 20 C       -7.8920     4.6240    -1.5290 C.3   1 <1>  -0.1600 
 21 O      -10.1220     5.3620     0.2570 O.3   1 <1>  -0.6800 
 22 C       -9.3930     3.1940    -0.2020 C.3   1 <1>  -0.1600 
 23 C       -8.7720     3.3660    -1.5960 C.3   1 <1>  -0.1600 
 24 H       -2.7560     2.1670     0.6340 H     1 <1>   0.0800 
 25 H        0.0310     5.2120     1.0140 H     1 <1>   0.1500 
 26 H       -3.5200     5.6480    -2.3560 H     1 <1>   0.1500 
 27 H        0.4100     6.5830    -1.0000 H     1 <1>   0.1500 
 28 H       -1.3670     6.7920    -2.6890 H     1 <1>   0.1500 
 29 H       -6.6240     3.1390     0.1820 H     1 <1>   0.0800 
 30 H       -6.7760     4.0410     1.6510 H     1 <1>   0.0800 
 31 H       -4.5470     6.0450     1.9070 H     1 <1>   0.0800 
 32 H       -4.5710     6.7530     0.3130 H     1 <1>   0.0800 
 33 H       -6.8680     6.4140     2.2160 H     1 <1>   0.0800 
 34 H       -6.3330     7.8470     1.4000 H     1 <1>   0.0800 
 35 H       -9.0630     4.3560     1.6210 H     1 <1>   0.0800 
 36 H       -7.0410     6.9020    -0.7550 H     1 <1>   0.0800 
 37 H       -8.3730     7.0650     0.3320 H     1 <1>   0.0800 
 38 H       -8.3890     5.4220    -2.0540 H     1 <1>   0.0800 
 39 H       -6.9330     4.4620    -1.9920 H     1 <1>   0.0800 
 40 H      -10.1840     5.4550    -0.7120 H     1 <1>   0.4000 
 41 H       -8.9050     2.3770     0.3000 H     1 <1>   0.0800 
 42 H      -10.4480     2.9820    -0.2410 H     1 <1>   0.0800 
 43 H       -8.1780     2.5030    -1.8450 H     1 <1>   0.0800 
 44 H       -9.5370     3.4860    -2.3440 H     1 <1>   0.0800 
@<TRIPOS>BOND
  1   1   2  1   
  2   2   3  1   
  3   2   4  1   
  4   2  24  1   
  5   4   5  1   
  6   5   6  ar  
  7   5   7  ar  
  8   6   8  1   
  9   6   9  ar  
 10   7  10  ar  
 11   7  25  1   
 12   8  11  2   
 13   8  12  am  
 14   9  13  ar  
 15   9  26  1   
 16  10  13  ar  
 17  10  27  1   
 18  12  14  1   
 19  12  15  1   
 20  13  28  1   
 21  14  16  1   
 22  14  29  1   
 23  14  30  1   
 24  15  17  1   
 25  15  31  1   
 26  15  32  1   
 27  16  18  1   
 28  16  19  1   
 29  16  20  1   
 30  17  19  1   
 31  17  33  1   
 32  17  34  1   
 33  18  21  1   
 34  18  22  1   
 35  18  35  1   
 36  19  36  1   
 37  19  37  1   
 38  20  23  1   
 39  20  38  1   
 40  20  39  1   
 41  21  40  1   
 42  22  23  1   
 43  22  41  1   
 44  22  42  1   
 45  23  43  1   
 46  23  44  1   
@<TRIPOS>SUBSTRUCTURE
  1 ****  12 GROUP 4 **** **** 0

# MOE 2024.06 (io_trps.svl 2023.06)
