@<TRIPOS>MOLECULE
NONAME
52 54 1 0 0 
SMALL
USER_CHARGES


@<TRIPOS>ATOM
  1 F        1.0960     1.0460     0.7830 F     1 <1>  -0.3400 
  2 C        0.8630     1.7980    -0.2830 C.3   1 <1>   1.1640 
  3 F        1.8940     2.6290    -0.3900 F     1 <1>  -0.3400 
  4 F        0.9170     0.9920    -1.3340 F     1 <1>  -0.3400 
  5 C       -0.4930     2.5270    -0.1880 C.ar  1 <1>  -0.1440 
  6 C       -0.5970     3.9000    -0.2660 C.ar  1 <1>  -0.1500 
  7 C       -1.6660     1.7790    -0.0160 C.ar  1 <1>  -0.1500 
  8 C       -1.8310     4.5770    -0.1770 C.ar  1 <1>   0.0000 
  9 C       -2.8850     2.4020     0.0760 C.ar  1 <1>  -0.1500 
 10 C       -2.9900     3.7980     0.0010 C.ar  1 <1>   0.3610 
 11 C       -1.9540     6.0000    -0.2500 C.ar  1 <1>   0.1000 
 12 N       -4.2120     4.4220     0.1020 N.ar  1 <1>  -0.1790 
 13 N       -0.8560     6.7680    -0.4320 N.pl3 1 <1>  -0.8690 
 14 C       -3.2360     6.5460    -0.1360 C.ar  1 <1>  -0.1500 
 15 C       -4.3460     5.7590     0.0380 C.ar  1 <1>   0.2180 
 16 C       -0.7040     8.2420    -0.4470 C.3   1 <1>   0.2090 
 17 C       -5.7390     6.3540     0.1590 C.3   1 <1>  -0.0970 
 18 C        0.5950     8.6120     0.2840 C.3   1 <1>  -0.0800 
 19 C        0.8710    10.1180     0.2730 C.3   1 <1>   0.3430 
 20 C        1.8520     7.9670    -0.3140 C.3   1 <1>  -0.1600 
 21 N        2.2700    10.2880    -0.2220 N.4   1 <1>  -0.9590 
 22 C        2.9520     8.9790    -0.0560 C.3   1 <1>   0.3430 
 23 C        2.9720    11.4200     0.4710 C.3   1 <1>   0.3430 
 24 C        4.3460    11.7330    -0.1340 C.3   1 <1>   0.1200 
 25 O        4.8730    12.7960     0.5830 O.3   1 <1>  -0.5600 
 26 C        6.1260    13.2250     0.1480 C.3   1 <1>   0.0400 
 27 H        0.2970     4.4820    -0.3970 H     1 <1>   0.1500 
 28 H       -1.6000     0.7020     0.0440 H     1 <1>   0.1500 
 29 H       -3.7680     1.8020     0.2090 H     1 <1>   0.1500 
 30 H       -5.0370     3.8320     0.2300 H     1 <1>   0.4570 
 31 H        0.0390     6.2940    -0.6000 H     1 <1>   0.4000 
 32 H       -3.3570     7.6110    -0.1960 H     1 <1>   0.1500 
 33 H       -1.5390     8.7110     0.0450 H     1 <1>   0.0800 
 34 H       -0.6710     8.5810    -1.4690 H     1 <1>   0.0800 
 35 H       -6.1790     6.0960     1.1060 H     1 <1>   0.0800 
 36 H       -6.3730     5.9930    -0.6320 H     1 <1>   0.0800 
 37 H       -5.7030     7.4280     0.0900 H     1 <1>   0.0800 
 38 H        0.4960     8.3130     1.3140 H     1 <1>   0.0800 
 39 H        0.7750    10.5070     1.2750 H     1 <1>   0.0800 
 40 H        0.1790    10.6390    -0.3710 H     1 <1>   0.0800 
 41 H        1.7500     7.8270    -1.3760 H     1 <1>   0.0800 
 42 H        2.0820     7.0200     0.1440 H     1 <1>   0.0800 
 43 H        2.2230    10.4980    -1.2290 H     1 <1>   0.4500 
 44 H        3.7760     8.8620    -0.7430 H     1 <1>   0.0800 
 45 H        3.3080     8.8750     0.9570 H     1 <1>   0.0800 
 46 H        3.1020    11.1810     1.5140 H     1 <1>   0.0800 
 47 H        2.3690    12.3110     0.4030 H     1 <1>   0.0800 
 48 H        4.2530    12.0310    -1.1640 H     1 <1>   0.0800 
 49 H        5.0160    10.8960    -0.0360 H     1 <1>   0.0800 
 50 H        6.4340    14.0460     0.7710 H     1 <1>   0.0800 
 51 H        6.0570    13.5570    -0.8740 H     1 <1>   0.0800 
 52 H        6.8340    12.4200     0.2390 H     1 <1>   0.0800 
@<TRIPOS>BOND
  1   1   2  1   
  2   2   3  1   
  3   2   4  1   
  4   2   5  1   
  5   5   6  ar  
  6   5   7  ar  
  7   6   8  ar  
  8   6  27  1   
  9   7   9  ar  
 10   7  28  1   
 11   8  10  ar  
 12   8  11  ar  
 13   9  10  ar  
 14   9  29  1   
 15  10  12  ar  
 16  11  13  1   
 17  11  14  ar  
 18  12  15  ar  
 19  12  30  1   
 20  13  16  1   
 21  13  31  1   
 22  14  15  ar  
 23  14  32  1   
 24  15  17  1   
 25  16  18  1   
 26  16  33  1   
 27  16  34  1   
 28  17  35  1   
 29  17  36  1   
 30  17  37  1   
 31  18  19  1   
 32  18  20  1   
 33  18  38  1   
 34  19  21  1   
 35  19  39  1   
 36  19  40  1   
 37  20  22  1   
 38  20  41  1   
 39  20  42  1   
 40  21  22  1   
 41  21  23  1   
 42  21  43  1   
 43  22  44  1   
 44  22  45  1   
 45  23  24  1   
 46  23  46  1   
 47  23  47  1   
 48  24  25  1   
 49  24  48  1   
 50  24  49  1   
 51  25  26  1   
 52  26  50  1   
 53  26  51  1   
 54  26  52  1   
@<TRIPOS>SUBSTRUCTURE
  1 ****  13 GROUP 4 **** **** 0

# MOE 2024.06 (io_trps.svl 2023.06)
