@<TRIPOS>MOLECULE
NONAME
42 44 1 0 0 
SMALL
USER_CHARGES


@<TRIPOS>ATOM
  1 F        0.5620     0.0100     1.3300 F     1 <1>  -0.1900 
  2 C        1.4660     0.8090     0.7980 C.ar  1 <1>   0.1900 
  3 C        2.6480     0.3180     0.2440 C.ar  1 <1>   0.4100 
  4 C        1.2390     2.1560     0.8050 C.ar  1 <1>   0.1600 
  5 N        3.5300     1.1660    -0.2560 N.ar  1 <1>  -0.6200 
  6 N        2.9750    -1.0360     0.1780 N.pl3 1 <1>  -0.8380 
  7 N        2.1130     3.0050     0.2990 N.ar  1 <1>  -0.6200 
  8 C        3.2080     2.4470    -0.2040 C.ar  1 <1>   0.7200 
  9 C        1.9740    -2.0470    -0.2580 C.3   1 <1>   0.1290 
 10 C        4.3960    -1.4750     0.0850 C.3   1 <1>   0.1290 
 11 N        4.1420     3.2630    -0.7400 N.pl3 1 <1>  -0.8690 
 12 C        4.3820     4.6360    -0.2310 C.3   1 <1>   0.2890 
 13 C        3.5830     5.6570    -1.0470 C.3   1 <1>   0.1200 
 14 C        5.8710     4.9630    -0.3300 C.3   1 <1>  -0.0170 
 15 O        3.8150     6.9690    -0.5660 O.3   1 <1>  -0.3630 
 16 C        6.1160     6.4500    -0.1230 C.ar  1 <1>  -0.1430 
 17 C        5.0800     7.3730    -0.2560 C.ar  1 <1>   0.0830 
 18 C        7.3890     6.8910     0.2000 C.ar  1 <1>  -0.1500 
 19 C        5.3220     8.7350    -0.0590 C.ar  1 <1>   0.0830 
 20 C        7.6340     8.2390     0.3930 C.ar  1 <1>  -0.1500 
 21 O        4.2750     9.6000    -0.1960 O.3   1 <1>  -0.3620 
 22 C        6.6070     9.1590     0.2650 C.ar  1 <1>  -0.1500 
 23 C        4.4220    10.9830     0.0290 C.3   1 <1>   0.0400 
 24 H        0.3320     2.5470     1.2310 H     1 <1>   0.1500 
 25 H        1.0870    -1.5650    -0.6300 H     1 <1>   0.0800 
 26 H        1.7090    -2.6750     0.5750 H     1 <1>   0.0800 
 27 H        2.3820    -2.6580    -1.0440 H     1 <1>   0.0800 
 28 H        5.0310    -0.7880     0.6170 H     1 <1>   0.0800 
 29 H        4.6990    -1.5040    -0.9470 H     1 <1>   0.0800 
 30 H        4.5090    -2.4520     0.5200 H     1 <1>   0.0800 
 31 H        4.9770     2.7320    -0.9790 H     1 <1>   0.4000 
 32 H        4.0670     4.7020     0.7980 H     1 <1>   0.0800 
 33 H        2.5290     5.4620    -0.9640 H     1 <1>   0.0800 
 34 H        3.8770     5.6290    -2.0810 H     1 <1>   0.0800 
 35 H        6.2340     4.6980    -1.3070 H     1 <1>   0.0800 
 36 H        6.4070     4.3970     0.4110 H     1 <1>   0.0800 
 37 H        8.1970     6.1880     0.3020 H     1 <1>   0.1500 
 38 H        8.6250     8.5730     0.6430 H     1 <1>   0.1500 
 39 H        6.8310    10.1960     0.4220 H     1 <1>   0.1500 
 40 H        3.4630    11.4470    -0.1210 H     1 <1>   0.0800 
 41 H        5.1320    11.3780    -0.6750 H     1 <1>   0.0800 
 42 H        4.7490    11.1390     1.0410 H     1 <1>   0.0800 
@<TRIPOS>BOND
  1   1   2  1   
  2   2   3  ar  
  3   2   4  ar  
  4   3   5  ar  
  5   3   6  1   
  6   4   7  ar  
  7   4  24  1   
  8   5   8  ar  
  9   6   9  1   
 10   6  10  1   
 11   7   8  ar  
 12   8  11  1   
 13   9  25  1   
 14   9  26  1   
 15   9  27  1   
 16  10  28  1   
 17  10  29  1   
 18  10  30  1   
 19  11  12  1   
 20  11  31  1   
 21  12  13  1   
 22  12  14  1   
 23  12  32  1   
 24  13  15  1   
 25  13  33  1   
 26  13  34  1   
 27  14  16  1   
 28  14  35  1   
 29  14  36  1   
 30  15  17  1   
 31  16  17  ar  
 32  16  18  ar  
 33  17  19  ar  
 34  18  20  ar  
 35  18  37  1   
 36  19  21  1   
 37  19  22  ar  
 38  20  22  ar  
 39  20  38  1   
 40  21  23  1   
 41  22  39  1   
 42  23  40  1   
 43  23  41  1   
 44  23  42  1   
@<TRIPOS>SUBSTRUCTURE
  1 ****  12 GROUP 4 **** **** 0

# MOE 2024.06 (io_trps.svl 2023.06)
