@<TRIPOS>MOLECULE
NONAME
46 48 1 0 0 
SMALL
USER_CHARGES


@<TRIPOS>ATOM
  1 F       -1.1890     2.2870    -2.2250 F     1 <1>  -0.3400 
  2 C       -1.6880     3.1030    -1.3050 C.3   1 <1>   0.8800 
  3 F       -2.8440     3.5320    -1.7890 F     1 <1>  -0.3400 
  4 O       -0.8320     4.2140    -1.1780 O.3   1 <1>  -0.3630 
  5 C        0.2860     4.1410    -0.4180 C.ar  1 <1>   0.0830 
  6 C        0.8610     5.3450    -0.0530 C.ar  1 <1>  -0.1500 
  7 C        0.8680     2.9480     0.0000 C.ar  1 <1>  -0.1500 
  8 C        2.0160     5.4020     0.7230 C.ar  1 <1>   0.0860 
  9 C        2.0080     2.9810     0.7840 C.ar  1 <1>  -0.1500 
 10 C        2.6140     6.6780     1.0710 C.2   1 <1>   0.5440 
 11 C        2.5710     4.1920     1.1420 C.ar  1 <1>  -0.1500 
 12 O        1.9190     7.6570     1.2720 O.2   1 <1>  -0.5700 
 13 N        3.9760     6.8640     1.1030 N.am  1 <1>  -0.6600 
 14 C        4.5760     7.9420     1.9770 C.3   1 <1>   0.1400 
 15 C        4.8410     6.3500    -0.0050 C.3   1 <1>   0.1400 
 16 C        4.8220     9.2730     1.2210 C.3   1 <1>   0.4230 
 17 C        5.3130     7.4360    -1.0060 C.3   1 <1>  -0.0800 
 18 N        3.8940     9.3160     0.0320 N.4   1 <1>  -0.9590 
 19 C        6.3310     9.4710     0.9160 C.3   1 <1>   0.1200 
 20 C        6.7640     7.8810    -0.7640 C.3   1 <1>   0.1200 
 21 C        4.4030     8.6640    -1.2130 C.3   1 <1>   0.3430 
 22 C        3.4470    10.7400    -0.2650 C.3   1 <1>   0.2370 
 23 O        6.9580     8.2730     0.5510 O.3   1 <1>  -0.5600 
 24 C        4.5810    11.7060    -0.6130 C.2   1 <1>   0.9060 
 25 O        5.0330    11.6790    -1.7610 O.co2 1 <1>  -0.9000 
 26 O        5.1000    12.3360     0.3120 O.co2 1 <1>  -0.9000 
 27 H       -1.8470     2.5800    -0.3800 H     1 <1>   0.0800 
 28 H        0.3990     6.2610    -0.3800 H     1 <1>   0.1500 
 29 H        0.4650     1.9900    -0.2750 H     1 <1>   0.1500 
 30 H        2.4580     2.0600     1.1140 H     1 <1>   0.1500 
 31 H        3.4550     4.2050     1.7560 H     1 <1>   0.1500 
 32 H        3.9000     8.1440     2.7900 H     1 <1>   0.0800 
 33 H        5.4880     7.5820     2.4210 H     1 <1>   0.0800 
 34 H        5.6960     5.8540     0.4240 H     1 <1>   0.0800 
 35 H        4.2930     5.6060    -0.5570 H     1 <1>   0.0800 
 36 H        4.5450    10.0790     1.8810 H     1 <1>   0.0800 
 37 H        5.3500     6.9540    -1.9660 H     1 <1>   0.0800 
 38 H        3.0730     8.7670     0.3540 H     1 <1>   0.4500 
 39 H        6.8140     9.8030     1.8170 H     1 <1>   0.0800 
 40 H        6.5110    10.2190     0.1640 H     1 <1>   0.0800 
 41 H        7.0490     8.6910    -1.4160 H     1 <1>   0.0800 
 42 H        7.4330     7.0560    -0.9420 H     1 <1>   0.0800 
 43 H        3.5550     8.3680    -1.8080 H     1 <1>   0.0800 
 44 H        4.9530     9.3910    -1.7900 H     1 <1>   0.0800 
 45 H        2.7610    10.7420    -1.0910 H     1 <1>   0.0800 
 46 H        2.9420    11.1460     0.5930 H     1 <1>   0.0800 
@<TRIPOS>BOND
  1   1   2  1   
  2   2   3  1   
  3   2   4  1   
  4   2  27  1   
  5   4   5  1   
  6   5   6  ar  
  7   5   7  ar  
  8   6   8  ar  
  9   6  28  1   
 10   7   9  ar  
 11   7  29  1   
 12   8  10  1   
 13   8  11  ar  
 14   9  11  ar  
 15   9  30  1   
 16  10  12  2   
 17  10  13  am  
 18  11  31  1   
 19  13  14  1   
 20  13  15  1   
 21  14  16  1   
 22  14  32  1   
 23  14  33  1   
 24  15  17  1   
 25  15  34  1   
 26  15  35  1   
 27  16  18  1   
 28  16  19  1   
 29  16  36  1   
 30  17  20  1   
 31  17  21  1   
 32  17  37  1   
 33  18  21  1   
 34  18  22  1   
 35  18  38  1   
 36  19  23  1   
 37  19  39  1   
 38  19  40  1   
 39  20  23  1   
 40  20  41  1   
 41  20  42  1   
 42  21  43  1   
 43  21  44  1   
 44  22  24  1   
 45  22  45  1   
 46  22  46  1   
 47  24  25  ar  
 48  24  26  ar  
@<TRIPOS>SUBSTRUCTURE
  1 ****  10 GROUP 4 **** **** 0

# MOE 2024.06 (io_trps.svl 2023.06)
