@<TRIPOS>MOLECULE
NONAME
46 48 1 0 0 
SMALL
USER_CHARGES


@<TRIPOS>ATOM
  1 O       -1.4410     0.2830    -2.2250 O.2   1 <1>  -0.5700 
  2 C       -1.8560    -0.4020    -1.3200 C.2   1 <1>   0.5690 
  3 N       -1.9670     0.0730    -0.0460 N.am  1 <1>  -0.6600 
  4 C       -2.2460    -1.8260    -1.6400 C.3   1 <1>  -0.0190 
  5 C       -2.4990    -0.7750     1.0610 C.3   1 <1>   0.2200 
  6 C       -1.6150     1.4770     0.3100 C.3   1 <1>   0.0600 
  7 C       -1.3460    -2.8340    -0.8980 C.3   1 <1>   0.1200 
  8 C       -3.7690    -2.0110    -1.5390 C.3   1 <1>   0.2090 
  9 C       -1.5720    -1.9840     1.3360 C.3   1 <1>   0.1200 
 10 C       -3.9970    -1.1100     0.8540 C.3   1 <1>   0.2090 
 11 O       -1.6930    -3.0510     0.4370 O.3   1 <1>  -0.5600 
 12 N       -4.3080    -2.1600    -0.1610 N.pl3 1 <1>  -0.8380 
 13 C       -5.5190    -2.7950    -0.0400 C.ar  1 <1>   0.4100 
 14 N       -6.5860    -2.0460    -0.2240 N.ar  1 <1>  -0.6200 
 15 C       -5.6150    -4.1480     0.2570 C.ar  1 <1>  -0.1440 
 16 C       -7.7430    -2.6620    -0.1190 C.ar  1 <1>   0.4770 
 17 C       -6.8850    -4.6640     0.3390 C.ar  1 <1>   0.1600 
 18 C       -4.3410    -4.9690     0.4810 C.3   1 <1>  -0.0160 
 19 N       -7.9660    -3.9330     0.1510 N.ar  1 <1>  -0.6200 
 20 C       -8.9740    -1.8150    -0.3360 C.3   1 <1>  -0.0970 
 21 C       -4.5600    -6.4590     0.7840 C.3   1 <1>  -0.1600 
 22 C       -3.2260    -7.1840     0.9830 C.3   1 <1>  -0.2400 
 23 H       -2.0130    -1.9520    -2.6810 H     1 <1>   0.0800 
 24 H       -2.4600    -0.1740     1.9520 H     1 <1>   0.0800 
 25 H       -0.8500     1.4810     1.0660 H     1 <1>   0.0800 
 26 H       -2.4860     1.9890     0.6790 H     1 <1>   0.0800 
 27 H       -1.2460     2.0090    -0.5510 H     1 <1>   0.0800 
 28 H       -0.3180    -2.5180    -0.9330 H     1 <1>   0.0800 
 29 H       -1.4190    -3.7890    -1.3860 H     1 <1>   0.0800 
 30 H       -4.0390    -2.8910    -2.0970 H     1 <1>   0.0800 
 31 H       -4.2590    -1.1750    -2.0090 H     1 <1>   0.0800 
 32 H       -1.8150    -2.3850     2.3030 H     1 <1>   0.0800 
 33 H       -0.5440    -1.6690     1.3550 H     1 <1>   0.0800 
 34 H       -4.5230    -0.2090     0.5920 H     1 <1>   0.0800 
 35 H       -4.3920    -1.4450     1.7970 H     1 <1>   0.0800 
 36 H       -7.0450    -5.7030     0.5640 H     1 <1>   0.1500 
 37 H       -3.7240    -4.8800    -0.3960 H     1 <1>   0.0800 
 38 H       -3.7970    -4.5240     1.2960 H     1 <1>   0.0800 
 39 H       -9.4550    -2.1170    -1.2460 H     1 <1>   0.0800 
 40 H       -8.7090    -0.7760    -0.4050 H     1 <1>   0.0800 
 41 H       -9.6520    -1.9500     0.4850 H     1 <1>   0.0800 
 42 H       -5.1500    -6.5610     1.6780 H     1 <1>   0.0800 
 43 H       -5.0900    -6.9190    -0.0330 H     1 <1>   0.0800 
 44 H       -2.6810    -6.7500     1.8030 H     1 <1>   0.0800 
 45 H       -2.6230    -7.1150     0.0940 H     1 <1>   0.0800 
 46 H       -3.3990    -8.2240     1.1990 H     1 <1>   0.0800 
@<TRIPOS>BOND
  1   1   2  2   
  2   2   3  am  
  3   2   4  1   
  4   3   5  1   
  5   3   6  1   
  6   4   7  1   
  7   4   8  1   
  8   4  23  1   
  9   5   9  1   
 10   5  10  1   
 11   5  24  1   
 12   6  25  1   
 13   6  26  1   
 14   6  27  1   
 15   7  11  1   
 16   7  28  1   
 17   7  29  1   
 18   8  12  1   
 19   8  30  1   
 20   8  31  1   
 21   9  11  1   
 22   9  32  1   
 23   9  33  1   
 24  10  12  1   
 25  10  34  1   
 26  10  35  1   
 27  12  13  1   
 28  13  14  ar  
 29  13  15  ar  
 30  14  16  ar  
 31  15  17  ar  
 32  15  18  1   
 33  16  19  ar  
 34  16  20  1   
 35  17  19  ar  
 36  17  36  1   
 37  18  21  1   
 38  18  37  1   
 39  18  38  1   
 40  20  39  1   
 41  20  40  1   
 42  20  41  1   
 43  21  22  1   
 44  21  42  1   
 45  21  43  1   
 46  22  44  1   
 47  22  45  1   
 48  22  46  1   
@<TRIPOS>SUBSTRUCTURE
  1 ****  12 GROUP 4 **** **** 0

# MOE 2024.06 (io_trps.svl 2023.06)
