@<TRIPOS>MOLECULE
NONAME
45 48 1 0 0 
SMALL
USER_CHARGES


@<TRIPOS>ATOM
  1 S       -0.6570    -0.7680    -0.5310 S.3   1 <1>   0.1810 
  2 N       -2.1590    -1.5390    -0.1720 N.2   1 <1>  -0.5100 
  3 C       -1.1900     0.8300    -0.0450 C.ar  1 <1>   0.0400 
  4 C       -2.9690    -0.6460     0.2640 C.2   1 <1>   0.3720 
  5 C       -2.4920     0.7140     0.3810 C.ar  1 <1>   0.0000 
  6 C       -0.4810     2.0170    -0.0550 C.ar  1 <1>  -0.1500 
  7 N       -4.2810    -0.9640     0.6000 N.pl3 1 <1>  -0.8210 
  8 C       -3.1210     1.8670     0.8490 C.ar  1 <1>  -0.1500 
  9 C       -1.1260     3.1530     0.4010 C.ar  1 <1>  -0.1500 
 10 C       -5.3440    -0.4550    -0.3210 C.3   1 <1>   0.2090 
 11 C       -4.5590    -2.3430     1.1110 C.3   1 <1>   0.2090 
 12 C       -2.4410     3.0750     0.8540 C.ar  1 <1>  -0.1500 
 13 C       -5.6310    -1.4530    -1.4540 C.3   1 <1>   0.1400 
 14 C       -4.8940    -3.3350    -0.0220 C.3   1 <1>   0.1400 
 15 N       -5.9790    -2.8080    -0.9140 N.am  1 <1>  -0.6600 
 16 C       -7.1770    -3.4030    -1.2320 C.2   1 <1>   0.5690 
 17 O       -8.0380    -2.7840    -1.8130 O.2   1 <1>  -0.5700 
 18 C       -7.5380    -4.8440    -0.8670 C.3   1 <1>  -0.0190 
 19 C       -7.8990    -4.9130     0.6260 C.3   1 <1>   0.0960 
 20 C       -6.5160    -5.8990    -1.3530 C.3   1 <1>  -0.2400 
 21 N       -8.2200    -6.2840     1.0580 N.pl3 1 <1>   0.3140 
 22 N       -7.3860    -7.0160     1.7830 N.2   1 <1>  -0.7070 
 23 C       -9.3240    -7.0000     0.8230 C.2   1 <1>   0.0370 
 24 C       -8.0440    -8.1190     1.9320 C.2   1 <1>   0.3660 
 25 N       -9.2520    -8.1650     1.3560 N.2   1 <1>  -0.5650 
 26 H        0.5360     2.0490    -0.4030 H     1 <1>   0.1500 
 27 H       -4.1320     1.8050     1.2100 H     1 <1>   0.1500 
 28 H       -0.6130     4.1000     0.4110 H     1 <1>   0.1500 
 29 H       -5.0370     0.4820    -0.7510 H     1 <1>   0.0800 
 30 H       -6.2470    -0.2830     0.2380 H     1 <1>   0.0800 
 31 H       -5.3840    -2.2990     1.7980 H     1 <1>   0.0800 
 32 H       -3.7020    -2.7030     1.6550 H     1 <1>   0.0800 
 33 H       -2.9310     3.9630     1.2140 H     1 <1>   0.1500 
 34 H       -4.7550    -1.5380    -2.0740 H     1 <1>   0.0800 
 35 H       -6.4260    -1.0670    -2.0670 H     1 <1>   0.0800 
 36 H       -5.1680    -4.2660     0.4280 H     1 <1>   0.0800 
 37 H       -4.0080    -3.5030    -0.6100 H     1 <1>   0.0800 
 38 H       -8.4460    -5.0560    -1.4050 H     1 <1>   0.0800 
 39 H       -8.7510    -4.2880     0.8200 H     1 <1>   0.0800 
 40 H       -7.0880    -4.5610     1.2330 H     1 <1>   0.0800 
 41 H       -5.6350    -5.9320    -0.7420 H     1 <1>   0.0800 
 42 H       -6.2240    -5.6870    -2.3660 H     1 <1>   0.0800 
 43 H       -6.9590    -6.8800    -1.3350 H     1 <1>   0.0800 
 44 H      -10.1560    -6.6270     0.2540 H     1 <1>   0.1500 
 45 H       -7.6650    -8.9660     2.4810 H     1 <1>   0.1500 
@<TRIPOS>BOND
  1   1   2  1   
  2   1   3  1   
  3   2   4  2   
  4   3   5  ar  
  5   3   6  ar  
  6   4   5  1   
  7   4   7  1   
  8   5   8  ar  
  9   6   9  ar  
 10   6  26  1   
 11   7  10  1   
 12   7  11  1   
 13   8  12  ar  
 14   8  27  1   
 15   9  12  ar  
 16   9  28  1   
 17  10  13  1   
 18  10  29  1   
 19  10  30  1   
 20  11  14  1   
 21  11  31  1   
 22  11  32  1   
 23  12  33  1   
 24  13  15  1   
 25  13  34  1   
 26  13  35  1   
 27  14  15  1   
 28  14  36  1   
 29  14  37  1   
 30  15  16  am  
 31  16  17  2   
 32  16  18  1   
 33  18  19  1   
 34  18  20  1   
 35  18  38  1   
 36  19  21  1   
 37  19  39  1   
 38  19  40  1   
 39  20  41  1   
 40  20  42  1   
 41  20  43  1   
 42  21  22  1   
 43  21  23  1   
 44  22  24  2   
 45  23  25  2   
 46  23  44  1   
 47  24  25  1   
 48  24  45  1   
@<TRIPOS>SUBSTRUCTURE
  1 ****  14 GROUP 4 **** **** 0

# MOE 2024.06 (io_trps.svl 2023.06)
