@<TRIPOS>MOLECULE
NONAME
59 62 1 0 0 
SMALL
USER_CHARGES


@<TRIPOS>ATOM
  1 O        3.9600    -1.0930     1.7940 O.2   1 <1>  -0.5700 
  2 C        3.5940    -1.4530     0.6880 C.2   1 <1>   0.5440 
  3 N        4.2760    -0.9200    -0.3820 N.am  1 <1>  -0.6600 
  4 C        2.4450    -2.3250     0.5140 C.ar  1 <1>   0.0860 
  5 C        5.7580    -0.7190    -0.2950 C.3   1 <1>   0.1400 
  6 C        3.5660    -0.0470    -1.3500 C.3   1 <1>   0.1400 
  7 C        2.2950    -3.1140    -0.6350 C.ar  1 <1>  -0.1500 
  8 C        1.4450    -2.4030     1.4940 C.ar  1 <1>  -0.1500 
  9 C        6.1530     0.6950     0.1750 C.3   1 <1>   0.3430 
 10 C        3.0740     1.2280    -0.6470 C.3   1 <1>  -0.1600 
 11 C        1.1850    -3.9200    -0.7830 C.ar  1 <1>  -0.1430 
 12 C        0.3330    -3.2140     1.3410 C.ar  1 <1>  -0.1500 
 13 N        5.0390     1.3730     0.9080 N.4   1 <1>  -0.9590 
 14 C        4.1630     2.1190    -0.0350 C.3   1 <1>   0.3430 
 15 C        0.2210    -3.9650     0.1870 C.ar  1 <1>   0.0830 
 16 C        0.7850    -4.8470    -1.8940 C.3   1 <1>  -0.0170 
 17 C        5.5820     2.2540     1.9870 C.3   1 <1>   0.5240 
 18 O       -0.7860    -4.7930    -0.1120 O.3   1 <1>  -0.3620 
 19 C       -0.5510    -5.4070    -1.3720 C.3   1 <1>   0.1200 
 20 C        6.2450     3.5120     1.4190 C.2   1 <1>   0.0460 
 21 N        7.2160     3.4460     0.4820 N.2   1 <1>  -0.5650 
 22 C        5.9830     4.8000     1.7400 C.2   1 <1>  -0.3020 
 23 C        7.5310     4.6820     0.2630 C.2   1 <1>   0.0060 
 24 N        6.8120     5.5570     0.9980 N.pl3 1 <1>   0.0330 
 25 C        8.6030     5.1250    -0.7170 C.3   1 <1>   0.0200 
 26 C        9.8410     5.6550     0.0180 C.3   1 <1>  -0.1600 
 27 C       10.9400     6.0810    -0.9640 C.3   1 <1>  -0.1600 
 28 C       12.1690     6.6050    -0.2180 C.3   1 <1>  -0.2400 
 29 H        6.2100    -0.9230    -1.2500 H     1 <1>   0.0800 
 30 H        6.1620    -1.4330     0.4030 H     1 <1>   0.0800 
 31 H        2.7210    -0.5780    -1.7570 H     1 <1>   0.0800 
 32 H        4.2200     0.2030    -2.1690 H     1 <1>   0.0800 
 33 H        3.0490    -3.0970    -1.4010 H     1 <1>   0.1500 
 34 H        1.5460    -1.8180     2.3920 H     1 <1>   0.1500 
 35 H        6.4420     1.2930    -0.6740 H     1 <1>   0.0800 
 36 H        7.0200     0.6140     0.8090 H     1 <1>   0.0800 
 37 H        2.3610     0.9670     0.1140 H     1 <1>   0.0800 
 38 H        2.5410     1.8180    -1.3710 H     1 <1>   0.0800 
 39 H       -0.4340    -3.2720     2.0920 H     1 <1>   0.1500 
 40 H        4.4940     0.5990     1.3430 H     1 <1>   0.4500 
 41 H        3.6800     2.9280     0.4900 H     1 <1>   0.0800 
 42 H        4.7670     2.5570    -0.8130 H     1 <1>   0.0800 
 43 H        1.5060    -5.6330    -2.0270 H     1 <1>   0.0800 
 44 H        0.6440    -4.3160    -2.8180 H     1 <1>   0.0800 
 45 H        6.3070     1.7100     2.5680 H     1 <1>   0.0800 
 46 H        4.7830     2.5510     2.6460 H     1 <1>   0.0800 
 47 H       -0.5040    -6.4710    -1.2220 H     1 <1>   0.0800 
 48 H       -1.3690    -5.1570    -2.0240 H     1 <1>   0.0800 
 49 H        5.2800     5.2190     2.4380 H     1 <1>   0.1500 
 50 H        6.9010     6.5790     0.9940 H     1 <1>   0.2700 
 51 H        8.2040     5.8860    -1.3650 H     1 <1>   0.0800 
 52 H        8.8840     4.2850    -1.3280 H     1 <1>   0.0800 
 53 H       10.2190     4.8810     0.6650 H     1 <1>   0.0800 
 54 H        9.5650     6.4960     0.6310 H     1 <1>   0.0800 
 55 H       10.5680     6.8520    -1.6170 H     1 <1>   0.0800 
 56 H       11.2300     5.2400    -1.5720 H     1 <1>   0.0800 
 57 H       11.9130     7.4640     0.3780 H     1 <1>   0.0800 
 58 H       12.9310     6.8940    -0.9210 H     1 <1>   0.0800 
 59 H       12.5720     5.8440     0.4270 H     1 <1>   0.0800 
@<TRIPOS>BOND
  1   1   2  2   
  2   2   3  am  
  3   2   4  1   
  4   3   5  1   
  5   3   6  1   
  6   4   7  ar  
  7   4   8  ar  
  8   5   9  1   
  9   5  29  1   
 10   5  30  1   
 11   6  10  1   
 12   6  31  1   
 13   6  32  1   
 14   7  11  ar  
 15   7  33  1   
 16   8  12  ar  
 17   8  34  1   
 18   9  13  1   
 19   9  35  1   
 20   9  36  1   
 21  10  14  1   
 22  10  37  1   
 23  10  38  1   
 24  11  15  ar  
 25  11  16  1   
 26  12  15  ar  
 27  12  39  1   
 28  13  14  1   
 29  13  17  1   
 30  13  40  1   
 31  14  41  1   
 32  14  42  1   
 33  15  18  1   
 34  16  19  1   
 35  16  43  1   
 36  16  44  1   
 37  17  20  1   
 38  17  45  1   
 39  17  46  1   
 40  18  19  1   
 41  19  47  1   
 42  19  48  1   
 43  20  21  1   
 44  20  22  2   
 45  21  23  2   
 46  22  24  1   
 47  22  49  1   
 48  23  24  1   
 49  23  25  1   
 50  24  50  1   
 51  25  26  1   
 52  25  51  1   
 53  25  52  1   
 54  26  27  1   
 55  26  53  1   
 56  26  54  1   
 57  27  28  1   
 58  27  55  1   
 59  27  56  1   
 60  28  57  1   
 61  28  58  1   
 62  28  59  1   
@<TRIPOS>SUBSTRUCTURE
  1 ****  13 GROUP 4 **** **** 0

# MOE 2024.06 (io_trps.svl 2023.06)
