@<TRIPOS>MOLECULE
NONAME
51 53 1 0 0 
SMALL
USER_CHARGES


@<TRIPOS>ATOM
  1 O       -0.2410     0.3610    -1.3420 O.2   1 <1>  -0.5700 
  2 C       -0.1650     1.4930    -0.9250 C.2   1 <1>   0.5690 
  3 N       -1.2760     2.2230    -0.5880 N.am  1 <1>  -0.6600 
  4 C        1.2300     2.1190    -0.8080 C.3   1 <1>   0.1810 
  5 C       -1.1440     3.6150    -0.0480 C.3   1 <1>   0.3640 
  6 C       -2.6430     1.6270    -0.5630 C.3   1 <1>   0.0600 
  7 O        1.2720     3.2690     0.0020 O.3   1 <1>  -0.5600 
  8 C       -2.1950     4.5400    -0.6830 C.ar  1 <1>  -0.1440 
  9 C        0.2590     4.2100    -0.2890 C.3   1 <1>   0.2610 
 10 C       -3.0780     5.3050     0.0810 C.ar  1 <1>  -0.1440 
 11 C       -2.2520     4.6290    -2.0700 C.ar  1 <1>  -0.1500 
 12 C        0.4000     5.4930     0.5350 C.2   1 <1>   0.5690 
 13 C       -3.9770     6.1490    -0.5550 C.ar  1 <1>  -0.1500 
 14 C       -3.1020     5.2520     1.6040 C.3   1 <1>  -0.0960 
 15 C       -3.1520     5.4720    -2.6940 C.ar  1 <1>  -0.1500 
 16 O        0.4220     5.4350     1.7430 O.2   1 <1>  -0.5700 
 17 N        0.4300     6.6900    -0.1170 N.am  1 <1>  -0.7300 
 18 C       -4.0140     6.2370    -1.9340 C.ar  1 <1>  -0.1500 
 19 C        0.3860     8.0020     0.5400 C.3   1 <1>   0.2200 
 20 C       -1.0240     8.5800     0.3710 C.3   1 <1>  -0.1600 
 21 C        1.4470     8.9090    -0.0940 C.3   1 <1>  -0.1600 
 22 C       -1.1120    10.0080     0.9310 C.3   1 <1>  -0.1600 
 23 C        1.3640    10.3380     0.4680 C.3   1 <1>  -0.1600 
 24 C       -0.0480    10.9080     0.2980 C.3   1 <1>   0.2000 
 25 O       -0.0960    12.1360     0.9150 O.3   1 <1>  -0.6800 
 26 H        1.5840     2.3820    -1.7880 H     1 <1>   0.0800 
 27 H        1.9040     1.3980    -0.3820 H     1 <1>   0.0800 
 28 H       -1.2910     3.5570     1.0150 H     1 <1>   0.0800 
 29 H       -3.0930     1.7830     0.4010 H     1 <1>   0.0800 
 30 H       -2.6010     0.5680    -0.7550 H     1 <1>   0.0800 
 31 H       -3.2580     2.0860    -1.3170 H     1 <1>   0.0800 
 32 H        0.3620     4.4690    -1.3260 H     1 <1>   0.0800 
 33 H       -1.5960     4.0310    -2.6780 H     1 <1>   0.1500 
 34 H       -4.6600     6.7480     0.0210 H     1 <1>   0.1500 
 35 H       -3.8890     5.8680     2.0000 H     1 <1>   0.0800 
 36 H       -2.1720     5.6060     2.0080 H     1 <1>   0.0800 
 37 H       -3.2720     4.2450     1.9390 H     1 <1>   0.0800 
 38 H       -3.1850     5.5300    -3.7680 H     1 <1>   0.1500 
 39 H        0.3250     6.7230    -1.1300 H     1 <1>   0.3700 
 40 H       -4.7180     6.8960    -2.4130 H     1 <1>   0.1500 
 41 H        0.6000     7.8910     1.5910 H     1 <1>   0.0800 
 42 H       -1.2870     8.5950    -0.6730 H     1 <1>   0.0800 
 43 H       -1.7290     7.9530     0.8870 H     1 <1>   0.0800 
 44 H        2.4250     8.5050     0.1060 H     1 <1>   0.0800 
 45 H        1.3030     8.9450    -1.1590 H     1 <1>   0.0800 
 46 H       -0.9710     9.9720     1.9970 H     1 <1>   0.0800 
 47 H       -2.0890    10.4110     0.7270 H     1 <1>   0.0800 
 48 H        2.0680    10.9670    -0.0480 H     1 <1>   0.0800 
 49 H        1.6230    10.3160     1.5120 H     1 <1>   0.0800 
 50 H       -0.2630    11.0590    -0.7470 H     1 <1>   0.0800 
 51 H        0.0960    12.0390     1.8660 H     1 <1>   0.4000 
@<TRIPOS>BOND
  1   1   2  2   
  2   2   3  am  
  3   2   4  1   
  4   3   5  1   
  5   3   6  1   
  6   4   7  1   
  7   4  26  1   
  8   4  27  1   
  9   5   8  1   
 10   5   9  1   
 11   5  28  1   
 12   6  29  1   
 13   6  30  1   
 14   6  31  1   
 15   7   9  1   
 16   8  10  ar  
 17   8  11  ar  
 18   9  12  1   
 19   9  32  1   
 20  10  13  ar  
 21  10  14  1   
 22  11  15  ar  
 23  11  33  1   
 24  12  16  2   
 25  12  17  am  
 26  13  18  ar  
 27  13  34  1   
 28  14  35  1   
 29  14  36  1   
 30  14  37  1   
 31  15  18  ar  
 32  15  38  1   
 33  17  19  1   
 34  17  39  1   
 35  18  40  1   
 36  19  20  1   
 37  19  21  1   
 38  19  41  1   
 39  20  22  1   
 40  20  42  1   
 41  20  43  1   
 42  21  23  1   
 43  21  44  1   
 44  21  45  1   
 45  22  24  1   
 46  22  46  1   
 47  22  47  1   
 48  23  24  1   
 49  23  48  1   
 50  23  49  1   
 51  24  25  1   
 52  24  50  1   
 53  25  51  1   
@<TRIPOS>SUBSTRUCTURE
  1 ****  12 GROUP 4 **** **** 0

# MOE 2024.06 (io_trps.svl 2023.06)
