@<TRIPOS>MOLECULE
NONAME
50 52 1 0 0 
SMALL
USER_CHARGES


@<TRIPOS>ATOM
  1 O       -0.9210    -0.4060     0.6940 O.3   1 <1>  -0.3630 
  2 C       -0.5060     0.7030     0.0250 C.ar  1 <1>   0.0830 
  3 C       -1.9580    -1.2160     0.2010 C.3   1 <1>   0.1200 
  4 C        0.5020     1.4670     0.6070 C.ar  1 <1>  -0.1440 
  5 C       -1.0430     1.0940    -1.1990 C.ar  1 <1>  -0.1500 
  6 C       -2.1560    -2.3580     1.2000 C.3   1 <1>   0.3430 
  7 C        0.9550     2.6070    -0.0370 C.ar  1 <1>  -0.1500 
  8 C        1.1140     1.0690     1.9430 C.3   1 <1>  -0.0960 
  9 C       -0.5800     2.2340    -1.8310 C.ar  1 <1>  -0.1500 
 10 N       -3.2260    -3.3070     0.7640 N.4   1 <1>  -0.9590 
 11 C        0.4190     2.9970    -1.2530 C.ar  1 <1>  -0.1430 
 12 C       -4.6240    -2.7560     0.7590 C.3   1 <1>   0.3430 
 13 C       -3.2690    -4.5640     1.5510 C.3   1 <1>   0.3430 
 14 C        0.9300     4.2480    -1.9450 C.3   1 <1>  -0.0970 
 15 C       -5.5240    -3.8630     1.3350 C.3   1 <1>   0.2000 
 16 C       -4.6650    -5.1280     1.2780 C.3   1 <1>  -0.0800 
 17 O       -5.8240    -3.5810     2.6610 O.3   1 <1>  -0.6800 
 18 C       -4.8170    -5.8290    -0.1030 C.3   1 <1>  -0.0170 
 19 C       -3.5090    -6.1960    -0.7960 C.ar  1 <1>   0.1670 
 20 N       -2.8570    -5.2020    -1.3880 N.ar  1 <1>  -0.6200 
 21 C       -3.0640    -7.5170    -0.7890 C.ar  1 <1>   0.1600 
 22 C       -1.7540    -5.6280    -1.9930 C.ar  1 <1>   0.1600 
 23 N       -1.9490    -7.9270    -1.3640 N.ar  1 <1>  -0.6200 
 24 C       -1.3140    -6.9450    -1.9780 C.ar  1 <1>   0.1600 
 25 H       -2.8420    -0.6100     0.1200 H     1 <1>   0.0800 
 26 H       -1.6570    -1.5970    -0.7590 H     1 <1>   0.0800 
 27 H       -1.8170     0.5340    -1.6840 H     1 <1>   0.1500 
 28 H       -2.4060    -1.9430     2.1620 H     1 <1>   0.0800 
 29 H       -1.2230    -2.8900     1.2900 H     1 <1>   0.0800 
 30 H        1.7340     3.2000     0.4080 H     1 <1>   0.1500 
 31 H        1.8800     1.7630     2.2410 H     1 <1>   0.0800 
 32 H        1.5510     0.0900     1.8670 H     1 <1>   0.0800 
 33 H        0.3530     1.0540     2.7020 H     1 <1>   0.0800 
 34 H       -1.0000     2.5270    -2.7770 H     1 <1>   0.1500 
 35 H       -3.0150    -3.6380    -0.2030 H     1 <1>   0.4500 
 36 H       -4.7060    -1.8660     1.3610 H     1 <1>   0.0800 
 37 H       -4.9190    -2.5310    -0.2530 H     1 <1>   0.0800 
 38 H       -2.4880    -5.2470     1.2530 H     1 <1>   0.0800 
 39 H       -3.1650    -4.3450     2.6010 H     1 <1>   0.0800 
 40 H        0.1760     4.6570    -2.5940 H     1 <1>   0.0800 
 41 H        1.8000     4.0100    -2.5300 H     1 <1>   0.0800 
 42 H        1.1930     4.9960    -1.2190 H     1 <1>   0.0800 
 43 H       -6.4580    -3.9480     0.8040 H     1 <1>   0.0800 
 44 H       -4.9440    -5.8260     2.0500 H     1 <1>   0.0800 
 45 H       -5.0410    -3.5210     3.2410 H     1 <1>   0.4000 
 46 H       -5.3670    -5.2060    -0.7870 H     1 <1>   0.0800 
 47 H       -5.4110    -6.7170     0.0280 H     1 <1>   0.0800 
 48 H       -3.6500    -8.2690    -0.2890 H     1 <1>   0.1500 
 49 H       -1.1650    -4.9030    -2.5280 H     1 <1>   0.1500 
 50 H       -0.4030    -7.1970    -2.4940 H     1 <1>   0.1500 
@<TRIPOS>BOND
  1   1   2  1   
  2   1   3  1   
  3   2   4  ar  
  4   2   5  ar  
  5   3   6  1   
  6   3  25  1   
  7   3  26  1   
  8   4   7  ar  
  9   4   8  1   
 10   5   9  ar  
 11   5  27  1   
 12   6  10  1   
 13   6  28  1   
 14   6  29  1   
 15   7  11  ar  
 16   7  30  1   
 17   8  31  1   
 18   8  32  1   
 19   8  33  1   
 20   9  11  ar  
 21   9  34  1   
 22  10  12  1   
 23  10  13  1   
 24  10  35  1   
 25  11  14  1   
 26  12  15  1   
 27  12  36  1   
 28  12  37  1   
 29  13  16  1   
 30  13  38  1   
 31  13  39  1   
 32  14  40  1   
 33  14  41  1   
 34  14  42  1   
 35  15  16  1   
 36  15  17  1   
 37  15  43  1   
 38  16  18  1   
 39  16  44  1   
 40  17  45  1   
 41  18  19  1   
 42  18  46  1   
 43  18  47  1   
 44  19  20  ar  
 45  19  21  ar  
 46  20  22  ar  
 47  21  23  ar  
 48  21  48  1   
 49  22  24  ar  
 50  22  49  1   
 51  23  24  ar  
 52  24  50  1   
@<TRIPOS>SUBSTRUCTURE
  1 ****   3 GROUP 4 **** **** 0

# MOE 2024.06 (io_trps.svl 2023.06)
