@<TRIPOS>MOLECULE
NONAME
41 43 1 0 0 
SMALL
USER_CHARGES


@<TRIPOS>ATOM
  1 S       -0.2160     0.6300    -0.5520 S.3   1 <1>  -0.0800 
  2 C       -0.8090     2.2780    -0.7850 C.2   1 <1>   0.0410 
  3 C       -1.8180    -0.0540    -0.7660 C.2   1 <1>  -0.1100 
  4 C        0.1090     3.3860    -0.7190 C.2   1 <1>   0.2880 
  5 C       -2.1460     2.2300    -1.0060 C.2   1 <1>  -0.1500 
  6 C       -2.7150     0.9210    -0.9960 C.2   1 <1>  -0.1500 
  7 N       -0.2580     4.6370    -0.8770 N.2   1 <1>  -0.7070 
  8 C        1.4870     3.3050    -0.4840 C.2   1 <1>  -0.1500 
  9 N        0.8720     5.3520    -0.7460 N.pl3 1 <1>   0.3000 
 10 C        1.9400     4.5740    -0.5110 C.2   1 <1>  -0.3320 
 11 C        3.3190     5.1650    -0.3280 C.3   1 <1>   0.3890 
 12 N        3.1830     6.4100     0.4670 N.pl3 1 <1>  -0.8380 
 13 C        4.0350     7.4410     0.1500 C.ar  1 <1>   0.4100 
 14 C        2.9360     6.1740     1.9140 C.3   1 <1>   0.1290 
 15 N        5.3190     7.1500     0.1180 N.ar  1 <1>  -0.6200 
 16 C        3.5760     8.7250    -0.1140 C.ar  1 <1>  -0.1430 
 17 C        6.1300     8.1480    -0.1660 C.ar  1 <1>   0.4770 
 18 C        4.5240     9.6720    -0.4000 C.ar  1 <1>   0.1600 
 19 C        2.0960     9.0940    -0.1080 C.3   1 <1>  -0.0170 
 20 N        5.8140     9.4010    -0.4290 N.ar  1 <1>  -0.6200 
 21 C        7.6030     7.8230    -0.2010 C.3   1 <1>  -0.0970 
 22 C        1.5030     8.9640    -1.5130 C.3   1 <1>  -0.2400 
 23 H       -1.9170    -1.1230    -0.6960 H     1 <1>   0.1500 
 24 H       -2.7510     3.1030    -1.1780 H     1 <1>   0.1500 
 25 H       -3.7690     0.7740    -1.1610 H     1 <1>   0.1500 
 26 H        2.0390     2.3970    -0.3200 H     1 <1>   0.1500 
 27 H        0.9080     6.3790    -0.7840 H     1 <1>   0.2700 
 28 H        3.7440     5.3940    -1.2910 H     1 <1>   0.0800 
 29 H        3.9710     4.4700     0.1750 H     1 <1>   0.0800 
 30 H        1.9810     5.6970     2.0530 H     1 <1>   0.0800 
 31 H        2.9380     7.1100     2.4460 H     1 <1>   0.0800 
 32 H        3.7090     5.5450     2.3210 H     1 <1>   0.0800 
 33 H        4.2300    10.6850    -0.6150 H     1 <1>   0.1500 
 34 H        1.9770    10.1060     0.2380 H     1 <1>   0.0800 
 35 H        1.5560     8.4600     0.5740 H     1 <1>   0.0800 
 36 H        7.7920     6.8810     0.2790 H     1 <1>   0.0800 
 37 H        8.1560     8.5900     0.3070 H     1 <1>   0.0800 
 38 H        7.9300     7.7700    -1.2220 H     1 <1>   0.0800 
 39 H        1.9810     9.6570    -2.1830 H     1 <1>   0.0800 
 40 H        0.4490     9.1760    -1.4940 H     1 <1>   0.0800 
 41 H        1.6530     7.9690    -1.8930 H     1 <1>   0.0800 
@<TRIPOS>BOND
  1   1   2  1   
  2   1   3  1   
  3   2   4  1   
  4   2   5  2   
  5   3   6  2   
  6   3  23  1   
  7   4   7  2   
  8   4   8  1   
  9   5   6  1   
 10   5  24  1   
 11   6  25  1   
 12   7   9  1   
 13   8  10  2   
 14   8  26  1   
 15   9  10  1   
 16   9  27  1   
 17  10  11  1   
 18  11  12  1   
 19  11  28  1   
 20  11  29  1   
 21  12  13  1   
 22  12  14  1   
 23  13  15  ar  
 24  13  16  ar  
 25  14  30  1   
 26  14  31  1   
 27  14  32  1   
 28  15  17  ar  
 29  16  18  ar  
 30  16  19  1   
 31  17  20  ar  
 32  17  21  1   
 33  18  20  ar  
 34  18  33  1   
 35  19  22  1   
 36  19  34  1   
 37  19  35  1   
 38  21  36  1   
 39  21  37  1   
 40  21  38  1   
 41  22  39  1   
 42  22  40  1   
 43  22  41  1   
@<TRIPOS>SUBSTRUCTURE
  1 ****  10 GROUP 4 **** **** 0

# MOE 2024.06 (io_trps.svl 2023.06)
