@<TRIPOS>MOLECULE
NONAME
42 44 1 0 0 
SMALL
USER_CHARGES


@<TRIPOS>ATOM
  1 F       -0.4720    -0.8830    -1.7470 F     1 <1>  -0.1900 
  2 C       -0.9670    -1.9460    -1.1650 C.ar  1 <1>   0.1900 
  3 C       -0.1710    -2.8200    -0.4150 C.ar  1 <1>   0.0830 
  4 C       -2.3220    -2.1600    -1.3260 C.ar  1 <1>  -0.1500 
  5 O        1.1700    -2.7160    -0.1840 O.3   1 <1>  -0.3630 
  6 C       -0.7910    -3.9160     0.1630 C.ar  1 <1>  -0.1500 
  7 C       -2.9080    -3.2640    -0.7350 C.ar  1 <1>  -0.1500 
  8 C        1.9680    -1.6940    -0.7370 C.3   1 <1>   0.0400 
  9 C       -2.1570    -4.1690     0.0190 C.ar  1 <1>   0.0530 
 10 C       -2.7640    -5.3250     0.6310 C.2   1 <1>   0.0870 
 11 O       -2.2400    -5.8740     1.7030 O.3   1 <1>  -0.0190 
 12 C       -3.8660    -6.0530     0.3270 C.2   1 <1>  -0.2330 
 13 N       -2.9260    -6.9040     2.1340 N.2   1 <1>  -0.4100 
 14 C       -3.9120    -7.0260     1.3220 C.2   1 <1>   0.3720 
 15 C       -4.8200    -5.9510    -0.7160 C.2   1 <1>   1.0330 
 16 N       -4.8910    -8.0170     1.4680 N.pl3 1 <1>  -0.8210 
 17 O       -5.7950    -5.1930    -0.6140 O.co2 1 <1>  -0.9000 
 18 O       -4.8540    -6.7790    -1.6450 O.co2 1 <1>  -0.9000 
 19 C       -4.8470    -9.0970     0.4230 C.3   1 <1>   0.2090 
 20 C       -6.2460    -7.5040     1.8670 C.3   1 <1>   0.2090 
 21 C       -6.1990    -9.3730    -0.2760 C.3   1 <1>   0.3430 
 22 C       -7.2870    -7.3600     0.7240 C.3   1 <1>   0.3430 
 23 N       -6.9550    -8.1140    -0.5320 N.4   1 <1>  -0.9590 
 24 C       -8.0870    -8.2230    -1.4800 C.3   1 <1>   0.2630 
 25 H       -2.9110    -1.4730    -1.9060 H     1 <1>   0.1500 
 26 H       -0.1900    -4.5970     0.7400 H     1 <1>   0.1500 
 27 H       -3.9670    -3.4180    -0.8570 H     1 <1>   0.1500 
 28 H        2.9840    -1.8560    -0.4250 H     1 <1>   0.0800 
 29 H        1.6230    -0.7430    -0.3720 H     1 <1>   0.0800 
 30 H        1.9050    -1.7420    -1.8100 H     1 <1>   0.0800 
 31 H       -4.4990   -10.0050     0.8830 H     1 <1>   0.0800 
 32 H       -4.1240    -8.8340    -0.3310 H     1 <1>   0.0800 
 33 H       -6.1360    -6.5460     2.3460 H     1 <1>   0.0800 
 34 H       -6.6460    -8.1730     2.6080 H     1 <1>   0.0800 
 35 H       -6.7870   -10.0270     0.3440 H     1 <1>   0.0800 
 36 H       -6.0040    -9.8770    -1.2070 H     1 <1>   0.0800 
 37 H       -7.3820    -6.3140     0.4830 H     1 <1>   0.0800 
 38 H       -8.2430    -7.6830     1.0990 H     1 <1>   0.0800 
 39 H       -6.2500    -7.4920    -1.0160 H     1 <1>   0.4500 
 40 H       -8.8690    -8.8380    -1.0670 H     1 <1>   0.0800 
 41 H       -7.7480    -8.6540    -2.4080 H     1 <1>   0.0800 
 42 H       -8.4820    -7.2410    -1.6880 H     1 <1>   0.0800 
@<TRIPOS>BOND
  1   1   2  1   
  2   2   3  ar  
  3   2   4  ar  
  4   3   5  1   
  5   3   6  ar  
  6   4   7  ar  
  7   4  25  1   
  8   5   8  1   
  9   6   9  ar  
 10   6  26  1   
 11   7   9  ar  
 12   7  27  1   
 13   8  28  1   
 14   8  29  1   
 15   8  30  1   
 16   9  10  1   
 17  10  11  1   
 18  10  12  2   
 19  11  13  1   
 20  12  14  1   
 21  12  15  1   
 22  13  14  2   
 23  14  16  1   
 24  15  17  ar  
 25  15  18  ar  
 26  16  19  1   
 27  16  20  1   
 28  19  21  1   
 29  19  31  1   
 30  19  32  1   
 31  20  22  1   
 32  20  33  1   
 33  20  34  1   
 34  21  23  1   
 35  21  35  1   
 36  21  36  1   
 37  22  23  1   
 38  22  37  1   
 39  22  38  1   
 40  23  24  1   
 41  23  39  1   
 42  24  40  1   
 43  24  41  1   
 44  24  42  1   
@<TRIPOS>SUBSTRUCTURE
  1 ****  12 GROUP 4 **** **** 0

# MOE 2024.06 (io_trps.svl 2023.06)
