@<TRIPOS>MOLECULE
NONAME
51 53 1 0 0 
SMALL
USER_CHARGES


@<TRIPOS>ATOM
  1 O        1.9290    -1.4590    -3.5530 O.2   1 <1>  -0.5700 
  2 C        2.2710    -1.8600    -2.4710 C.2   1 <1>   0.5690 
  3 N        1.5710    -1.5660    -1.3550 N.am  1 <1>  -0.7300 
  4 C        3.5110    -2.7120    -2.3100 C.3   1 <1>  -0.0990 
  5 C        1.9850    -2.0140    -0.0100 C.3   1 <1>   0.1400 
  6 C        3.2400    -3.8830    -1.3430 C.3   1 <1>  -0.0800 
  7 C        2.4490    -3.4850    -0.0710 C.3   1 <1>  -0.0800 
  8 C        4.5300    -4.5630    -0.8650 C.3   1 <1>  -0.1600 
  9 C        3.3390    -3.8650     1.1200 C.3   1 <1>  -0.1600 
 10 C        4.2600    -4.9560     0.5850 C.3   1 <1>   0.2200 
 11 N        5.5020    -5.1620     1.3900 N.am  1 <1>  -0.6600 
 12 C        6.6000    -4.3230     1.3130 C.2   1 <1>   0.5440 
 13 C        5.7160    -6.5770     1.7970 C.3   1 <1>   0.0600 
 14 O        7.6720    -4.8100     0.9920 O.2   1 <1>  -0.5700 
 15 C        6.5050    -2.9090     1.6040 C.ar  1 <1>   0.0860 
 16 C        6.9030    -1.9360     0.6710 C.ar  1 <1>   0.1000 
 17 C        6.0020    -2.4840     2.8360 C.ar  1 <1>  -0.1500 
 18 N        7.4710    -2.3160    -0.5400 N.pl3 1 <1>  -0.8690 
 19 C        6.7190    -0.5880     0.9750 C.ar  1 <1>  -0.1500 
 20 C        5.8480    -1.1450     3.1310 C.ar  1 <1>  -0.1500 
 21 C        8.5500    -1.5290    -1.1660 C.3   1 <1>   0.2090 
 22 C        6.2000    -0.1920     2.1910 C.ar  1 <1>  -0.1500 
 23 C        9.4140    -2.4730    -2.0010 C.3   1 <1>  -0.1600 
 24 C       10.5620    -1.7250    -2.6890 C.3   1 <1>  -0.2400 
 25 H        0.7590    -0.9530    -1.4510 H     1 <1>   0.3700 
 26 H        3.8210    -3.0860    -3.2690 H     1 <1>   0.0800 
 27 H        4.2920    -2.0810    -1.9260 H     1 <1>   0.0800 
 28 H        2.7920    -1.3810     0.3200 H     1 <1>   0.0800 
 29 H        1.1650    -1.9130     0.6800 H     1 <1>   0.0800 
 30 H        2.6470    -4.6110    -1.8720 H     1 <1>   0.0800 
 31 H        1.5680    -4.1030    -0.0340 H     1 <1>   0.0800 
 32 H        5.3400    -3.8630    -0.9200 H     1 <1>   0.0800 
 33 H        4.7690    -5.4230    -1.4640 H     1 <1>   0.0800 
 34 H        2.7600    -4.2120     1.9570 H     1 <1>   0.0800 
 35 H        3.9070    -3.0060     1.4090 H     1 <1>   0.0800 
 36 H        3.6960    -5.8740     0.5690 H     1 <1>   0.0800 
 37 H        4.8820    -6.9230     2.3810 H     1 <1>   0.0800 
 38 H        6.6110    -6.6610     2.3900 H     1 <1>   0.0800 
 39 H        5.8250    -7.1940     0.9220 H     1 <1>   0.0800 
 40 H        5.7230    -3.2270     3.5620 H     1 <1>   0.1500 
 41 H        7.7170    -3.3210    -0.5440 H     1 <1>   0.4000 
 42 H        6.9860     0.1560     0.2490 H     1 <1>   0.1500 
 43 H        5.4540    -0.8390     4.0850 H     1 <1>   0.1500 
 44 H        8.1190    -0.7680    -1.7930 H     1 <1>   0.0800 
 45 H        9.1490    -1.0610    -0.4030 H     1 <1>   0.0800 
 46 H        6.0720     0.8540     2.4100 H     1 <1>   0.1500 
 47 H        9.8240    -3.2360    -1.3610 H     1 <1>   0.0800 
 48 H        8.8010    -2.9440    -2.7490 H     1 <1>   0.0800 
 49 H       11.2010    -1.2600    -1.9580 H     1 <1>   0.0800 
 50 H       10.1770    -0.9670    -3.3480 H     1 <1>   0.0800 
 51 H       11.1530    -2.4130    -3.2680 H     1 <1>   0.0800 
@<TRIPOS>BOND
  1   1   2  2   
  2   2   3  am  
  3   2   4  1   
  4   3   5  1   
  5   3  25  1   
  6   4   6  1   
  7   4  26  1   
  8   4  27  1   
  9   5   7  1   
 10   5  28  1   
 11   5  29  1   
 12   6   7  1   
 13   6   8  1   
 14   6  30  1   
 15   7   9  1   
 16   7  31  1   
 17   8  10  1   
 18   8  32  1   
 19   8  33  1   
 20   9  10  1   
 21   9  34  1   
 22   9  35  1   
 23  10  11  1   
 24  10  36  1   
 25  11  12  am  
 26  11  13  1   
 27  12  14  2   
 28  12  15  1   
 29  13  37  1   
 30  13  38  1   
 31  13  39  1   
 32  15  16  ar  
 33  15  17  ar  
 34  16  18  1   
 35  16  19  ar  
 36  17  20  ar  
 37  17  40  1   
 38  18  21  1   
 39  18  41  1   
 40  19  22  ar  
 41  19  42  1   
 42  20  22  ar  
 43  20  43  1   
 44  21  23  1   
 45  21  44  1   
 46  21  45  1   
 47  22  46  1   
 48  23  24  1   
 49  23  47  1   
 50  23  48  1   
 51  24  49  1   
 52  24  50  1   
 53  24  51  1   
@<TRIPOS>SUBSTRUCTURE
  1 ****  16 GROUP 4 **** **** 0

# MOE 2024.06 (io_trps.svl 2023.06)
