@<TRIPOS>MOLECULE
NONAME
54 57 1 0 0 
SMALL
USER_CHARGES


@<TRIPOS>ATOM
  1 O        0.9180    -1.3050    -0.4120 O.3   1 <1>  -0.5600 
  2 C        0.2190    -2.3920     0.1680 C.3   1 <1>   0.2800 
  3 C        0.7460    -0.0470     0.1790 C.3   1 <1>   0.1200 
  4 C       -1.1440    -1.9100     0.7600 C.3   1 <1>   0.2000 
  5 C        1.1110    -2.9910     1.2730 C.3   1 <1>  -0.1600 
  6 C        0.0900    -3.4490    -0.9590 C.3   1 <1>  -0.1600 
  7 C       -0.6910     0.4490    -0.0510 C.3   1 <1>  -0.1600 
  8 O       -2.0760    -2.9430     0.8670 O.3   1 <1>  -0.6800 
  9 C       -1.7360    -0.6830     0.0180 C.3   1 <1>   0.2800 
 10 C        2.4980    -3.4220     0.7800 C.3   1 <1>   0.3430 
 11 C        1.3830    -4.2110    -1.2720 C.3   1 <1>   0.3430 
 12 O       -2.8060    -0.2330     0.7690 O.3   1 <1>  -0.6800 
 13 C       -2.3130    -0.9830    -1.3730 C.3   1 <1>  -0.2400 
 14 N        2.5380    -3.4780    -0.7090 N.4   1 <1>  -0.9590 
 15 C        3.8550    -3.8960    -1.2510 C.3   1 <1>   0.4860 
 16 C        4.9020    -2.9240    -0.7470 C.ar  1 <1>  -0.1440 
 17 C        5.8270    -3.3230     0.1940 C.ar  1 <1>  -0.1500 
 18 C        4.9130    -1.6050    -1.2290 C.ar  1 <1>  -0.1500 
 19 C        6.7620    -2.4040     0.6760 C.ar  1 <1>   0.0000 
 20 C        5.8310    -0.6940    -0.7630 C.ar  1 <1>  -0.1500 
 21 C        6.7590    -1.0970     0.2010 C.ar  1 <1>  -0.1520 
 22 C        7.8060    -2.4850     1.6190 C.2   1 <1>  -0.1500 
 23 N        7.7670    -0.4050     0.8300 N.pl3 1 <1>   0.0480 
 24 C        8.3890    -1.2660     1.6890 C.2   1 <1>  -0.3020 
 25 C        8.1260     1.0050     0.6080 C.3   1 <1>   0.0160 
 26 H        0.9650    -0.1230     1.2310 H     1 <1>   0.0800 
 27 H        1.4520     0.6330    -0.2670 H     1 <1>   0.0800 
 28 H       -0.9580    -1.5890     1.7700 H     1 <1>   0.0800 
 29 H        1.2280    -2.2970     2.0860 H     1 <1>   0.0800 
 30 H        0.6140    -3.8530     1.6820 H     1 <1>   0.0800 
 31 H       -0.6410    -4.1910    -0.6930 H     1 <1>   0.0800 
 32 H       -0.2650    -2.9860    -1.8580 H     1 <1>   0.0800 
 33 H       -0.7290     0.9330    -1.0110 H     1 <1>   0.0800 
 34 H       -0.8970     1.2020     0.6900 H     1 <1>   0.0800 
 35 H       -2.9310    -2.5370     1.1300 H     1 <1>   0.4000 
 36 H        2.7510    -4.3820     1.1990 H     1 <1>   0.0800 
 37 H        3.2280    -2.7040     1.1230 H     1 <1>   0.0800 
 38 H        1.4850    -4.3140    -2.3400 H     1 <1>   0.0800 
 39 H        1.3360    -5.1960    -0.8370 H     1 <1>   0.0800 
 40 H       -3.2530     0.4980     0.3010 H     1 <1>   0.4000 
 41 H       -1.5250    -1.2030    -2.0660 H     1 <1>   0.0800 
 42 H       -2.8470    -0.1310    -1.7550 H     1 <1>   0.0800 
 43 H       -2.9810    -1.8250    -1.3380 H     1 <1>   0.0800 
 44 H        2.3870    -2.4900    -0.9840 H     1 <1>   0.4500 
 45 H        4.0920    -4.8960    -0.9240 H     1 <1>   0.0800 
 46 H        3.8390    -3.8790    -2.3280 H     1 <1>   0.0800 
 47 H        5.8610    -4.3250     0.5820 H     1 <1>   0.1500 
 48 H        4.1990    -1.2950    -1.9730 H     1 <1>   0.1500 
 49 H        5.8450     0.3170    -1.1280 H     1 <1>   0.1500 
 50 H        8.0650    -3.3750     2.1660 H     1 <1>   0.1500 
 51 H        9.2180    -0.9580     2.3020 H     1 <1>   0.1500 
 52 H        8.9600     1.2670     1.2320 H     1 <1>   0.0800 
 53 H        7.2860     1.6280     0.8520 H     1 <1>   0.0800 
 54 H        8.3930     1.1430    -0.4240 H     1 <1>   0.0800 
@<TRIPOS>BOND
  1   1   2  1   
  2   1   3  1   
  3   2   4  1   
  4   2   5  1   
  5   2   6  1   
  6   3   7  1   
  7   3  26  1   
  8   3  27  1   
  9   4   8  1   
 10   4   9  1   
 11   4  28  1   
 12   5  10  1   
 13   5  29  1   
 14   5  30  1   
 15   6  11  1   
 16   6  31  1   
 17   6  32  1   
 18   7   9  1   
 19   7  33  1   
 20   7  34  1   
 21   8  35  1   
 22   9  12  1   
 23   9  13  1   
 24  10  14  1   
 25  10  36  1   
 26  10  37  1   
 27  11  14  1   
 28  11  38  1   
 29  11  39  1   
 30  12  40  1   
 31  13  41  1   
 32  13  42  1   
 33  13  43  1   
 34  14  15  1   
 35  14  44  1   
 36  15  16  1   
 37  15  45  1   
 38  15  46  1   
 39  16  17  ar  
 40  16  18  ar  
 41  17  19  ar  
 42  17  47  1   
 43  18  20  ar  
 44  18  48  1   
 45  19  21  ar  
 46  19  22  1   
 47  20  21  ar  
 48  20  49  1   
 49  21  23  1   
 50  22  24  2   
 51  22  50  1   
 52  23  24  1   
 53  23  25  1   
 54  24  51  1   
 55  25  52  1   
 56  25  53  1   
 57  25  54  1   
@<TRIPOS>SUBSTRUCTURE
  1 ****  10 GROUP 4 **** **** 0

# MOE 2024.06 (io_trps.svl 2023.06)
