@<TRIPOS>MOLECULE
NONAME
51 54 1 0 0 
SMALL
USER_CHARGES


@<TRIPOS>ATOM
  1 O       -0.3840     0.8130     0.0680 O.2   1 <1>  -0.5700 
  2 C       -0.2830     1.9920     0.2950 C.2   1 <1>   0.5690 
  3 N       -1.3830     2.7590     0.4570 N.am  1 <1>  -0.7300 
  4 C        1.1010     2.6460     0.3670 C.3   1 <1>   0.1810 
  5 C       -1.3330     4.2110     0.7570 C.3   1 <1>   0.3640 
  6 O        1.0870     3.9100     0.9970 O.3   1 <1>  -0.5600 
  7 C       -2.3630     4.9310    -0.1100 C.ar  1 <1>  -0.1440 
  8 C        0.0830     4.7950     0.5270 C.3   1 <1>   0.2610 
  9 C       -3.1620     5.9180     0.4510 C.ar  1 <1>  -0.1500 
 10 C       -2.5130     4.6310    -1.4590 C.ar  1 <1>  -0.1500 
 11 C        0.2260     6.1770     1.1780 C.2   1 <1>   0.5690 
 12 C       -4.0950     6.5900    -0.3180 C.ar  1 <1>  -0.1500 
 13 C       -3.4460     5.3030    -2.2290 C.ar  1 <1>  -0.1500 
 14 O       -0.4240     6.4670     2.1580 O.2   1 <1>  -0.5700 
 15 N        1.0830     7.0740     0.6340 N.am  1 <1>  -0.7300 
 16 C       -4.2380     6.2830    -1.6590 C.ar  1 <1>  -0.1500 
 17 C        1.3210     8.4390     1.1300 C.3   1 <1>   0.3210 
 18 C        2.3100     9.1490     0.2070 C.2   1 <1>   0.1080 
 19 N        2.8520     8.5880    -0.8390 N.2   1 <1>  -0.7070 
 20 C        2.7430    10.4650     0.3730 C.2   1 <1>  -0.1810 
 21 N        3.6440     9.5410    -1.3640 N.pl3 1 <1>   0.3000 
 22 C        3.5950    10.6820    -0.6490 C.2   1 <1>  -0.3320 
 23 C        2.3580    11.4520     1.4610 C.3   1 <1>   0.0210 
 24 C        4.3790    11.9350    -0.9890 C.3   1 <1>   0.0200 
 25 C        1.8300    12.7700     0.8780 C.3   1 <1>  -0.1600 
 26 C        3.4640    13.1610    -1.0970 C.3   1 <1>  -0.1600 
 27 C        2.9130    13.6640     0.2490 C.3   1 <1>  -0.1600 
 28 H       -2.3060     2.3250     0.4060 H     1 <1>   0.3700 
 29 H        1.4910     2.7690    -0.6270 H     1 <1>   0.0800 
 30 H        1.7660     2.0110     0.9240 H     1 <1>   0.0800 
 31 H       -1.5970     4.3360     1.7940 H     1 <1>   0.0800 
 32 H        0.2360     4.9180    -0.5300 H     1 <1>   0.0800 
 33 H       -3.0580     6.1740     1.4930 H     1 <1>   0.1500 
 34 H       -1.9060     3.8710    -1.9200 H     1 <1>   0.1500 
 35 H       -4.7080     7.3540     0.1280 H     1 <1>   0.1500 
 36 H       -3.5570     5.0630    -3.2720 H     1 <1>   0.1500 
 37 H        1.6900     6.8720    -0.1700 H     1 <1>   0.3700 
 38 H       -4.9640     6.8060    -2.2570 H     1 <1>   0.1500 
 39 H        0.3900     8.9770     1.1510 H     1 <1>   0.0800 
 40 H        1.7230     8.3910     2.1260 H     1 <1>   0.0800 
 41 H        4.2030     9.3830    -2.2100 H     1 <1>   0.2700 
 42 H        1.5910    11.0210     2.0790 H     1 <1>   0.0800 
 43 H        3.2120    11.6410     2.0860 H     1 <1>   0.0800 
 44 H        5.1330    12.1020    -0.2400 H     1 <1>   0.0800 
 45 H        4.8790    11.7960    -1.9320 H     1 <1>   0.0800 
 46 H        1.0630    12.5590     0.1530 H     1 <1>   0.0800 
 47 H        1.3710    13.3220     1.6790 H     1 <1>   0.0800 
 48 H        4.0350    13.9590    -1.5390 H     1 <1>   0.0800 
 49 H        2.6490    12.9430    -1.7650 H     1 <1>   0.0800 
 50 H        3.7220    13.8040     0.9460 H     1 <1>   0.0800 
 51 H        2.4750    14.6320     0.0780 H     1 <1>   0.0800 
@<TRIPOS>BOND
  1   1   2  2   
  2   2   3  am  
  3   2   4  1   
  4   3   5  1   
  5   3  28  1   
  6   4   6  1   
  7   4  29  1   
  8   4  30  1   
  9   5   7  1   
 10   5   8  1   
 11   5  31  1   
 12   6   8  1   
 13   7   9  ar  
 14   7  10  ar  
 15   8  11  1   
 16   8  32  1   
 17   9  12  ar  
 18   9  33  1   
 19  10  13  ar  
 20  10  34  1   
 21  11  14  2   
 22  11  15  am  
 23  12  16  ar  
 24  12  35  1   
 25  13  16  ar  
 26  13  36  1   
 27  15  17  1   
 28  15  37  1   
 29  16  38  1   
 30  17  18  1   
 31  17  39  1   
 32  17  40  1   
 33  18  19  2   
 34  18  20  1   
 35  19  21  1   
 36  20  22  2   
 37  20  23  1   
 38  21  22  1   
 39  21  41  1   
 40  22  24  1   
 41  23  25  1   
 42  23  42  1   
 43  23  43  1   
 44  24  26  1   
 45  24  44  1   
 46  24  45  1   
 47  25  27  1   
 48  25  46  1   
 49  25  47  1   
 50  26  27  1   
 51  26  48  1   
 52  26  49  1   
 53  27  50  1   
 54  27  51  1   
@<TRIPOS>SUBSTRUCTURE
  1 ****  15 GROUP 4 **** **** 0

# MOE 2024.06 (io_trps.svl 2023.06)
