@<TRIPOS>MOLECULE
NONAME
42 43 1 0 0 
SMALL
USER_CHARGES


@<TRIPOS>ATOM
  1 O       -0.3450     0.3340     0.5730 O.2   1 <1>  -0.5700 
  2 C       -0.1220     1.5400     0.4240 C.2   1 <1>   0.3890 
  3 C       -1.1430     2.4860     0.5680 C.3   1 <1>  -0.7150 
  4 C        1.2110     1.9630     0.0740 C.ar  1 <1>   0.0860 
  5 C       -0.8890     3.8290     0.2670 C.2   1 <1>   0.5350 
  6 C       -2.4130     2.1060     1.0010 C.2   1 <1>   0.6250 
  7 C        1.4440     3.3130    -0.2310 C.ar  1 <1>   0.1170 
  8 C        2.2820     1.0650     0.0330 C.ar  1 <1>  -0.1500 
  9 O       -1.7520     4.6950     0.4150 O.2   1 <1>  -0.5700 
 10 N        0.3640     4.2170    -0.2050 N.am  1 <1>  -0.4770 
 11 O       -2.6730     1.7690     2.1550 O.2   1 <1>  -0.5700 
 12 O       -3.4090     2.1170     0.0980 O.3   1 <1>  -0.4300 
 13 C        2.7500     3.7090    -0.5460 C.ar  1 <1>  -0.1500 
 14 C        3.5580     1.4730    -0.2900 C.ar  1 <1>  -0.1500 
 15 C        0.4970     5.5950    -0.7570 C.3   1 <1>   0.1400 
 16 C       -4.7130     1.7740     0.4880 C.3   1 <1>   0.1200 
 17 C        3.7930     2.8060    -0.5790 C.ar  1 <1>  -0.1500 
 18 C        0.9570     6.5630     0.3400 C.3   1 <1>  -0.1600 
 19 C       -5.6190     1.8860    -0.7340 C.3   1 <1>  -0.2400 
 20 C        1.1750     7.9760    -0.2170 C.3   1 <1>  -0.1600 
 21 C        1.6330     8.9380     0.8850 C.3   1 <1>  -0.1600 
 22 C        1.8510    10.3480     0.3300 C.3   1 <1>  -0.2400 
 23 H        2.0910     0.0310     0.2640 H     1 <1>   0.1500 
 24 H        2.9680     4.7350    -0.7630 H     1 <1>   0.1500 
 25 H        4.3650     0.7620    -0.3150 H     1 <1>   0.1500 
 26 H       -0.4510     5.9200    -1.1490 H     1 <1>   0.0800 
 27 H        1.1860     5.5920    -1.5800 H     1 <1>   0.0800 
 28 H       -5.0180     2.4550     1.2640 H     1 <1>   0.0800 
 29 H       -4.6940     0.7680     0.8720 H     1 <1>   0.0800 
 30 H        4.7870     3.1330    -0.8250 H     1 <1>   0.1500 
 31 H        1.8690     6.2020     0.7800 H     1 <1>   0.0800 
 32 H        0.2010     6.5910     1.1060 H     1 <1>   0.0800 
 33 H       -5.6010     2.8940    -1.1070 H     1 <1>   0.0800 
 34 H       -6.6270     1.6300    -0.4660 H     1 <1>   0.0800 
 35 H       -5.2790     1.2120    -1.5000 H     1 <1>   0.0800 
 36 H        0.2530     8.3330    -0.6440 H     1 <1>   0.0800 
 37 H        1.9170     7.9440    -0.9970 H     1 <1>   0.0800 
 38 H        2.5510     8.5800     1.3190 H     1 <1>   0.0800 
 39 H        0.8890     8.9730     1.6630 H     1 <1>   0.0800 
 40 H        2.6070    10.3390    -0.4350 H     1 <1>   0.0800 
 41 H        2.1700    11.0070     1.1180 H     1 <1>   0.0800 
 42 H        0.9370    10.7320    -0.0880 H     1 <1>   0.0800 
@<TRIPOS>BOND
  1   1   2  2   
  2   2   3  1   
  3   2   4  1   
  4   3   5  1   
  5   3   6  1   
  6   4   7  ar  
  7   4   8  ar  
  8   5   9  2   
  9   5  10  am  
 10   6  11  2   
 11   6  12  1   
 12   7  10  1   
 13   7  13  ar  
 14   8  14  ar  
 15   8  23  1   
 16  10  15  1   
 17  12  16  1   
 18  13  17  ar  
 19  13  24  1   
 20  14  17  ar  
 21  14  25  1   
 22  15  18  1   
 23  15  26  1   
 24  15  27  1   
 25  16  19  1   
 26  16  28  1   
 27  16  29  1   
 28  17  30  1   
 29  18  20  1   
 30  18  31  1   
 31  18  32  1   
 32  19  33  1   
 33  19  34  1   
 34  19  35  1   
 35  20  21  1   
 36  20  36  1   
 37  20  37  1   
 38  21  22  1   
 39  21  38  1   
 40  21  39  1   
 41  22  40  1   
 42  22  41  1   
 43  22  42  1   
@<TRIPOS>SUBSTRUCTURE
  1 ****  10 GROUP 4 **** **** 0

# MOE 2024.06 (io_trps.svl 2023.06)
