@<TRIPOS>MOLECULE
NONAME
56 59 1 0 0 
SMALL
USER_CHARGES


@<TRIPOS>ATOM
  1 O       -0.0480    -0.1690     0.8790 O.2   1 <1>  -0.5700 
  2 C        0.7900    -0.7770     0.2310 C.2   1 <1>   0.5440 
  3 N        1.3740    -1.9090     0.7510 N.am  1 <1>  -0.4200 
  4 C        1.1640    -0.3710    -1.0940 C.ar  1 <1>   0.0860 
  5 C        2.2430    -2.6400    -0.0230 C.2   1 <1>   0.4500 
  6 C        1.0830    -2.3790     2.1410 C.3   1 <1>   0.2010 
  7 C        2.0620    -1.1900    -1.7880 C.ar  1 <1>   0.1790 
  8 C        0.6790     0.7820    -1.7200 C.ar  1 <1>  -0.1500 
  9 N        2.5830    -2.3340    -1.2160 N.2   1 <1>  -0.6290 
 10 C        0.5010    -3.7940     2.1720 C.2   1 <1>   0.5690 
 11 C        2.4430    -0.8470    -3.0810 C.ar  1 <1>  -0.1500 
 12 C        1.0680     1.1100    -3.0020 C.ar  1 <1>  -0.1500 
 13 O        1.2550    -4.6650     2.5390 O.2   1 <1>  -0.5700 
 14 N       -0.7950    -4.0760     1.7920 N.am  1 <1>  -0.6600 
 15 C        1.9530     0.2910    -3.6870 C.ar  1 <1>  -0.1500 
 16 C       -1.7640    -3.0230     1.3640 C.3   1 <1>   0.2200 
 17 C       -1.2670    -5.4970     1.7870 C.3   1 <1>   0.0600 
 18 C       -3.1680    -3.1510     1.9540 C.3   1 <1>  -0.1600 
 19 C       -1.9970    -3.0110    -0.1440 C.3   1 <1>  -0.1600 
 20 C       -4.0270    -2.2760     1.0300 C.3   1 <1>  -0.0800 
 21 C       -3.2760    -2.1810    -0.3050 C.3   1 <1>  -0.0800 
 22 C       -5.4160    -2.8340     0.6870 C.3   1 <1>  -0.1600 
 23 C       -4.2570    -2.6780    -1.3760 C.3   1 <1>  -0.1600 
 24 C       -5.6510    -2.4570    -0.7800 C.3   1 <1>   0.4230 
 25 N       -6.0570    -1.0180    -0.9000 N.4   1 <1>  -0.9590 
 26 C       -7.3470    -0.7160    -0.2000 C.3   1 <1>   0.2630 
 27 C       -6.1730    -0.5660    -2.3240 C.3   1 <1>   0.2630 
 28 H        2.6550    -3.5280     0.4280 H     1 <1>   0.0600 
 29 H        2.0050    -2.3840     2.6930 H     1 <1>   0.0800 
 30 H        0.4190    -1.7060     2.6500 H     1 <1>   0.0800 
 31 H       -0.0040     1.4190    -1.1850 H     1 <1>   0.1500 
 32 H        3.1320    -1.4900    -3.6000 H     1 <1>   0.1500 
 33 H        0.6900     2.0010    -3.4750 H     1 <1>   0.1500 
 34 H        2.2580     0.5450    -4.6880 H     1 <1>   0.1500 
 35 H       -1.4060    -2.0530     1.6510 H     1 <1>   0.0800 
 36 H       -1.8970    -5.6870     0.9380 H     1 <1>   0.0800 
 37 H       -1.8160    -5.6990     2.6900 H     1 <1>   0.0800 
 38 H       -0.4320    -6.1760     1.7390 H     1 <1>   0.0800 
 39 H       -3.5060    -4.1690     1.9170 H     1 <1>   0.0800 
 40 H       -3.1960    -2.8000     2.9710 H     1 <1>   0.0800 
 41 H       -1.1710    -2.5690    -0.6720 H     1 <1>   0.0800 
 42 H       -2.1440    -4.0140    -0.5000 H     1 <1>   0.0800 
 43 H       -4.1130    -1.2870     1.4510 H     1 <1>   0.0800 
 44 H       -3.0110    -1.1510    -0.4830 H     1 <1>   0.0800 
 45 H       -6.1730    -2.5000     1.3710 H     1 <1>   0.0800 
 46 H       -5.3930    -3.9090     0.7380 H     1 <1>   0.0800 
 47 H       -4.1320    -3.7380    -1.5120 H     1 <1>   0.0800 
 48 H       -4.0900    -2.2140    -2.3300 H     1 <1>   0.0800 
 49 H       -6.3870    -3.0970    -1.2410 H     1 <1>   0.0800 
 50 H       -5.3060    -0.4760    -0.4470 H     1 <1>   0.4500 
 51 H       -8.1370    -1.3410    -0.5850 H     1 <1>   0.0800 
 52 H       -7.6210     0.3160    -0.3510 H     1 <1>   0.0800 
 53 H       -7.2570    -0.8850     0.8590 H     1 <1>   0.0800 
 54 H       -6.8860    -1.1760    -2.8540 H     1 <1>   0.0800 
 55 H       -5.2220    -0.6310    -2.8260 H     1 <1>   0.0800 
 56 H       -6.5010     0.4600    -2.3640 H     1 <1>   0.0800 
@<TRIPOS>BOND
  1   1   2  2   
  2   2   3  am  
  3   2   4  1   
  4   3   5  1   
  5   3   6  1   
  6   4   7  ar  
  7   4   8  ar  
  8   5   9  2   
  9   5  28  1   
 10   6  10  1   
 11   6  29  1   
 12   6  30  1   
 13   7   9  1   
 14   7  11  ar  
 15   8  12  ar  
 16   8  31  1   
 17  10  13  2   
 18  10  14  am  
 19  11  15  ar  
 20  11  32  1   
 21  12  15  ar  
 22  12  33  1   
 23  14  16  1   
 24  14  17  1   
 25  15  34  1   
 26  16  18  1   
 27  16  19  1   
 28  16  35  1   
 29  17  36  1   
 30  17  37  1   
 31  17  38  1   
 32  18  20  1   
 33  18  39  1   
 34  18  40  1   
 35  19  21  1   
 36  19  41  1   
 37  19  42  1   
 38  20  21  1   
 39  20  22  1   
 40  20  43  1   
 41  21  23  1   
 42  21  44  1   
 43  22  24  1   
 44  22  45  1   
 45  22  46  1   
 46  23  24  1   
 47  23  47  1   
 48  23  48  1   
 49  24  25  1   
 50  24  49  1   
 51  25  26  1   
 52  25  27  1   
 53  25  50  1   
 54  26  51  1   
 55  26  52  1   
 56  26  53  1   
 57  27  54  1   
 58  27  55  1   
 59  27  56  1   
@<TRIPOS>SUBSTRUCTURE
  1 ****  19 GROUP 4 **** **** 0

# MOE 2024.06 (io_trps.svl 2023.06)
