@<TRIPOS>MOLECULE
NONAME
61 63 1 0 0 
SMALL
USER_CHARGES


@<TRIPOS>ATOM
  1 O        0.6990     1.3170     0.3210 O.co2 1 <1>  -0.9000 
  2 C        1.8990     1.2250     0.0920 C.2   1 <1>   0.9060 
  3 O        2.4630     1.8700    -0.8050 O.co2 1 <1>  -0.9000 
  4 C        2.7560     0.3740     1.0160 C.3   1 <1>  -0.1860 
  5 C        3.9400    -0.3550     0.3240 C.3   1 <1>   0.2000 
  6 C        3.2680     1.2840     2.1550 C.3   1 <1>  -0.1600 
  7 O        3.8820    -0.2460    -1.0550 O.3   1 <1>  -0.6800 
  8 C        5.3150     0.1820     0.7870 C.3   1 <1>   0.3430 
  9 C        4.2430     2.3230     1.5870 C.3   1 <1>   0.3430 
 10 N        5.3940     1.6890     0.8460 N.4   1 <1>  -0.9590 
 11 C        5.4720     2.2500    -0.5370 C.3   1 <1>   0.4860 
 12 C        5.8130     3.7280    -0.4560 C.ar  1 <1>  -0.1430 
 13 C        7.1050     4.1570    -0.1890 C.ar  1 <1>  -0.1500 
 14 C        4.8110     4.6620    -0.6510 C.ar  1 <1>  -0.1500 
 15 C        7.4090     5.5160    -0.1020 C.ar  1 <1>   0.0830 
 16 C        5.0960     6.0100    -0.5630 C.ar  1 <1>  -0.1500 
 17 O        8.6840     5.9300     0.1630 O.3   1 <1>  -0.3630 
 18 C        6.3790     6.4570    -0.2880 C.ar  1 <1>   0.0830 
 19 C        9.7890     5.0490     0.1630 C.3   1 <1>   0.0400 
 20 O        6.4900     7.8180    -0.2320 O.3   1 <1>  -0.3630 
 21 C        7.7140     8.4890    -0.0790 C.3   1 <1>   0.1200 
 22 C        7.4330     9.9910    -0.1590 C.3   1 <1>   0.3430 
 23 N        8.6620    10.8220     0.0630 N.4   1 <1>  -0.9590 
 24 C        8.2860    12.2570     0.2270 C.3   1 <1>   0.3430 
 25 C        9.6700    10.6450    -1.0280 C.3   1 <1>   0.3430 
 26 C        9.5250    13.0770     0.5920 C.3   1 <1>  -0.1600 
 27 C       10.9380    11.4320    -0.6920 C.3   1 <1>  -0.1600 
 28 C       10.6390    12.9170    -0.4490 C.3   1 <1>  -0.1600 
 29 H        2.1050    -0.3670     1.4410 H     1 <1>   0.0800 
 30 H        3.8930    -1.4080     0.5460 H     1 <1>   0.0800 
 31 H        3.7330     0.7120     2.9380 H     1 <1>   0.0800 
 32 H        2.4300     1.8020     2.5920 H     1 <1>   0.0800 
 33 H        3.2970     0.5480    -1.2660 H     1 <1>   0.4000 
 34 H        6.0790    -0.2120     0.1380 H     1 <1>   0.0800 
 35 H        5.4950    -0.2040     1.7750 H     1 <1>   0.0800 
 36 H        4.6170     2.9440     2.3840 H     1 <1>   0.0800 
 37 H        3.6900     2.9600     0.9130 H     1 <1>   0.0800 
 38 H        6.2570     1.9690     1.3160 H     1 <1>   0.4500 
 39 H        6.2340     1.7380    -1.1010 H     1 <1>   0.0800 
 40 H        4.5420     2.1220    -1.0590 H     1 <1>   0.0800 
 41 H        7.8690     3.4170    -0.0530 H     1 <1>   0.1500 
 42 H        3.8010     4.3430    -0.8740 H     1 <1>   0.1500 
 43 H        4.3080     6.7270    -0.7120 H     1 <1>   0.1500 
 44 H       10.6820     5.6290     0.3060 H     1 <1>   0.0800 
 45 H        9.8350     4.5410    -0.7850 H     1 <1>   0.0800 
 46 H        9.6820     4.3500     0.9740 H     1 <1>   0.0800 
 47 H        8.1170     8.2270     0.8830 H     1 <1>   0.0800 
 48 H        8.3650     8.1720    -0.8740 H     1 <1>   0.0800 
 49 H        6.7010    10.2320     0.5940 H     1 <1>   0.0800 
 50 H        7.0120    10.2160    -1.1250 H     1 <1>   0.0800 
 51 H        9.1050    10.5270     0.9430 H     1 <1>   0.4500 
 52 H        7.8650    12.6320    -0.6920 H     1 <1>   0.0800 
 53 H        7.5470    12.3600     1.0060 H     1 <1>   0.0800 
 54 H        9.9200     9.6030    -1.1420 H     1 <1>   0.0800 
 55 H        9.2630    11.0010    -1.9620 H     1 <1>   0.0800 
 56 H        9.2500    14.1160     0.6610 H     1 <1>   0.0800 
 57 H        9.8810    12.7760     1.5620 H     1 <1>   0.0800 
 58 H       11.4040    11.0040     0.1790 H     1 <1>   0.0800 
 59 H       11.6350    11.3390    -1.5070 H     1 <1>   0.0800 
 60 H       11.5310    13.4200    -0.1130 H     1 <1>   0.0800 
 61 H       10.3350    13.3780    -1.3750 H     1 <1>   0.0800 
@<TRIPOS>BOND
  1   1   2  ar  
  2   2   3  ar  
  3   2   4  1   
  4   4   5  1   
  5   4   6  1   
  6   4  29  1   
  7   5   7  1   
  8   5   8  1   
  9   5  30  1   
 10   6   9  1   
 11   6  31  1   
 12   6  32  1   
 13   7  33  1   
 14   8  10  1   
 15   8  34  1   
 16   8  35  1   
 17   9  10  1   
 18   9  36  1   
 19   9  37  1   
 20  10  11  1   
 21  10  38  1   
 22  11  12  1   
 23  11  39  1   
 24  11  40  1   
 25  12  13  ar  
 26  12  14  ar  
 27  13  15  ar  
 28  13  41  1   
 29  14  16  ar  
 30  14  42  1   
 31  15  17  1   
 32  15  18  ar  
 33  16  18  ar  
 34  16  43  1   
 35  17  19  1   
 36  18  20  1   
 37  19  44  1   
 38  19  45  1   
 39  19  46  1   
 40  20  21  1   
 41  21  22  1   
 42  21  47  1   
 43  21  48  1   
 44  22  23  1   
 45  22  49  1   
 46  22  50  1   
 47  23  24  1   
 48  23  25  1   
 49  23  51  1   
 50  24  26  1   
 51  24  52  1   
 52  24  53  1   
 53  25  27  1   
 54  25  54  1   
 55  25  55  1   
 56  26  28  1   
 57  26  56  1   
 58  26  57  1   
 59  27  28  1   
 60  27  58  1   
 61  27  59  1   
 62  28  60  1   
 63  28  61  1   
@<TRIPOS>SUBSTRUCTURE
  1 ****  18 GROUP 4 **** **** 0

# MOE 2024.06 (io_trps.svl 2023.06)
