@<TRIPOS>MOLECULE
NONAME
57 61 1 0 0 
SMALL
USER_CHARGES


@<TRIPOS>ATOM
  1 S       -0.0510     0.6440    -0.5650 S.o2  1 <1>   1.5760 
  2 O       -0.3300     0.3010    -1.9420 O.2   1 <1>  -0.6500 
  3 O        0.4770     1.9490    -0.2340 O.2   1 <1>  -0.6500 
  4 N       -1.4350     0.3680     0.3610 N.am  1 <1>  -0.8490 
  5 N        0.9760    -0.5210     0.0930 N.am  1 <1>  -0.8490 
  6 C       -2.3650     1.5090     0.4300 C.3   1 <1>   0.1960 
  7 C       -2.0830    -0.9310     0.1040 C.3   1 <1>   0.1960 
  8 C        2.1520    -0.7130    -0.7550 C.3   1 <1>   0.1960 
  9 C        1.3660    -0.1830     1.4650 C.3   1 <1>   0.1960 
 10 C       -3.2500     1.6950    -0.8330 C.3   1 <1>   0.1440 
 11 C       -3.4950    -0.8130    -0.4980 C.3   1 <1>  -0.1600 
 12 C        3.0090    -1.8680    -0.2240 C.3   1 <1>  -0.1600 
 13 C        2.1840    -1.3240     2.0790 C.3   1 <1>  -0.1600 
 14 C       -4.5060     2.4340    -0.3900 C.ar  1 <1>   0.1670 
 15 C       -3.5890     0.3420    -1.5040 C.3   1 <1>  -0.1600 
 16 C       -2.6420     2.6960    -1.8550 C.3   1 <1>  -0.1600 
 17 C        3.4240    -1.6370     1.2330 C.3   1 <1>  -0.1600 
 18 N       -5.4900     1.9150     0.3050 N.ar  1 <1>  -0.6200 
 19 C       -4.4960     3.7340    -0.7910 C.ar  1 <1>  -0.1440 
 20 C       -3.2460     4.0780    -1.5580 C.3   1 <1>  -0.0170 
 21 C       -6.5070     2.7380     0.5920 C.ar  1 <1>   0.6200 
 22 C       -5.5700     4.5160    -0.4540 C.ar  1 <1>   0.1600 
 23 N       -6.5770     4.0280     0.2330 N.ar  1 <1>  -0.6200 
 24 C       -7.6210     2.1880     1.3540 C.ar  1 <1>   0.0000 
 25 C       -7.4480     1.1190     2.2400 C.ar  1 <1>  -0.1500 
 26 C       -8.9160     2.7010     1.2340 C.ar  1 <1>  -0.1500 
 27 C       -8.5030     0.5940     2.9630 C.ar  1 <1>  -0.1500 
 28 C       -9.9760     2.1810     1.9540 C.ar  1 <1>  -0.1500 
 29 C       -9.7720     1.1240     2.8210 C.ar  1 <1>  -0.1500 
 30 H       -1.8280     2.4170     0.6430 H     1 <1>   0.0800 
 31 H       -3.0140     1.3350     1.2720 H     1 <1>   0.0800 
 32 H       -2.1430    -1.4720     1.0320 H     1 <1>   0.0800 
 33 H       -1.4700    -1.5190    -0.5610 H     1 <1>   0.0800 
 34 H        2.7320     0.1950    -0.7870 H     1 <1>   0.0800 
 35 H        1.8410    -0.9490    -1.7600 H     1 <1>   0.0800 
 36 H        0.4860    -0.0230     2.0650 H     1 <1>   0.0800 
 37 H        1.9460     0.7260     1.4710 H     1 <1>   0.0800 
 38 H       -4.2070    -0.6590     0.2950 H     1 <1>   0.0800 
 39 H       -3.7500    -1.7400    -0.9790 H     1 <1>   0.0800 
 40 H        3.8850    -1.9740    -0.8380 H     1 <1>   0.0800 
 41 H        2.4420    -2.7790    -0.3010 H     1 <1>   0.0800 
 42 H        1.5590    -2.1970     2.1490 H     1 <1>   0.0800 
 43 H        2.4830    -1.0520     3.0760 H     1 <1>   0.0800 
 44 H       -2.8940     0.1440    -2.3010 H     1 <1>   0.0800 
 45 H       -4.5740     0.3780    -1.9350 H     1 <1>   0.0800 
 46 H       -2.9400     2.4130    -2.8490 H     1 <1>   0.0800 
 47 H       -1.5690     2.7290    -1.8280 H     1 <1>   0.0800 
 48 H        4.1090    -0.8080     1.2830 H     1 <1>   0.0800 
 49 H        3.9230    -2.5090     1.6180 H     1 <1>   0.0800 
 50 H       -3.4650     4.6160    -2.4630 H     1 <1>   0.0800 
 51 H       -2.5850     4.6560    -0.9360 H     1 <1>   0.0800 
 52 H       -5.6050     5.5510    -0.7500 H     1 <1>   0.1500 
 53 H       -6.4680     0.6930     2.3640 H     1 <1>   0.1500 
 54 H       -9.0950     3.5230     0.5630 H     1 <1>   0.1500 
 55 H       -8.3370    -0.2290     3.6360 H     1 <1>   0.1500 
 56 H      -10.9610     2.5990     1.8380 H     1 <1>   0.1500 
 57 H      -10.5950     0.7170     3.3830 H     1 <1>   0.1500 
@<TRIPOS>BOND
  1   1   2  2   
  2   1   3  2   
  3   1   4  am  
  4   1   5  am  
  5   4   6  1   
  6   4   7  1   
  7   5   8  1   
  8   5   9  1   
  9   6  10  1   
 10   6  30  1   
 11   6  31  1   
 12   7  11  1   
 13   7  32  1   
 14   7  33  1   
 15   8  12  1   
 16   8  34  1   
 17   8  35  1   
 18   9  13  1   
 19   9  36  1   
 20   9  37  1   
 21  10  14  1   
 22  10  15  1   
 23  10  16  1   
 24  11  15  1   
 25  11  38  1   
 26  11  39  1   
 27  12  17  1   
 28  12  40  1   
 29  12  41  1   
 30  13  17  1   
 31  13  42  1   
 32  13  43  1   
 33  14  18  ar  
 34  14  19  ar  
 35  15  44  1   
 36  15  45  1   
 37  16  20  1   
 38  16  46  1   
 39  16  47  1   
 40  17  48  1   
 41  17  49  1   
 42  18  21  ar  
 43  19  20  1   
 44  19  22  ar  
 45  20  50  1   
 46  20  51  1   
 47  21  23  ar  
 48  21  24  1   
 49  22  23  ar  
 50  22  52  1   
 51  24  25  ar  
 52  24  26  ar  
 53  25  27  ar  
 54  25  53  1   
 55  26  28  ar  
 56  26  54  1   
 57  27  29  ar  
 58  27  55  1   
 59  28  29  ar  
 60  28  56  1   
 61  29  57  1   
@<TRIPOS>SUBSTRUCTURE
  1 ****   6 GROUP 4 **** **** 0

# MOE 2024.06 (io_trps.svl 2023.06)
