@<TRIPOS>MOLECULE
NONAME
46 47 1 0 0 
SMALL
USER_CHARGES


@<TRIPOS>ATOM
  1 S        0.4310     0.1960    -1.3130 S.o2  1 <1>   1.3330 
  2 O        0.7560    -1.0940    -1.8790 O.2   1 <1>  -0.6500 
  3 O       -0.5260     1.0510    -1.9790 O.2   1 <1>  -0.6500 
  4 N       -0.1380    -0.0580     0.2680 N.am  1 <1>  -0.8490 
  5 C        1.9630     1.0980    -1.0740 C.3   1 <1>  -0.0550 
  6 C       -0.9680    -1.2630     0.3710 C.3   1 <1>   0.1160 
  7 C       -0.8670     1.0910     0.8150 C.3   1 <1>   0.1160 
  8 C        3.0910     0.2710    -0.4200 C.3   1 <1>  -0.0800 
  9 C        4.4500     0.9540    -0.3860 C.3   1 <1>   0.2200 
 10 C        2.8620    -0.1020     1.0510 C.3   1 <1>   0.1200 
 11 N        4.3200     2.3780     0.0040 N.am  1 <1>  -0.7300 
 12 C        5.1120     0.1940     0.7530 C.3   1 <1>   0.1200 
 13 O        4.1000     0.0120     1.6940 O.3   1 <1>  -0.5600 
 14 C        4.3740     3.4230    -0.8550 C.2   1 <1>   0.5690 
 15 O        4.4660     3.2610    -2.0450 O.2   1 <1>  -0.5700 
 16 C        4.3060     4.8310    -0.3070 C.3   1 <1>  -0.0990 
 17 C        5.6600     5.5390    -0.4390 C.3   1 <1>  -0.0170 
 18 C        5.5760     6.9540     0.1090 C.ar  1 <1>  -0.1440 
 19 C        5.9770     7.2440     1.4070 C.ar  1 <1>   0.1600 
 20 C        5.0940     7.9790    -0.6790 C.ar  1 <1>  -0.1500 
 21 N        5.9320     8.4430     1.9670 N.ar  1 <1>  -0.6200 
 22 C        5.0420     9.2350    -0.1140 C.ar  1 <1>  -0.1500 
 23 C        5.4660     9.4090     1.1930 C.ar  1 <1>   0.1600 
 24 H        2.3100     1.4260    -2.0360 H     1 <1>   0.0800 
 25 H        1.7690     1.9760    -0.4910 H     1 <1>   0.0800 
 26 H       -1.3040    -1.4020     1.3840 H     1 <1>   0.0800 
 27 H       -0.3960    -2.1310     0.0850 H     1 <1>   0.0800 
 28 H       -1.8230    -1.1840    -0.2800 H     1 <1>   0.0800 
 29 H       -1.1230     0.9110     1.8450 H     1 <1>   0.0800 
 30 H       -1.7720     1.2650     0.2550 H     1 <1>   0.0800 
 31 H       -0.2580     1.9770     0.7660 H     1 <1>   0.0800 
 32 H        3.2010    -0.6470    -0.9720 H     1 <1>   0.0800 
 33 H        4.9890     0.8590    -1.3150 H     1 <1>   0.0800 
 34 H        2.5030    -1.1130     1.1550 H     1 <1>   0.0800 
 35 H        2.1820     0.5760     1.5370 H     1 <1>   0.0800 
 36 H        4.2050     2.5200     1.0110 H     1 <1>   0.3700 
 37 H        5.9320     0.7310     1.1970 H     1 <1>   0.0800 
 38 H        5.4410    -0.7780     0.4270 H     1 <1>   0.0800 
 39 H        3.5620     5.3730    -0.8600 H     1 <1>   0.0800 
 40 H        4.0060     4.8090     0.7240 H     1 <1>   0.0800 
 41 H        5.9490     5.5720    -1.4760 H     1 <1>   0.0800 
 42 H        6.4140     4.9830     0.0900 H     1 <1>   0.0800 
 43 H        6.3560     6.4470     2.0220 H     1 <1>   0.1500 
 44 H        4.7720     7.8120    -1.6930 H     1 <1>   0.1500 
 45 H        4.6760    10.0740    -0.6780 H     1 <1>   0.1500 
 46 H        5.4190    10.3950     1.6230 H     1 <1>   0.1500 
@<TRIPOS>BOND
  1   1   2  2   
  2   1   3  2   
  3   1   4  am  
  4   1   5  1   
  5   4   6  1   
  6   4   7  1   
  7   5   8  1   
  8   5  24  1   
  9   5  25  1   
 10   6  26  1   
 11   6  27  1   
 12   6  28  1   
 13   7  29  1   
 14   7  30  1   
 15   7  31  1   
 16   8   9  1   
 17   8  10  1   
 18   8  32  1   
 19   9  11  1   
 20   9  12  1   
 21   9  33  1   
 22  10  13  1   
 23  10  34  1   
 24  10  35  1   
 25  11  14  am  
 26  11  36  1   
 27  12  13  1   
 28  12  37  1   
 29  12  38  1   
 30  14  15  2   
 31  14  16  1   
 32  16  17  1   
 33  16  39  1   
 34  16  40  1   
 35  17  18  1   
 36  17  41  1   
 37  17  42  1   
 38  18  19  ar  
 39  18  20  ar  
 40  19  21  ar  
 41  19  43  1   
 42  20  22  ar  
 43  20  44  1   
 44  21  23  ar  
 45  22  23  ar  
 46  22  45  1   
 47  23  46  1   
@<TRIPOS>SUBSTRUCTURE
  1 ****  11 GROUP 4 **** **** 0

# MOE 2024.06 (io_trps.svl 2023.06)
