@<TRIPOS>MOLECULE
NONAME
42 43 1 0 0 
SMALL
USER_CHARGES


@<TRIPOS>ATOM
  1 N        0.2510     0.0310     0.8530 N.pl3 1 <1>  -0.9640 
  2 C        1.1660    -0.5350     0.1260 C.cat 1 <1>   1.2010 
  3 N        1.0870    -1.8100    -0.2370 N.pl3 1 <1>  -0.7170 
  4 N        2.2150     0.1740    -0.2180 N.pl3 1 <1>  -0.9140 
  5 C        0.0370    -2.7690     0.2500 C.3   1 <1>   0.1770 
  6 C        2.0220    -2.5010    -1.1910 C.3   1 <1>   0.1770 
  7 C        2.3820     1.4610    -0.4100 C.cat 1 <1>   1.2010 
  8 C        0.7100    -3.9190     1.0090 C.3   1 <1>  -0.1510 
  9 C        2.7500    -3.6360    -0.4620 C.3   1 <1>  -0.1510 
 10 N        1.4120     2.1180    -0.9710 N.pl3 1 <1>  -0.9640 
 11 N        3.5250     2.0490    -0.0740 N.pl3 1 <1>  -0.7170 
 12 C        1.7560    -4.6370     0.1440 C.3   1 <1>  -0.1510 
 13 C        4.6880     1.3250     0.5660 C.3   1 <1>   0.1770 
 14 C        3.7570     3.5300    -0.2810 C.3   1 <1>   0.1770 
 15 C        6.0230     1.9230     0.1120 C.3   1 <1>  -0.1510 
 16 C        4.8040     4.0890     0.6880 C.3   1 <1>  -0.1510 
 17 C        6.1660     3.3960     0.5280 C.3   1 <1>  -0.1510 
 18 H       -0.5720    -0.4800     1.1640 H     1 <1>   0.4570 
 19 H        0.3160     0.9730     1.2310 H     1 <1>   0.4570 
 20 H        3.0540    -0.3710    -0.3070 H     1 <1>   0.4570 
 21 H       -0.5040    -3.1680    -0.5940 H     1 <1>   0.0900 
 22 H       -0.6810    -2.2990     0.8990 H     1 <1>   0.0900 
 23 H        2.7410    -1.8270    -1.6240 H     1 <1>   0.0900 
 24 H        1.4510    -2.9170    -2.0060 H     1 <1>   0.0900 
 25 H       -0.0390    -4.6290     1.3180 H     1 <1>   0.0900 
 26 H        1.1750    -3.5370     1.9020 H     1 <1>   0.0900 
 27 H        3.3760    -3.2310     0.3140 H     1 <1>   0.0900 
 28 H        3.3900    -4.1540    -1.1560 H     1 <1>   0.0900 
 29 H        1.4990     3.1060    -1.2000 H     1 <1>   0.4570 
 30 H        0.5640     1.6860    -1.3330 H     1 <1>   0.4570 
 31 H        1.2570    -5.1700    -0.6490 H     1 <1>   0.0900 
 32 H        2.2850    -5.3640     0.7390 H     1 <1>   0.0900 
 33 H        4.6900     0.2790     0.3170 H     1 <1>   0.0900 
 34 H        4.6140     1.4100     1.6390 H     1 <1>   0.0900 
 35 H        2.8450     4.0840    -0.1370 H     1 <1>   0.0900 
 36 H        4.0970     3.6970    -1.2920 H     1 <1>   0.0900 
 37 H        6.0990     1.8380    -0.9590 H     1 <1>   0.0900 
 38 H        6.8380     1.3580     0.5330 H     1 <1>   0.0900 
 39 H        4.4480     3.9680     1.6970 H     1 <1>   0.0900 
 40 H        4.9250     5.1470     0.5220 H     1 <1>   0.0900 
 41 H        6.7550     3.9110    -0.2140 H     1 <1>   0.0900 
 42 H        6.7010     3.4640     1.4610 H     1 <1>   0.0900 
@<TRIPOS>BOND
  1   1   2  ar  
  2   1  18  1   
  3   1  19  1   
  4   2   3  ar  
  5   2   4  ar  
  6   3   5  1   
  7   3   6  1   
  8   4   7  ar  
  9   4  20  1   
 10   5   8  1   
 11   5  21  1   
 12   5  22  1   
 13   6   9  1   
 14   6  23  1   
 15   6  24  1   
 16   7  10  ar  
 17   7  11  ar  
 18   8  12  1   
 19   8  25  1   
 20   8  26  1   
 21   9  12  1   
 22   9  27  1   
 23   9  28  1   
 24  10  29  1   
 25  10  30  1   
 26  11  13  1   
 27  11  14  1   
 28  12  31  1   
 29  12  32  1   
 30  13  15  1   
 31  13  33  1   
 32  13  34  1   
 33  14  16  1   
 34  14  35  1   
 35  14  36  1   
 36  15  17  1   
 37  15  37  1   
 38  15  38  1   
 39  16  17  1   
 40  16  39  1   
 41  16  40  1   
 42  17  41  1   
 43  17  42  1   
@<TRIPOS>SUBSTRUCTURE
  1 ****   4 GROUP 4 **** **** 0

# MOE 2024.06 (io_trps.svl 2023.06)
