@<TRIPOS>MOLECULE
NONAME
50 52 1 0 0 
SMALL
USER_CHARGES


@<TRIPOS>ATOM
  1 O       -0.5500    -0.0250    -0.3640 O.2   1 <1>  -0.5700 
  2 C       -1.1990     0.9780    -0.6050 C.2   1 <1>   0.5440 
  3 N       -2.5790     0.8960    -0.6020 N.am  1 <1>  -0.6600 
  4 C       -0.5190     2.2240    -0.8450 C.ar  1 <1>   0.0860 
  5 C       -3.2670    -0.4130    -0.4020 C.3   1 <1>   0.1400 
  6 C       -3.4380     2.0980    -0.4190 C.3   1 <1>   0.1400 
  7 C        0.2050     2.8470     0.1860 C.ar  1 <1>   0.4100 
  8 C       -0.5740     2.8520    -2.0810 C.ar  1 <1>  -0.1500 
  9 C       -3.7610    -0.5750     1.0420 C.3   1 <1>   0.1400 
 10 C       -3.5530     2.4150     1.0760 C.3   1 <1>  -0.1600 
 11 N        0.8090     4.0270     0.0530 N.ar  1 <1>  -0.6200 
 12 N        0.3230     2.2370     1.4150 N.pl3 1 <1>  -0.8690 
 13 C        0.0660     4.0630    -2.2200 C.ar  1 <1>  -0.1500 
 14 N       -4.9500     0.2920     1.3220 N.am  1 <1>  -0.6600 
 15 C       -4.6920     1.6830     1.8020 C.3   1 <1>   0.1400 
 16 C        0.7310     4.5990    -1.1320 C.ar  1 <1>   0.1600 
 17 C        1.2320     2.7170     2.4870 C.3   1 <1>   0.1290 
 18 C       -6.2250    -0.2350     1.3950 C.2   1 <1>   0.7160 
 19 O       -7.1000     0.3990     1.9550 O.2   1 <1>  -0.5700 
 20 C       -6.5340    -1.5320     0.8430 C.2   1 <1>  -0.0860 
 21 C       -6.9410    -2.6620     1.4820 C.2   1 <1>  -0.0400 
 22 C       -6.4700    -1.9080    -0.5150 C.2   1 <1>  -0.1500 
 23 O       -7.0960    -3.6530     0.6380 O.3   1 <1>  -0.2800 
 24 C       -7.2210    -2.9120     2.9490 C.3   1 <1>  -0.0600 
 25 C       -6.8190    -3.2090    -0.5680 C.2   1 <1>  -0.0400 
 26 C       -6.9380    -4.1620    -1.7360 C.3   1 <1>  -0.0600 
 27 H       -2.5890    -1.2180    -0.6260 H     1 <1>   0.0800 
 28 H       -4.0900    -0.4920    -1.0860 H     1 <1>   0.0800 
 29 H       -4.4120     1.9280    -0.8470 H     1 <1>   0.0800 
 30 H       -3.0030     2.9400    -0.9270 H     1 <1>   0.0800 
 31 H       -1.1050     2.3990    -2.9000 H     1 <1>   0.1500 
 32 H       -2.9620    -0.3390     1.7230 H     1 <1>   0.0800 
 33 H       -4.0180    -1.6070     1.2020 H     1 <1>   0.0800 
 34 H       -3.7320     3.4690     1.1860 H     1 <1>   0.0800 
 35 H       -2.6190     2.2140     1.5690 H     1 <1>   0.0800 
 36 H        0.1950     1.2150     1.3890 H     1 <1>   0.4000 
 37 H        0.0530     4.5890    -3.1580 H     1 <1>   0.1500 
 38 H       -5.5900     2.2630     1.6700 H     1 <1>   0.0800 
 39 H       -4.4830     1.6550     2.8580 H     1 <1>   0.0800 
 40 H        1.2250     5.5500    -1.2460 H     1 <1>   0.1500 
 41 H        1.0710     3.7670     2.6610 H     1 <1>   0.0800 
 42 H        2.2550     2.5650     2.1890 H     1 <1>   0.0800 
 43 H        1.0410     2.1780     3.3980 H     1 <1>   0.0800 
 44 H       -6.2040    -1.2530    -1.3230 H     1 <1>   0.1500 
 45 H       -7.0600    -2.0170     3.5210 H     1 <1>   0.0800 
 46 H       -6.5740    -3.6870     3.3160 H     1 <1>   0.0800 
 47 H       -8.2420    -3.2230     3.0710 H     1 <1>   0.0800 
 48 H       -6.6870    -3.6620    -2.6530 H     1 <1>   0.0800 
 49 H       -7.9460    -4.5300    -1.8000 H     1 <1>   0.0800 
 50 H       -6.2720    -4.9940    -1.5940 H     1 <1>   0.0800 
@<TRIPOS>BOND
  1   1   2  2   
  2   2   3  am  
  3   2   4  1   
  4   3   5  1   
  5   3   6  1   
  6   4   7  ar  
  7   4   8  ar  
  8   5   9  1   
  9   5  27  1   
 10   5  28  1   
 11   6  10  1   
 12   6  29  1   
 13   6  30  1   
 14   7  11  ar  
 15   7  12  1   
 16   8  13  ar  
 17   8  31  1   
 18   9  14  1   
 19   9  32  1   
 20   9  33  1   
 21  10  15  1   
 22  10  34  1   
 23  10  35  1   
 24  11  16  ar  
 25  12  17  1   
 26  12  36  1   
 27  13  16  ar  
 28  13  37  1   
 29  14  15  1   
 30  14  18  am  
 31  15  38  1   
 32  15  39  1   
 33  16  40  1   
 34  17  41  1   
 35  17  42  1   
 36  17  43  1   
 37  18  19  2   
 38  18  20  1   
 39  20  21  2   
 40  20  22  1   
 41  21  23  1   
 42  21  24  1   
 43  22  25  2   
 44  22  44  1   
 45  23  25  1   
 46  24  45  1   
 47  24  46  1   
 48  24  47  1   
 49  25  26  1   
 50  26  48  1   
 51  26  49  1   
 52  26  50  1   
@<TRIPOS>SUBSTRUCTURE
  1 ****   5 GROUP 4 **** **** 0

# MOE 2024.06 (io_trps.svl 2023.06)
