@<TRIPOS>MOLECULE
NONAME
42 44 1 0 0 
SMALL
USER_CHARGES


@<TRIPOS>ATOM
  1 S       -0.4900     2.3140     1.3530 S.3   1 <1>  -0.0800 
  2 C        0.4730     3.4360     0.4100 C.2   1 <1>  -0.1100 
  3 C        0.7570     2.2230     2.5790 C.2   1 <1>  -0.1100 
  4 C        1.6580     3.7070     1.0030 C.2   1 <1>  -0.0010 
  5 C        1.8030     3.0020     2.2510 C.2   1 <1>  -0.1500 
  6 C        2.6680     4.5930     0.4730 C.2   1 <1>  -0.1510 
  7 N        3.9090     4.7590     0.9830 N.pl3 1 <1>   0.3000 
  8 C        2.6220     5.4220    -0.5960 C.2   1 <1>  -0.1500 
  9 N        4.6480     5.6430     0.2970 N.2   1 <1>  -0.7070 
 10 C        3.8610     6.0640    -0.6820 C.2   1 <1>   0.2030 
 11 C        4.1660     7.0670    -1.7020 C.2   1 <1>   0.7160 
 12 O        3.2510     7.5600    -2.3460 O.2   1 <1>  -0.5700 
 13 N        5.4450     7.5310    -1.9610 N.am  1 <1>  -0.6600 
 14 C        5.6710     8.8500    -2.6200 C.3   1 <1>   0.3200 
 15 C        6.6840     6.7850    -1.6000 C.3   1 <1>   0.0600 
 16 C        6.4370     9.8110    -1.7180 C.2   1 <1>   0.0060 
 17 N        7.4580    10.4840    -2.1290 N.2   1 <1>  -0.3380 
 18 N        6.1580    10.0840    -0.4320 N.pl3 1 <1>   0.0480 
 19 N        7.8820    11.2250    -1.1060 N.2   1 <1>  -0.3380 
 20 C        7.1010    10.9720    -0.1150 C.2   1 <1>   0.0360 
 21 C        5.1210     9.5570     0.4830 C.3   1 <1>   0.0960 
 22 C        3.7280    10.0090     0.0530 C.3   1 <1>   0.1200 
 23 O        2.8110     9.3730     0.8810 O.3   1 <1>  -0.5600 
 24 C        1.5020     9.4060     0.4080 C.3   1 <1>   0.0400 
 25 H        0.0510     3.7880    -0.5130 H     1 <1>   0.1500 
 26 H        0.5680     1.5880     3.4270 H     1 <1>   0.1500 
 27 H        2.6850     3.1090     2.8550 H     1 <1>   0.1500 
 28 H        4.2670     4.2660     1.8080 H     1 <1>   0.2700 
 29 H        1.8000     5.5870    -1.2700 H     1 <1>   0.1500 
 30 H        4.7400     9.3100    -2.9000 H     1 <1>   0.0800 
 31 H        6.2340     8.6950    -3.5240 H     1 <1>   0.0800 
 32 H        6.4950     5.7250    -1.5940 H     1 <1>   0.0800 
 33 H        7.0200     7.0850    -0.6230 H     1 <1>   0.0800 
 34 H        7.4640     6.9870    -2.3150 H     1 <1>   0.0800 
 35 H        7.1890    11.4160     0.8600 H     1 <1>   0.1500 
 36 H        5.3180     9.9140     1.4770 H     1 <1>   0.0800 
 37 H        5.1750     8.4850     0.4900 H     1 <1>   0.0800 
 38 H        3.5310     9.7250    -0.9650 H     1 <1>   0.0800 
 39 H        3.6110    11.0730     0.1700 H     1 <1>   0.0800 
 40 H        0.8730     8.9120     1.1270 H     1 <1>   0.0800 
 41 H        1.4520     8.8850    -0.5340 H     1 <1>   0.0800 
 42 H        1.1900    10.4300     0.2930 H     1 <1>   0.0800 
@<TRIPOS>BOND
  1   1   2  1   
  2   1   3  1   
  3   2   4  2   
  4   2  25  1   
  5   3   5  2   
  6   3  26  1   
  7   4   5  1   
  8   4   6  1   
  9   5  27  1   
 10   6   7  1   
 11   6   8  2   
 12   7   9  1   
 13   7  28  1   
 14   8  10  1   
 15   8  29  1   
 16   9  10  2   
 17  10  11  1   
 18  11  12  2   
 19  11  13  am  
 20  13  14  1   
 21  13  15  1   
 22  14  16  1   
 23  14  30  1   
 24  14  31  1   
 25  15  32  1   
 26  15  33  1   
 27  15  34  1   
 28  16  17  2   
 29  16  18  1   
 30  17  19  1   
 31  18  20  1   
 32  18  21  1   
 33  19  20  2   
 34  20  35  1   
 35  21  22  1   
 36  21  36  1   
 37  21  37  1   
 38  22  23  1   
 39  22  38  1   
 40  22  39  1   
 41  23  24  1   
 42  24  40  1   
 43  24  41  1   
 44  24  42  1   
@<TRIPOS>SUBSTRUCTURE
  1 ****  10 GROUP 4 **** **** 0

# MOE 2024.06 (io_trps.svl 2023.06)
