@<TRIPOS>MOLECULE
NONAME
48 51 1 0 0 
SMALL
USER_CHARGES


@<TRIPOS>ATOM
  1 F       -4.3950    -4.4530    -3.4290 F     1 <1>  -0.1900 
  2 C       -4.2790    -4.3030    -2.1380 C.ar  1 <1>   0.1900 
  3 C       -4.7850    -3.1600    -1.5560 C.ar  1 <1>  -0.1500 
  4 C       -3.6710    -5.3010    -1.4030 C.ar  1 <1>  -0.1500 
  5 C       -4.7070    -2.9990    -0.1760 C.ar  1 <1>   0.0540 
  6 C       -3.5610    -5.1340    -0.0330 C.ar  1 <1>  -0.1500 
  7 C       -5.3240    -1.8570     0.4590 C.2   1 <1>   0.2350 
  8 C       -4.0680    -3.9930     0.5680 C.ar  1 <1>  -0.1500 
  9 N       -5.0150    -0.6190     0.1880 N.2   1 <1>  -0.7070 
 10 C       -6.3620    -1.9180     1.3970 C.2   1 <1>  -0.1810 
 11 N       -5.8170     0.1310     0.9600 N.pl3 1 <1>   0.3000 
 12 C       -6.6490    -0.6330     1.6950 C.2   1 <1>  -0.3020 
 13 C       -7.0190    -3.1780     1.9290 C.3   1 <1>   0.5240 
 14 N       -7.3850    -4.0610     0.7930 N.4   1 <1>  -0.9590 
 15 C       -8.3060    -3.4050    -0.1970 C.3   1 <1>   0.3430 
 16 C       -8.0530    -5.3190     1.2160 C.3   1 <1>   0.3430 
 17 C       -9.4530    -4.3980    -0.4500 C.3   1 <1>   0.2000 
 18 C       -8.8880    -5.7420     0.0050 C.3   1 <1>  -0.0800 
 19 O      -10.4960    -4.0690     0.4050 O.3   1 <1>  -0.6800 
 20 C       -8.0630    -6.4140    -1.1180 C.3   1 <1>   0.0200 
 21 C       -7.1260    -7.4780    -0.5820 C.2   1 <1>  -0.0400 
 22 O       -6.0260    -7.1160     0.0220 O.3   1 <1>  -0.0190 
 23 C       -7.1670    -8.8180    -0.5900 C.2   1 <1>  -0.1500 
 24 N       -5.3410    -8.1350     0.4390 N.2   1 <1>  -0.4100 
 25 C       -5.9990    -9.1790     0.0780 C.2   1 <1>   0.1080 
 26 C       -5.5570   -10.6010     0.3470 C.3   1 <1>  -0.0590 
 27 H       -5.2340    -2.3960    -2.1650 H     1 <1>   0.1500 
 28 H       -3.2910    -6.1830    -1.8880 H     1 <1>   0.1500 
 29 H       -3.0800    -5.8970     0.5590 H     1 <1>   0.1500 
 30 H       -3.9590    -3.8700     1.6320 H     1 <1>   0.1500 
 31 H       -5.7730     1.1600     0.9580 H     1 <1>   0.2700 
 32 H       -7.3760    -0.2120     2.3680 H     1 <1>   0.1500 
 33 H       -7.9010    -2.9130     2.4890 H     1 <1>   0.0800 
 34 H       -6.3350    -3.6890     2.5870 H     1 <1>   0.0800 
 35 H       -6.5090    -4.3120     0.3100 H     1 <1>   0.4500 
 36 H       -8.7010    -2.4750     0.1790 H     1 <1>   0.0800 
 37 H       -7.7710    -3.2150    -1.1130 H     1 <1>   0.0800 
 38 H       -7.3480    -6.0720     1.5250 H     1 <1>   0.0800 
 39 H       -8.7230    -5.1120     2.0360 H     1 <1>   0.0800 
 40 H       -9.8140    -4.3760    -1.4650 H     1 <1>   0.0800 
 41 H       -9.6650    -6.4210     0.3120 H     1 <1>   0.0800 
 42 H      -11.3260    -4.5300     0.1560 H     1 <1>   0.4000 
 43 H       -7.4690    -5.6940    -1.6550 H     1 <1>   0.0800 
 44 H       -8.7350    -6.8680    -1.8260 H     1 <1>   0.0800 
 45 H       -7.9000    -9.4910    -0.9970 H     1 <1>   0.1500 
 46 H       -5.4190   -11.1220    -0.5820 H     1 <1>   0.0800 
 47 H       -6.3000   -11.1110     0.9320 H     1 <1>   0.0800 
 48 H       -4.6280   -10.6030     0.8870 H     1 <1>   0.0800 
@<TRIPOS>BOND
  1   1   2  1   
  2   2   3  ar  
  3   2   4  ar  
  4   3   5  ar  
  5   3  27  1   
  6   4   6  ar  
  7   4  28  1   
  8   5   7  1   
  9   5   8  ar  
 10   6   8  ar  
 11   6  29  1   
 12   7   9  2   
 13   7  10  1   
 14   8  30  1   
 15   9  11  1   
 16  10  12  2   
 17  10  13  1   
 18  11  12  1   
 19  11  31  1   
 20  12  32  1   
 21  13  14  1   
 22  13  33  1   
 23  13  34  1   
 24  14  15  1   
 25  14  16  1   
 26  14  35  1   
 27  15  17  1   
 28  15  36  1   
 29  15  37  1   
 30  16  18  1   
 31  16  38  1   
 32  16  39  1   
 33  17  18  1   
 34  17  19  1   
 35  17  40  1   
 36  18  20  1   
 37  18  41  1   
 38  19  42  1   
 39  20  21  1   
 40  20  43  1   
 41  20  44  1   
 42  21  22  1   
 43  21  23  2   
 44  22  24  1   
 45  23  25  1   
 46  23  45  1   
 47  24  25  2   
 48  25  26  1   
 49  26  46  1   
 50  26  47  1   
 51  26  48  1   
@<TRIPOS>SUBSTRUCTURE
  1 ****  14 GROUP 4 **** **** 0

# MOE 2024.06 (io_trps.svl 2023.06)
