@<TRIPOS>MOLECULE
NONAME
58 62 1 0 0 
SMALL
USER_CHARGES


@<TRIPOS>ATOM
  1 S       -0.9870    -0.2860    -2.0880 S.3   1 <1>  -0.0800 
  2 C       -1.9740     0.5710    -0.9290 C.2   1 <1>   0.2280 
  3 C       -2.1610    -1.5690    -2.1000 C.2   1 <1>  -0.1100 
  4 N       -3.0430    -0.0380    -0.5950 N.2   1 <1>  -0.5650 
  5 C       -3.1610    -1.2570    -1.2580 C.2   1 <1>   0.0460 
  6 C       -4.3890    -2.1220    -0.9890 C.3   1 <1>   0.5240 
  7 N       -4.4590    -2.5210     0.4550 N.4   1 <1>  -0.9590 
  8 C       -5.4230    -3.6510     0.6360 C.3   1 <1>   0.3430 
  9 C       -4.9910    -1.3870     1.2870 C.3   1 <1>   0.3430 
 10 C       -6.7710    -2.9660     0.8440 C.3   1 <1>   0.2800 
 11 C       -6.4650    -1.6890     1.6150 C.3   1 <1>  -0.0800 
 12 O       -7.2660    -2.4480    -0.3400 O.3   1 <1>  -0.5600 
 13 C       -7.9930    -3.6990     1.3940 C.3   1 <1>  -0.1600 
 14 C       -7.5730    -0.7490     1.0870 C.3   1 <1>  -0.0800 
 15 C       -8.3200    -1.6980     0.1390 C.3   1 <1>   0.2000 
 16 C       -9.1090    -2.7620     0.9160 C.3   1 <1>  -0.1600 
 17 C       -7.0810     0.5150     0.3620 C.3   1 <1>   0.1400 
 18 N       -8.2340     1.3570    -0.0250 N.am  1 <1>  -0.7300 
 19 C       -8.9050     2.1790     0.8410 C.2   1 <1>   0.5440 
 20 O       -8.5650     2.1750     2.0080 O.2   1 <1>  -0.5700 
 21 C       -9.9830     3.0330     0.3760 C.ar  1 <1>   0.0860 
 22 C      -10.2670     4.2390     1.0110 C.ar  1 <1>  -0.1500 
 23 C      -10.7770     2.6910    -0.7190 C.ar  1 <1>  -0.1500 
 24 C      -11.2750     5.0850     0.5840 C.ar  1 <1>   0.0830 
 25 C      -11.7970     3.5150    -1.1590 C.ar  1 <1>  -0.1500 
 26 O      -11.4020     6.2310     1.3100 O.3   1 <1>  -0.3630 
 27 C      -12.0680     4.7200    -0.5170 C.ar  1 <1>   0.0830 
 28 C      -11.8510     7.4320     0.7210 C.3   1 <1>   0.0400 
 29 O      -13.0880     5.5240    -0.9240 O.3   1 <1>  -0.3630 
 30 C      -14.0100     5.1430    -1.9210 C.3   1 <1>   0.0400 
 31 H       -1.6100     1.5280    -0.5910 H     1 <1>   0.1500 
 32 H       -1.9660    -2.4100    -2.7420 H     1 <1>   0.1500 
 33 H       -4.3300    -3.0020    -1.6060 H     1 <1>   0.0800 
 34 H       -5.2780    -1.5800    -1.2660 H     1 <1>   0.0800 
 35 H       -3.5040    -2.7600     0.7530 H     1 <1>   0.4500 
 36 H       -5.4490    -4.3160    -0.2110 H     1 <1>   0.0800 
 37 H       -5.1720    -4.2070     1.5230 H     1 <1>   0.0800 
 38 H       -4.4330    -1.3170     2.2070 H     1 <1>   0.0800 
 39 H       -4.8900    -0.4500     0.7680 H     1 <1>   0.0800 
 40 H       -6.5650    -1.8400     2.6750 H     1 <1>   0.0800 
 41 H       -8.0890    -4.6710     0.9420 H     1 <1>   0.0800 
 42 H       -7.9660    -3.7980     2.4660 H     1 <1>   0.0800 
 43 H       -8.2160    -0.4490     1.8980 H     1 <1>   0.0800 
 44 H       -8.8690    -1.2240    -0.6570 H     1 <1>   0.0800 
 45 H       -9.6700    -2.3300     1.7280 H     1 <1>   0.0800 
 46 H       -9.7860    -3.2750     0.2550 H     1 <1>   0.0800 
 47 H       -6.5190     0.2580    -0.5200 H     1 <1>   0.0800 
 48 H       -6.4460     1.0880     1.0180 H     1 <1>   0.0800 
 49 H       -8.3900     1.4790    -1.0270 H     1 <1>   0.3700 
 50 H       -9.6800     4.5270     1.8650 H     1 <1>   0.1500 
 51 H      -10.6040     1.7620    -1.2310 H     1 <1>   0.1500 
 52 H      -12.3730     3.1950    -2.0060 H     1 <1>   0.1500 
 53 H      -11.5440     8.2480     1.3500 H     1 <1>   0.0800 
 54 H      -12.9240     7.4070     0.6570 H     1 <1>   0.0800 
 55 H      -11.4110     7.5310    -0.2550 H     1 <1>   0.0800 
 56 H      -14.7450     5.9230    -2.0100 H     1 <1>   0.0800 
 57 H      -14.4870     4.2260    -1.6240 H     1 <1>   0.0800 
 58 H      -13.4890     5.0260    -2.8540 H     1 <1>   0.0800 
@<TRIPOS>BOND
  1   1   2  1   
  2   1   3  1   
  3   2   4  2   
  4   2  31  1   
  5   3   5  2   
  6   3  32  1   
  7   4   5  1   
  8   5   6  1   
  9   6   7  1   
 10   6  33  1   
 11   6  34  1   
 12   7   8  1   
 13   7   9  1   
 14   7  35  1   
 15   8  10  1   
 16   8  36  1   
 17   8  37  1   
 18   9  11  1   
 19   9  38  1   
 20   9  39  1   
 21  10  11  1   
 22  10  12  1   
 23  10  13  1   
 24  11  14  1   
 25  11  40  1   
 26  12  15  1   
 27  13  16  1   
 28  13  41  1   
 29  13  42  1   
 30  14  15  1   
 31  14  17  1   
 32  14  43  1   
 33  15  16  1   
 34  15  44  1   
 35  16  45  1   
 36  16  46  1   
 37  17  18  1   
 38  17  47  1   
 39  17  48  1   
 40  18  19  am  
 41  18  49  1   
 42  19  20  2   
 43  19  21  1   
 44  21  22  ar  
 45  21  23  ar  
 46  22  24  ar  
 47  22  50  1   
 48  23  25  ar  
 49  23  51  1   
 50  24  26  1   
 51  24  27  ar  
 52  25  27  ar  
 53  25  52  1   
 54  26  28  1   
 55  27  29  1   
 56  28  53  1   
 57  28  54  1   
 58  28  55  1   
 59  29  30  1   
 60  30  56  1   
 61  30  57  1   
 62  30  58  1   
@<TRIPOS>SUBSTRUCTURE
  1 ****  18 GROUP 4 **** **** 0

# MOE 2024.06 (io_trps.svl 2023.06)
