@<TRIPOS>MOLECULE
NONAME
41 44 1 0 0 
SMALL
USER_CHARGES


@<TRIPOS>ATOM
  1 S       -1.0540    -1.2100     2.3930 S.3   1 <1>  -0.0800 
  2 C       -1.7550    -1.3040     0.7740 C.2   1 <1>  -0.0450 
  3 C       -0.2580     0.3080     2.0390 C.2   1 <1>  -0.1100 
  4 C       -2.5890    -2.4290     0.4410 C.2   1 <1>   0.7150 
  5 C       -1.3620    -0.2130     0.0670 C.2   1 <1>  -0.1500 
  6 C       -0.5200     0.6930     0.7770 C.2   1 <1>  -0.1500 
  7 O       -2.7780    -3.3670     1.1990 O.2   1 <1>  -0.5700 
  8 N       -3.2850    -2.4610    -0.7430 N.am  1 <1>  -0.6600 
  9 C       -4.6510    -1.8530    -0.7280 C.3   1 <1>   0.1400 
 10 C       -3.2300    -3.7260    -1.5500 C.3   1 <1>   0.1400 
 11 C       -5.7000    -2.8300    -0.1210 C.3   1 <1>   0.4230 
 12 C       -4.4380    -4.6550    -1.2710 C.3   1 <1>   0.3430 
 13 N       -5.1650    -4.2420    -0.0210 N.4   1 <1>  -0.9590 
 14 C       -7.0280    -2.7930    -0.9130 C.3   1 <1>   0.1200 
 15 C       -6.2190    -5.1780     0.4710 C.3   1 <1>   0.5180 
 16 O       -7.9490    -3.7030    -0.3810 O.3   1 <1>  -0.5600 
 17 C       -5.6840    -6.6140     0.4780 C.3   1 <1>  -0.1950 
 18 C       -7.5230    -5.0400    -0.3460 C.3   1 <1>   0.1200 
 19 C       -5.9930    -7.5240     1.6270 C.3   1 <1>  -0.2000 
 20 C       -4.5910    -7.0350     1.4140 C.3   1 <1>  -0.2000 
 21 H        0.3310     0.7560     2.8200 H     1 <1>   0.1500 
 22 H       -1.6370    -0.0120    -0.9540 H     1 <1>   0.1500 
 23 H       -0.1480     1.5900     0.3130 H     1 <1>   0.1500 
 24 H       -4.6410    -0.9420    -0.1530 H     1 <1>   0.0800 
 25 H       -4.9240    -1.5900    -1.7360 H     1 <1>   0.0800 
 26 H       -3.1900    -3.4860    -2.5980 H     1 <1>   0.0800 
 27 H       -2.3230    -4.2580    -1.3110 H     1 <1>   0.0800 
 28 H       -5.9200    -2.4820     0.8750 H     1 <1>   0.0800 
 29 H       -4.0760    -5.6660    -1.1770 H     1 <1>   0.0800 
 30 H       -5.1120    -4.6250    -2.1110 H     1 <1>   0.0800 
 31 H       -4.4190    -4.2020     0.7040 H     1 <1>   0.4500 
 32 H       -6.8730    -3.0310    -1.9510 H     1 <1>   0.0800 
 33 H       -7.4700    -1.8140    -0.8500 H     1 <1>   0.0800 
 34 H       -6.4530    -4.9140     1.4900 H     1 <1>   0.0800 
 35 H       -5.7180    -7.0770    -0.4930 H     1 <1>   0.1000 
 36 H       -8.3040    -5.6210     0.1130 H     1 <1>   0.0800 
 37 H       -7.3890    -5.3880    -1.3550 H     1 <1>   0.0800 
 38 H       -6.5290    -7.1560     2.4870 H     1 <1>   0.1000 
 39 H       -6.2030    -8.5640     1.4340 H     1 <1>   0.1000 
 40 H       -3.8530    -7.7460     1.0810 H     1 <1>   0.1000 
 41 H       -4.1860    -6.3370     2.1290 H     1 <1>   0.1000 
@<TRIPOS>BOND
  1   1   2  1   
  2   1   3  1   
  3   2   4  1   
  4   2   5  2   
  5   3   6  2   
  6   3  21  1   
  7   4   7  2   
  8   4   8  am  
  9   5   6  1   
 10   5  22  1   
 11   6  23  1   
 12   8   9  1   
 13   8  10  1   
 14   9  11  1   
 15   9  24  1   
 16   9  25  1   
 17  10  12  1   
 18  10  26  1   
 19  10  27  1   
 20  11  13  1   
 21  11  14  1   
 22  11  28  1   
 23  12  13  1   
 24  12  29  1   
 25  12  30  1   
 26  13  15  1   
 27  13  31  1   
 28  14  16  1   
 29  14  32  1   
 30  14  33  1   
 31  15  17  1   
 32  15  18  1   
 33  15  34  1   
 34  16  18  1   
 35  17  19  1   
 36  17  20  1   
 37  17  35  1   
 38  18  36  1   
 39  18  37  1   
 40  19  20  1   
 41  19  38  1   
 42  19  39  1   
 43  20  40  1   
 44  20  41  1   
@<TRIPOS>SUBSTRUCTURE
  1 ****  13 GROUP 4 **** **** 0

# MOE 2024.06 (io_trps.svl 2023.06)
