@<TRIPOS>MOLECULE
NONAME
54 55 1 0 0 
SMALL
USER_CHARGES


@<TRIPOS>ATOM
  1 S        1.4390     0.2970     0.4780 S.o2  1 <1>   1.3330 
  2 O        1.2350    -0.9300    -0.2600 O.2   1 <1>  -0.6500 
  3 O        0.3450     0.8650     1.2320 O.2   1 <1>  -0.6500 
  4 N        2.7150     0.0390     1.5710 N.am  1 <1>  -0.8490 
  5 C        2.0920     1.5280    -0.6510 C.3   1 <1>  -0.0550 
  6 C        2.7720     1.0460     2.6370 C.3   1 <1>   0.1160 
  7 C        2.6780    -1.3030     2.1600 C.3   1 <1>   0.1160 
  8 C        3.1270     0.9790    -1.6590 C.3   1 <1>  -0.0800 
  9 C        3.6300     1.9880    -2.6810 C.3   1 <1>   0.2200 
 10 C        4.4220     0.4470    -1.0350 C.3   1 <1>   0.1200 
 11 N        3.8950     3.2960    -2.0420 N.am  1 <1>  -0.7300 
 12 C        4.9590     1.3560    -3.0700 C.3   1 <1>   0.1200 
 13 O        5.4670     0.8130    -1.8890 O.3   1 <1>  -0.5600 
 14 C        3.0600     4.3720    -2.0090 C.2   1 <1>   0.5440 
 15 O        2.0120     4.2870    -2.6220 O.2   1 <1>  -0.5700 
 16 C        3.4020     5.5780    -1.2730 C.ar  1 <1>   0.0860 
 17 C        4.2440     5.5910    -0.1450 C.ar  1 <1>   0.0820 
 18 C        2.8790     6.8020    -1.6970 C.ar  1 <1>  -0.1500 
 19 O        4.7460     4.4130     0.3070 O.3   1 <1>  -0.3630 
 20 C        4.5430     6.7930     0.4960 C.ar  1 <1>  -0.1500 
 21 C        3.1760     7.9890    -1.0570 C.ar  1 <1>  -0.1500 
 22 C        5.7250     4.3210     1.3170 C.3   1 <1>   0.1200 
 23 C        4.0130     7.9850     0.0420 C.ar  1 <1>  -0.1500 
 24 C        6.1100     2.8480     1.4570 C.3   1 <1>  -0.1600 
 25 C        7.1470     2.6380     2.5650 C.3   1 <1>  -0.1600 
 26 C        7.4990     1.1550     2.7040 C.3   1 <1>  -0.2400 
 27 H        1.2750     1.9400    -1.2130 H     1 <1>   0.0800 
 28 H        2.5210     2.3300    -0.0840 H     1 <1>   0.0800 
 29 H        3.6510     0.8970     3.2410 H     1 <1>   0.0800 
 30 H        1.8990     0.9790     3.2670 H     1 <1>   0.0800 
 31 H        2.8140     2.0350     2.2140 H     1 <1>   0.0800 
 32 H        3.5020    -1.4370     2.8390 H     1 <1>   0.0800 
 33 H        2.7570    -2.0480     1.3850 H     1 <1>   0.0800 
 34 H        1.7510    -1.4530     2.6900 H     1 <1>   0.0800 
 35 H        2.6730     0.1660    -2.1990 H     1 <1>   0.0800 
 36 H        2.9660     2.1040    -3.5210 H     1 <1>   0.0800 
 37 H        4.4070    -0.6250    -0.9350 H     1 <1>   0.0800 
 38 H        4.6170     0.8960    -0.0780 H     1 <1>   0.0800 
 39 H        4.7020     3.3030    -1.4070 H     1 <1>   0.3700 
 40 H        5.6560     2.0680    -3.4740 H     1 <1>   0.0800 
 41 H        4.8080     0.5500    -3.7660 H     1 <1>   0.0800 
 42 H        2.2240     6.8170    -2.5530 H     1 <1>   0.1500 
 43 H        5.1840     6.8250     1.3560 H     1 <1>   0.1500 
 44 H        2.7570     8.9150    -1.4130 H     1 <1>   0.1500 
 45 H        6.5770     4.9110     1.0250 H     1 <1>   0.0800 
 46 H        5.3040     4.6940     2.2350 H     1 <1>   0.0800 
 47 H        4.2480     8.9090     0.5420 H     1 <1>   0.1500 
 48 H        5.2290     2.2780     1.6870 H     1 <1>   0.0800 
 49 H        6.5120     2.4980     0.5210 H     1 <1>   0.0800 
 50 H        8.0420     3.1930     2.3360 H     1 <1>   0.0800 
 51 H        6.7590     2.9990     3.5030 H     1 <1>   0.0800 
 52 H        7.9090     0.7780     1.7830 H     1 <1>   0.0800 
 53 H        6.6240     0.5800     2.9520 H     1 <1>   0.0800 
 54 H        8.2290     1.0190     3.4830 H     1 <1>   0.0800 
@<TRIPOS>BOND
  1   1   2  2   
  2   1   3  2   
  3   1   4  am  
  4   1   5  1   
  5   4   6  1   
  6   4   7  1   
  7   5   8  1   
  8   5  27  1   
  9   5  28  1   
 10   6  29  1   
 11   6  30  1   
 12   6  31  1   
 13   7  32  1   
 14   7  33  1   
 15   7  34  1   
 16   8   9  1   
 17   8  10  1   
 18   8  35  1   
 19   9  11  1   
 20   9  12  1   
 21   9  36  1   
 22  10  13  1   
 23  10  37  1   
 24  10  38  1   
 25  11  14  am  
 26  11  39  1   
 27  12  13  1   
 28  12  40  1   
 29  12  41  1   
 30  14  15  2   
 31  14  16  1   
 32  16  17  ar  
 33  16  18  ar  
 34  17  19  1   
 35  17  20  ar  
 36  18  21  ar  
 37  18  42  1   
 38  19  22  1   
 39  20  23  ar  
 40  20  43  1   
 41  21  23  ar  
 42  21  44  1   
 43  22  24  1   
 44  22  45  1   
 45  22  46  1   
 46  23  47  1   
 47  24  25  1   
 48  24  48  1   
 49  24  49  1   
 50  25  26  1   
 51  25  50  1   
 52  25  51  1   
 53  26  52  1   
 54  26  53  1   
 55  26  54  1   
@<TRIPOS>SUBSTRUCTURE
  1 ****  19 GROUP 4 **** **** 0

# MOE 2024.06 (io_trps.svl 2023.06)
