@<TRIPOS>MOLECULE
NONAME
47 50 1 0 0 
SMALL
USER_CHARGES


@<TRIPOS>ATOM
  1 S        0.2360     0.2260     0.4290 S.3   1 <1>  -0.0800 
  2 C        0.0310    -1.1430    -0.6650 C.ar  1 <1>   0.0400 
  3 C       -1.1460    -0.2760     1.3880 C.2   1 <1>  -0.1100 
  4 C       -1.0520    -1.9160    -0.2700 C.ar  1 <1>   0.0000 
  5 C        0.8170    -1.4340    -1.7650 C.ar  1 <1>  -0.1500 
  6 C       -1.7240    -1.4010     0.9050 C.2   1 <1>  -0.0860 
  7 C       -1.3460    -3.0450    -1.0310 C.ar  1 <1>  -0.1500 
  8 C        0.5020    -2.5580    -2.5070 C.ar  1 <1>  -0.1500 
  9 C       -2.8900    -2.0530     1.4590 C.2   1 <1>   0.7160 
 10 C       -0.5750    -3.3580    -2.1380 C.ar  1 <1>  -0.1500 
 11 O       -2.8240    -3.2220     1.7890 O.2   1 <1>  -0.5700 
 12 N       -4.0800    -1.3740     1.6170 N.am  1 <1>  -0.6600 
 13 C       -5.2260    -1.9490     2.3700 C.3   1 <1>   0.1400 
 14 C       -4.4100    -0.1010     0.9250 C.3   1 <1>   0.1400 
 15 C       -6.3860    -2.2050     1.4060 C.3   1 <1>  -0.1600 
 16 C       -5.5620    -0.3450    -0.0540 C.3   1 <1>  -0.1600 
 17 C       -6.8080    -0.9390     0.6410 C.3   1 <1>   0.2800 
 18 O       -7.2790    -0.0450     1.6140 O.3   1 <1>  -0.5600 
 19 C       -7.9530    -1.3020    -0.3330 C.3   1 <1>  -0.1600 
 20 C       -7.9160     1.1300     1.2030 C.3   1 <1>   0.1200 
 21 C       -8.8060    -0.1210    -0.8060 C.3   1 <1>   0.2800 
 22 C       -9.1530     0.7860     0.3730 C.3   1 <1>  -0.1600 
 23 O       -8.0830     0.6120    -1.7140 O.3   1 <1>  -0.6800 
 24 C      -10.0580    -0.5880    -1.5440 C.3   1 <1>  -0.2400 
 25 H       -1.3970     0.3310     2.2400 H     1 <1>   0.1500 
 26 H        1.6450    -0.8000    -2.0270 H     1 <1>   0.1500 
 27 H       -2.1720    -3.6760    -0.7520 H     1 <1>   0.1500 
 28 H        1.0910    -2.8170    -3.3700 H     1 <1>   0.1500 
 29 H       -0.8090    -4.2330    -2.7200 H     1 <1>   0.1500 
 30 H       -5.5310    -1.2530     3.1330 H     1 <1>   0.0800 
 31 H       -4.9440    -2.8690     2.8550 H     1 <1>   0.0800 
 32 H       -3.5620     0.2790     0.3830 H     1 <1>   0.0800 
 33 H       -4.6990     0.6330     1.6580 H     1 <1>   0.0800 
 34 H       -7.2220    -2.5870     1.9630 H     1 <1>   0.0800 
 35 H       -6.0850    -2.9680     0.7100 H     1 <1>   0.0800 
 36 H       -5.2210    -1.0320    -0.8080 H     1 <1>   0.0800 
 37 H       -5.7860     0.5750    -0.5530 H     1 <1>   0.0800 
 38 H       -8.6110    -1.9800     0.1800 H     1 <1>   0.0800 
 39 H       -7.5660    -1.8380    -1.1810 H     1 <1>   0.0800 
 40 H       -7.2220     1.7370     0.6510 H     1 <1>   0.0800 
 41 H       -8.2050     1.6660     2.0900 H     1 <1>   0.0800 
 42 H       -9.6250     1.6850     0.0200 H     1 <1>   0.0800 
 43 H       -9.8550     0.2840     1.0150 H     1 <1>   0.0800 
 44 H       -7.2670     0.9280    -1.2930 H     1 <1>   0.4000 
 45 H      -10.6850    -1.1650    -0.8880 H     1 <1>   0.0800 
 46 H       -9.7880    -1.2030    -2.3840 H     1 <1>   0.0800 
 47 H      -10.6220     0.2580    -1.8950 H     1 <1>   0.0800 
@<TRIPOS>BOND
  1   1   2  1   
  2   1   3  1   
  3   2   4  ar  
  4   2   5  ar  
  5   3   6  2   
  6   3  25  1   
  7   4   6  1   
  8   4   7  ar  
  9   5   8  ar  
 10   5  26  1   
 11   6   9  1   
 12   7  10  ar  
 13   7  27  1   
 14   8  10  ar  
 15   8  28  1   
 16   9  11  2   
 17   9  12  am  
 18  10  29  1   
 19  12  13  1   
 20  12  14  1   
 21  13  15  1   
 22  13  30  1   
 23  13  31  1   
 24  14  16  1   
 25  14  32  1   
 26  14  33  1   
 27  15  17  1   
 28  15  34  1   
 29  15  35  1   
 30  16  17  1   
 31  16  36  1   
 32  16  37  1   
 33  17  18  1   
 34  17  19  1   
 35  18  20  1   
 36  19  21  1   
 37  19  38  1   
 38  19  39  1   
 39  20  22  1   
 40  20  40  1   
 41  20  41  1   
 42  21  22  1   
 43  21  23  1   
 44  21  24  1   
 45  22  42  1   
 46  22  43  1   
 47  23  44  1   
 48  24  45  1   
 49  24  46  1   
 50  24  47  1   
@<TRIPOS>SUBSTRUCTURE
  1 ****  14 GROUP 4 **** **** 0

# MOE 2024.06 (io_trps.svl 2023.06)
