@<TRIPOS>MOLECULE
NONAME
45 47 1 0 0 
SMALL
USER_CHARGES


@<TRIPOS>ATOM
  1 F       -0.6920     5.0880     1.9540 F     1 <1>  -0.1900 
  2 C       -0.0890     4.7350     0.8480 C.ar  1 <1>   0.1900 
  3 C       -0.7100     4.9080    -0.3760 C.ar  1 <1>   0.1900 
  4 C        1.1810     4.1930     0.9280 C.ar  1 <1>  -0.1500 
  5 F       -1.9090     5.4270    -0.4460 F     1 <1>  -0.1900 
  6 C       -0.0740     4.5400    -1.5470 C.ar  1 <1>  -0.1500 
  7 C        1.8360     3.8290    -0.2440 C.ar  1 <1>  -0.1440 
  8 C        1.2020     3.9980    -1.4730 C.ar  1 <1>  -0.1500 
  9 C        3.2470     3.2470    -0.1790 C.3   1 <1>   0.0440 
 10 C        4.1950     4.0420     0.7160 C.2   1 <1>   0.5690 
 11 O        4.8010     3.4280     1.5600 O.2   1 <1>  -0.5700 
 12 N        4.3780     5.3970     0.5700 N.am  1 <1>  -0.6600 
 13 C        5.0900     6.1630     1.6680 C.3   1 <1>   0.2200 
 14 C        3.9280     6.1430    -0.6490 C.3   1 <1>   0.1400 
 15 C        4.3280     7.4300     2.0900 C.3   1 <1>   0.1200 
 16 C        6.5560     6.4780     1.2900 C.3   1 <1>   0.3430 
 17 C        4.6260     7.4960    -0.8920 C.3   1 <1>  -0.0800 
 18 O        4.6740     8.5230     1.2970 O.3   1 <1>  -0.5600 
 19 N        6.8010     6.3470    -0.1860 N.4   1 <1>  -0.9590 
 20 C        4.0920     8.5920     0.0420 C.3   1 <1>   0.1200 
 21 C        6.1700     7.4750    -0.9410 C.3   1 <1>   0.3430 
 22 C        8.3040     6.3710    -0.4290 C.3   1 <1>   0.2370 
 23 C        8.9920     7.6760    -0.0190 C.2   1 <1>   0.9060 
 24 O        9.3680     7.7880     1.1500 O.co2 1 <1>  -0.9000 
 25 O        9.0160     8.5940    -0.8440 O.co2 1 <1>  -0.9000 
 26 H        1.6380     4.0630     1.8930 H     1 <1>   0.1500 
 27 H       -0.5710     4.6720    -2.4920 H     1 <1>   0.1500 
 28 H        1.6930     3.7040    -2.3850 H     1 <1>   0.1500 
 29 H        3.6770     3.1850    -1.1610 H     1 <1>   0.0800 
 30 H        3.1810     2.2440     0.2020 H     1 <1>   0.0800 
 31 H        5.1210     5.5490     2.5510 H     1 <1>   0.0800 
 32 H        4.0890     5.5220    -1.5130 H     1 <1>   0.0800 
 33 H        2.8670     6.3140    -0.5720 H     1 <1>   0.0800 
 34 H        4.6130     7.6870     3.0960 H     1 <1>   0.0800 
 35 H        3.2620     7.2800     2.0710 H     1 <1>   0.0800 
 36 H        7.1940     5.7870     1.8160 H     1 <1>   0.0800 
 37 H        6.8220     7.4690     1.6250 H     1 <1>   0.0800 
 38 H        4.3130     7.8100    -1.8710 H     1 <1>   0.0800 
 39 H        6.3860     5.4540    -0.4690 H     1 <1>   0.4500 
 40 H        3.0210     8.5440     0.1490 H     1 <1>   0.0800 
 41 H        4.3440     9.5610    -0.3580 H     1 <1>   0.0800 
 42 H        6.5490     8.4140    -0.5640 H     1 <1>   0.0800 
 43 H        6.4790     7.4070    -1.9710 H     1 <1>   0.0800 
 44 H        8.7760     5.5790     0.1240 H     1 <1>   0.0800 
 45 H        8.5070     6.2230    -1.4730 H     1 <1>   0.0800 
@<TRIPOS>BOND
  1   1   2  1   
  2   2   3  ar  
  3   2   4  ar  
  4   3   5  1   
  5   3   6  ar  
  6   4   7  ar  
  7   4  26  1   
  8   6   8  ar  
  9   6  27  1   
 10   7   8  ar  
 11   7   9  1   
 12   8  28  1   
 13   9  10  1   
 14   9  29  1   
 15   9  30  1   
 16  10  11  2   
 17  10  12  am  
 18  12  13  1   
 19  12  14  1   
 20  13  15  1   
 21  13  16  1   
 22  13  31  1   
 23  14  17  1   
 24  14  32  1   
 25  14  33  1   
 26  15  18  1   
 27  15  34  1   
 28  15  35  1   
 29  16  19  1   
 30  16  36  1   
 31  16  37  1   
 32  17  20  1   
 33  17  21  1   
 34  17  38  1   
 35  18  20  1   
 36  19  21  1   
 37  19  22  1   
 38  19  39  1   
 39  20  40  1   
 40  20  41  1   
 41  21  42  1   
 42  21  43  1   
 43  22  23  1   
 44  22  44  1   
 45  22  45  1   
 46  23  24  ar  
 47  23  25  ar  
@<TRIPOS>SUBSTRUCTURE
  1 ****  12 GROUP 4 **** **** 0

# MOE 2024.06 (io_trps.svl 2023.06)
