@<TRIPOS>MOLECULE
Untitled Document
41 43 1 0 0 
SMALL
USER_CHARGES


@<TRIPOS>ATOM
  1 O        0.3270     0.7060    -1.2200 O.2   1 <1>  -0.5700 
  2 C        1.4510     1.1090    -1.0600 C.2   1 <1>   0.5690 
  3 N        1.9820     2.1130    -1.8110 N.am  1 <1>  -0.3680 
  4 C        2.3550     0.4860    -0.0240 C.3   1 <1>  -0.0990 
  5 N        3.2160     2.7100    -1.6400 N.2   1 <1>  -0.5120 
  6 C        3.3800     1.5040     0.5200 C.3   1 <1>  -0.0190 
  7 C        3.9030     2.4590    -0.5850 C.2   1 <1>   0.3030 
  8 C        4.4880     0.7160     1.2500 C.3   1 <1>  -0.2400 
  9 C        5.1790     3.0950    -0.3730 C.ar  1 <1>   0.0860 
 10 C        5.4750     3.8040     0.7950 C.ar  1 <1>  -0.1500 
 11 C        6.1700     3.0420    -1.3550 C.ar  1 <1>  -0.1500 
 12 C        6.7070     4.3990     0.9840 C.ar  1 <1>  -0.1500 
 13 C        7.4010     3.6380    -1.1690 C.ar  1 <1>  -0.1500 
 14 C        7.6900     4.3160     0.0080 C.ar  1 <1>   0.1000 
 15 N        8.9270     4.9250     0.2040 N.pl3 1 <1>  -0.6000 
 16 C       10.1880     4.4190    -0.0350 C.2   1 <1>  -0.0380 
 17 C       10.6440     3.1530    -0.1760 C.2   1 <1>  -0.1240 
 18 C       11.3290     5.4110    -0.1740 C.3   1 <1>  -0.0220 
 19 C       12.0300     3.1230    -0.4500 C.2   1 <1>   0.4950 
 20 C        9.8640     1.8500    -0.0550 C.3   1 <1>  -0.1020 
 21 C       12.5630     4.5360    -0.4770 C.3   1 <1>  -0.0990 
 22 O       12.7430     2.1670    -0.6420 O.2   1 <1>  -0.5700 
 23 H        1.3850     2.4390    -2.5780 H     1 <1>   0.3700 
 24 H        2.8650    -0.3290    -0.5040 H     1 <1>   0.0800 
 25 H        1.7590     0.0880     0.7770 H     1 <1>   0.0800 
 26 H        2.8710     2.1190     1.2420 H     1 <1>   0.0800 
 27 H        5.0820     0.1620     0.5440 H     1 <1>   0.0800 
 28 H        4.0550     0.0230     1.9500 H     1 <1>   0.0800 
 29 H        5.1380     1.3690     1.8030 H     1 <1>   0.0800 
 30 H        4.7260     3.8890     1.5620 H     1 <1>   0.1500 
 31 H        5.9600     2.5240    -2.2750 H     1 <1>   0.1500 
 32 H        6.9150     4.9320     1.8940 H     1 <1>   0.1500 
 33 H        8.1500     3.5860    -1.9380 H     1 <1>   0.1500 
 34 H        8.8660     5.9070     0.4910 H     1 <1>   0.4000 
 35 H       11.4640     5.9590     0.7420 H     1 <1>   0.0800 
 36 H       11.1370     6.0930    -0.9840 H     1 <1>   0.0800 
 37 H       10.4470     1.1250     0.4850 H     1 <1>   0.0800 
 38 H        9.6500     1.4590    -1.0330 H     1 <1>   0.0800 
 39 H        8.9440     1.9980     0.4780 H     1 <1>   0.0800 
 40 H       13.3220     4.6540     0.2740 H     1 <1>   0.0800 
 41 H       12.9680     4.7520    -1.4480 H     1 <1>   0.0800 
@<TRIPOS>BOND
  1   1   2  2   
  2   2   3  am  
  3   2   4  1   
  4   3   5  1   
  5   3  23  1   
  6   4   6  1   
  7   4  24  1   
  8   4  25  1   
  9   5   7  2   
 10   6   7  1   
 11   6   8  1   
 12   6  26  1   
 13   7   9  1   
 14   8  27  1   
 15   8  28  1   
 16   8  29  1   
 17   9  10  ar  
 18   9  11  ar  
 19  10  12  ar  
 20  10  30  1   
 21  11  13  ar  
 22  11  31  1   
 23  12  14  ar  
 24  12  32  1   
 25  13  14  ar  
 26  13  33  1   
 27  14  15  1   
 28  15  16  1   
 29  15  34  1   
 30  16  17  2   
 31  16  18  1   
 32  17  19  1   
 33  17  20  1   
 34  18  21  1   
 35  18  35  1   
 36  18  36  1   
 37  19  21  1   
 38  19  22  2   
 39  20  37  1   
 40  20  38  1   
 41  20  39  1   
 42  21  40  1   
 43  21  41  1   
@<TRIPOS>SUBSTRUCTURE
  1 ****  11 GROUP 4 **** **** 0

# MOE 2024.06 (io_trps.svl 2023.06)
