@<TRIPOS>MOLECULE
NONAME
55 57 1 0 0 
SMALL
USER_CHARGES


@<TRIPOS>ATOM
  1 O       -0.5900    -0.0780    -2.3650 O.2   1 <1>  -0.5700 
  2 C       -0.3240     0.9950    -1.8720 C.2   1 <1>   0.5690 
  3 N       -1.2890     1.7690    -1.2670 N.am  1 <1>  -0.6600 
  4 C        1.1240     1.4690    -1.9960 C.3   1 <1>   0.1810 
  5 C       -1.0030     3.1000    -0.6500 C.3   1 <1>   0.1400 
  6 C       -2.6910     1.2680    -1.1410 C.3   1 <1>   0.1400 
  7 O        1.6860     1.8020    -0.7350 O.3   1 <1>  -0.3620 
  8 C       -2.2710     3.9520    -0.6130 C.3   1 <1>  -0.1600 
  9 C       -3.3150     1.7590     0.1670 C.3   1 <1>  -0.1600 
 10 C        2.8960     2.4070    -0.6480 C.ar  1 <1>   0.0820 
 11 C       -3.3730     3.3040     0.2550 C.3   1 <1>   0.2800 
 12 C        3.2570     2.9060     0.5920 C.ar  1 <1>  -0.1500 
 13 C        3.7680     2.5510    -1.7210 C.ar  1 <1>  -0.1500 
 14 O       -3.0230     3.6180     1.5880 O.3   1 <1>  -0.5600 
 15 C       -4.8020     3.8250    -0.0980 C.3   1 <1>   0.2000 
 16 C        4.4690     3.5520     0.7780 C.ar  1 <1>  -0.1430 
 17 C        4.9790     3.1940    -1.5400 C.ar  1 <1>  -0.1500 
 18 C       -3.9110     4.3480     2.3870 C.3   1 <1>   0.1200 
 19 O       -5.1330     3.6170    -1.4420 O.3   1 <1>  -0.6800 
 20 C       -5.0560     5.3000     0.3370 C.3   1 <1>   0.2800 
 21 C        5.3390     3.6980    -0.2980 C.ar  1 <1>  -0.1430 
 22 C        4.8160     4.0830     2.1610 C.3   1 <1>  -0.0970 
 23 C       -4.3150     5.6250     1.6470 C.3   1 <1>  -0.1600 
 24 O       -6.4120     5.4100     0.5900 O.3   1 <1>  -0.6800 
 25 C       -4.7620     6.3670    -0.7280 C.3   1 <1>  -0.2400 
 26 C        6.6810     4.3990    -0.1450 C.3   1 <1>  -0.0970 
 27 H        1.1560     2.3380    -2.6260 H     1 <1>   0.0800 
 28 H        1.7190     0.6850    -2.4270 H     1 <1>   0.0800 
 29 H       -0.6360     2.9510     0.3530 H     1 <1>   0.0800 
 30 H       -0.2460     3.6170    -1.2140 H     1 <1>   0.0800 
 31 H       -3.2680     1.6200    -1.9800 H     1 <1>   0.0800 
 32 H       -2.6990     0.1910    -1.1570 H     1 <1>   0.0800 
 33 H       -2.6120     4.0750    -1.6250 H     1 <1>   0.0800 
 34 H       -2.0310     4.9270    -0.2310 H     1 <1>   0.0800 
 35 H       -2.7260     1.3640     0.9760 H     1 <1>   0.0800 
 36 H       -4.3010     1.3410     0.2530 H     1 <1>   0.0800 
 37 H        2.5720     2.7800     1.4100 H     1 <1>   0.1500 
 38 H        3.5290     2.1690    -2.6940 H     1 <1>   0.1500 
 39 H       -5.4890     3.2140     0.4620 H     1 <1>   0.0800 
 40 H        5.6460     3.2990    -2.3780 H     1 <1>   0.1500 
 41 H       -4.7640     3.7310     2.6150 H     1 <1>   0.0800 
 42 H       -3.4000     4.5870     3.3040 H     1 <1>   0.0800 
 43 H       -6.0430     3.9480    -1.5850 H     1 <1>   0.4000 
 44 H        4.0220     3.8880     2.8590 H     1 <1>   0.0800 
 45 H        4.9750     5.1450     2.1190 H     1 <1>   0.0800 
 46 H        5.7090     3.6070     2.5240 H     1 <1>   0.0800 
 47 H       -3.4110     6.1670     1.4360 H     1 <1>   0.0800 
 48 H       -4.9180     6.2440     2.2870 H     1 <1>   0.0800 
 49 H       -6.6330     6.3390     0.7900 H     1 <1>   0.4000 
 50 H       -3.7350     6.3190    -1.0340 H     1 <1>   0.0800 
 51 H       -4.9460     7.3520    -0.3400 H     1 <1>   0.0800 
 52 H       -5.3720     6.2160    -1.6010 H     1 <1>   0.0800 
 53 H        7.2190     4.4130    -1.0750 H     1 <1>   0.0800 
 54 H        7.2830     3.8870     0.5840 H     1 <1>   0.0800 
 55 H        6.5320     5.4150     0.1740 H     1 <1>   0.0800 
@<TRIPOS>BOND
  1   1   2  2   
  2   2   3  am  
  3   2   4  1   
  4   3   5  1   
  5   3   6  1   
  6   4   7  1   
  7   4  27  1   
  8   4  28  1   
  9   5   8  1   
 10   5  29  1   
 11   5  30  1   
 12   6   9  1   
 13   6  31  1   
 14   6  32  1   
 15   7  10  1   
 16   8  11  1   
 17   8  33  1   
 18   8  34  1   
 19   9  11  1   
 20   9  35  1   
 21   9  36  1   
 22  10  12  ar  
 23  10  13  ar  
 24  11  14  1   
 25  11  15  1   
 26  12  16  ar  
 27  12  37  1   
 28  13  17  ar  
 29  13  38  1   
 30  14  18  1   
 31  15  19  1   
 32  15  20  1   
 33  15  39  1   
 34  16  21  ar  
 35  16  22  1   
 36  17  21  ar  
 37  17  40  1   
 38  18  23  1   
 39  18  41  1   
 40  18  42  1   
 41  19  43  1   
 42  20  23  1   
 43  20  24  1   
 44  20  25  1   
 45  21  26  1   
 46  22  44  1   
 47  22  45  1   
 48  22  46  1   
 49  23  47  1   
 50  23  48  1   
 51  24  49  1   
 52  25  50  1   
 53  25  51  1   
 54  25  52  1   
 55  26  53  1   
 56  26  54  1   
 57  26  55  1   
@<TRIPOS>SUBSTRUCTURE
  1 ****   5 GROUP 4 **** **** 0

# MOE 2024.06 (io_trps.svl 2023.06)
