@<TRIPOS>MOLECULE
NONAME
49 52 1 0 0 
SMALL
USER_CHARGES


@<TRIPOS>ATOM
  1 F       -3.0730    -1.1440     1.5520 F     1 <1>  -0.1900 
  2 C       -3.0980     0.0360     0.9930 C.ar  1 <1>   0.1900 
  3 C       -3.3100     0.1370    -0.3800 C.ar  1 <1>   0.0860 
  4 C       -2.9230     1.1310     1.8160 C.ar  1 <1>  -0.1500 
  5 C       -3.3390     1.4290    -0.9220 C.ar  1 <1>  -0.1440 
  6 C       -3.5000    -1.0490    -1.1860 C.2   1 <1>   0.5440 
  7 C       -2.9590     2.3950     1.2580 C.ar  1 <1>  -0.1500 
  8 C       -3.1660     2.5370    -0.1050 C.ar  1 <1>  -0.1500 
  9 C       -3.5590     1.6270    -2.4160 C.3   1 <1>  -0.0960 
 10 O       -2.5830    -1.4510    -1.8770 O.2   1 <1>  -0.5700 
 11 N       -4.7040    -1.7200    -1.2070 N.am  1 <1>  -0.6600 
 12 C       -5.9080    -1.3230    -0.4170 C.3   1 <1>   0.1400 
 13 C       -4.8680    -3.0420    -1.8850 C.3   1 <1>   0.1400 
 14 C       -6.2940    -2.4360     0.5750 C.3   1 <1>   0.1900 
 15 C       -5.3080    -4.1180    -0.8770 C.3   1 <1>   0.1100 
 16 N       -6.5290    -3.7150    -0.1410 N.3   1 <1>  -0.8100 
 17 C       -7.5420    -2.0280     1.3820 C.3   1 <1>   0.1200 
 18 C       -6.9600    -4.7560     0.8230 C.3   1 <1>   0.3330 
 19 O       -7.8980    -3.0400     2.2800 O.3   1 <1>  -0.5600 
 20 C       -7.3350    -6.0510     0.1040 C.ar  1 <1>  -0.1430 
 21 C       -8.1680    -4.2660     1.6510 C.3   1 <1>   0.1200 
 22 C       -6.8570    -7.2680     0.5700 C.ar  1 <1>  -0.1500 
 23 C       -8.1580    -6.0340    -1.0140 C.ar  1 <1>  -0.1500 
 24 C       -7.1980    -8.4480    -0.0700 C.ar  1 <1>  -0.1500 
 25 C       -8.5010    -7.2120    -1.6550 C.ar  1 <1>  -0.1500 
 26 C       -8.0200    -8.4200    -1.1830 C.ar  1 <1>  -0.1500 
 27 H       -2.7610     0.9940     2.8710 H     1 <1>   0.1500 
 28 H       -2.8240     3.2650     1.8780 H     1 <1>   0.1500 
 29 H       -3.1880     3.5280    -0.5270 H     1 <1>   0.1500 
 30 H       -3.5880     2.6710    -2.6720 H     1 <1>   0.0800 
 31 H       -4.4870     1.1760    -2.7190 H     1 <1>   0.0800 
 32 H       -2.7570     1.1660    -2.9670 H     1 <1>   0.0800 
 33 H       -5.7310    -0.4090     0.1210 H     1 <1>   0.0800 
 34 H       -6.7280    -1.1540    -1.0930 H     1 <1>   0.0800 
 35 H       -5.6130    -2.9540    -2.6550 H     1 <1>   0.0800 
 36 H       -3.9480    -3.3500    -2.3490 H     1 <1>   0.0800 
 37 H       -5.4790    -2.5570     1.2690 H     1 <1>   0.0800 
 38 H       -4.5020    -4.2980    -0.1850 H     1 <1>   0.0800 
 39 H       -5.4910    -5.0310    -1.4170 H     1 <1>   0.0800 
 40 H       -8.3750    -1.8410     0.7260 H     1 <1>   0.0800 
 41 H       -7.3430    -1.1410     1.9570 H     1 <1>   0.0800 
 42 H       -6.1520    -4.9550     1.5050 H     1 <1>   0.0800 
 43 H       -8.4020    -4.9840     2.4160 H     1 <1>   0.0800 
 44 H       -9.0290    -4.1450     1.0180 H     1 <1>   0.0800 
 45 H       -6.2170    -7.3060     1.4340 H     1 <1>   0.1500 
 46 H       -8.5290    -5.0950    -1.3870 H     1 <1>   0.1500 
 47 H       -6.8240    -9.3870     0.2970 H     1 <1>   0.1500 
 48 H       -9.1390    -7.1860    -2.5200 H     1 <1>   0.1500 
 49 H       -8.2860    -9.3370    -1.6800 H     1 <1>   0.1500 
@<TRIPOS>BOND
  1   1   2  1   
  2   2   3  ar  
  3   2   4  ar  
  4   3   5  ar  
  5   3   6  1   
  6   4   7  ar  
  7   4  27  1   
  8   5   8  ar  
  9   5   9  1   
 10   6  10  2   
 11   6  11  am  
 12   7   8  ar  
 13   7  28  1   
 14   8  29  1   
 15   9  30  1   
 16   9  31  1   
 17   9  32  1   
 18  11  12  1   
 19  11  13  1   
 20  12  14  1   
 21  12  33  1   
 22  12  34  1   
 23  13  15  1   
 24  13  35  1   
 25  13  36  1   
 26  14  16  1   
 27  14  17  1   
 28  14  37  1   
 29  15  16  1   
 30  15  38  1   
 31  15  39  1   
 32  16  18  1   
 33  17  19  1   
 34  17  40  1   
 35  17  41  1   
 36  18  20  1   
 37  18  21  1   
 38  18  42  1   
 39  19  21  1   
 40  20  22  ar  
 41  20  23  ar  
 42  21  43  1   
 43  21  44  1   
 44  22  24  ar  
 45  22  45  1   
 46  23  25  ar  
 47  23  46  1   
 48  24  26  ar  
 49  24  47  1   
 50  25  26  ar  
 51  25  48  1   
 52  26  49  1   
@<TRIPOS>SUBSTRUCTURE
  1 ****  14 GROUP 4 **** **** 0

# MOE 2024.06 (io_trps.svl 2023.06)
