@<TRIPOS>MOLECULE
NONAME
42 43 1 0 0 
SMALL
USER_CHARGES


@<TRIPOS>ATOM
  1 O        2.2430    -1.4630     1.6410 O.2   1 <1>  -0.5700 
  2 C        2.0560    -1.5440     0.4480 C.2   1 <1>   0.5690 
  3 N        1.9090    -0.4610    -0.3600 N.am  1 <1>  -0.4930 
  4 C        1.9930    -2.9380    -0.1910 C.3   1 <1>   0.1710 
  5 C        1.8950     0.8940    -0.0600 C.2   1 <1>   0.3520 
  6 N        0.6320    -3.4800    -0.4640 N.3   1 <1>  -0.8100 
  7 N        1.6930     1.7400    -1.0180 N.2   1 <1>  -0.7070 
  8 C        2.0740     1.5180     1.1720 C.2   1 <1>  -0.1500 
  9 C       -0.1720    -3.5660     0.7850 C.3   1 <1>   0.2530 
 10 C       -0.0910    -2.7370    -1.5080 C.3   1 <1>   0.0300 
 11 N        1.7360     2.9480    -0.4180 N.pl3 1 <1>   0.3140 
 12 C        1.9660     2.8360     0.9050 C.2   1 <1>  -0.3020 
 13 C       -1.4580    -4.3770     0.6180 C.ar  1 <1>   0.1670 
 14 C        1.5490     4.1880    -1.1800 C.3   1 <1>   0.0160 
 15 N       -2.5690    -3.8510     1.1160 N.ar  1 <1>  -0.6200 
 16 C       -1.4110    -5.6040    -0.0280 C.ar  1 <1>  -0.1500 
 17 C       -3.6660    -4.5740     0.9600 C.ar  1 <1>   0.1600 
 18 C       -2.5620    -6.3450    -0.1810 C.ar  1 <1>  -0.1500 
 19 C       -3.7260    -5.8100     0.3320 C.ar  1 <1>  -0.1430 
 20 C       -5.0420    -6.5600     0.2080 C.3   1 <1>  -0.0170 
 21 C       -5.7510    -6.1920    -1.0970 C.3   1 <1>  -0.2400 
 22 H        1.7260    -0.6200    -1.3450 H     1 <1>   0.3700 
 23 H        2.5010    -3.6200     0.4680 H     1 <1>   0.0800 
 24 H        2.5510    -2.9200    -1.1090 H     1 <1>   0.0800 
 25 H        2.2550     1.0230     2.1090 H     1 <1>   0.1500 
 26 H       -0.4250    -2.5750     1.1240 H     1 <1>   0.0800 
 27 H        0.4130    -4.0330     1.5580 H     1 <1>   0.0800 
 28 H        0.5140    -2.6560    -2.3940 H     1 <1>   0.0800 
 29 H       -0.3590    -1.7530    -1.1630 H     1 <1>   0.0800 
 30 H       -0.9960    -3.2610    -1.7700 H     1 <1>   0.0800 
 31 H        2.0370     3.6770     1.5690 H     1 <1>   0.1500 
 32 H        2.3240     4.2620    -1.9190 H     1 <1>   0.0800 
 33 H        1.5940     5.0300    -0.5160 H     1 <1>   0.0800 
 34 H        0.5910     4.1560    -1.6650 H     1 <1>   0.0800 
 35 H       -0.4740    -5.9680    -0.4110 H     1 <1>   0.1500 
 36 H       -4.5740    -4.1560     1.3570 H     1 <1>   0.1500 
 37 H       -2.5480    -7.2970    -0.6810 H     1 <1>   0.1500 
 38 H       -5.6770    -6.3220     1.0440 H     1 <1>   0.0800 
 39 H       -4.8580    -7.6200     0.2310 H     1 <1>   0.0800 
 40 H       -5.9570    -5.1360    -1.1240 H     1 <1>   0.0800 
 41 H       -6.6800    -6.7270    -1.1780 H     1 <1>   0.0800 
 42 H       -5.1320    -6.4430    -1.9400 H     1 <1>   0.0800 
@<TRIPOS>BOND
  1   1   2  2   
  2   2   3  am  
  3   2   4  1   
  4   3   5  1   
  5   3  22  1   
  6   4   6  1   
  7   4  23  1   
  8   4  24  1   
  9   5   7  2   
 10   5   8  1   
 11   6   9  1   
 12   6  10  1   
 13   7  11  1   
 14   8  12  2   
 15   8  25  1   
 16   9  13  1   
 17   9  26  1   
 18   9  27  1   
 19  10  28  1   
 20  10  29  1   
 21  10  30  1   
 22  11  12  1   
 23  11  14  1   
 24  12  31  1   
 25  13  15  ar  
 26  13  16  ar  
 27  14  32  1   
 28  14  33  1   
 29  14  34  1   
 30  15  17  ar  
 31  16  18  ar  
 32  16  35  1   
 33  17  19  ar  
 34  17  36  1   
 35  18  19  ar  
 36  18  37  1   
 37  19  20  1   
 38  20  21  1   
 39  20  38  1   
 40  20  39  1   
 41  21  40  1   
 42  21  41  1   
 43  21  42  1   
@<TRIPOS>SUBSTRUCTURE
  1 ****   9 GROUP 4 **** **** 0

# MOE 2024.06 (io_trps.svl 2023.06)
