@<TRIPOS>MOLECULE
NONAME
47 50 1 0 0 
SMALL
USER_CHARGES


@<TRIPOS>ATOM
  1 O        2.5280    -0.7540     1.5330 O.3   1 <1>  -0.5600 
  2 C        1.4430    -1.0770     0.7060 C.3   1 <1>   0.2000 
  3 C        2.2800     0.2860     2.4310 C.3   1 <1>   0.0400 
  4 C        1.9040    -1.9390    -0.4840 C.3   1 <1>   0.0000 
  5 C        0.4020    -1.9200     1.4510 C.3   1 <1>  -0.1600 
  6 C        2.9250    -2.9990    -0.0070 C.3   1 <1>   0.3430 
  7 C        2.4820    -1.0590    -1.6290 C.3   1 <1>  -0.1600 
  8 C        0.6050    -2.6530    -0.8810 C.3   1 <1>  -0.1600 
  9 C       -0.1020    -2.9640     0.4430 C.3   1 <1>  -0.1600 
 10 N        4.2560    -2.3540     0.0990 N.4   1 <1>  -0.9590 
 11 C        3.7390    -1.6810    -2.2610 C.3   1 <1>  -0.1600 
 12 C        4.8370    -1.9720    -1.2240 C.3   1 <1>   0.3430 
 13 C        5.2120    -3.0910     0.9500 C.3   1 <1>   0.5240 
 14 C        6.3030    -2.1370     1.3570 C.2   1 <1>  -0.1810 
 15 C        7.4540    -1.8880     0.6860 C.2   1 <1>  -0.0260 
 16 C        6.3540    -1.3290     2.4810 C.2   1 <1>   0.1390 
 17 N        7.9170    -2.4000    -0.5080 N.2   1 <1>  -0.5760 
 18 N        8.1390    -0.9610     1.4400 N.pl3 1 <1>   0.6010 
 19 N        7.4430    -0.6160     2.5420 N.2   1 <1>  -0.7070 
 20 C        9.0790    -1.9730    -0.8930 C.2   1 <1>   0.3760 
 21 C        9.3710    -0.5190     1.0060 C.2   1 <1>  -0.1810 
 22 C        9.8500    -1.0240    -0.1620 C.2   1 <1>  -0.1360 
 23 H        0.9870    -0.1700     0.3410 H     1 <1>   0.0800 
 24 H        3.1750     0.4610     3.0030 H     1 <1>   0.0800 
 25 H        1.4790     0.0080     3.0950 H     1 <1>   0.0800 
 26 H        2.0240     1.1780     1.8850 H     1 <1>   0.0800 
 27 H        0.8410    -2.4130     2.3010 H     1 <1>   0.0800 
 28 H       -0.4100    -1.2960     1.7830 H     1 <1>   0.0800 
 29 H        2.9700    -3.8130    -0.7120 H     1 <1>   0.0800 
 30 H        2.6150    -3.3840     0.9500 H     1 <1>   0.0800 
 31 H        1.7430    -0.8830    -2.3920 H     1 <1>   0.0800 
 32 H        2.7590    -0.0950    -1.2350 H     1 <1>   0.0800 
 33 H       -0.0230    -1.9850    -1.4480 H     1 <1>   0.0800 
 34 H        0.7740    -3.5390    -1.4680 H     1 <1>   0.0800 
 35 H        0.1580    -3.9530     0.7810 H     1 <1>   0.0800 
 36 H       -1.1730    -2.9140     0.3280 H     1 <1>   0.0800 
 37 H        4.0370    -1.4750     0.6080 H     1 <1>   0.4500 
 38 H        4.1370    -1.0220    -3.0130 H     1 <1>   0.0800 
 39 H        3.4750    -2.5990    -2.7570 H     1 <1>   0.0800 
 40 H        5.4510    -1.0950    -1.0930 H     1 <1>   0.0800 
 41 H        5.4740    -2.7610    -1.5920 H     1 <1>   0.0800 
 42 H        4.7170    -3.4660     1.8300 H     1 <1>   0.0800 
 43 H        5.6350    -3.9190     0.4050 H     1 <1>   0.0800 
 44 H        5.5890    -1.2750     3.2400 H     1 <1>   0.1500 
 45 H        9.4950    -2.3450    -1.8130 H     1 <1>   0.0600 
 46 H        9.8700     0.1990     1.6300 H     1 <1>   0.1500 
 47 H       10.8030    -0.7310    -0.5640 H     1 <1>   0.1500 
@<TRIPOS>BOND
  1   1   2  1   
  2   1   3  1   
  3   2   4  1   
  4   2   5  1   
  5   2  23  1   
  6   3  24  1   
  7   3  25  1   
  8   3  26  1   
  9   4   6  1   
 10   4   7  1   
 11   4   8  1   
 12   5   9  1   
 13   5  27  1   
 14   5  28  1   
 15   6  10  1   
 16   6  29  1   
 17   6  30  1   
 18   7  11  1   
 19   7  31  1   
 20   7  32  1   
 21   8   9  1   
 22   8  33  1   
 23   8  34  1   
 24   9  35  1   
 25   9  36  1   
 26  10  12  1   
 27  10  13  1   
 28  10  37  1   
 29  11  12  1   
 30  11  38  1   
 31  11  39  1   
 32  12  40  1   
 33  12  41  1   
 34  13  14  1   
 35  13  42  1   
 36  13  43  1   
 37  14  15  2   
 38  14  16  1   
 39  15  17  1   
 40  15  18  1   
 41  16  19  2   
 42  16  44  1   
 43  17  20  2   
 44  18  19  1   
 45  18  21  1   
 46  20  22  1   
 47  20  45  1   
 48  21  22  2   
 49  21  46  1   
 50  22  47  1   
@<TRIPOS>SUBSTRUCTURE
  1 ****  10 GROUP 4 **** **** 0

# MOE 2024.06 (io_trps.svl 2023.06)
