@<TRIPOS>MOLECULE
NONAME
50 52 1 0 0 
SMALL
USER_CHARGES


@<TRIPOS>ATOM
  1 O        3.5190     1.7470     1.9310 O.co2 1 <1>  -0.9000 
  2 C        2.8220     0.8240     1.4840 C.2   1 <1>   0.9060 
  3 O        2.8030    -0.2810     2.0250 O.co2 1 <1>  -0.9000 
  4 C        2.2200     0.9540     0.0720 C.3   1 <1>  -0.1060 
  5 C        3.0590    -0.0440    -0.7580 C.3   1 <1>   0.2000 
  6 C        2.4270     2.3840    -0.5320 C.3   1 <1>  -0.1600 
  7 C        0.7140     0.5700     0.0700 C.3   1 <1>  -0.1600 
  8 O        2.6800     0.0170    -2.1010 O.3   1 <1>  -0.6800 
  9 C        4.5690     0.2980    -0.6450 C.3   1 <1>   0.3430 
 10 C        3.8260     2.6220    -1.1330 C.3   1 <1>   0.3430 
 11 C       -0.1510     1.4750     0.9620 C.3   1 <1>  -0.1600 
 12 N        4.8160     1.7690    -0.4280 N.4   1 <1>  -0.9590 
 13 C       -1.6160     1.0310     0.9350 C.3   1 <1>  -0.2400 
 14 C        6.2300     2.1670    -0.5660 C.3   1 <1>   0.4860 
 15 C        6.3910     3.6470    -0.2680 C.ar  1 <1>  -0.1440 
 16 C        5.9560     4.1790     0.9290 C.ar  1 <1>  -0.1500 
 17 C        6.9810     4.4800    -1.2310 C.ar  1 <1>  -0.1500 
 18 C        6.1020     5.5470     1.1710 C.ar  1 <1>   0.0000 
 19 C        7.1320     5.8280    -1.0010 C.ar  1 <1>  -0.1500 
 20 C        6.6870     6.3650     0.2100 C.ar  1 <1>  -0.1520 
 21 C        5.7660     6.3810     2.2560 C.2   1 <1>  -0.1500 
 22 N        6.7110     7.6520     0.6930 N.pl3 1 <1>   0.0480 
 23 C        6.1460     7.6410     1.9370 C.2   1 <1>  -0.3020 
 24 C        7.2510     8.8310    -0.0020 C.3   1 <1>   0.0160 
 25 H        2.8980    -1.0550    -0.4210 H     1 <1>   0.0800 
 26 H        2.2460     3.1260     0.2270 H     1 <1>   0.0800 
 27 H        1.7110     2.5620    -1.3130 H     1 <1>   0.0800 
 28 H        0.3260     0.6020    -0.9320 H     1 <1>   0.0800 
 29 H        0.6190    -0.4440     0.4250 H     1 <1>   0.0800 
 30 H        1.7350    -0.2240    -2.1760 H     1 <1>   0.4000 
 31 H        5.0680    -0.0460    -1.5340 H     1 <1>   0.0800 
 32 H        4.9670    -0.2380     0.2010 H     1 <1>   0.0800 
 33 H        4.0800     3.6650    -1.0370 H     1 <1>   0.0800 
 34 H        3.8160     2.3620    -2.1790 H     1 <1>   0.0800 
 35 H        0.2060     1.4320     1.9780 H     1 <1>   0.0800 
 36 H       -0.0900     2.4970     0.6320 H     1 <1>   0.0800 
 37 H        4.5650     1.9250     0.5840 H     1 <1>   0.4500 
 38 H       -1.7070     0.0210     1.2940 H     1 <1>   0.0800 
 39 H       -2.0100     1.0840    -0.0650 H     1 <1>   0.0800 
 40 H       -2.2040     1.6710     1.5700 H     1 <1>   0.0800 
 41 H        6.8340     1.6000     0.1230 H     1 <1>   0.0800 
 42 H        6.5670     1.9620    -1.5680 H     1 <1>   0.0800 
 43 H        5.4950     3.5740     1.6940 H     1 <1>   0.1500 
 44 H        7.3230     4.0650    -2.1630 H     1 <1>   0.1500 
 45 H        7.5850     6.4690    -1.7360 H     1 <1>   0.1500 
 46 H        5.2910     6.0320     3.1560 H     1 <1>   0.1500 
 47 H        6.0470     8.5360     2.5260 H     1 <1>   0.1500 
 48 H        7.1430     9.6980     0.6230 H     1 <1>   0.0800 
 49 H        6.7110     8.9780    -0.9190 H     1 <1>   0.0800 
 50 H        8.2910     8.6690    -0.2150 H     1 <1>   0.0800 
@<TRIPOS>BOND
  1   1   2  ar  
  2   2   3  ar  
  3   2   4  1   
  4   4   5  1   
  5   4   6  1   
  6   4   7  1   
  7   5   8  1   
  8   5   9  1   
  9   5  25  1   
 10   6  10  1   
 11   6  26  1   
 12   6  27  1   
 13   7  11  1   
 14   7  28  1   
 15   7  29  1   
 16   8  30  1   
 17   9  12  1   
 18   9  31  1   
 19   9  32  1   
 20  10  12  1   
 21  10  33  1   
 22  10  34  1   
 23  11  13  1   
 24  11  35  1   
 25  11  36  1   
 26  12  14  1   
 27  12  37  1   
 28  13  38  1   
 29  13  39  1   
 30  13  40  1   
 31  14  15  1   
 32  14  41  1   
 33  14  42  1   
 34  15  16  ar  
 35  15  17  ar  
 36  16  18  ar  
 37  16  43  1   
 38  17  19  ar  
 39  17  44  1   
 40  18  20  ar  
 41  18  21  1   
 42  19  20  ar  
 43  19  45  1   
 44  20  22  1   
 45  21  23  2   
 46  21  46  1   
 47  22  23  1   
 48  22  24  1   
 49  23  47  1   
 50  24  48  1   
 51  24  49  1   
 52  24  50  1   
@<TRIPOS>SUBSTRUCTURE
  1 ****  10 GROUP 4 **** **** 0

# MOE 2024.06 (io_trps.svl 2023.06)
