@<TRIPOS>MOLECULE
NONAME
45 46 1 0 0 
SMALL
USER_CHARGES


@<TRIPOS>ATOM
  1 O       -0.0760     0.7950    -0.6000 O.co2 1 <1>  -0.9000 
  2 C       -0.6990     1.3760     0.2910 C.2   1 <1>   0.9060 
  3 O       -1.2400     0.8140     1.2420 O.co2 1 <1>  -0.9000 
  4 C       -0.8120     2.8640     0.2150 C.3   1 <1>  -0.1860 
  5 C       -2.2880     3.2620     0.2210 C.3   1 <1>   0.2000 
  6 C       -0.1320     3.3480    -1.0490 C.3   1 <1>   0.3430 
  7 O       -2.6210     3.4890     1.5340 O.3   1 <1>  -0.6800 
  8 C       -2.5640     4.5440    -0.5690 C.3   1 <1>  -0.1600 
  9 N       -0.1430     4.8550    -1.1060 N.4   1 <1>  -0.9590 
 10 C       -1.3620     5.4740    -0.4670 C.3   1 <1>   0.3430 
 11 C        1.1090     5.3670    -0.4890 C.3   1 <1>   0.3430 
 12 C        1.3160     6.8400    -0.8310 C.3   1 <1>  -0.1600 
 13 C        2.6390     7.3400    -0.2540 C.3   1 <1>   0.1200 
 14 O        2.7570     8.6970    -0.5960 O.3   1 <1>  -0.3630 
 15 C        3.8360     9.4260    -0.2080 C.ar  1 <1>   0.0830 
 16 C        3.8540    10.7590    -0.5870 C.ar  1 <1>  -0.1500 
 17 C        4.8970     8.9100     0.5320 C.ar  1 <1>  -0.1500 
 18 C        4.9120    11.5790    -0.2360 C.ar  1 <1>  -0.1500 
 19 C        5.9550     9.7300     0.8820 C.ar  1 <1>  -0.1500 
 20 C        5.9730    11.0630     0.5040 C.ar  1 <1>   0.0830 
 21 O        7.0510    11.7920     0.8920 O.3   1 <1>  -0.3620 
 22 C        7.1630    13.1570     0.5580 C.3   1 <1>   0.0400 
 23 H       -0.2910     3.2610     1.0660 H     1 <1>   0.0800 
 24 H       -2.9150     2.4610    -0.1420 H     1 <1>   0.0800 
 25 H       -0.6640     2.9390    -1.8930 H     1 <1>   0.0800 
 26 H        0.8760     2.9660    -1.0870 H     1 <1>   0.0800 
 27 H       -2.4640     2.6400     2.0170 H     1 <1>   0.4000 
 28 H       -2.7450     4.3070    -1.6020 H     1 <1>   0.0800 
 29 H       -3.4470     5.0250    -0.1860 H     1 <1>   0.0800 
 30 H       -0.1380     5.1050    -2.1020 H     1 <1>   0.4500 
 31 H       -1.1720     5.6490     0.5810 H     1 <1>   0.0800 
 32 H       -1.5840     6.4210    -0.9320 H     1 <1>   0.0800 
 33 H        1.0660     5.2370     0.5810 H     1 <1>   0.0800 
 34 H        1.9480     4.8000    -0.8600 H     1 <1>   0.0800 
 35 H        0.5240     7.4350    -0.4140 H     1 <1>   0.0800 
 36 H        1.3400     6.9650    -1.8990 H     1 <1>   0.0800 
 37 H        3.4760     6.8110    -0.6800 H     1 <1>   0.0800 
 38 H        2.6510     7.2610     0.8200 H     1 <1>   0.0800 
 39 H        3.0330    11.1530    -1.1580 H     1 <1>   0.1500 
 40 H        4.9230     7.8850     0.8450 H     1 <1>   0.1500 
 41 H        4.8930    12.6060    -0.5460 H     1 <1>   0.1500 
 42 H        6.7790     9.3420     1.4540 H     1 <1>   0.1500 
 43 H        8.0880    13.5260     0.9650 H     1 <1>   0.0800 
 44 H        6.3350    13.6920     0.9890 H     1 <1>   0.0800 
 45 H        7.1720    13.2540    -0.5130 H     1 <1>   0.0800 
@<TRIPOS>BOND
  1   1   2  ar  
  2   2   3  ar  
  3   2   4  1   
  4   4   5  1   
  5   4   6  1   
  6   4  23  1   
  7   5   7  1   
  8   5   8  1   
  9   5  24  1   
 10   6   9  1   
 11   6  25  1   
 12   6  26  1   
 13   7  27  1   
 14   8  10  1   
 15   8  28  1   
 16   8  29  1   
 17   9  10  1   
 18   9  11  1   
 19   9  30  1   
 20  10  31  1   
 21  10  32  1   
 22  11  12  1   
 23  11  33  1   
 24  11  34  1   
 25  12  13  1   
 26  12  35  1   
 27  12  36  1   
 28  13  14  1   
 29  13  37  1   
 30  13  38  1   
 31  14  15  1   
 32  15  16  ar  
 33  15  17  ar  
 34  16  18  ar  
 35  16  39  1   
 36  17  19  ar  
 37  17  40  1   
 38  18  20  ar  
 39  18  41  1   
 40  19  20  ar  
 41  19  42  1   
 42  20  21  1   
 43  21  22  1   
 44  22  43  1   
 45  22  44  1   
 46  22  45  1   
@<TRIPOS>SUBSTRUCTURE
  1 ****  12 GROUP 4 **** **** 0

# MOE 2024.06 (io_trps.svl 2023.06)
