@<TRIPOS>MOLECULE
NONAME
51 53 1 0 0 
SMALL
USER_CHARGES


@<TRIPOS>ATOM
  1 O        0.3240     0.1520     0.7810 O.2   1 <1>  -0.5700 
  2 C        0.3000    -1.0550     0.8470 C.2   1 <1>   0.5690 
  3 N       -0.8180    -1.6760     1.2920 N.am  1 <1>  -0.7300 
  4 C        1.5550    -1.8780     0.4450 C.3   1 <1>   0.2510 
  5 C       -0.9310    -3.1460     1.4180 C.3   1 <1>   0.1400 
  6 N        1.4250    -3.3680     0.6000 N.3   1 <1>  -0.8100 
  7 C        2.7590    -1.3880     1.2720 C.3   1 <1>  -0.0990 
  8 C        0.0280    -3.8420     0.4390 C.3   1 <1>   0.1100 
  9 C        2.4270    -4.1180    -0.1880 C.3   1 <1>   0.1900 
 10 C        3.5260    -0.3270     0.5170 C.2   1 <1>   0.5690 
 11 C        2.0270    -4.2980    -1.6560 C.3   1 <1>  -0.2400 
 12 C        2.6850    -5.4650     0.4810 C.3   1 <1>  -0.2400 
 13 O        4.5800    -0.6380     0.0190 O.2   1 <1>  -0.5700 
 14 N        2.9870     0.9230     0.4190 N.am  1 <1>  -0.4940 
 15 C        3.4420     2.0770    -0.2640 C.2   1 <1>  -0.0880 
 16 N        4.7130     2.5730    -0.3560 N.pl3 1 <1>   0.3140 
 17 C        2.6460     2.9270    -0.9530 C.2   1 <1>  -0.1500 
 18 N        4.7240     3.7190    -1.0950 N.2   1 <1>  -0.7070 
 19 C        5.9370     2.0430     0.3310 C.3   1 <1>   0.1760 
 20 C        3.4920     3.9100    -1.4430 C.2   1 <1>   0.1390 
 21 C        6.7750     3.1490     0.9850 C.3   1 <1>  -0.1600 
 22 C        6.9050     1.3980    -0.6650 C.3   1 <1>  -0.1600 
 23 C        7.8150     3.5880    -0.0540 C.3   1 <1>  -0.1600 
 24 C        7.8070     2.5290    -1.1620 C.3   1 <1>  -0.1600 
 25 H       -1.5990    -1.0950     1.6020 H     1 <1>   0.3700 
 26 H        1.7340    -1.6670    -0.5950 H     1 <1>   0.0800 
 27 H       -1.9410    -3.4480     1.2040 H     1 <1>   0.0800 
 28 H       -0.6920    -3.4400     2.4260 H     1 <1>   0.0800 
 29 H        3.4320    -2.1940     1.4940 H     1 <1>   0.0800 
 30 H        2.4280    -0.9870     2.2120 H     1 <1>   0.0800 
 31 H       -0.3130    -3.6530    -0.5640 H     1 <1>   0.0800 
 32 H       -0.0210    -4.9020     0.6140 H     1 <1>   0.0800 
 33 H        3.3590    -3.5780    -0.1740 H     1 <1>   0.0800 
 34 H        1.1860    -4.9600    -1.7570 H     1 <1>   0.0800 
 35 H        2.8490    -4.7330    -2.1950 H     1 <1>   0.0800 
 36 H        1.8000    -3.3520    -2.1110 H     1 <1>   0.0800 
 37 H        1.8280    -6.1080     0.4150 H     1 <1>   0.0800 
 38 H        2.9410    -5.3160     1.5150 H     1 <1>   0.0800 
 39 H        3.5100    -5.9570    -0.0020 H     1 <1>   0.0800 
 40 H        1.9980     0.9720     0.7080 H     1 <1>   0.3700 
 41 H        1.5840     2.8710    -1.1040 H     1 <1>   0.1500 
 42 H        5.6260     1.3370     1.0760 H     1 <1>   0.0800 
 43 H        3.1710     4.7440    -2.0440 H     1 <1>   0.1500 
 44 H        7.2900     2.7320     1.8320 H     1 <1>   0.0800 
 45 H        6.1650     3.9700     1.3220 H     1 <1>   0.0800 
 46 H        6.3880     0.9000    -1.4670 H     1 <1>   0.0800 
 47 H        7.5040     0.6760    -0.1400 H     1 <1>   0.0800 
 48 H        8.7890     3.6720     0.3960 H     1 <1>   0.0800 
 49 H        7.5390     4.5430    -0.4690 H     1 <1>   0.0800 
 50 H        7.3770     2.9570    -2.0530 H     1 <1>   0.0800 
 51 H        8.7980     2.1750    -1.3880 H     1 <1>   0.0800 
@<TRIPOS>BOND
  1   1   2  2   
  2   2   3  am  
  3   2   4  1   
  4   3   5  1   
  5   3  25  1   
  6   4   6  1   
  7   4   7  1   
  8   4  26  1   
  9   5   8  1   
 10   5  27  1   
 11   5  28  1   
 12   6   8  1   
 13   6   9  1   
 14   7  10  1   
 15   7  29  1   
 16   7  30  1   
 17   8  31  1   
 18   8  32  1   
 19   9  11  1   
 20   9  12  1   
 21   9  33  1   
 22  10  13  2   
 23  10  14  am  
 24  11  34  1   
 25  11  35  1   
 26  11  36  1   
 27  12  37  1   
 28  12  38  1   
 29  12  39  1   
 30  14  15  1   
 31  14  40  1   
 32  15  16  1   
 33  15  17  2   
 34  16  18  1   
 35  16  19  1   
 36  17  20  1   
 37  17  41  1   
 38  18  20  2   
 39  19  21  1   
 40  19  22  1   
 41  19  42  1   
 42  20  43  1   
 43  21  23  1   
 44  21  44  1   
 45  21  45  1   
 46  22  24  1   
 47  22  46  1   
 48  22  47  1   
 49  23  24  1   
 50  23  48  1   
 51  23  49  1   
 52  24  50  1   
 53  24  51  1   
@<TRIPOS>SUBSTRUCTURE
  1 ****  10 GROUP 4 **** **** 0

# MOE 2024.06 (io_trps.svl 2023.06)
