@<TRIPOS>MOLECULE
NONAME
58 61 1 0 0 
SMALL
USER_CHARGES


@<TRIPOS>ATOM
  1 O       -0.6160    -0.1450    -1.3870 O.2   1 <1>  -0.5700 
  2 C       -1.3660     0.4850    -0.6750 C.2   1 <1>   0.5690 
  3 N       -2.5180    -0.1110    -0.2140 N.am  1 <1>  -0.6600 
  4 C       -0.9270     1.9280    -0.2910 C.3   1 <1>   0.2040 
  5 C       -3.5660     0.4470     0.6830 C.3   1 <1>   0.1400 
  6 C       -2.8890    -1.4960    -0.6030 C.3   1 <1>   0.1400 
  7 C       -2.1300     2.9080    -0.3060 C.ar  1 <1>  -0.1440 
  8 C        0.1230     2.4580    -1.3070 C.3   1 <1>  -0.1600 
  9 C       -0.1940     1.8580     1.0730 C.3   1 <1>  -0.1600 
 10 C       -4.5190    -0.7120     0.9890 C.3   1 <1>   0.2000 
 11 C       -3.8220    -1.9820     0.5060 C.3   1 <1>  -0.0800 
 12 C       -2.6080     3.5780     0.8200 C.ar  1 <1>  -0.1500 
 13 C       -2.7970     3.1160    -1.5100 C.ar  1 <1>  -0.1500 
 14 C        0.6730     3.8140    -0.8910 C.3   1 <1>   0.3430 
 15 C        0.4910     3.1700     1.4770 C.3   1 <1>   0.3430 
 16 O       -4.7730    -0.8090     2.3490 O.3   1 <1>  -0.6800 
 17 C       -4.8140    -3.0690     0.0600 C.3   1 <1>  -0.0160 
 18 C       -3.6800     4.4490     0.7330 C.ar  1 <1>  -0.1500 
 19 C       -3.8690     3.9860    -1.6000 C.ar  1 <1>  -0.1500 
 20 N        1.3990     3.6500     0.3980 N.4   1 <1>  -0.9590 
 21 C       -4.0970    -4.3230    -0.4120 C.ar  1 <1>   0.1670 
 22 C       -4.3090     4.6590    -0.4780 C.ar  1 <1>  -0.1500 
 23 C        2.0680     4.9260     0.7910 C.3   1 <1>   0.2630 
 24 N       -3.6930    -4.3280    -1.6730 N.ar  1 <1>  -0.6200 
 25 C       -3.8970    -5.3730     0.4710 C.ar  1 <1>  -0.1500 
 26 C       -3.0610    -5.4210    -2.0690 C.ar  1 <1>   0.1600 
 27 C       -3.2380    -6.5070     0.0450 C.ar  1 <1>  -0.1500 
 28 C       -2.8110    -6.5200    -1.2650 C.ar  1 <1>  -0.1500 
 29 H       -3.1220     0.8280     1.5840 H     1 <1>   0.0800 
 30 H       -4.1090     1.2260     0.1760 H     1 <1>   0.0800 
 31 H       -3.4010    -1.4710    -1.5500 H     1 <1>   0.0800 
 32 H       -2.0220    -2.1300    -0.6900 H     1 <1>   0.0800 
 33 H       -0.3050     2.5390    -2.2880 H     1 <1>   0.0800 
 34 H        0.9470     1.7720    -1.3950 H     1 <1>   0.0800 
 35 H        0.5550     1.0860     1.0270 H     1 <1>   0.0800 
 36 H       -0.8840     1.5620     1.8420 H     1 <1>   0.0800 
 37 H       -5.4560    -0.5540     0.4810 H     1 <1>   0.0800 
 38 H       -3.1980    -2.3740     1.2890 H     1 <1>   0.0800 
 39 H       -2.1870     3.4370     1.7960 H     1 <1>   0.1500 
 40 H       -2.5040     2.5920    -2.4040 H     1 <1>   0.1500 
 41 H       -0.1360     4.5210    -0.7820 H     1 <1>   0.0800 
 42 H        1.3460     4.1780    -1.6520 H     1 <1>   0.0800 
 43 H        1.0520     3.0140     2.3850 H     1 <1>   0.0800 
 44 H       -0.2510     3.9260     1.6720 H     1 <1>   0.0800 
 45 H       -3.9660    -1.0790     2.8270 H     1 <1>   0.4000 
 46 H       -5.4330    -2.7000    -0.7400 H     1 <1>   0.0800 
 47 H       -5.4630    -3.3160     0.8820 H     1 <1>   0.0800 
 48 H       -4.0350     4.9620     1.6110 H     1 <1>   0.1500 
 49 H       -4.3660     4.1340    -2.5430 H     1 <1>   0.1500 
 50 H        2.1230     2.9300     0.2520 H     1 <1>   0.4500 
 51 H       -5.1430     5.3370    -0.5460 H     1 <1>   0.1500 
 52 H        1.3360     5.7030     0.9440 H     1 <1>   0.0800 
 53 H        2.7510     5.2440     0.0190 H     1 <1>   0.0800 
 54 H        2.6250     4.7920     1.7050 H     1 <1>   0.0800 
 55 H       -4.2510    -5.3080     1.4830 H     1 <1>   0.1500 
 56 H       -2.7230    -5.4420    -3.0910 H     1 <1>   0.1500 
 57 H       -3.0650    -7.3400     0.7030 H     1 <1>   0.1500 
 58 H       -2.2890    -7.3710    -1.6630 H     1 <1>   0.1500 
@<TRIPOS>BOND
  1   1   2  2   
  2   2   3  am  
  3   2   4  1   
  4   3   5  1   
  5   3   6  1   
  6   4   7  1   
  7   4   8  1   
  8   4   9  1   
  9   5  10  1   
 10   5  29  1   
 11   5  30  1   
 12   6  11  1   
 13   6  31  1   
 14   6  32  1   
 15   7  12  ar  
 16   7  13  ar  
 17   8  14  1   
 18   8  33  1   
 19   8  34  1   
 20   9  15  1   
 21   9  35  1   
 22   9  36  1   
 23  10  11  1   
 24  10  16  1   
 25  10  37  1   
 26  11  17  1   
 27  11  38  1   
 28  12  18  ar  
 29  12  39  1   
 30  13  19  ar  
 31  13  40  1   
 32  14  20  1   
 33  14  41  1   
 34  14  42  1   
 35  15  20  1   
 36  15  43  1   
 37  15  44  1   
 38  16  45  1   
 39  17  21  1   
 40  17  46  1   
 41  17  47  1   
 42  18  22  ar  
 43  18  48  1   
 44  19  22  ar  
 45  19  49  1   
 46  20  23  1   
 47  20  50  1   
 48  21  24  ar  
 49  21  25  ar  
 50  22  51  1   
 51  23  52  1   
 52  23  53  1   
 53  23  54  1   
 54  24  26  ar  
 55  25  27  ar  
 56  25  55  1   
 57  26  28  ar  
 58  26  56  1   
 59  27  28  ar  
 60  27  57  1   
 61  28  58  1   
@<TRIPOS>SUBSTRUCTURE
  1 ****   3 GROUP 4 **** **** 0

# MOE 2024.06 (io_trps.svl 2023.06)
