@<TRIPOS>MOLECULE
NONAME
52 55 1 0 0 
SMALL
USER_CHARGES


@<TRIPOS>ATOM
  1 O       -0.4710     0.7720    -1.9060 O.2   1 <1>  -0.5700 
  2 C       -0.1030     1.6840    -1.1810 C.2   1 <1>   0.5440 
  3 N       -1.0220     2.3790    -0.4160 N.am  1 <1>  -0.2370 
  4 C        1.2810     2.0540    -1.1030 C.ar  1 <1>   0.0860 
  5 C       -2.3980     2.0440    -0.4920 C.ar  1 <1>   0.1170 
  6 C       -0.5590     3.3740     0.4390 C.2   1 <1>   0.4490 
  7 C        1.6240     3.0890    -0.2290 C.ar  1 <1>   0.1790 
  8 C        2.2920     1.4390    -1.8490 C.ar  1 <1>  -0.1500 
  9 C       -3.0210     1.2930     0.5080 C.ar  1 <1>   0.0830 
 10 C       -3.1640     2.4670    -1.5730 C.ar  1 <1>  -0.1500 
 11 N        0.6690     3.7280     0.5320 N.2   1 <1>  -0.6290 
 12 C       -1.5730     4.1170     1.3210 C.3   1 <1>   0.1710 
 13 C        2.9530     3.4830    -0.1180 C.ar  1 <1>  -0.1500 
 14 C        3.6060     1.8400    -1.7310 C.ar  1 <1>  -0.1500 
 15 O       -2.3110     0.8570     1.5720 O.3   1 <1>  -0.3620 
 16 C       -4.3730     1.0030     0.4420 C.ar  1 <1>  -0.1500 
 17 C       -4.5140     2.1690    -1.6470 C.ar  1 <1>  -0.1500 
 18 N       -2.4910     4.9990     0.5490 N.3   1 <1>  -0.8100 
 19 C        3.9400     2.8680    -0.8610 C.ar  1 <1>  -0.1500 
 20 C       -1.6700    -0.3870     1.4070 C.3   1 <1>   0.1200 
 21 C       -5.1210     1.4410    -0.6370 C.ar  1 <1>  -0.1500 
 22 C       -3.7130     5.3140     1.3070 C.3   1 <1>   0.1100 
 23 C       -1.8030     6.2050     0.0500 C.3   1 <1>   0.1100 
 24 C       -0.5840    -0.5010     2.4710 C.3   1 <1>  -0.2400 
 25 C       -4.6860     6.1460     0.4500 C.3   1 <1>   0.3430 
 26 C       -2.7510     7.0580    -0.8160 C.3   1 <1>   0.3430 
 27 N       -4.0240     7.3830    -0.0880 N.4   1 <1>  -0.9060 
 28 H        2.0310     0.6410    -2.5240 H     1 <1>   0.1500 
 29 H       -2.6930     3.0250    -2.3620 H     1 <1>   0.1500 
 30 H       -1.0380     4.7030     2.0480 H     1 <1>   0.0800 
 31 H       -2.1410     3.3870     1.8700 H     1 <1>   0.0800 
 32 H        3.2010     4.2780     0.5610 H     1 <1>   0.1500 
 33 H        4.3750     1.3590    -2.3120 H     1 <1>   0.1500 
 34 H       -4.8320     0.4330     1.2300 H     1 <1>   0.1500 
 35 H       -5.0920     2.4950    -2.4950 H     1 <1>   0.1500 
 36 H        4.9660     3.1810    -0.7680 H     1 <1>   0.1500 
 37 H       -1.2420    -0.4360     0.4200 H     1 <1>   0.0800 
 38 H       -2.4080    -1.1630     1.5170 H     1 <1>   0.0800 
 39 H       -6.1710     1.2060    -0.6950 H     1 <1>   0.1500 
 40 H       -3.4650     5.8450     2.2100 H     1 <1>   0.0800 
 41 H       -4.2010     4.3940     1.5850 H     1 <1>   0.0800 
 42 H       -0.9560     5.9140    -0.5490 H     1 <1>   0.0800 
 43 H       -1.4340     6.7900     0.8760 H     1 <1>   0.0800 
 44 H        0.1360     0.2890     2.3490 H     1 <1>   0.0800 
 45 H       -0.0770    -1.4430     2.3720 H     1 <1>   0.0800 
 46 H       -1.0180    -0.4460     3.4530 H     1 <1>   0.0800 
 47 H       -5.5460     6.4120     1.0420 H     1 <1>   0.0800 
 48 H       -5.0220     5.5290    -0.3680 H     1 <1>   0.0800 
 49 H       -2.9780     6.5010    -1.7110 H     1 <1>   0.0800 
 50 H       -2.2480     7.9660    -1.1090 H     1 <1>   0.0800 
 51 H       -3.8040     8.0060     0.6970 H     1 <1>   0.4500 
 52 H       -4.6690     7.8820    -0.7120 H     1 <1>   0.4500 
@<TRIPOS>BOND
  1   1   2  2   
  2   2   3  am  
  3   2   4  1   
  4   3   5  1   
  5   3   6  1   
  6   4   7  ar  
  7   4   8  ar  
  8   5   9  ar  
  9   5  10  ar  
 10   6  11  2   
 11   6  12  1   
 12   7  11  1   
 13   7  13  ar  
 14   8  14  ar  
 15   8  28  1   
 16   9  15  1   
 17   9  16  ar  
 18  10  17  ar  
 19  10  29  1   
 20  12  18  1   
 21  12  30  1   
 22  12  31  1   
 23  13  19  ar  
 24  13  32  1   
 25  14  19  ar  
 26  14  33  1   
 27  15  20  1   
 28  16  21  ar  
 29  16  34  1   
 30  17  21  ar  
 31  17  35  1   
 32  18  22  1   
 33  18  23  1   
 34  19  36  1   
 35  20  24  1   
 36  20  37  1   
 37  20  38  1   
 38  21  39  1   
 39  22  25  1   
 40  22  40  1   
 41  22  41  1   
 42  23  26  1   
 43  23  42  1   
 44  23  43  1   
 45  24  44  1   
 46  24  45  1   
 47  24  46  1   
 48  25  27  1   
 49  25  47  1   
 50  25  48  1   
 51  26  27  1   
 52  26  49  1   
 53  26  50  1   
 54  27  51  1   
 55  27  52  1   
@<TRIPOS>SUBSTRUCTURE
  1 ****   3 GROUP 4 **** **** 0

# MOE 2024.06 (io_trps.svl 2023.06)
