@<TRIPOS>MOLECULE
NONAME
52 54 1 0 0 
SMALL
USER_CHARGES


@<TRIPOS>ATOM
  1 O        3.5210     1.5980     2.2230 O.co2 1 <1>  -0.9000 
  2 C        3.0730     0.5100     1.8600 C.2   1 <1>   0.9060 
  3 O        3.5250    -0.5440     2.3150 O.co2 1 <1>  -0.9000 
  4 C        2.2430     0.4500     0.5620 C.3   1 <1>  -0.1060 
  5 C        3.1230    -0.3500    -0.4170 C.3   1 <1>   0.4230 
  6 C        2.0200     1.8680    -0.0590 C.3   1 <1>  -0.1600 
  7 C        0.8580    -0.2180     0.7670 C.3   1 <1>  -0.1600 
  8 N        3.1930    -1.7960     0.0140 N.4   1 <1>  -0.9590 
  9 C        4.5230     0.3530    -0.5350 C.3   1 <1>   0.3430 
 10 C        3.2540     2.5210    -0.7140 C.3   1 <1>   0.3430 
 11 C        0.9610    -1.7210     1.0610 C.3   1 <1>  -0.1600 
 12 C        1.8550    -2.4480     0.0570 C.3   1 <1>   0.3430 
 13 C        4.1990    -2.6590    -0.6690 C.3   1 <1>   0.2630 
 14 N        4.5010     1.8400    -0.2690 N.4   1 <1>  -0.9590 
 15 C        5.7760     2.5320    -0.6170 C.3   1 <1>   0.4860 
 16 C        5.6420     4.0380    -0.4680 C.ar  1 <1>  -0.1430 
 17 C        5.7580     4.6740     0.7660 C.ar  1 <1>  -0.1430 
 18 C        5.3960     4.7920    -1.6090 C.ar  1 <1>  -0.1500 
 19 C        5.6080     6.0510     0.8340 C.ar  1 <1>  -0.1500 
 20 C        6.0600     3.9280     2.0650 C.3   1 <1>  -0.0170 
 21 C        5.2490     6.1640    -1.5280 C.ar  1 <1>  -0.1500 
 22 C        5.3520     6.7940    -0.3030 C.ar  1 <1>  -0.1500 
 23 C        7.5710     3.8380     2.2930 C.3   1 <1>  -0.2400 
 24 H        2.6560    -0.3140    -1.3860 H     1 <1>   0.0800 
 25 H        1.6620     2.5310     0.7120 H     1 <1>   0.0800 
 26 H        1.2460     1.8390    -0.8050 H     1 <1>   0.0800 
 27 H        0.3430     0.2690     1.5810 H     1 <1>   0.0800 
 28 H        0.2550    -0.0930    -0.1160 H     1 <1>   0.0800 
 29 H        3.4610    -1.7020     1.0340 H     1 <1>   0.4500 
 30 H        4.9150     0.1700    -1.5210 H     1 <1>   0.0800 
 31 H        5.1830    -0.1000     0.1870 H     1 <1>   0.0800 
 32 H        3.2800     3.5630    -0.4330 H     1 <1>   0.0800 
 33 H        3.1750     2.4660    -1.7870 H     1 <1>   0.0800 
 34 H       -0.0230    -2.1570     1.0360 H     1 <1>   0.0800 
 35 H        1.3460    -1.8770     2.0550 H     1 <1>   0.0800 
 36 H        1.4020    -2.4250    -0.9200 H     1 <1>   0.0800 
 37 H        1.9580    -3.4770     0.3630 H     1 <1>   0.0800 
 38 H        3.9720    -2.7460    -1.7190 H     1 <1>   0.0800 
 39 H        4.1940    -3.6450    -0.2320 H     1 <1>   0.0800 
 40 H        5.1890    -2.2490    -0.5530 H     1 <1>   0.0800 
 41 H        4.4170     1.9410     0.7810 H     1 <1>   0.4500 
 42 H        6.5670     2.1830     0.0270 H     1 <1>   0.0800 
 43 H        6.0470     2.3080    -1.6340 H     1 <1>   0.0800 
 44 H        5.3170     4.3240    -2.5750 H     1 <1>   0.1500 
 45 H        5.6930     6.5560     1.7810 H     1 <1>   0.1500 
 46 H        5.6080     4.4470     2.8930 H     1 <1>   0.0800 
 47 H        5.6410     2.9410     2.0620 H     1 <1>   0.0800 
 48 H        5.0570     6.7450    -2.4140 H     1 <1>   0.1500 
 49 H        5.2390     7.8620    -0.2330 H     1 <1>   0.1500 
 50 H        7.9940     4.8240     2.3550 H     1 <1>   0.0800 
 51 H        8.0470     3.3080     1.4880 H     1 <1>   0.0800 
 52 H        7.7710     3.3200     3.2150 H     1 <1>   0.0800 
@<TRIPOS>BOND
  1   1   2  ar  
  2   2   3  ar  
  3   2   4  1   
  4   4   5  1   
  5   4   6  1   
  6   4   7  1   
  7   5   8  1   
  8   5   9  1   
  9   5  24  1   
 10   6  10  1   
 11   6  25  1   
 12   6  26  1   
 13   7  11  1   
 14   7  27  1   
 15   7  28  1   
 16   8  12  1   
 17   8  13  1   
 18   8  29  1   
 19   9  14  1   
 20   9  30  1   
 21   9  31  1   
 22  10  14  1   
 23  10  32  1   
 24  10  33  1   
 25  11  12  1   
 26  11  34  1   
 27  11  35  1   
 28  12  36  1   
 29  12  37  1   
 30  13  38  1   
 31  13  39  1   
 32  13  40  1   
 33  14  15  1   
 34  14  41  1   
 35  15  16  1   
 36  15  42  1   
 37  15  43  1   
 38  16  17  ar  
 39  16  18  ar  
 40  17  19  ar  
 41  17  20  1   
 42  18  21  ar  
 43  18  44  1   
 44  19  22  ar  
 45  19  45  1   
 46  20  23  1   
 47  20  46  1   
 48  20  47  1   
 49  21  22  ar  
 50  21  48  1   
 51  22  49  1   
 52  23  50  1   
 53  23  51  1   
 54  23  52  1   
@<TRIPOS>SUBSTRUCTURE
  1 ****  14 GROUP 4 **** **** 0

# MOE 2024.06 (io_trps.svl 2023.06)
