@<TRIPOS>MOLECULE
NONAME
45 46 1 0 0 
SMALL
USER_CHARGES


@<TRIPOS>ATOM
  1 O        0.8570    -0.7440     2.3230 O.2   1 <1>  -0.5700 
  2 C        1.5930    -1.0290     1.4080 C.2   1 <1>   0.5690 
  3 N        2.2240    -0.1030     0.6210 N.am  1 <1>  -0.4940 
  4 C        1.8490    -2.5130     1.1110 C.3   1 <1>   0.1710 
  5 C        2.2640     1.3140     0.6400 C.2   1 <1>  -0.0880 
  6 N        0.9590    -3.1390     0.0940 N.3   1 <1>  -0.8100 
  7 N        1.3290     2.1920     1.1070 N.pl3 1 <1>   0.3140 
  8 C        3.2740     2.0690     0.1430 C.2   1 <1>  -0.1810 
  9 C       -0.4470    -3.1350     0.5470 C.3   1 <1>   0.2530 
 10 C        1.1070    -2.5490    -1.2460 C.3   1 <1>   0.0300 
 11 N        1.7180     3.4710     0.9160 N.2   1 <1>  -0.7070 
 12 C        0.0000     1.9270     1.6730 C.3   1 <1>   0.0160 
 13 C        2.8750     3.3870     0.3450 C.2   1 <1>   0.1080 
 14 C        4.5720     1.6010    -0.4930 C.3   1 <1>   0.0210 
 15 C       -1.3100    -4.0250    -0.3380 C.ar  1 <1>  -0.1430 
 16 C        3.6620     4.6210    -0.0370 C.3   1 <1>  -0.0590 
 17 C        4.3950     1.4210    -2.0020 C.3   1 <1>  -0.2400 
 18 C       -2.4900    -3.5800    -0.8990 C.ar  1 <1>  -0.1500 
 19 C       -0.9570    -5.3290    -0.6210 C.ar  1 <1>  -0.1500 
 20 C       -3.2360    -4.4360    -1.6930 C.ar  1 <1>   0.1600 
 21 C       -1.7730    -6.1030    -1.4280 C.ar  1 <1>   0.1600 
 22 N       -2.9070    -5.6870    -1.9720 N.ar  1 <1>  -0.6200 
 23 H        2.8360    -0.5070    -0.0860 H     1 <1>   0.3700 
 24 H        1.7460    -3.0540     2.0350 H     1 <1>   0.0800 
 25 H        2.8700    -2.6300     0.7950 H     1 <1>   0.0800 
 26 H       -0.8300    -2.1290     0.5470 H     1 <1>   0.0800 
 27 H       -0.4980    -3.5100     1.5550 H     1 <1>   0.0800 
 28 H        2.1420    -2.5570    -1.5410 H     1 <1>   0.0800 
 29 H        0.7370    -1.5380    -1.2630 H     1 <1>   0.0800 
 30 H        0.5540    -3.1290    -1.9660 H     1 <1>   0.0800 
 31 H       -0.4650     1.1270     1.1310 H     1 <1>   0.0800 
 32 H       -0.6000     2.8140     1.5920 H     1 <1>   0.0800 
 33 H        0.1080     1.6600     2.7070 H     1 <1>   0.0800 
 34 H        4.8750     0.6700    -0.0490 H     1 <1>   0.0800 
 35 H        5.3490     2.3200    -0.3000 H     1 <1>   0.0800 
 36 H        4.0460     4.5220    -1.0340 H     1 <1>   0.0800 
 37 H        4.4750     4.7560     0.6510 H     1 <1>   0.0800 
 38 H        3.0240     5.4850     0.0050 H     1 <1>   0.0800 
 39 H        3.6260     0.6970    -2.2040 H     1 <1>   0.0800 
 40 H        5.3150     1.0870    -2.4470 H     1 <1>   0.0800 
 41 H        4.1110     2.3540    -2.4550 H     1 <1>   0.0800 
 42 H       -2.8370    -2.5780    -0.7280 H     1 <1>   0.1500 
 43 H       -0.0470    -5.7400    -0.2210 H     1 <1>   0.1500 
 44 H       -4.1540    -4.0730    -2.1220 H     1 <1>   0.1500 
 45 H       -1.4770    -7.1160    -1.6380 H     1 <1>   0.1500 
@<TRIPOS>BOND
  1   1   2  2   
  2   2   3  am  
  3   2   4  1   
  4   3   5  1   
  5   3  23  1   
  6   4   6  1   
  7   4  24  1   
  8   4  25  1   
  9   5   7  1   
 10   5   8  2   
 11   6   9  1   
 12   6  10  1   
 13   7  11  1   
 14   7  12  1   
 15   8  13  1   
 16   8  14  1   
 17   9  15  1   
 18   9  26  1   
 19   9  27  1   
 20  10  28  1   
 21  10  29  1   
 22  10  30  1   
 23  11  13  2   
 24  12  31  1   
 25  12  32  1   
 26  12  33  1   
 27  13  16  1   
 28  14  17  1   
 29  14  34  1   
 30  14  35  1   
 31  15  18  ar  
 32  15  19  ar  
 33  16  36  1   
 34  16  37  1   
 35  16  38  1   
 36  17  39  1   
 37  17  40  1   
 38  17  41  1   
 39  18  20  ar  
 40  18  42  1   
 41  19  21  ar  
 42  19  43  1   
 43  20  22  ar  
 44  20  44  1   
 45  21  22  ar  
 46  21  45  1   
@<TRIPOS>SUBSTRUCTURE
  1 ****   2 GROUP 4 **** **** 0

# MOE 2024.06 (io_trps.svl 2023.06)
