@<TRIPOS>MOLECULE
NONAME
47 49 1 0 0 
SMALL
USER_CHARGES


@<TRIPOS>ATOM
  1 O       -0.5620     0.4080     0.2180 O.2   1 <1>  -0.5700 
  2 C       -1.5740     1.0710     0.2110 C.2   1 <1>   0.5690 
  3 N       -2.8050     0.5050    -0.0240 N.am  1 <1>  -0.6600 
  4 C       -1.4440     2.5650     0.4680 C.3   1 <1>  -0.0990 
  5 C       -4.0870     1.2720     0.0600 C.3   1 <1>   0.2200 
  6 C       -2.8900    -0.9460    -0.3840 C.3   1 <1>   0.0600 
  7 C        0.0080     3.0400     0.4640 C.3   1 <1>   0.1200 
  8 C       -5.2300     0.5480     0.7710 C.3   1 <1>  -0.1600 
  9 C       -4.6510     1.6140    -1.3150 C.3   1 <1>  -0.1600 
 10 O        0.0140     4.4340     0.6750 O.3   1 <1>  -0.3620 
 11 C       -6.4940     1.2690     0.2840 C.3   1 <1>  -0.0800 
 12 C       -6.1300     1.9330    -1.0570 C.3   1 <1>  -0.0800 
 13 C        1.1770     5.1320     0.7150 C.ar  1 <1>   0.0820 
 14 C       -6.9550     2.3980     1.2160 C.3   1 <1>  -0.1600 
 15 C       -6.4110     3.4340    -0.8890 C.3   1 <1>  -0.1600 
 16 C        2.4340     4.5510     0.5640 C.ar  1 <1>  -0.1500 
 17 C        1.0780     6.4990     0.9180 C.ar  1 <1>  -0.1500 
 18 C       -7.3830     3.5150     0.2770 C.3   1 <1>   0.2000 
 19 C        3.5710     5.3390     0.6180 C.ar  1 <1>  -0.1500 
 20 C        2.2160     7.2850     0.9720 C.ar  1 <1>  -0.1500 
 21 O       -7.2730     4.7340     0.9060 O.3   1 <1>  -0.6800 
 22 C        3.4640     6.7040     0.8210 C.ar  1 <1>  -0.1500 
 23 H       -1.9750     3.0950    -0.2990 H     1 <1>   0.0800 
 24 H       -1.8760     2.7840     1.4260 H     1 <1>   0.0800 
 25 H       -3.9330     2.1950     0.5910 H     1 <1>   0.0800 
 26 H       -3.6350    -1.1060    -1.1420 H     1 <1>   0.0800 
 27 H       -3.1400    -1.5200     0.4900 H     1 <1>   0.0800 
 28 H       -1.9470    -1.2990    -0.7650 H     1 <1>   0.0800 
 29 H        0.4710     2.8340    -0.4860 H     1 <1>   0.0800 
 30 H        0.5640     2.5690     1.2580 H     1 <1>   0.0800 
 31 H       -5.2970    -0.4760     0.4560 H     1 <1>   0.0800 
 32 H       -5.1220     0.5830     1.8400 H     1 <1>   0.0800 
 33 H       -4.1250     2.4330    -1.7710 H     1 <1>   0.0800 
 34 H       -4.5910     0.7560    -1.9610 H     1 <1>   0.0800 
 35 H       -7.3000     0.5670     0.1420 H     1 <1>   0.0800 
 36 H       -6.7460     1.5350    -1.8470 H     1 <1>   0.0800 
 37 H       -6.1360     2.7330     1.8290 H     1 <1>   0.0800 
 38 H       -7.7690     2.0830     1.8430 H     1 <1>   0.0800 
 39 H       -6.8390     3.8550    -1.7810 H     1 <1>   0.0800 
 40 H       -5.5040     3.9580    -0.6420 H     1 <1>   0.0800 
 41 H        2.5480     3.4950     0.4060 H     1 <1>   0.1500 
 42 H        0.1060     6.9420     1.0340 H     1 <1>   0.1500 
 43 H       -8.4000     3.3770    -0.0530 H     1 <1>   0.0800 
 44 H        4.5410     4.8890     0.5010 H     1 <1>   0.1500 
 45 H        2.1310     8.3460     1.1300 H     1 <1>   0.1500 
 46 H       -6.3570     4.8740     1.2080 H     1 <1>   0.4000 
 47 H        4.3490     7.3140     0.8630 H     1 <1>   0.1500 
@<TRIPOS>BOND
  1   1   2  2   
  2   2   3  am  
  3   2   4  1   
  4   3   5  1   
  5   3   6  1   
  6   4   7  1   
  7   4  23  1   
  8   4  24  1   
  9   5   8  1   
 10   5   9  1   
 11   5  25  1   
 12   6  26  1   
 13   6  27  1   
 14   6  28  1   
 15   7  10  1   
 16   7  29  1   
 17   7  30  1   
 18   8  11  1   
 19   8  31  1   
 20   8  32  1   
 21   9  12  1   
 22   9  33  1   
 23   9  34  1   
 24  10  13  1   
 25  11  12  1   
 26  11  14  1   
 27  11  35  1   
 28  12  15  1   
 29  12  36  1   
 30  13  16  ar  
 31  13  17  ar  
 32  14  18  1   
 33  14  37  1   
 34  14  38  1   
 35  15  18  1   
 36  15  39  1   
 37  15  40  1   
 38  16  19  ar  
 39  16  41  1   
 40  17  20  ar  
 41  17  42  1   
 42  18  21  1   
 43  18  43  1   
 44  19  22  ar  
 45  19  44  1   
 46  20  22  ar  
 47  20  45  1   
 48  21  46  1   
 49  22  47  1   
@<TRIPOS>SUBSTRUCTURE
  1 ****   4 GROUP 4 **** **** 0

# MOE 2024.06 (io_trps.svl 2023.06)
