@<TRIPOS>MOLECULE
NONAME
52 54 1 0 0 
SMALL
USER_CHARGES


@<TRIPOS>ATOM
  1 S       -2.0310     1.2460     1.8300 S.3   1 <1>  -0.3320 
  2 C       -0.8890     1.4830     0.4610 C.ar  1 <1>   0.1020 
  3 C       -3.4530     0.3670     1.0610 C.3   1 <1>   0.1500 
  4 C       -1.1500     2.3880    -0.5620 C.ar  1 <1>  -0.1440 
  5 C        0.2550     0.7050     0.4650 C.ar  1 <1>  -0.1500 
  6 C       -4.5190     0.1880     2.1420 C.3   1 <1>  -0.1600 
  7 C       -2.9520    -0.9790     0.5310 C.3   1 <1>  -0.1600 
  8 C       -0.2430     2.4720    -1.6080 C.ar  1 <1>  -0.1500 
  9 C       -2.3680     3.3020    -0.5740 C.3   1 <1>  -0.0970 
 10 C        1.1510     0.8040    -0.5840 C.ar  1 <1>  -0.1500 
 11 C       -5.6570    -0.7000     1.6490 C.3   1 <1>   0.3430 
 12 C       -4.1120    -1.8500     0.0630 C.3   1 <1>   0.3430 
 13 C        0.8970     1.6850    -1.6220 C.ar  1 <1>  -0.1500 
 14 N       -5.1060    -1.9990     1.1680 N.4   1 <1>  -0.9590 
 15 C       -6.1830    -3.0050     0.8190 C.3   1 <1>   0.4040 
 16 C       -5.6580    -4.4500     0.7540 C.2   1 <1>   0.5690 
 17 O       -4.6270    -4.6700     1.3480 O.2   1 <1>  -0.5700 
 18 N       -6.3440    -5.3930     0.0400 N.am  1 <1>  -0.4930 
 19 C       -6.0010    -6.7570    -0.1610 C.2   1 <1>   0.0630 
 20 C       -6.7140    -7.6970    -0.9120 C.2   1 <1>   0.1080 
 21 C       -4.9410    -7.4440     0.3120 C.2   1 <1>  -0.3020 
 22 N       -6.1460    -8.8610    -0.9060 N.2   1 <1>  -0.7070 
 23 C       -8.0020    -7.4460    -1.6650 C.3   1 <1>  -0.0590 
 24 N       -5.0490    -8.7070    -0.1490 N.pl3 1 <1>   0.3140 
 25 C       -4.1240    -9.8150     0.1150 C.3   1 <1>   0.0160 
 26 H       -3.8160     0.9860     0.2600 H     1 <1>   0.0800 
 27 H        0.4410     0.0280     1.2790 H     1 <1>   0.1500 
 28 H       -4.9100     1.1520     2.4180 H     1 <1>   0.0800 
 29 H       -4.0800    -0.2500     3.0220 H     1 <1>   0.0800 
 30 H       -2.4040    -1.4980     1.2990 H     1 <1>   0.0800 
 31 H       -2.2830    -0.8160    -0.2950 H     1 <1>   0.0800 
 32 H       -0.4150     3.1580    -2.4200 H     1 <1>   0.1500 
 33 H       -2.6380     3.5950     0.4240 H     1 <1>   0.0800 
 34 H       -3.2000     2.8070    -1.0380 H     1 <1>   0.0800 
 35 H       -2.1550     4.1990    -1.1280 H     1 <1>   0.0800 
 36 H        2.0430     0.2010    -0.5930 H     1 <1>   0.1500 
 37 H       -6.1790    -0.2040     0.8460 H     1 <1>   0.0800 
 38 H       -6.3530    -0.8670     2.4560 H     1 <1>   0.0800 
 39 H       -3.7310    -2.8180    -0.2270 H     1 <1>   0.0800 
 40 H       -4.5800    -1.3960    -0.7960 H     1 <1>   0.0800 
 41 H        1.5920     1.7630    -2.4400 H     1 <1>   0.1500 
 42 H       -4.5800    -2.4420     1.9440 H     1 <1>   0.4500 
 43 H       -6.6280    -2.7480    -0.1260 H     1 <1>   0.0800 
 44 H       -6.9520    -2.9760     1.5730 H     1 <1>   0.0800 
 45 H       -7.2220    -5.1390    -0.4110 H     1 <1>   0.3700 
 46 H       -4.1330    -7.1170     0.9380 H     1 <1>   0.1500 
 47 H       -7.8470    -6.7000    -2.4200 H     1 <1>   0.0800 
 48 H       -8.7700    -7.1270    -0.9850 H     1 <1>   0.0800 
 49 H       -8.3230    -8.3550    -2.1420 H     1 <1>   0.0800 
 50 H       -3.1200    -9.4960    -0.0930 H     1 <1>   0.0800 
 51 H       -4.3790   -10.6430    -0.5200 H     1 <1>   0.0800 
 52 H       -4.2120   -10.1090     1.1430 H     1 <1>   0.0800 
@<TRIPOS>BOND
  1   1   2  1   
  2   1   3  1   
  3   2   4  ar  
  4   2   5  ar  
  5   3   6  1   
  6   3   7  1   
  7   3  26  1   
  8   4   8  ar  
  9   4   9  1   
 10   5  10  ar  
 11   5  27  1   
 12   6  11  1   
 13   6  28  1   
 14   6  29  1   
 15   7  12  1   
 16   7  30  1   
 17   7  31  1   
 18   8  13  ar  
 19   8  32  1   
 20   9  33  1   
 21   9  34  1   
 22   9  35  1   
 23  10  13  ar  
 24  10  36  1   
 25  11  14  1   
 26  11  37  1   
 27  11  38  1   
 28  12  14  1   
 29  12  39  1   
 30  12  40  1   
 31  13  41  1   
 32  14  15  1   
 33  14  42  1   
 34  15  16  1   
 35  15  43  1   
 36  15  44  1   
 37  16  17  2   
 38  16  18  am  
 39  18  19  1   
 40  18  45  1   
 41  19  20  1   
 42  19  21  2   
 43  20  22  2   
 44  20  23  1   
 45  21  24  1   
 46  21  46  1   
 47  22  24  1   
 48  23  47  1   
 49  23  48  1   
 50  23  49  1   
 51  24  25  1   
 52  25  50  1   
 53  25  51  1   
 54  25  52  1   
@<TRIPOS>SUBSTRUCTURE
  1 ****  12 GROUP 4 **** **** 0

# MOE 2024.06 (io_trps.svl 2023.06)
