@<TRIPOS>MOLECULE
NONAME
51 53 1 0 0 
SMALL
USER_CHARGES


@<TRIPOS>ATOM
  1 O        1.2760    -0.2110     3.2250 O.2   1 <1>  -0.5700 
  2 C        1.8100    -0.7740     2.2990 C.2   1 <1>   0.5690 
  3 N        2.8730    -0.2240     1.6590 N.am  1 <1>  -0.7300 
  4 C        1.2840    -2.1390     1.8330 C.3   1 <1>   0.1710 
  5 C        3.2370     1.1970     1.7260 C.3   1 <1>   0.2840 
  6 N        0.6480    -2.1470     0.4830 N.3   1 <1>  -0.8100 
  7 C        3.5510     1.6330     0.3030 C.ar  1 <1>  -0.1430 
  8 C        1.5520    -1.9270    -0.6540 C.3   1 <1>   0.1100 
  9 C       -0.0790    -3.3950     0.1920 C.3   1 <1>   0.1100 
 10 C        2.5490     1.9760    -0.6020 C.ar  1 <1>  -0.1430 
 11 C        4.8780     1.6630    -0.1020 C.ar  1 <1>  -0.1500 
 12 C        0.7360    -2.3810    -1.8570 C.3   1 <1>   0.2000 
 13 C        0.0100    -3.6180    -1.3300 C.3   1 <1>  -0.0800 
 14 C        2.8950     2.3410    -1.8940 C.ar  1 <1>  -0.1500 
 15 C        1.0740     1.9660    -0.2150 C.3   1 <1>  -0.0970 
 16 C        5.2130     2.0290    -1.3930 C.ar  1 <1>  -0.1500 
 17 O       -0.2090    -1.4030    -2.1010 O.3   1 <1>  -0.6800 
 18 C        0.7830    -4.9030    -1.6820 C.3   1 <1>   0.0210 
 19 C        4.2190     2.3680    -2.2910 C.ar  1 <1>  -0.1500 
 20 C        0.1220    -6.1450    -1.1130 C.2   1 <1>   0.1080 
 21 N       -1.0970    -6.4850    -1.3930 N.2   1 <1>  -0.7070 
 22 C        0.7320    -7.0460    -0.2460 C.2   1 <1>  -0.1500 
 23 N       -1.3000    -7.6260    -0.7080 N.pl3 1 <1>   0.3000 
 24 C       -0.2060    -7.9860    -0.0040 C.2   1 <1>  -0.3320 
 25 C       -0.1240    -9.2270     0.8650 C.3   1 <1>  -0.0600 
 26 H        3.2270    -0.6790     0.8190 H     1 <1>   0.3700 
 27 H        0.5510    -2.4550     2.5550 H     1 <1>   0.0800 
 28 H        2.0920    -2.8470     1.8580 H     1 <1>   0.0800 
 29 H        2.4270     1.7770     2.1370 H     1 <1>   0.0800 
 30 H        4.0960     1.3180     2.3610 H     1 <1>   0.0800 
 31 H        1.8410    -0.8940    -0.7500 H     1 <1>   0.0800 
 32 H        2.4290    -2.5430    -0.5560 H     1 <1>   0.0800 
 33 H        0.3590    -4.2220     0.7260 H     1 <1>   0.0800 
 34 H       -1.1060    -3.2930     0.4980 H     1 <1>   0.0800 
 35 H        5.6620     1.3990     0.5870 H     1 <1>   0.1500 
 36 H        1.3120    -2.5410    -2.7510 H     1 <1>   0.0800 
 37 H       -0.9750    -3.6950    -1.7570 H     1 <1>   0.0800 
 38 H        2.1310     2.6080    -2.6040 H     1 <1>   0.1500 
 39 H        0.4490     2.1310    -1.0740 H     1 <1>   0.0800 
 40 H        0.8770     2.7420     0.5010 H     1 <1>   0.0800 
 41 H        0.7980     1.0200     0.2140 H     1 <1>   0.0800 
 42 H        6.2450     2.0520    -1.6980 H     1 <1>   0.1500 
 43 H       -0.5970    -1.1770    -1.2280 H     1 <1>   0.4000 
 44 H        1.7920    -4.8420    -1.3160 H     1 <1>   0.0800 
 45 H        0.8230    -5.0090    -2.7510 H     1 <1>   0.0800 
 46 H        4.4740     2.6540    -3.2960 H     1 <1>   0.1500 
 47 H        1.7360    -6.9850     0.1320 H     1 <1>   0.1500 
 48 H       -2.1910    -8.1350    -0.7470 H     1 <1>   0.2700 
 49 H        0.8490    -9.2980     1.3190 H     1 <1>   0.0800 
 50 H       -0.2880   -10.1090     0.2710 H     1 <1>   0.0800 
 51 H       -0.8630    -9.1860     1.6450 H     1 <1>   0.0800 
@<TRIPOS>BOND
  1   1   2  2   
  2   2   3  am  
  3   2   4  1   
  4   3   5  1   
  5   3  26  1   
  6   4   6  1   
  7   4  27  1   
  8   4  28  1   
  9   5   7  1   
 10   5  29  1   
 11   5  30  1   
 12   6   8  1   
 13   6   9  1   
 14   7  10  ar  
 15   7  11  ar  
 16   8  12  1   
 17   8  31  1   
 18   8  32  1   
 19   9  13  1   
 20   9  33  1   
 21   9  34  1   
 22  10  14  ar  
 23  10  15  1   
 24  11  16  ar  
 25  11  35  1   
 26  12  13  1   
 27  12  17  1   
 28  12  36  1   
 29  13  18  1   
 30  13  37  1   
 31  14  19  ar  
 32  14  38  1   
 33  15  39  1   
 34  15  40  1   
 35  15  41  1   
 36  16  19  ar  
 37  16  42  1   
 38  17  43  1   
 39  18  20  1   
 40  18  44  1   
 41  18  45  1   
 42  19  46  1   
 43  20  21  2   
 44  20  22  1   
 45  21  23  1   
 46  22  24  2   
 47  22  47  1   
 48  23  24  1   
 49  23  48  1   
 50  24  25  1   
 51  25  49  1   
 52  25  50  1   
 53  25  51  1   
@<TRIPOS>SUBSTRUCTURE
  1 ****   8 GROUP 4 **** **** 0

# MOE 2024.06 (io_trps.svl 2023.06)
