@<TRIPOS>MOLECULE
NONAME
52 54 1 0 0 
SMALL
USER_CHARGES


@<TRIPOS>ATOM
  1 O        1.7930     0.5240     0.1940 O.2   1 <1>  -0.5700 
  2 C        2.8950     0.0260     0.0690 C.2   1 <1>   0.7150 
  3 N        3.6190     0.2880    -1.0800 N.am  1 <1>  -0.6600 
  4 C        3.4020    -0.8360     1.0960 C.2   1 <1>  -0.2370 
  5 C        4.8300    -0.4980    -1.4720 C.3   1 <1>   0.1400 
  6 C        3.0990     1.1990    -2.1400 C.3   1 <1>   0.1400 
  7 N        2.6860    -1.8580     1.6300 N.pl3 1 <1>   0.3140 
  8 C        4.5970    -0.8580     1.7530 C.2   1 <1>  -0.1500 
  9 C        6.1430     0.2560    -1.1860 C.3   1 <1>   0.3430 
 10 C        3.8810     2.5160    -2.1620 C.3   1 <1>  -0.1600 
 11 N        3.3830    -2.5390     2.5510 N.2   1 <1>  -0.7070 
 12 C        1.3020    -2.2420     1.3040 C.3   1 <1>   0.0160 
 13 C        4.5230    -1.9250     2.6270 C.2   1 <1>   0.1390 
 14 N        5.9840     1.7440    -1.1510 N.4   1 <1>  -0.9590 
 15 C        5.3910     2.3640    -2.3570 C.3   1 <1>   0.3430 
 16 C        7.2310     2.3930    -0.6780 C.3   1 <1>   0.5230 
 17 C        7.2420     2.2420     0.8330 C.2   1 <1>   0.0070 
 18 N        6.1660     2.3720     1.5460 N.2   1 <1>  -0.5650 
 19 N        8.3480     1.9410     1.5580 N.pl3 1 <1>   0.0480 
 20 C        6.5880     2.1570     2.8060 C.2   1 <1>   0.0770 
 21 C        7.9100     1.8890     2.8290 C.2   1 <1>  -0.3020 
 22 C        9.7410     1.7100     1.1140 C.3   1 <1>   0.0960 
 23 C        9.9470     0.2740     0.6220 C.3   1 <1>   0.1200 
 24 O        9.1260     0.0140    -0.4810 O.3   1 <1>  -0.5600 
 25 C        9.3830    -1.2320    -1.0570 C.3   1 <1>   0.0400 
 26 H        4.7810    -0.7220    -2.5240 H     1 <1>   0.0800 
 27 H        4.8490    -1.4450    -0.9610 H     1 <1>   0.0800 
 28 H        2.0560     1.4160    -1.9740 H     1 <1>   0.0800 
 29 H        3.1670     0.7120    -3.0980 H     1 <1>   0.0800 
 30 H        5.4340    -0.1950     1.6530 H     1 <1>   0.1500 
 31 H        6.8800    -0.0200    -1.9210 H     1 <1>   0.0800 
 32 H        6.5150    -0.0730    -0.2290 H     1 <1>   0.0800 
 33 H        3.6790     3.0670    -1.2590 H     1 <1>   0.0800 
 34 H        3.4980     3.1070    -2.9750 H     1 <1>   0.0800 
 35 H        1.2130    -2.3950     0.2460 H     1 <1>   0.0800 
 36 H        0.6390    -1.4570     1.6160 H     1 <1>   0.0800 
 37 H        1.0550    -3.1490     1.8240 H     1 <1>   0.0800 
 38 H        5.3070    -2.2260     3.3030 H     1 <1>   0.1500 
 39 H        5.3310     1.9220    -0.3610 H     1 <1>   0.4500 
 40 H        5.8140     3.3440    -2.5050 H     1 <1>   0.0800 
 41 H        5.6020     1.7690    -3.2310 H     1 <1>   0.0800 
 42 H        7.2200     3.4430    -0.9170 H     1 <1>   0.0800 
 43 H        8.0950     1.9350    -1.1270 H     1 <1>   0.0800 
 44 H        5.9080     2.2070     3.6430 H     1 <1>   0.1500 
 45 H        8.5440     1.6740     3.6720 H     1 <1>   0.1500 
 46 H       10.3970     1.8960     1.9460 H     1 <1>   0.0800 
 47 H        9.9920     2.4050     0.3340 H     1 <1>   0.0800 
 48 H        9.7120    -0.4280     1.4060 H     1 <1>   0.0800 
 49 H       10.9750     0.1420     0.3270 H     1 <1>   0.0800 
 50 H        8.7340    -1.3630    -1.9040 H     1 <1>   0.0800 
 51 H        9.1950    -2.0070    -0.3320 H     1 <1>   0.0800 
 52 H       10.4080    -1.2710    -1.3860 H     1 <1>   0.0800 
@<TRIPOS>BOND
  1   1   2  2   
  2   2   3  am  
  3   2   4  1   
  4   3   5  1   
  5   3   6  1   
  6   4   7  1   
  7   4   8  2   
  8   5   9  1   
  9   5  26  1   
 10   5  27  1   
 11   6  10  1   
 12   6  28  1   
 13   6  29  1   
 14   7  11  1   
 15   7  12  1   
 16   8  13  1   
 17   8  30  1   
 18   9  14  1   
 19   9  31  1   
 20   9  32  1   
 21  10  15  1   
 22  10  33  1   
 23  10  34  1   
 24  11  13  2   
 25  12  35  1   
 26  12  36  1   
 27  12  37  1   
 28  13  38  1   
 29  14  15  1   
 30  14  16  1   
 31  14  39  1   
 32  15  40  1   
 33  15  41  1   
 34  16  17  1   
 35  16  42  1   
 36  16  43  1   
 37  17  18  2   
 38  17  19  1   
 39  18  20  1   
 40  19  21  1   
 41  19  22  1   
 42  20  21  2   
 43  20  44  1   
 44  21  45  1   
 45  22  23  1   
 46  22  46  1   
 47  22  47  1   
 48  23  24  1   
 49  23  48  1   
 50  23  49  1   
 51  24  25  1   
 52  25  50  1   
 53  25  51  1   
 54  25  52  1   
@<TRIPOS>SUBSTRUCTURE
  1 ****   9 GROUP 4 **** **** 0

# MOE 2024.06 (io_trps.svl 2023.06)
