@<TRIPOS>MOLECULE
NONAME
42 44 1 0 0 
SMALL
USER_CHARGES


@<TRIPOS>ATOM
  1 S        2.6390     1.5390    -1.1100 S.3   1 <1>  -0.3320 
  2 C        1.3820     2.6180    -0.4080 C.ar  1 <1>   0.1020 
  3 C        1.7470     0.2400    -2.0750 C.3   1 <1>  -0.0100 
  4 C        1.8330     3.6350     0.4100 C.ar  1 <1>  -0.1500 
  5 C        0.0310     2.4580    -0.6670 C.ar  1 <1>  -0.1500 
  6 C        0.9300     4.5260     0.9700 C.ar  1 <1>  -0.1430 
  7 C       -0.8730     3.3370    -0.0950 C.ar  1 <1>  -0.1500 
  8 C       -0.4270     4.3670     0.7190 C.ar  1 <1>  -0.1500 
  9 C        1.4410     5.6600     1.8310 C.3   1 <1>   0.4860 
 10 N        2.0040     6.6870     0.9180 N.4   1 <1>  -0.9590 
 11 C        2.9930     7.5520     1.5980 C.3   1 <1>   0.5230 
 12 C        0.9250     7.4690     0.2290 C.3   1 <1>   0.2630 
 13 C        3.6170     8.4580     0.5700 C.2   1 <1>  -0.3320 
 14 N        4.4410     8.0560    -0.4230 N.pl3 1 <1>   0.2940 
 15 C        3.4920     9.7990     0.4520 C.2   1 <1>   0.0770 
 16 C        4.7550     9.1960    -1.0790 C.2   1 <1>   0.0360 
 17 C        4.9060     6.6790    -0.7230 C.3   1 <1>  -0.0910 
 18 N        4.1990    10.2580    -0.5900 N.2   1 <1>  -0.5650 
 19 C        5.2630     6.3010    -2.1300 C.3   1 <1>  -0.2000 
 20 C        4.0270     5.7410    -1.5030 C.3   1 <1>  -0.2000 
 21 H        2.4860    -0.4290    -2.4790 H     1 <1>   0.0800 
 22 H        1.2020     0.7250    -2.8650 H     1 <1>   0.0800 
 23 H        1.0880    -0.2810    -1.4040 H     1 <1>   0.0800 
 24 H        2.8890     3.7070     0.5970 H     1 <1>   0.1500 
 25 H       -0.3280     1.6690    -1.2990 H     1 <1>   0.1500 
 26 H       -1.9270     3.2160    -0.2850 H     1 <1>   0.1500 
 27 H       -1.1540     5.0340     1.1520 H     1 <1>   0.1500 
 28 H        2.2060     5.2800     2.4890 H     1 <1>   0.0800 
 29 H        0.6440     6.0730     2.4280 H     1 <1>   0.0800 
 30 H        2.5130     6.1690     0.1880 H     1 <1>   0.4500 
 31 H        3.7590     6.9540     2.0660 H     1 <1>   0.0800 
 32 H        2.5070     8.1450     2.3570 H     1 <1>   0.0800 
 33 H        0.3510     8.0330     0.9450 H     1 <1>   0.0800 
 34 H        0.2620     6.8030    -0.3010 H     1 <1>   0.0800 
 35 H        1.3550     8.1550    -0.4840 H     1 <1>   0.0800 
 36 H        2.9250    10.4820     1.0660 H     1 <1>   0.1500 
 37 H        5.4110     9.1980    -1.9310 H     1 <1>   0.1500 
 38 H        5.5380     6.2910     0.0580 H     1 <1>   0.1000 
 39 H        6.0880     5.6290    -2.2990 H     1 <1>   0.1000 
 40 H        5.1440     7.0070    -2.9340 H     1 <1>   0.1000 
 41 H        3.0930     6.0680    -1.9280 H     1 <1>   0.1000 
 42 H        4.0420     4.6800    -1.3170 H     1 <1>   0.1000 
@<TRIPOS>BOND
  1   1   2  1   
  2   1   3  1   
  3   2   4  ar  
  4   2   5  ar  
  5   3  21  1   
  6   3  22  1   
  7   3  23  1   
  8   4   6  ar  
  9   4  24  1   
 10   5   7  ar  
 11   5  25  1   
 12   6   8  ar  
 13   6   9  1   
 14   7   8  ar  
 15   7  26  1   
 16   8  27  1   
 17   9  10  1   
 18   9  28  1   
 19   9  29  1   
 20  10  11  1   
 21  10  12  1   
 22  10  30  1   
 23  11  13  1   
 24  11  31  1   
 25  11  32  1   
 26  12  33  1   
 27  12  34  1   
 28  12  35  1   
 29  13  14  1   
 30  13  15  2   
 31  14  16  1   
 32  14  17  1   
 33  15  18  1   
 34  15  36  1   
 35  16  18  2   
 36  16  37  1   
 37  17  19  1   
 38  17  20  1   
 39  17  38  1   
 40  19  20  1   
 41  19  39  1   
 42  19  40  1   
 43  20  41  1   
 44  20  42  1   
@<TRIPOS>SUBSTRUCTURE
  1 ****  10 GROUP 4 **** **** 0

# MOE 2024.06 (io_trps.svl 2023.06)
