@<TRIPOS>MOLECULE
NONAME
39 40 1 0 0 
SMALL
USER_CHARGES


@<TRIPOS>ATOM
  1 S       -1.6290    -0.2270     0.7190 S.3   1 <1>  -0.0800 
  2 C       -1.4000    -0.9710    -0.8290 C.2   1 <1>   0.4420 
  3 C       -1.0440     1.2420     0.0190 C.2   1 <1>   0.1980 
  4 N       -0.9410    -0.1480    -1.7000 N.2   1 <1>  -0.3380 
  5 N       -1.7290    -2.3020    -0.9260 N.am  1 <1>  -0.4940 
  6 N       -0.7400     1.1130    -1.2090 N.2   1 <1>  -0.3380 
  7 C       -0.9650     2.4630     0.9140 C.3   1 <1>   0.0200 
  8 C       -1.6680    -3.1680    -1.9820 C.2   1 <1>   0.7160 
  9 C       -0.4320     3.6770     0.1560 C.3   1 <1>   0.1200 
 10 O       -1.2730    -2.8080    -3.0720 O.2   1 <1>  -0.5700 
 11 C       -2.0970    -4.5360    -1.7490 C.2   1 <1>   0.1410 
 12 O       -0.3890     4.7510     1.0380 O.3   1 <1>  -0.5600 
 13 N       -2.5480    -4.9180    -0.4710 N.2   1 <1>  -0.5650 
 14 C       -2.1120    -5.5300    -2.6630 C.2   1 <1>  -0.1100 
 15 C        0.0820     5.9250     0.4680 C.3   1 <1>   0.1200 
 16 C       -2.8880    -6.1450    -0.4240 C.2   1 <1>   0.1980 
 17 S       -2.6990    -6.9920    -1.9440 S.3   1 <1>  -0.0800 
 18 C        0.0690     6.9970     1.5510 C.3   1 <1>  -0.2400 
 19 C       -3.4280    -6.9590     0.7510 C.3   1 <1>   0.1000 
 20 C       -4.9510    -7.1130     0.6440 C.3   1 <1>  -0.2400 
 21 C       -3.0610    -6.3250     2.1000 C.3   1 <1>  -0.2400 
 22 H       -2.0810    -2.7550    -0.0830 H     1 <1>   0.3700 
 23 H       -0.3130     2.2490     1.7400 H     1 <1>   0.0800 
 24 H       -1.9480     2.6850     1.2890 H     1 <1>   0.0800 
 25 H       -1.0840     3.9240    -0.6660 H     1 <1>   0.0800 
 26 H        0.5620     3.4850    -0.2110 H     1 <1>   0.0800 
 27 H       -1.8320    -5.5410    -3.7010 H     1 <1>   0.1500 
 28 H       -0.5650     6.2010    -0.3480 H     1 <1>   0.0800 
 29 H        1.0830     5.7610     0.1070 H     1 <1>   0.0800 
 30 H       -0.9330     7.1420     1.9130 H     1 <1>   0.0800 
 31 H        0.4280     7.9260     1.1480 H     1 <1>   0.0800 
 32 H        0.7060     6.7050     2.3660 H     1 <1>   0.0800 
 33 H       -2.9790    -7.9370     0.7100 H     1 <1>   0.0800 
 34 H       -5.4250    -6.1480     0.6670 H     1 <1>   0.0800 
 35 H       -5.3270    -7.7050     1.4600 H     1 <1>   0.0800 
 36 H       -5.2120    -7.6010    -0.2780 H     1 <1>   0.0800 
 37 H       -3.5060    -5.3500     2.1910 H     1 <1>   0.0800 
 38 H       -1.9930    -6.2210     2.1780 H     1 <1>   0.0800 
 39 H       -3.4060    -6.9400     2.9120 H     1 <1>   0.0800 
@<TRIPOS>BOND
  1   1   2  1   
  2   1   3  1   
  3   2   4  2   
  4   2   5  1   
  5   3   6  2   
  6   3   7  1   
  7   4   6  1   
  8   5   8  am  
  9   5  22  1   
 10   7   9  1   
 11   7  23  1   
 12   7  24  1   
 13   8  10  2   
 14   8  11  1   
 15   9  12  1   
 16   9  25  1   
 17   9  26  1   
 18  11  13  1   
 19  11  14  2   
 20  12  15  1   
 21  13  16  2   
 22  14  17  1   
 23  14  27  1   
 24  15  18  1   
 25  15  28  1   
 26  15  29  1   
 27  16  17  1   
 28  16  19  1   
 29  18  30  1   
 30  18  31  1   
 31  18  32  1   
 32  19  20  1   
 33  19  21  1   
 34  19  33  1   
 35  20  34  1   
 36  20  35  1   
 37  20  36  1   
 38  21  37  1   
 39  21  38  1   
 40  21  39  1   
@<TRIPOS>SUBSTRUCTURE
  1 ****   2 GROUP 4 **** **** 0

# MOE 2024.06 (io_trps.svl 2023.06)
