@<TRIPOS>MOLECULE
NONAME
45 47 1 0 0 
SMALL
USER_CHARGES


@<TRIPOS>ATOM
  1 CL      -1.6500    -0.7180     1.6690 Cl    1 <1>  -0.1770 
  2 C       -2.3560     0.4590     0.5880 C.ar  1 <1>   0.1770 
  3 C       -3.0030     0.0260    -0.5640 C.ar  1 <1>  -0.1440 
  4 C       -2.2620     1.8020     0.9180 C.ar  1 <1>  -0.1500 
  5 C       -3.5720     0.9750    -1.4050 C.ar  1 <1>  -0.1500 
  6 C       -3.0810    -1.4520    -0.8930 C.3   1 <1>   0.4870 
  7 C       -2.8290     2.7470     0.0800 C.ar  1 <1>  -0.1500 
  8 C       -3.4740     2.3130    -1.0640 C.ar  1 <1>   0.1900 
  9 N       -4.0200    -2.1130     0.0490 N.4   1 <1>  -0.9590 
 10 F       -4.0140     3.1980    -1.8560 F     1 <1>  -0.1900 
 11 C       -5.4110    -1.6060    -0.0630 C.3   1 <1>   0.3430 
 12 C       -4.0900    -3.5880    -0.1170 C.3   1 <1>   0.3430 
 13 C       -6.2680    -2.6900     0.5770 C.3   1 <1>  -0.0800 
 14 C       -5.5170    -4.0010     0.2600 C.3   1 <1>  -0.0800 
 15 C       -7.7550    -2.6460     0.1400 C.3   1 <1>   0.2800 
 16 C       -6.1650    -4.8000    -0.8830 C.3   1 <1>  -0.1600 
 17 O       -7.8140    -2.2490    -1.1820 O.3   1 <1>  -0.6800 
 18 C       -8.3690    -4.0540     0.2330 C.3   1 <1>  -0.1600 
 19 C       -8.6060    -1.6490     0.9570 C.3   1 <1>  -0.1600 
 20 C       -7.6400    -5.1280    -0.6010 C.3   1 <1>  -0.1600 
 21 C       -8.1670    -0.1740     0.9140 C.3   1 <1>  -0.2400 
 22 H       -1.7510     2.1020     1.8170 H     1 <1>   0.1500 
 23 H       -4.0840     0.7050    -2.3130 H     1 <1>   0.1500 
 24 H       -2.1000    -1.8900    -0.8020 H     1 <1>   0.0800 
 25 H       -3.4210    -1.5860    -1.9080 H     1 <1>   0.0800 
 26 H       -2.7750     3.7990     0.3030 H     1 <1>   0.1500 
 27 H       -3.6900    -1.9110     1.0040 H     1 <1>   0.4500 
 28 H       -5.5300    -0.6540     0.4270 H     1 <1>   0.0800 
 29 H       -5.6760    -1.5050    -1.1030 H     1 <1>   0.0800 
 30 H       -3.9040    -3.8530    -1.1450 H     1 <1>   0.0800 
 31 H       -3.3650    -4.0820     0.5100 H     1 <1>   0.0800 
 32 H       -6.2320    -2.5530     1.6440 H     1 <1>   0.0800 
 33 H       -5.4900    -4.6250     1.1370 H     1 <1>   0.0800 
 34 H       -6.1160    -4.2220    -1.7910 H     1 <1>   0.0800 
 35 H       -5.6260    -5.7170    -1.0560 H     1 <1>   0.0800 
 36 H       -8.7400    -2.3020    -1.4920 H     1 <1>   0.4000 
 37 H       -8.3330    -4.3580     1.2650 H     1 <1>   0.0800 
 38 H       -9.4090    -4.0320    -0.0420 H     1 <1>   0.0800 
 39 H       -9.6250    -1.7050     0.6130 H     1 <1>   0.0800 
 40 H       -8.6170    -1.9640     1.9860 H     1 <1>   0.0800 
 41 H       -7.7080    -6.0700    -0.0830 H     1 <1>   0.0800 
 42 H       -8.1460    -5.2500    -1.5440 H     1 <1>   0.0800 
 43 H       -8.0680     0.1700    -0.1010 H     1 <1>   0.0800 
 44 H       -7.2380    -0.0290     1.4340 H     1 <1>   0.0800 
 45 H       -8.9100     0.4350     1.3990 H     1 <1>   0.0800 
@<TRIPOS>BOND
  1   1   2  1   
  2   2   3  ar  
  3   2   4  ar  
  4   3   5  ar  
  5   3   6  1   
  6   4   7  ar  
  7   4  22  1   
  8   5   8  ar  
  9   5  23  1   
 10   6   9  1   
 11   6  24  1   
 12   6  25  1   
 13   7   8  ar  
 14   7  26  1   
 15   8  10  1   
 16   9  11  1   
 17   9  12  1   
 18   9  27  1   
 19  11  13  1   
 20  11  28  1   
 21  11  29  1   
 22  12  14  1   
 23  12  30  1   
 24  12  31  1   
 25  13  14  1   
 26  13  15  1   
 27  13  32  1   
 28  14  16  1   
 29  14  33  1   
 30  15  17  1   
 31  15  18  1   
 32  15  19  1   
 33  16  20  1   
 34  16  34  1   
 35  16  35  1   
 36  17  36  1   
 37  18  20  1   
 38  18  37  1   
 39  18  38  1   
 40  19  21  1   
 41  19  39  1   
 42  19  40  1   
 43  20  41  1   
 44  20  42  1   
 45  21  43  1   
 46  21  44  1   
 47  21  45  1   
@<TRIPOS>SUBSTRUCTURE
  1 ****  11 GROUP 4 **** **** 0

# MOE 2024.06 (io_trps.svl 2023.06)
