@<TRIPOS>MOLECULE
NONAME
39 40 1 0 0 
SMALL
USER_CHARGES


@<TRIPOS>ATOM
  1 O        2.7160     1.3360    -2.8020 O.co2 1 <1>  -0.9000 
  2 C        2.9320     0.3650    -2.0530 C.2   1 <1>   0.9790 
  3 O        2.6030    -0.7720    -2.4300 O.co2 1 <1>  -0.9000 
  4 C        3.5830     0.5720    -0.7650 C.ar  1 <1>  -0.1790 
  5 C        4.0500    -0.4920     0.0060 C.ar  1 <1>  -0.1500 
  6 C        3.7730     1.8570    -0.2550 C.ar  1 <1>  -0.1500 
  7 C        4.6810    -0.2690     1.2150 C.ar  1 <1>   0.0830 
  8 C        4.4360     2.1150     0.9440 C.ar  1 <1>   0.0860 
  9 O        5.1100    -1.3120     1.9410 O.3   1 <1>  -0.5320 
 10 C        4.8760     1.0180     1.6810 C.ar  1 <1>  -0.1500 
 11 C        4.6730     3.4660     1.4290 C.2   1 <1>   0.5440 
 12 O        4.5340     3.7090     2.6140 O.2   1 <1>  -0.5700 
 13 N        5.0910     4.4860     0.6010 N.am  1 <1>  -0.6600 
 14 C        5.3460     5.8610     1.0960 C.3   1 <1>   0.1400 
 15 C        5.6120     4.3200    -0.7750 C.3   1 <1>   0.1400 
 16 C        5.8810     6.6280    -0.1110 C.3   1 <1>  -0.0190 
 17 C        6.5070     5.5350    -0.9890 C.3   1 <1>  -0.1600 
 18 C        6.7940     7.7790     0.2970 C.2   1 <1>   0.5690 
 19 O        6.4620     8.4830     1.2190 O.2   1 <1>  -0.5700 
 20 N        7.9430     8.0050    -0.3950 N.am  1 <1>  -0.7300 
 21 C        8.9210     9.0680    -0.0950 C.3   1 <1>   0.1400 
 22 C       10.3130     8.4500    -0.0620 C.3   1 <1>  -0.2400 
 23 H        3.9110    -1.4990    -0.3510 H     1 <1>   0.1500 
 24 H        3.3820     2.6820    -0.8250 H     1 <1>   0.1500 
 25 H        5.4970    -1.0460     2.7920 H     1 <1>   0.4500 
 26 H        5.3690     1.1920     2.6180 H     1 <1>   0.1500 
 27 H        6.0820     5.8200     1.8820 H     1 <1>   0.0800 
 28 H        4.4430     6.3040     1.4790 H     1 <1>   0.0800 
 29 H        4.7890     4.3370    -1.4710 H     1 <1>   0.0800 
 30 H        6.1570     3.3970    -0.8810 H     1 <1>   0.0800 
 31 H        5.0380     7.0490    -0.6280 H     1 <1>   0.0800 
 32 H        6.5510     5.8130    -2.0270 H     1 <1>   0.0800 
 33 H        7.4950     5.2920    -0.6390 H     1 <1>   0.0800 
 34 H        8.1790     7.4040    -1.1830 H     1 <1>   0.3700 
 35 H        8.6950     9.5200     0.8580 H     1 <1>   0.0800 
 36 H        8.8670     9.8290    -0.8550 H     1 <1>   0.0800 
 37 H       10.3640     7.6930     0.7000 H     1 <1>   0.0800 
 38 H       11.0380     9.2100     0.1680 H     1 <1>   0.0800 
 39 H       10.5600     8.0210    -1.0160 H     1 <1>   0.0800 
@<TRIPOS>BOND
  1   1   2  ar  
  2   2   3  ar  
  3   2   4  1   
  4   4   5  ar  
  5   4   6  ar  
  6   5   7  ar  
  7   5  23  1   
  8   6   8  ar  
  9   6  24  1   
 10   7   9  1   
 11   7  10  ar  
 12   8  10  ar  
 13   8  11  1   
 14   9  25  1   
 15  10  26  1   
 16  11  12  2   
 17  11  13  am  
 18  13  14  1   
 19  13  15  1   
 20  14  16  1   
 21  14  27  1   
 22  14  28  1   
 23  15  17  1   
 24  15  29  1   
 25  15  30  1   
 26  16  17  1   
 27  16  18  1   
 28  16  31  1   
 29  17  32  1   
 30  17  33  1   
 31  18  19  2   
 32  18  20  am  
 33  20  21  1   
 34  20  34  1   
 35  21  22  1   
 36  21  35  1   
 37  21  36  1   
 38  22  37  1   
 39  22  38  1   
 40  22  39  1   
@<TRIPOS>SUBSTRUCTURE
  1 ****  13 GROUP 4 **** **** 0

# MOE 2024.06 (io_trps.svl 2023.06)
