@<TRIPOS>MOLECULE
NONAME
47 48 1 0 0 
SMALL
USER_CHARGES


@<TRIPOS>ATOM
  1 CL       1.8540    -2.5450    -1.6280 Cl    1 <1>  -0.1770 
  2 C        0.8230    -3.7170    -0.8460 C.ar  1 <1>   0.1770 
  3 C        0.8380    -3.8190     0.5320 C.ar  1 <1>  -0.1500 
  4 C        0.0080    -4.5240    -1.6180 C.ar  1 <1>  -0.1500 
  5 C        0.0190    -4.7510     1.1470 C.ar  1 <1>  -0.1500 
  6 C       -0.8100    -5.4560    -1.0010 C.ar  1 <1>  -0.1500 
  7 C       -0.8050    -5.5720     0.3900 C.ar  1 <1>   0.0830 
  8 O       -1.5690    -6.4590     1.0740 O.3   1 <1>  -0.3630 
  9 C       -2.3910    -7.3850     0.4070 C.3   1 <1>   0.1200 
 10 C       -3.0450    -8.2680     1.4720 C.3   1 <1>   0.3430 
 11 N       -3.8400    -9.3760     0.8620 N.4   1 <1>  -0.9590 
 12 C       -5.0550    -8.9430     0.0940 C.3   1 <1>   0.3430 
 13 C       -4.2870   -10.4070     1.8300 C.3   1 <1>   0.3430 
 14 C       -6.1170   -10.0340     0.3150 C.3   1 <1>   0.2000 
 15 C       -5.4360   -11.1380     1.1340 C.3   1 <1>  -0.0800 
 16 O       -7.1660    -9.5120     1.0600 O.3   1 <1>  -0.6800 
 17 C       -5.0000   -12.3630     0.2800 C.3   1 <1>  -0.0550 
 18 S       -3.7720   -12.1190    -1.0210 S.o2  1 <1>   1.3330 
 19 O       -3.5050   -13.3710    -1.6800 O.2   1 <1>  -0.6500 
 20 O       -4.1570   -10.9480    -1.7730 O.2   1 <1>  -0.6500 
 21 N       -2.3550   -11.6620    -0.1980 N.am  1 <1>  -0.8490 
 22 C       -1.7390   -12.7910     0.5260 C.3   1 <1>   0.1160 
 23 C       -1.3460   -11.1620    -1.1510 C.3   1 <1>   0.1160 
 24 H        1.4800    -3.1780     1.1100 H     1 <1>   0.1500 
 25 H        0.0200    -4.4170    -2.6880 H     1 <1>   0.1500 
 26 H        0.0180    -4.8430     2.2190 H     1 <1>   0.1500 
 27 H       -1.4370    -6.0690    -1.6200 H     1 <1>   0.1500 
 28 H       -3.1280    -6.8360    -0.1520 H     1 <1>   0.0800 
 29 H       -1.7680    -7.9730    -0.2450 H     1 <1>   0.0800 
 30 H       -3.6810    -7.6590     2.0940 H     1 <1>   0.0800 
 31 H       -2.2650    -8.6870     2.0860 H     1 <1>   0.0800 
 32 H       -3.2210    -9.8910     0.1990 H     1 <1>   0.4500 
 33 H       -5.4280    -7.9970     0.4500 H     1 <1>   0.0800 
 34 H       -4.8210    -8.8620    -0.9560 H     1 <1>   0.0800 
 35 H       -3.4830   -11.0770     2.0930 H     1 <1>   0.0800 
 36 H       -4.6560    -9.9280     2.7230 H     1 <1>   0.0800 
 37 H       -6.5270   -10.3850    -0.6190 H     1 <1>   0.0800 
 38 H       -6.1150   -11.5150     1.8790 H     1 <1>   0.0800 
 39 H       -6.9080    -9.2230     1.9570 H     1 <1>   0.4000 
 40 H       -5.8850   -12.7600    -0.1820 H     1 <1>   0.0800 
 41 H       -4.6470   -13.1290     0.9420 H     1 <1>   0.0800 
 42 H       -0.8540   -12.4620     1.0470 H     1 <1>   0.0800 
 43 H       -1.4590   -13.5760    -0.1590 H     1 <1>   0.0800 
 44 H       -2.4200   -13.1990     1.2510 H     1 <1>   0.0800 
 45 H       -0.4480   -10.8690    -0.6330 H     1 <1>   0.0800 
 46 H       -1.7210   -10.3070    -1.6880 H     1 <1>   0.0800 
 47 H       -1.0970   -11.9270    -1.8700 H     1 <1>   0.0800 
@<TRIPOS>BOND
  1   1   2  1   
  2   2   3  ar  
  3   2   4  ar  
  4   3   5  ar  
  5   3  24  1   
  6   4   6  ar  
  7   4  25  1   
  8   5   7  ar  
  9   5  26  1   
 10   6   7  ar  
 11   6  27  1   
 12   7   8  1   
 13   8   9  1   
 14   9  10  1   
 15   9  28  1   
 16   9  29  1   
 17  10  11  1   
 18  10  30  1   
 19  10  31  1   
 20  11  12  1   
 21  11  13  1   
 22  11  32  1   
 23  12  14  1   
 24  12  33  1   
 25  12  34  1   
 26  13  15  1   
 27  13  35  1   
 28  13  36  1   
 29  14  15  1   
 30  14  16  1   
 31  14  37  1   
 32  15  17  1   
 33  15  38  1   
 34  16  39  1   
 35  17  18  1   
 36  17  40  1   
 37  17  41  1   
 38  18  19  2   
 39  18  20  2   
 40  18  21  am  
 41  21  22  1   
 42  21  23  1   
 43  22  42  1   
 44  22  43  1   
 45  22  44  1   
 46  23  45  1   
 47  23  46  1   
 48  23  47  1   
@<TRIPOS>SUBSTRUCTURE
  1 ****   9 GROUP 4 **** **** 0

# MOE 2024.06 (io_trps.svl 2023.06)
