@<TRIPOS>MOLECULE
NONAME
29 29 1 0 0 
SMALL
USER_CHARGES


@<TRIPOS>ATOM
  1 F       -0.4670     1.4830     0.7420 F     1 <1>  -0.3400 
  2 C        0.2060     1.4970    -0.4030 C.3   1 <1>   1.3000 
  3 F        1.4650     1.8300    -0.1450 F     1 <1>  -0.3400 
  4 F        0.2070     0.2620    -0.8840 F     1 <1>  -0.3400 
  5 O       -0.3810     2.3780    -1.3380 O.3   1 <1>  -0.3630 
  6 C       -0.4560     3.6810    -0.9990 C.ar  1 <1>   0.0830 
  7 C        0.5740     4.5430    -1.3320 C.ar  1 <1>  -0.1500 
  8 C       -1.5700     4.1620    -0.3350 C.ar  1 <1>  -0.1500 
  9 C        0.4920     5.8790    -0.9840 C.ar  1 <1>  -0.1500 
 10 C       -1.6450     5.5000     0.0100 C.ar  1 <1>  -0.1500 
 11 C       -0.6150     6.3850    -0.3060 C.ar  1 <1>  -0.1430 
 12 C       -0.6600     7.8890     0.0540 C.3   1 <1>   0.1440 
 13 C       -0.5320     8.7380    -1.2350 C.3   1 <1>   0.1200 
 14 C        0.5160     8.2130     0.9920 C.3   1 <1>  -0.2400 
 15 C       -1.9510     8.3020     0.7900 C.3   1 <1>  -0.2400 
 16 O       -1.5100     8.3820    -2.1540 O.3   1 <1>  -0.6800 
 17 H        1.4350     4.1730    -1.8590 H     1 <1>   0.1500 
 18 H       -2.3760     3.4950    -0.0870 H     1 <1>   0.1500 
 19 H        1.3090     6.5240    -1.2520 H     1 <1>   0.1500 
 20 H       -2.5270     5.8280     0.5280 H     1 <1>   0.1500 
 21 H        0.4250     8.5850    -1.7010 H     1 <1>   0.0800 
 22 H       -0.6460     9.7860    -1.0200 H     1 <1>   0.0800 
 23 H        1.4590     8.0250     0.5140 H     1 <1>   0.0800 
 24 H        0.4600     7.6030     1.8760 H     1 <1>   0.0800 
 25 H        0.4920     9.2470     1.2880 H     1 <1>   0.0800 
 26 H       -2.8150     8.1070     0.1800 H     1 <1>   0.0800 
 27 H       -1.9370     9.3540     1.0110 H     1 <1>   0.0800 
 28 H       -2.0480     7.7660     1.7170 H     1 <1>   0.0800 
 29 H       -1.5440     7.4050    -2.2240 H     1 <1>   0.4000 
@<TRIPOS>BOND
  1   1   2  1   
  2   2   3  1   
  3   2   4  1   
  4   2   5  1   
  5   5   6  1   
  6   6   7  ar  
  7   6   8  ar  
  8   7   9  ar  
  9   7  17  1   
 10   8  10  ar  
 11   8  18  1   
 12   9  11  ar  
 13   9  19  1   
 14  10  11  ar  
 15  10  20  1   
 16  11  12  1   
 17  12  13  1   
 18  12  14  1   
 19  12  15  1   
 20  13  16  1   
 21  13  21  1   
 22  13  22  1   
 23  14  23  1   
 24  14  24  1   
 25  14  25  1   
 26  15  26  1   
 27  15  27  1   
 28  15  28  1   
 29  16  29  1   
@<TRIPOS>SUBSTRUCTURE
  1 ****   7 GROUP 4 **** **** 0

# MOE 2024.06 (io_trps.svl 2023.06)
