@<TRIPOS>MOLECULE
NONAME
47 48 1 0 0 
SMALL
USER_CHARGES


@<TRIPOS>ATOM
  1 CL      -4.2640    -1.5360     1.9590 Cl    1 <1>  -0.1770 
  2 C       -3.4090    -2.4910     0.7800 C.ar  1 <1>   0.1770 
  3 C       -2.8110    -3.6730     1.1720 C.ar  1 <1>  -0.1500 
  4 C       -3.3650    -2.0650    -0.5340 C.ar  1 <1>  -0.1500 
  5 C       -2.1670    -4.4620     0.2300 C.ar  1 <1>  -0.1440 
  6 C       -2.7120    -2.8450    -1.4730 C.ar  1 <1>  -0.1500 
  7 C       -2.1170    -4.0370    -1.0910 C.ar  1 <1>  -0.1500 
  8 C       -1.5120    -5.7720     0.6590 C.3   1 <1>   0.0450 
  9 C       -2.4890    -6.7190     1.3480 C.2   1 <1>   0.5690 
 10 O       -2.3960    -6.8180     2.5470 O.2   1 <1>  -0.5700 
 11 N       -3.4450    -7.4260     0.6590 N.am  1 <1>  -0.6600 
 12 C       -4.1280    -8.5570     1.3890 C.3   1 <1>   0.3210 
 13 C       -3.7640    -7.2480    -0.7980 C.3   1 <1>   0.1400 
 14 C       -5.4070    -9.0750     0.7260 C.2   1 <1>   0.0460 
 15 C       -5.0580    -6.4430    -1.0830 C.3   1 <1>   0.3430 
 16 N       -6.5740    -8.4030     0.8320 N.2   1 <1>  -0.5650 
 17 C       -5.5760   -10.2160     0.0140 C.2   1 <1>  -0.3320 
 18 N       -5.1970    -5.1720    -0.2910 N.4   1 <1>  -0.9590 
 19 C       -7.4240    -9.1540     0.2100 C.2   1 <1>   0.0360 
 20 N       -6.8800   -10.2700    -0.3150 N.pl3 1 <1>   0.0330 
 21 C       -4.5950   -11.3090    -0.3790 C.3   1 <1>  -0.0600 
 22 C       -5.7870    -5.4370     1.0610 C.3   1 <1>   0.2630 
 23 C       -6.0320    -4.1730    -1.0140 C.3   1 <1>   0.2630 
 24 H       -2.8490    -3.9660     2.2100 H     1 <1>   0.1500 
 25 H       -3.8250    -1.1320    -0.8110 H     1 <1>   0.1500 
 26 H       -2.6550    -2.5170    -2.4990 H     1 <1>   0.1500 
 27 H       -1.5990    -4.6220    -1.8340 H     1 <1>   0.1500 
 28 H       -0.7190    -5.5450     1.3490 H     1 <1>   0.0800 
 29 H       -1.0610    -6.2740    -0.1760 H     1 <1>   0.0800 
 30 H       -4.3820    -8.2410     2.3860 H     1 <1>   0.0800 
 31 H       -3.4300    -9.3680     1.4840 H     1 <1>   0.0800 
 32 H       -3.8560    -8.2170    -1.2580 H     1 <1>   0.0800 
 33 H       -2.9500    -6.7580    -1.2960 H     1 <1>   0.0800 
 34 H       -5.9140    -7.0690    -0.9090 H     1 <1>   0.0800 
 35 H       -5.0600    -6.2040    -2.1330 H     1 <1>   0.0800 
 36 H       -4.2510    -4.7750    -0.1510 H     1 <1>   0.4500 
 37 H       -8.4740    -8.9340     0.1110 H     1 <1>   0.1500 
 38 H       -7.3670   -11.0110    -0.8290 H     1 <1>   0.2700 
 39 H       -3.5990   -11.0700    -0.0540 H     1 <1>   0.0800 
 40 H       -4.5820   -11.4330    -1.4480 H     1 <1>   0.0800 
 41 H       -4.8820   -12.2430     0.0730 H     1 <1>   0.0800 
 42 H       -6.7600    -5.8900     0.9640 H     1 <1>   0.0800 
 43 H       -5.8840    -4.5170     1.6150 H     1 <1>   0.0800 
 44 H       -5.1620    -6.1070     1.6260 H     1 <1>   0.0800 
 45 H       -7.0260    -4.5610    -1.1720 H     1 <1>   0.0800 
 46 H       -5.5920    -3.9390    -1.9700 H     1 <1>   0.0800 
 47 H       -6.1030    -3.2640    -0.4390 H     1 <1>   0.0800 
@<TRIPOS>BOND
  1   1   2  1   
  2   2   3  ar  
  3   2   4  ar  
  4   3   5  ar  
  5   3  24  1   
  6   4   6  ar  
  7   4  25  1   
  8   5   7  ar  
  9   5   8  1   
 10   6   7  ar  
 11   6  26  1   
 12   7  27  1   
 13   8   9  1   
 14   8  28  1   
 15   8  29  1   
 16   9  10  2   
 17   9  11  am  
 18  11  12  1   
 19  11  13  1   
 20  12  14  1   
 21  12  30  1   
 22  12  31  1   
 23  13  15  1   
 24  13  32  1   
 25  13  33  1   
 26  14  16  1   
 27  14  17  2   
 28  15  18  1   
 29  15  34  1   
 30  15  35  1   
 31  16  19  2   
 32  17  20  1   
 33  17  21  1   
 34  18  22  1   
 35  18  23  1   
 36  18  36  1   
 37  19  20  1   
 38  19  37  1   
 39  20  38  1   
 40  21  39  1   
 41  21  40  1   
 42  21  41  1   
 43  22  42  1   
 44  22  43  1   
 45  22  44  1   
 46  23  45  1   
 47  23  46  1   
 48  23  47  1   
@<TRIPOS>SUBSTRUCTURE
  1 ****  11 GROUP 4 **** **** 0

# MOE 2024.06 (io_trps.svl 2023.06)
