@<TRIPOS>MOLECULE
NONAME
50 52 1 0 0 
SMALL
USER_CHARGES


@<TRIPOS>ATOM
  1 O       -0.5140     0.4700     0.7810 O.2   1 <1>  -0.5700 
  2 C       -1.5310     0.9640     0.3550 C.2   1 <1>   0.5690 
  3 N       -2.6530     0.2130     0.1520 N.am  1 <1>  -0.6600 
  4 C       -1.5630     2.4500     0.0340 C.3   1 <1>  -0.0990 
  5 C       -3.9520     0.6700    -0.4060 C.3   1 <1>   0.1400 
  6 C       -2.7330    -1.2180     0.5150 C.3   1 <1>   0.1400 
  7 C       -0.2280     3.1560     0.2970 C.3   1 <1>   0.0210 
  8 C       -4.9050    -0.5270    -0.2710 C.3   1 <1>   0.2000 
  9 C       -3.9690    -1.7400    -0.2190 C.3   1 <1>  -0.0800 
 10 C       -0.2050     4.6510    -0.0150 C.2   1 <1>  -0.1810 
 11 O       -5.5990    -0.4390     0.9400 O.3   1 <1>  -0.5600 
 12 C       -4.5850    -2.9950     0.4270 C.3   1 <1>   0.0200 
 13 C       -1.1020     5.5510    -0.4690 C.2   1 <1>  -0.0400 
 14 C        0.9460     5.4250     0.1580 C.2   1 <1>   0.1080 
 15 C       -6.7880     0.2850     0.8950 C.3   1 <1>   0.0400 
 16 C       -3.7040    -4.2270     0.3040 C.2   1 <1>  -0.0400 
 17 O       -0.5030     6.7100    -0.5400 O.3   1 <1>  -0.0190 
 18 C       -2.5600     5.5240    -0.8900 C.3   1 <1>  -0.0600 
 19 N        0.7360     6.6480    -0.1630 N.2   1 <1>  -0.4100 
 20 C        2.2850     4.9220     0.6580 C.3   1 <1>  -0.0590 
 21 O       -4.0920    -5.3350     0.8780 O.3   1 <1>  -0.0190 
 22 C       -2.5320    -4.4740    -0.3040 C.2   1 <1>  -0.1500 
 23 N       -3.2460    -6.3060     0.6900 N.2   1 <1>  -0.4100 
 24 C       -2.2940    -5.8150    -0.0180 C.2   1 <1>   0.1080 
 25 C       -1.0820    -6.5960    -0.4740 C.3   1 <1>  -0.0590 
 26 H       -1.8190     2.5630    -1.0020 H     1 <1>   0.0800 
 27 H       -2.3210     2.9030     0.6450 H     1 <1>   0.0800 
 28 H       -4.3220     1.5290     0.1230 H     1 <1>   0.0800 
 29 H       -3.8160     0.9090    -1.4460 H     1 <1>   0.0800 
 30 H       -1.8360    -1.7380     0.2250 H     1 <1>   0.0800 
 31 H       -2.8630    -1.2970     1.5810 H     1 <1>   0.0800 
 32 H        0.5350     2.6760    -0.2930 H     1 <1>   0.0800 
 33 H        0.0330     3.0220     1.3320 H     1 <1>   0.0800 
 34 H       -5.6080    -0.5960    -1.0830 H     1 <1>   0.0800 
 35 H       -3.6800    -1.9750    -1.2280 H     1 <1>   0.0800 
 36 H       -5.5300    -3.2090    -0.0410 H     1 <1>   0.0800 
 37 H       -4.7740    -2.8130     1.4710 H     1 <1>   0.0800 
 38 H       -7.2100     0.2930     1.8850 H     1 <1>   0.0800 
 39 H       -7.4720    -0.1950     0.2170 H     1 <1>   0.0800 
 40 H       -6.5860     1.2940     0.5810 H     1 <1>   0.0800 
 41 H       -2.9910     4.5490    -0.8070 H     1 <1>   0.0800 
 42 H       -2.6420     5.8500    -1.9110 H     1 <1>   0.0800 
 43 H       -3.1210     6.2000    -0.2690 H     1 <1>   0.0800 
 44 H        2.1740     4.5010     1.6400 H     1 <1>   0.0800 
 45 H        2.9870     5.7340     0.7060 H     1 <1>   0.0800 
 46 H        2.6670     4.1730    -0.0100 H     1 <1>   0.0800 
 47 H       -1.8950    -3.8310    -0.8820 H     1 <1>   0.1500 
 48 H       -0.1890    -6.1430    -0.0850 H     1 <1>   0.0800 
 49 H       -1.0380    -6.6070    -1.5470 H     1 <1>   0.0800 
 50 H       -1.1430    -7.6090    -0.1180 H     1 <1>   0.0800 
@<TRIPOS>BOND
  1   1   2  2   
  2   2   3  am  
  3   2   4  1   
  4   3   5  1   
  5   3   6  1   
  6   4   7  1   
  7   4  26  1   
  8   4  27  1   
  9   5   8  1   
 10   5  28  1   
 11   5  29  1   
 12   6   9  1   
 13   6  30  1   
 14   6  31  1   
 15   7  10  1   
 16   7  32  1   
 17   7  33  1   
 18   8   9  1   
 19   8  11  1   
 20   8  34  1   
 21   9  12  1   
 22   9  35  1   
 23  10  13  2   
 24  10  14  1   
 25  11  15  1   
 26  12  16  1   
 27  12  36  1   
 28  12  37  1   
 29  13  17  1   
 30  13  18  1   
 31  14  19  2   
 32  14  20  1   
 33  15  38  1   
 34  15  39  1   
 35  15  40  1   
 36  16  21  1   
 37  16  22  2   
 38  17  19  1   
 39  18  41  1   
 40  18  42  1   
 41  18  43  1   
 42  20  44  1   
 43  20  45  1   
 44  20  46  1   
 45  21  23  1   
 46  22  24  1   
 47  22  47  1   
 48  23  24  2   
 49  24  25  1   
 50  25  48  1   
 51  25  49  1   
 52  25  50  1   
@<TRIPOS>SUBSTRUCTURE
  1 ****   3 GROUP 4 **** **** 0

# MOE 2024.06 (io_trps.svl 2023.06)
