@<TRIPOS>MOLECULE
NONAME
46 47 1 0 0 
SMALL
USER_CHARGES


@<TRIPOS>ATOM
  1 O       -1.3040    -0.0250     1.5370 O.2   1 <1>  -0.5700 
  2 C       -1.5910     0.6720     0.5950 C.2   1 <1>   0.5690 
  3 N       -2.0240     0.1650    -0.5860 N.am  1 <1>  -0.7300 
  4 C       -1.4750     2.1760     0.7290 C.3   1 <1>  -0.0990 
  5 C       -2.3430    -1.2650    -0.8660 C.3   1 <1>   0.2200 
  6 C       -0.1950     2.7120     0.0690 C.3   1 <1>  -0.1600 
  7 C       -3.5230    -1.7610    -0.0100 C.3   1 <1>   0.2000 
  8 C       -1.1270    -2.1830    -0.6590 C.3   1 <1>   0.1200 
  9 C       -0.0910     4.2360     0.2130 C.3   1 <1>  -0.1600 
 10 O       -4.6760    -1.0440    -0.3550 O.3   1 <1>  -0.5600 
 11 C       -3.7670    -3.2540    -0.2520 C.3   1 <1>  -0.1600 
 12 O       -1.4860    -3.5090    -0.9350 O.3   1 <1>  -0.5600 
 13 C        1.1920     4.7760    -0.4310 C.3   1 <1>  -0.0170 
 14 C       -5.5930    -0.8810     0.6810 C.3   1 <1>   0.0400 
 15 C       -2.4590    -4.0380    -0.0860 C.3   1 <1>   0.1200 
 16 C        1.2660     6.2860    -0.2770 C.ar  1 <1>  -0.1440 
 17 C        0.7570     7.1180    -1.2620 C.ar  1 <1>  -0.1500 
 18 C        1.8400     6.8460     0.8540 C.ar  1 <1>  -0.1500 
 19 C        0.8230     8.4930    -1.1200 C.ar  1 <1>  -0.1500 
 20 C        1.9070     8.2210     0.9980 C.ar  1 <1>  -0.1500 
 21 C        1.3980     9.0460     0.0110 C.ar  1 <1>  -0.1500 
 22 H       -2.4040     0.8090    -1.2790 H     1 <1>   0.3700 
 23 H       -2.3400     2.6330     0.2860 H     1 <1>   0.0800 
 24 H       -1.4710     2.4240     1.7760 H     1 <1>   0.0800 
 25 H       -2.6250    -1.3470    -1.9010 H     1 <1>   0.0800 
 26 H        0.6590     2.2470     0.5340 H     1 <1>   0.0800 
 27 H       -0.1910     2.4470    -0.9740 H     1 <1>   0.0800 
 28 H       -3.2900    -1.5940     1.0280 H     1 <1>   0.0800 
 29 H       -0.7620    -2.1360     0.3530 H     1 <1>   0.0800 
 30 H       -0.3370    -1.9110    -1.3350 H     1 <1>   0.0800 
 31 H       -0.0970     4.5030     1.2570 H     1 <1>   0.0800 
 32 H       -0.9410     4.7050    -0.2530 H     1 <1>   0.0800 
 33 H       -4.4900    -3.6280     0.4480 H     1 <1>   0.0800 
 34 H       -4.1390    -3.4080    -1.2490 H     1 <1>   0.0800 
 35 H        1.2130     4.5190    -1.4750 H     1 <1>   0.0800 
 36 H        2.0510     4.3260     0.0340 H     1 <1>   0.0800 
 37 H       -6.4290    -0.3210     0.3010 H     1 <1>   0.0800 
 38 H       -5.1260    -0.3360     1.4840 H     1 <1>   0.0800 
 39 H       -5.9270    -1.8450     1.0200 H     1 <1>   0.0800 
 40 H       -2.6010    -5.0700    -0.3540 H     1 <1>   0.0800 
 41 H       -2.0960    -3.9850     0.9270 H     1 <1>   0.0800 
 42 H        0.3070     6.6980    -2.1450 H     1 <1>   0.1500 
 43 H        2.2370     6.2120     1.6280 H     1 <1>   0.1500 
 44 H        0.4270     9.1340    -1.8890 H     1 <1>   0.1500 
 45 H        2.3540     8.6490     1.8780 H     1 <1>   0.1500 
 46 H        1.4490    10.1140     0.1220 H     1 <1>   0.1500 
@<TRIPOS>BOND
  1   1   2  2   
  2   2   3  am  
  3   2   4  1   
  4   3   5  1   
  5   3  22  1   
  6   4   6  1   
  7   4  23  1   
  8   4  24  1   
  9   5   7  1   
 10   5   8  1   
 11   5  25  1   
 12   6   9  1   
 13   6  26  1   
 14   6  27  1   
 15   7  10  1   
 16   7  11  1   
 17   7  28  1   
 18   8  12  1   
 19   8  29  1   
 20   8  30  1   
 21   9  13  1   
 22   9  31  1   
 23   9  32  1   
 24  10  14  1   
 25  11  15  1   
 26  11  33  1   
 27  11  34  1   
 28  12  15  1   
 29  13  16  1   
 30  13  35  1   
 31  13  36  1   
 32  14  37  1   
 33  14  38  1   
 34  14  39  1   
 35  15  40  1   
 36  15  41  1   
 37  16  17  ar  
 38  16  18  ar  
 39  17  19  ar  
 40  17  42  1   
 41  18  20  ar  
 42  18  43  1   
 43  19  21  ar  
 44  19  44  1   
 45  20  21  ar  
 46  20  45  1   
 47  21  46  1   
@<TRIPOS>SUBSTRUCTURE
  1 ****   4 GROUP 4 **** **** 0

# MOE 2024.06 (io_trps.svl 2023.06)
