@<TRIPOS>MOLECULE
NONAME
47 49 1 0 0 
SMALL
USER_CHARGES


@<TRIPOS>ATOM
  1 O       -1.7660     0.7200     2.1050 O.2   1 <1>  -0.5700 
  2 C       -1.5780     1.3540     1.0760 C.2   1 <1>   0.5440 
  3 N       -2.2620     0.9210    -0.0550 N.am  1 <1>  -0.6600 
  4 C       -0.6980     2.5280     1.1140 C.ar  1 <1>   0.3960 
  5 C       -2.8600    -0.4440    -0.0970 C.3   1 <1>   0.1400 
  6 C       -2.3950     1.7670    -1.2820 C.3   1 <1>   0.1400 
  7 N       -0.0160     2.9050     0.0280 N.ar  1 <1>  -0.6200 
  8 C       -0.6080     3.2350     2.3180 C.ar  1 <1>   0.1600 
  9 C       -4.3190    -0.4150     0.3760 C.3   1 <1>   0.1400 
 10 C       -3.7500     1.6340    -1.9910 C.3   1 <1>  -0.1600 
 11 C        0.6910     4.0240     0.2060 C.ar  1 <1>   0.1390 
 12 N        0.1080     4.3410     2.5290 N.ar  1 <1>  -0.6200 
 13 N       -5.2330     0.1760    -0.6520 N.am  1 <1>  -0.6600 
 14 C       -4.9450     1.5880    -1.0340 C.3   1 <1>   0.1400 
 15 O        1.3080     4.4680    -0.7840 O.3   1 <1>  -0.8290 
 16 C        0.7440     4.7060     1.4420 C.ar  1 <1>   0.1600 
 17 C       -6.2310    -0.5450    -1.2780 C.2   1 <1>   0.5440 
 18 O       -6.8670    -0.0270    -2.1770 O.2   1 <1>  -0.5700 
 19 C       -6.5280    -1.9140    -0.9000 C.ar  1 <1>   0.0860 
 20 C       -7.3340    -2.2340     0.2010 C.ar  1 <1>  -0.1430 
 21 C       -5.9740    -2.9520    -1.6470 C.ar  1 <1>  -0.1500 
 22 C       -7.5400    -3.5690     0.5310 C.ar  1 <1>  -0.1500 
 23 C       -7.9660    -1.0860     1.0000 C.3   1 <1>  -0.0170 
 24 C       -6.1870    -4.2740    -1.3130 C.ar  1 <1>  -0.1500 
 25 C       -6.9700    -4.5820    -0.2180 C.ar  1 <1>  -0.1500 
 26 C       -8.9230    -1.5000     2.1230 C.3   1 <1>  -0.2400 
 27 H       -2.2990    -1.0910     0.5540 H     1 <1>   0.0800 
 28 H       -2.7960    -0.8530    -1.0900 H     1 <1>   0.0800 
 29 H       -1.5950     1.5290    -1.9640 H     1 <1>   0.0800 
 30 H       -2.2810     2.8010    -1.0070 H     1 <1>   0.0800 
 31 H       -1.1650     2.8670     3.1580 H     1 <1>   0.1500 
 32 H       -4.3840     0.1540     1.2880 H     1 <1>   0.0800 
 33 H       -4.6140    -1.4220     0.6070 H     1 <1>   0.0800 
 34 H       -3.7570     0.7730    -2.6340 H     1 <1>   0.0800 
 35 H       -3.8580     2.4940    -2.6260 H     1 <1>   0.0800 
 36 H       -5.8060     2.0110    -1.5240 H     1 <1>   0.0800 
 37 H       -4.7510     2.1760    -0.1540 H     1 <1>   0.0800 
 38 H        1.3580     5.5860     1.4620 H     1 <1>   0.1500 
 39 H       -5.3690    -2.7070    -2.5030 H     1 <1>   0.1500 
 40 H       -8.1480    -3.8490     1.3710 H     1 <1>   0.1500 
 41 H       -8.5090    -0.4560     0.3150 H     1 <1>   0.0800 
 42 H       -7.1800    -0.4890     1.4280 H     1 <1>   0.0800 
 43 H       -5.7490    -5.0610    -1.9030 H     1 <1>   0.1500 
 44 H       -7.1400    -5.6110     0.0500 H     1 <1>   0.1500 
 45 H       -9.7370    -2.0810     1.7270 H     1 <1>   0.0800 
 46 H       -9.3300    -0.6230     2.5940 H     1 <1>   0.0800 
 47 H       -8.4040    -2.0740     2.8700 H     1 <1>   0.0800 
@<TRIPOS>BOND
  1   1   2  2   
  2   2   3  am  
  3   2   4  1   
  4   3   5  1   
  5   3   6  1   
  6   4   7  ar  
  7   4   8  ar  
  8   5   9  1   
  9   5  27  1   
 10   5  28  1   
 11   6  10  1   
 12   6  29  1   
 13   6  30  1   
 14   7  11  ar  
 15   8  12  ar  
 16   8  31  1   
 17   9  13  1   
 18   9  32  1   
 19   9  33  1   
 20  10  14  1   
 21  10  34  1   
 22  10  35  1   
 23  11  15  1   
 24  11  16  ar  
 25  12  16  ar  
 26  13  14  1   
 27  13  17  am  
 28  14  36  1   
 29  14  37  1   
 30  16  38  1   
 31  17  18  2   
 32  17  19  1   
 33  19  20  ar  
 34  19  21  ar  
 35  20  22  ar  
 36  20  23  1   
 37  21  24  ar  
 38  21  39  1   
 39  22  25  ar  
 40  22  40  1   
 41  23  26  1   
 42  23  41  1   
 43  23  42  1   
 44  24  25  ar  
 45  24  43  1   
 46  25  44  1   
 47  26  45  1   
 48  26  46  1   
 49  26  47  1   
@<TRIPOS>SUBSTRUCTURE
  1 ****   9 GROUP 4 **** **** 0

# MOE 2024.06 (io_trps.svl 2023.06)
