@<TRIPOS>MOLECULE
NONAME
45 48 1 0 0 
SMALL
USER_CHARGES


@<TRIPOS>ATOM
  1 N       -0.5060     1.0800    -0.3240 N.ar  1 <1>  -0.6200 
  2 C        0.3480     1.8300     0.3470 C.ar  1 <1>   0.4100 
  3 C       -1.2820     0.3600     0.4670 C.ar  1 <1>   0.1660 
  4 N        1.1550     2.5840    -0.4620 N.pl3 1 <1>  -0.8690 
  5 C        0.4140     1.8430     1.7510 C.ar  1 <1>   0.1600 
  6 C       -1.2120     0.3870     1.8580 C.ar  1 <1>   0.1600 
  7 C       -2.2890    -0.5300    -0.2340 C.3   1 <1>  -0.0960 
  8 C        1.3170     4.0370    -0.2170 C.3   1 <1>   0.2090 
  9 N       -0.3600     1.1320     2.5500 N.ar  1 <1>  -0.6200 
 10 C        2.2450     4.6450    -1.2650 C.3   1 <1>   0.0210 
 11 C        2.4350     6.1250    -0.9870 C.2   1 <1>  -0.1810 
 12 C        3.3010     6.6060     0.0230 C.ar  1 <1>   0.0000 
 13 C        1.8570     7.1980    -1.5910 C.2   1 <1>  -0.3320 
 14 C        3.2020     7.9850    -0.0300 C.ar  1 <1>  -0.1520 
 15 C        4.1550     6.0440     0.9800 C.ar  1 <1>  -0.1500 
 16 N        2.3240     8.3460    -1.0060 N.pl3 1 <1>   0.0480 
 17 C        0.8480     7.2380    -2.7280 C.3   1 <1>  -0.0600 
 18 C        3.9060     8.8340     0.8170 C.ar  1 <1>  -0.1440 
 19 C        4.8590     6.8680     1.8330 C.ar  1 <1>  -0.1500 
 20 C        2.0440     9.7750    -1.2730 C.3   1 <1>   0.0960 
 21 C        4.7370     8.2630     1.7540 C.ar  1 <1>  -0.1500 
 22 C        3.7000    10.3300     0.6240 C.3   1 <1>  -0.0170 
 23 C        2.3210    10.6240    -0.0100 C.3   1 <1>  -0.1600 
 24 H        0.9280     2.3730    -1.4380 H     1 <1>   0.4000 
 25 H        1.1500     2.4750     2.2080 H     1 <1>   0.1500 
 26 H       -1.8830    -0.2300     2.4270 H     1 <1>   0.1500 
 27 H       -2.9410     0.0740    -0.8380 H     1 <1>   0.0800 
 28 H       -2.8800    -1.0820     0.4730 H     1 <1>   0.0800 
 29 H       -1.7710    -1.2230    -0.8720 H     1 <1>   0.0800 
 30 H        1.7340     4.1990     0.7620 H     1 <1>   0.0800 
 31 H        0.3560     4.5220    -0.2620 H     1 <1>   0.0800 
 32 H        1.8260     4.5070    -2.2430 H     1 <1>   0.0800 
 33 H        3.2020     4.1550    -1.2320 H     1 <1>   0.0800 
 34 H        4.2500     4.9750     1.0350 H     1 <1>   0.1500 
 35 H        0.5890     6.2470    -3.0500 H     1 <1>   0.0800 
 36 H        1.2600     7.7720    -3.5660 H     1 <1>   0.0800 
 37 H       -0.0500     7.7330    -2.4050 H     1 <1>   0.0800 
 38 H        5.5160     6.4450     2.5710 H     1 <1>   0.1500 
 39 H        1.0200     9.8830    -1.5770 H     1 <1>   0.0800 
 40 H        2.6830    10.0930    -2.0760 H     1 <1>   0.0800 
 41 H        5.3020     8.8790     2.4310 H     1 <1>   0.1500 
 42 H        4.4770    10.6980    -0.0240 H     1 <1>   0.0800 
 43 H        3.7830    10.8350     1.5700 H     1 <1>   0.0800 
 44 H        1.5570    10.4080     0.7170 H     1 <1>   0.0800 
 45 H        2.2510    11.6680    -0.2560 H     1 <1>   0.0800 
@<TRIPOS>BOND
  1   1   2  ar  
  2   1   3  ar  
  3   2   4  1   
  4   2   5  ar  
  5   3   6  ar  
  6   3   7  1   
  7   4   8  1   
  8   4  24  1   
  9   5   9  ar  
 10   5  25  1   
 11   6   9  ar  
 12   6  26  1   
 13   7  27  1   
 14   7  28  1   
 15   7  29  1   
 16   8  10  1   
 17   8  30  1   
 18   8  31  1   
 19  10  11  1   
 20  10  32  1   
 21  10  33  1   
 22  11  12  1   
 23  11  13  2   
 24  12  14  ar  
 25  12  15  ar  
 26  13  16  1   
 27  13  17  1   
 28  14  16  1   
 29  14  18  ar  
 30  15  19  ar  
 31  15  34  1   
 32  16  20  1   
 33  17  35  1   
 34  17  36  1   
 35  17  37  1   
 36  18  21  ar  
 37  18  22  1   
 38  19  21  ar  
 39  19  38  1   
 40  20  23  1   
 41  20  39  1   
 42  20  40  1   
 43  21  41  1   
 44  22  23  1   
 45  22  42  1   
 46  22  43  1   
 47  23  44  1   
 48  23  45  1   
@<TRIPOS>SUBSTRUCTURE
  1 ****   8 GROUP 4 **** **** 0

# MOE 2024.06 (io_trps.svl 2023.06)
