@<TRIPOS>MOLECULE
NONAME
51 55 1 0 0 
SMALL
USER_CHARGES


@<TRIPOS>ATOM
  1 O        0.5270     0.7870     0.2460 O.2   1 <1>  -0.5700 
  2 C       -0.1650     1.7940     0.2460 C.2   1 <1>   0.7160 
  3 N       -1.5380     1.6270     0.1300 N.am  1 <1>  -0.6600 
  4 C        0.5010     3.0930     0.3840 C.2   1 <1>   0.2030 
  5 C       -2.5510     2.6840     0.4470 C.3   1 <1>   0.1400 
  6 C       -2.1490     0.3150    -0.2310 C.3   1 <1>   0.1400 
  7 N        0.0980     4.2670    -0.0960 N.2   1 <1>  -0.7070 
  8 C        1.7150     3.2350     1.0590 C.2   1 <1>  -0.1500 
  9 C       -3.4950     2.9190    -0.7470 C.3   1 <1>   0.1430 
 10 C       -3.1130     0.4900    -1.4130 C.3   1 <1>  -0.1600 
 11 N        1.0410     5.1440     0.2810 N.pl3 1 <1>   0.6010 
 12 C        2.0480     4.5440     0.9930 C.2   1 <1>  -0.0260 
 13 C       -4.5000     3.9830    -0.3500 C.ar  1 <1>   0.1660 
 14 C       -4.1620     1.5840    -1.1440 C.3   1 <1>  -0.1600 
 15 C       -2.7670     3.5830    -1.9460 C.3   1 <1>  -0.1600 
 16 C        1.1000     6.5020     0.0420 C.2   1 <1>  -0.1810 
 17 N        3.1380     5.2280     1.4940 N.2   1 <1>  -0.5760 
 18 N       -5.5010     3.8120     0.4770 N.ar  1 <1>  -0.6200 
 19 C       -4.2240     5.1770    -0.9450 C.ar  1 <1>  -0.1430 
 20 C       -3.0040     5.0980    -1.8280 C.3   1 <1>  -0.0170 
 21 C        2.1670     7.1890     0.5280 C.2   1 <1>  -0.1360 
 22 C        3.1760     6.4980     1.2590 C.2   1 <1>   0.3760 
 23 C       -6.2510     4.8960     0.6950 C.ar  1 <1>   0.7200 
 24 C       -5.0500     6.2350    -0.6630 C.ar  1 <1>   0.1600 
 25 N       -6.0670     6.1050     0.1560 N.ar  1 <1>  -0.6200 
 26 N       -7.3130     4.7530     1.5660 N.pl3 1 <1>  -0.8380 
 27 C       -8.0340     5.9260     2.1320 C.3   1 <1>   0.1290 
 28 C       -7.8280     3.4170     1.9740 C.3   1 <1>   0.1290 
 29 H       -2.0890     3.6080     0.7360 H     1 <1>   0.0800 
 30 H       -3.1360     2.3530     1.2870 H     1 <1>   0.0800 
 31 H       -2.6830    -0.0660     0.6230 H     1 <1>   0.0800 
 32 H       -1.3910    -0.4030    -0.4960 H     1 <1>   0.0800 
 33 H        2.2700     2.4460     1.5340 H     1 <1>   0.1500 
 34 H       -3.6110    -0.4450    -1.6020 H     1 <1>   0.0800 
 35 H       -2.5410     0.7350    -2.2910 H     1 <1>   0.0800 
 36 H       -4.7860     1.7250    -2.0090 H     1 <1>   0.0800 
 37 H       -4.7990     1.2630    -0.3380 H     1 <1>   0.0800 
 38 H       -3.2140     3.2490    -2.8660 H     1 <1>   0.0800 
 39 H       -1.7190     3.3460    -1.9800 H     1 <1>   0.0800 
 40 H        0.2890     6.9250    -0.5190 H     1 <1>   0.1500 
 41 H       -3.1720     5.5490    -2.7890 H     1 <1>   0.0800 
 42 H       -2.1710     5.5710    -1.3380 H     1 <1>   0.0800 
 43 H        2.2850     8.2480     0.3840 H     1 <1>   0.1500 
 44 H        4.0060     7.0740     1.6290 H     1 <1>   0.0600 
 45 H       -4.8750     7.1970    -1.1120 H     1 <1>   0.1500 
 46 H       -7.3760     6.7740     2.2060 H     1 <1>   0.0800 
 47 H       -8.4000     5.6950     3.1170 H     1 <1>   0.0800 
 48 H       -8.8620     6.1800     1.4940 H     1 <1>   0.0800 
 49 H       -7.6390     2.6880     1.2050 H     1 <1>   0.0800 
 50 H       -8.8900     3.4640     2.1400 H     1 <1>   0.0800 
 51 H       -7.3380     3.1040     2.8790 H     1 <1>   0.0800 
@<TRIPOS>BOND
  1   1   2  2   
  2   2   3  am  
  3   2   4  1   
  4   3   5  1   
  5   3   6  1   
  6   4   7  2   
  7   4   8  1   
  8   5   9  1   
  9   5  29  1   
 10   5  30  1   
 11   6  10  1   
 12   6  31  1   
 13   6  32  1   
 14   7  11  1   
 15   8  12  2   
 16   8  33  1   
 17   9  13  1   
 18   9  14  1   
 19   9  15  1   
 20  10  14  1   
 21  10  34  1   
 22  10  35  1   
 23  11  12  1   
 24  11  16  1   
 25  12  17  1   
 26  13  18  ar  
 27  13  19  ar  
 28  14  36  1   
 29  14  37  1   
 30  15  20  1   
 31  15  38  1   
 32  15  39  1   
 33  16  21  2   
 34  16  40  1   
 35  17  22  2   
 36  18  23  ar  
 37  19  20  1   
 38  19  24  ar  
 39  20  41  1   
 40  20  42  1   
 41  21  22  1   
 42  21  43  1   
 43  22  44  1   
 44  23  25  ar  
 45  23  26  1   
 46  24  25  ar  
 47  24  45  1   
 48  26  27  1   
 49  26  28  1   
 50  27  46  1   
 51  27  47  1   
 52  27  48  1   
 53  28  49  1   
 54  28  50  1   
 55  28  51  1   
@<TRIPOS>SUBSTRUCTURE
  1 ****   5 GROUP 4 **** **** 0

# MOE 2024.06 (io_trps.svl 2023.06)
