@<TRIPOS>MOLECULE
NONAME
55 58 1 0 0 
SMALL
USER_CHARGES


@<TRIPOS>ATOM
  1 O       -3.3230     2.8920    -1.6230 O.2   1 <1>  -0.5700 
  2 C       -2.9750     2.0220    -0.8530 C.2   1 <1>   0.5690 
  3 N       -3.5570     0.7760    -0.9710 N.am  1 <1>  -0.6600 
  4 C       -1.8810     2.3420     0.2220 C.3   1 <1>   0.2040 
  5 C       -4.5750     0.4910    -2.0190 C.3   1 <1>   0.1400 
  6 C       -3.0810    -0.5040    -0.3840 C.3   1 <1>   0.1400 
  7 C       -0.6480     1.4480    -0.0500 C.ar  1 <1>  -0.1440 
  8 C       -1.3750     3.8190     0.1590 C.3   1 <1>  -0.1600 
  9 C       -2.4740     2.1400     1.6430 C.3   1 <1>  -0.1600 
 10 C       -4.9620    -0.9750    -1.8120 C.3   1 <1>   0.2000 
 11 C       -3.6760    -1.5990    -1.2670 C.3   1 <1>  -0.0800 
 12 C       -0.0640     0.6220     0.9080 C.ar  1 <1>  -0.1500 
 13 C       -0.1010     1.4510    -1.3300 C.ar  1 <1>  -0.1500 
 14 C       -2.1560     4.8370     1.0210 C.3   1 <1>  -0.1600 
 15 C       -3.7080     3.0240     1.9120 C.3   1 <1>  -0.1600 
 16 O       -5.9520    -1.0280    -0.8410 O.3   1 <1>  -0.6800 
 17 C       -3.8050    -2.9580    -0.5510 C.3   1 <1>  -0.0170 
 18 C        1.0110    -0.1890     0.5880 C.ar  1 <1>  -0.1500 
 19 C        0.9790     0.6480    -1.6490 C.ar  1 <1>  -0.1500 
 20 C       -3.6090     4.4150     1.2610 C.3   1 <1>  -0.1600 
 21 C       -2.4970    -3.3200     0.1420 C.ar  1 <1>  -0.1440 
 22 C        1.5350    -0.1770    -0.6900 C.ar  1 <1>  -0.1500 
 23 C       -2.4020    -3.4060     1.5170 C.ar  1 <1>  -0.1500 
 24 C       -1.3320    -3.5520    -0.5620 C.ar  1 <1>  -0.1500 
 25 C       -1.1820    -3.6990     2.1040 C.ar  1 <1>   0.1600 
 26 C       -0.1620    -3.8330     0.1230 C.ar  1 <1>   0.1600 
 27 N       -0.0570    -3.9090     1.4400 N.ar  1 <1>  -0.6200 
 28 H       -5.4220     1.1510    -1.9360 H     1 <1>   0.0800 
 29 H       -4.1200     0.6200    -2.9850 H     1 <1>   0.0800 
 30 H       -2.0100    -0.5830    -0.3900 H     1 <1>   0.0800 
 31 H       -3.4490    -0.5980     0.6220 H     1 <1>   0.0800 
 32 H       -0.3510     3.8500     0.4890 H     1 <1>   0.0800 
 33 H       -1.3660     4.1550    -0.8630 H     1 <1>   0.0800 
 34 H       -2.7370     1.1150     1.8130 H     1 <1>   0.0800 
 35 H       -1.7190     2.3990     2.3650 H     1 <1>   0.0800 
 36 H       -5.3280    -1.4500    -2.7060 H     1 <1>   0.0800 
 37 H       -3.0040    -1.7260    -2.0980 H     1 <1>   0.0800 
 38 H       -0.4310     0.5780     1.9160 H     1 <1>   0.1500 
 39 H       -0.5210     2.0820    -2.0950 H     1 <1>   0.1500 
 40 H       -1.6690     4.9320     1.9770 H     1 <1>   0.0800 
 41 H       -2.1290     5.8030     0.5480 H     1 <1>   0.0800 
 42 H       -4.5930     2.5350     1.5410 H     1 <1>   0.0800 
 43 H       -3.8240     3.1350     2.9760 H     1 <1>   0.0800 
 44 H       -5.7280    -0.3890    -0.1360 H     1 <1>   0.4000 
 45 H       -4.0620    -3.7210    -1.2640 H     1 <1>   0.0800 
 46 H       -4.5930    -2.9210     0.1800 H     1 <1>   0.0800 
 47 H        1.4390    -0.8340     1.3370 H     1 <1>   0.1500 
 48 H        1.3860     0.6670    -2.6450 H     1 <1>   0.1500 
 49 H       -4.1250     4.4060     0.3160 H     1 <1>   0.0800 
 50 H       -4.1030     5.1410     1.8830 H     1 <1>   0.0800 
 51 H        2.3730    -0.8060    -0.9350 H     1 <1>   0.1500 
 52 H       -3.2630    -3.2460     2.1400 H     1 <1>   0.1500 
 53 H       -1.3200    -3.5100    -1.6350 H     1 <1>   0.1500 
 54 H       -1.1290    -3.7610     3.1770 H     1 <1>   0.1500 
 55 H        0.7370    -4.0040    -0.4440 H     1 <1>   0.1500 
@<TRIPOS>BOND
  1   1   2  2   
  2   2   3  am  
  3   2   4  1   
  4   3   5  1   
  5   3   6  1   
  6   4   7  1   
  7   4   8  1   
  8   4   9  1   
  9   5  10  1   
 10   5  28  1   
 11   5  29  1   
 12   6  11  1   
 13   6  30  1   
 14   6  31  1   
 15   7  12  ar  
 16   7  13  ar  
 17   8  14  1   
 18   8  32  1   
 19   8  33  1   
 20   9  15  1   
 21   9  34  1   
 22   9  35  1   
 23  10  11  1   
 24  10  16  1   
 25  10  36  1   
 26  11  17  1   
 27  11  37  1   
 28  12  18  ar  
 29  12  38  1   
 30  13  19  ar  
 31  13  39  1   
 32  14  20  1   
 33  14  40  1   
 34  14  41  1   
 35  15  20  1   
 36  15  42  1   
 37  15  43  1   
 38  16  44  1   
 39  17  21  1   
 40  17  45  1   
 41  17  46  1   
 42  18  22  ar  
 43  18  47  1   
 44  19  22  ar  
 45  19  48  1   
 46  20  49  1   
 47  20  50  1   
 48  21  23  ar  
 49  21  24  ar  
 50  22  51  1   
 51  23  25  ar  
 52  23  52  1   
 53  24  26  ar  
 54  24  53  1   
 55  25  27  ar  
 56  25  54  1   
 57  26  27  ar  
 58  26  55  1   
@<TRIPOS>SUBSTRUCTURE
  1 ****   6 GROUP 4 **** **** 0

# MOE 2024.06 (io_trps.svl 2023.06)
