@<TRIPOS>MOLECULE
NONAME
58 60 1 0 0 
SMALL
USER_CHARGES


@<TRIPOS>ATOM
  1 O       -1.8830    -0.0810    -0.9850 O.3   1 <1>  -0.3630 
  2 C       -1.9940    -1.0010     0.0040 C.ar  1 <1>   0.0830 
  3 C       -1.1780     1.1260    -0.7760 C.3   1 <1>   0.1200 
  4 C       -2.4560    -2.2530    -0.3650 C.ar  1 <1>  -0.1500 
  5 C       -1.6710    -0.7520     1.3330 C.ar  1 <1>  -0.1500 
  6 C       -1.0490     1.8520    -2.1150 C.3   1 <1>   0.1200 
  7 C       -2.6150    -3.2580     0.5780 C.ar  1 <1>  -0.1440 
  8 C       -1.8090    -1.7570     2.2740 C.ar  1 <1>  -0.1500 
  9 O       -0.3890     3.0570    -1.9220 O.3   1 <1>  -0.6800 
 10 C       -2.2750    -3.0050     1.9000 C.ar  1 <1>  -0.1500 
 11 C       -3.1340    -4.6190     0.1430 C.3   1 <1>   0.4860 
 12 N       -4.6110    -4.7710     0.3740 N.4   1 <1>  -0.9590 
 13 C       -5.4060    -3.7100    -0.3220 C.3   1 <1>   0.4230 
 14 C       -4.9130    -4.9490     1.8310 C.3   1 <1>   0.2630 
 15 C       -5.7790    -2.4620     0.4910 C.3   1 <1>  -0.1600 
 16 C       -6.7600    -4.2540    -0.7670 C.3   1 <1>  -0.1600 
 17 C       -6.9580    -1.8520    -0.2820 C.3   1 <1>  -0.0800 
 18 C       -7.6020    -3.0020    -1.0600 C.3   1 <1>  -0.0800 
 19 C       -8.0770    -1.2430     0.5800 C.3   1 <1>  -0.1600 
 20 C       -9.0650    -3.0560    -0.5920 C.3   1 <1>  -0.1600 
 21 C       -9.3940    -1.6410    -0.0980 C.3   1 <1>   0.4230 
 22 N       -9.7120    -0.7300    -1.2460 N.4   1 <1>  -0.9590 
 23 C       -9.9130     0.6930    -0.8140 C.3   1 <1>   0.2630 
 24 C      -10.9340    -1.1590    -2.0020 C.3   1 <1>   0.2630 
 25 H       -1.7330     1.7220    -0.0730 H     1 <1>   0.0800 
 26 H       -0.2020     0.8870    -0.3920 H     1 <1>   0.0800 
 27 H       -2.6820    -2.4160    -1.4030 H     1 <1>   0.1500 
 28 H       -1.3100     0.2080     1.6530 H     1 <1>   0.1500 
 29 H       -2.0150     2.0580    -2.5410 H     1 <1>   0.0800 
 30 H       -0.4630     1.2640    -2.8000 H     1 <1>   0.0800 
 31 H       -1.5470    -1.5640     3.3020 H     1 <1>   0.1500 
 32 H       -0.9590     3.7060    -1.4650 H     1 <1>   0.4000 
 33 H       -2.3570    -3.7700     2.6530 H     1 <1>   0.1500 
 34 H       -2.5990    -5.3860     0.6790 H     1 <1>   0.0800 
 35 H       -2.9190    -4.7460    -0.9060 H     1 <1>   0.0800 
 36 H       -4.8660    -5.6530    -0.0890 H     1 <1>   0.4500 
 37 H       -4.8780    -3.3870    -1.2060 H     1 <1>   0.0800 
 38 H       -4.6360    -4.0630     2.3800 H     1 <1>   0.0800 
 39 H       -4.3630    -5.7860     2.2300 H     1 <1>   0.0800 
 40 H       -5.9650    -5.1290     1.9770 H     1 <1>   0.0800 
 41 H       -6.1030    -2.7220     1.4800 H     1 <1>   0.0800 
 42 H       -4.9680    -1.7600     0.5590 H     1 <1>   0.0800 
 43 H       -6.6700    -4.8700    -1.6450 H     1 <1>   0.0800 
 44 H       -7.2050    -4.8250     0.0290 H     1 <1>   0.0800 
 45 H       -6.5900    -1.1190    -0.9830 H     1 <1>   0.0800 
 46 H       -7.5620    -2.7750    -2.1140 H     1 <1>   0.0800 
 47 H       -7.9470    -0.1870     0.7290 H     1 <1>   0.0800 
 48 H       -8.0750    -1.7000     1.5540 H     1 <1>   0.0800 
 49 H       -9.1490    -3.7130     0.2570 H     1 <1>   0.0800 
 50 H       -9.7240    -3.4330    -1.3510 H     1 <1>   0.0800 
 51 H      -10.2110    -1.6500     0.6070 H     1 <1>   0.0800 
 52 H       -8.9080    -0.7610    -1.8870 H     1 <1>   0.4500 
 53 H      -10.6980     0.7540    -0.0770 H     1 <1>   0.0800 
 54 H      -10.1880     1.3040    -1.6590 H     1 <1>   0.0800 
 55 H       -9.0090     1.0980    -0.3910 H     1 <1>   0.0800 
 56 H      -11.7850    -1.2130    -1.3420 H     1 <1>   0.0800 
 57 H      -10.7860    -2.1260    -2.4550 H     1 <1>   0.0800 
 58 H      -11.1540    -0.4540    -2.7870 H     1 <1>   0.0800 
@<TRIPOS>BOND
  1   1   2  1   
  2   1   3  1   
  3   2   4  ar  
  4   2   5  ar  
  5   3   6  1   
  6   3  25  1   
  7   3  26  1   
  8   4   7  ar  
  9   4  27  1   
 10   5   8  ar  
 11   5  28  1   
 12   6   9  1   
 13   6  29  1   
 14   6  30  1   
 15   7  10  ar  
 16   7  11  1   
 17   8  10  ar  
 18   8  31  1   
 19   9  32  1   
 20  10  33  1   
 21  11  12  1   
 22  11  34  1   
 23  11  35  1   
 24  12  13  1   
 25  12  14  1   
 26  12  36  1   
 27  13  15  1   
 28  13  16  1   
 29  13  37  1   
 30  14  38  1   
 31  14  39  1   
 32  14  40  1   
 33  15  17  1   
 34  15  41  1   
 35  15  42  1   
 36  16  18  1   
 37  16  43  1   
 38  16  44  1   
 39  17  18  1   
 40  17  19  1   
 41  17  45  1   
 42  18  20  1   
 43  18  46  1   
 44  19  21  1   
 45  19  47  1   
 46  19  48  1   
 47  20  21  1   
 48  20  49  1   
 49  20  50  1   
 50  21  22  1   
 51  21  51  1   
 52  22  23  1   
 53  22  24  1   
 54  22  52  1   
 55  23  53  1   
 56  23  54  1   
 57  23  55  1   
 58  24  56  1   
 59  24  57  1   
 60  24  58  1   
@<TRIPOS>SUBSTRUCTURE
  1 ****  15 GROUP 4 **** **** 0

# MOE 2024.06 (io_trps.svl 2023.06)
