@<TRIPOS>MOLECULE
NONAME
56 59 1 0 0 
SMALL
USER_CHARGES


@<TRIPOS>ATOM
  1 O        0.3100    -0.2670    -0.1560 O.2   1 <1>  -0.5700 
  2 C       -0.2600     0.7320    -0.5320 C.2   1 <1>   0.5690 
  3 N       -1.6040     0.9250    -0.3000 N.am  1 <1>  -0.6600 
  4 C        0.5680     1.7550    -1.3060 C.3   1 <1>   0.1810 
  5 C       -2.3840     2.1230    -0.7520 C.3   1 <1>   0.1400 
  6 C       -2.4170    -0.0700     0.4550 C.3   1 <1>   0.1400 
  7 O        0.7000     2.9600    -0.5670 O.3   1 <1>  -0.3620 
  8 C       -3.0570     2.8370     0.4360 C.3   1 <1>   0.1440 
  9 C       -3.0970     0.6030     1.6540 C.3   1 <1>  -0.1600 
 10 C        1.4200     4.0030    -1.0480 C.ar  1 <1>   0.0820 
 11 C       -3.8580     4.0000    -0.1180 C.ar  1 <1>   0.1660 
 12 C       -3.9190     1.8330     1.2290 C.3   1 <1>  -0.1600 
 13 C       -2.0210     3.5580     1.3390 C.3   1 <1>  -0.1600 
 14 C        2.0490     4.8380    -0.1280 C.ar  1 <1>  -0.1440 
 15 C        1.5320     4.2640    -2.4100 C.ar  1 <1>  -0.1500 
 16 N       -5.0020     3.9030    -0.7490 N.ar  1 <1>  -0.6200 
 17 C       -3.2260     5.1870     0.0950 C.ar  1 <1>  -0.1440 
 18 C       -1.9190     5.0040     0.8250 C.3   1 <1>  -0.0170 
 19 C        2.7770     5.9260    -0.5820 C.ar  1 <1>  -0.1500 
 20 C        1.9570     4.5620     1.3670 C.3   1 <1>  -0.0970 
 21 C        2.2650     5.3510    -2.8510 C.ar  1 <1>  -0.1500 
 22 C       -5.5220     5.0610    -1.1650 C.ar  1 <1>   0.7200 
 23 C       -3.8320     6.3250    -0.3710 C.ar  1 <1>   0.1600 
 24 C        2.8860     6.1820    -1.9370 C.ar  1 <1>  -0.1500 
 25 N       -4.9820     6.2730    -1.0030 N.ar  1 <1>  -0.6200 
 26 N       -6.7310     4.9970    -1.8290 N.pl3 1 <1>  -0.8380 
 27 C       -7.6020     3.7910    -1.7750 C.3   1 <1>   0.1290 
 28 C       -7.2730     6.1520    -2.5960 C.3   1 <1>   0.1290 
 29 H        0.0840     1.9610    -2.2400 H     1 <1>   0.0800 
 30 H        1.5540     1.3650    -1.4860 H     1 <1>   0.0800 
 31 H       -3.1480     1.7970    -1.4370 H     1 <1>   0.0800 
 32 H       -1.7620     2.8250    -1.2750 H     1 <1>   0.0800 
 33 H       -1.7990    -0.8810     0.8030 H     1 <1>   0.0800 
 34 H       -3.1620    -0.4810    -0.2040 H     1 <1>   0.0800 
 35 H       -2.3420     0.8890     2.3640 H     1 <1>   0.0800 
 36 H       -3.7420    -0.1100     2.1370 H     1 <1>   0.0800 
 37 H       -4.7340     1.5070     0.6060 H     1 <1>   0.0800 
 38 H       -4.3470     2.3130     2.0920 H     1 <1>   0.0800 
 39 H       -1.0660     3.0640     1.3530 H     1 <1>   0.0800 
 40 H       -2.3930     3.5910     2.3480 H     1 <1>   0.0800 
 41 H        1.0510     3.6420    -3.1400 H     1 <1>   0.1500 
 42 H       -1.1010     5.1060     0.1330 H     1 <1>   0.0800 
 43 H       -1.8070     5.7060     1.6330 H     1 <1>   0.0800 
 44 H        3.2680     6.5800     0.1170 H     1 <1>   0.1500 
 45 H        2.2440     3.5460     1.5690 H     1 <1>   0.0800 
 46 H        0.9490     4.7090     1.7060 H     1 <1>   0.0800 
 47 H        2.6060     5.2150     1.9220 H     1 <1>   0.0800 
 48 H        2.3510     5.5520    -3.9050 H     1 <1>   0.1500 
 49 H       -3.3710     7.2860    -0.2280 H     1 <1>   0.1500 
 50 H        3.4550     7.0290    -2.2800 H     1 <1>   0.1500 
 51 H       -7.4310     3.2400    -0.8660 H     1 <1>   0.0800 
 52 H       -7.3860     3.1540    -2.6150 H     1 <1>   0.0800 
 53 H       -8.6380     4.0800    -1.8040 H     1 <1>   0.0800 
 54 H       -6.4710     6.7560    -2.9860 H     1 <1>   0.0800 
 55 H       -7.8830     6.7580    -1.9500 H     1 <1>   0.0800 
 56 H       -7.8650     5.8030    -3.4230 H     1 <1>   0.0800 
@<TRIPOS>BOND
  1   1   2  2   
  2   2   3  am  
  3   2   4  1   
  4   3   5  1   
  5   3   6  1   
  6   4   7  1   
  7   4  29  1   
  8   4  30  1   
  9   5   8  1   
 10   5  31  1   
 11   5  32  1   
 12   6   9  1   
 13   6  33  1   
 14   6  34  1   
 15   7  10  1   
 16   8  11  1   
 17   8  12  1   
 18   8  13  1   
 19   9  12  1   
 20   9  35  1   
 21   9  36  1   
 22  10  14  ar  
 23  10  15  ar  
 24  11  16  ar  
 25  11  17  ar  
 26  12  37  1   
 27  12  38  1   
 28  13  18  1   
 29  13  39  1   
 30  13  40  1   
 31  14  19  ar  
 32  14  20  1   
 33  15  21  ar  
 34  15  41  1   
 35  16  22  ar  
 36  17  18  1   
 37  17  23  ar  
 38  18  42  1   
 39  18  43  1   
 40  19  24  ar  
 41  19  44  1   
 42  20  45  1   
 43  20  46  1   
 44  20  47  1   
 45  21  24  ar  
 46  21  48  1   
 47  22  25  ar  
 48  22  26  1   
 49  23  25  ar  
 50  23  49  1   
 51  24  50  1   
 52  26  27  1   
 53  26  28  1   
 54  27  51  1   
 55  27  52  1   
 56  27  53  1   
 57  28  54  1   
 58  28  55  1   
 59  28  56  1   
@<TRIPOS>SUBSTRUCTURE
  1 ****   5 GROUP 4 **** **** 0

# MOE 2024.06 (io_trps.svl 2023.06)
