@<TRIPOS>MOLECULE
NONAME
37 39 1 0 0 
SMALL
USER_CHARGES


@<TRIPOS>ATOM
  1 S        2.2360    -0.0840     1.0490 S.3   1 <1>  -0.0800 
  2 C        0.6150    -0.2580     0.4180 C.2   1 <1>   0.4620 
  3 C        2.3570    -1.8130     1.1180 C.2   1 <1>  -0.1100 
  4 N        0.2280    -1.4670     0.2820 N.2   1 <1>  -0.5650 
  5 N       -0.0960     0.8560     0.1280 N.pl3 1 <1>  -0.8840 
  6 C        1.2150    -2.3890     0.6770 C.2   1 <1>   0.1410 
  7 C        1.0270    -3.8430     0.6240 C.2   1 <1>   0.7160 
  8 O        1.9080    -4.5530     1.0800 O.2   1 <1>  -0.5700 
  9 N       -0.0790    -4.4800     0.0880 N.am  1 <1>  -0.6600 
 10 C       -1.2480    -3.8400    -0.5660 C.3   1 <1>   0.1400 
 11 C       -0.2280    -5.9570     0.0790 C.3   1 <1>   0.1400 
 12 C       -2.1280    -4.9960    -1.0420 C.3   1 <1>   0.2000 
 13 C       -1.7090    -6.2050    -0.2100 C.3   1 <1>  -0.0800 
 14 O       -3.4740    -4.7290    -0.8430 O.3   1 <1>  -0.6800 
 15 C       -1.9970    -7.5400    -0.9170 C.3   1 <1>  -0.0170 
 16 C       -1.5880    -8.7280    -0.0630 C.ar  1 <1>   0.1670 
 17 N       -0.3140    -9.0840    -0.1260 N.ar  1 <1>  -0.6200 
 18 C       -2.5350    -9.3660     0.7240 C.ar  1 <1>  -0.1500 
 19 C        0.0310   -10.1160     0.6290 C.ar  1 <1>   0.1600 
 20 C       -2.1620   -10.4400     1.5040 C.ar  1 <1>  -0.1500 
 21 C       -0.8380   -10.8170     1.4470 C.ar  1 <1>  -0.1500 
 22 H        3.2720    -2.2460     1.4820 H     1 <1>   0.1500 
 23 H        0.2780     1.7950     0.2730 H     1 <1>   0.4000 
 24 H       -1.0470     0.7770    -0.2330 H     1 <1>   0.4000 
 25 H       -1.7670    -3.2310     0.1530 H     1 <1>   0.0800 
 26 H       -0.9270    -3.2380    -1.3980 H     1 <1>   0.0800 
 27 H        0.3910    -6.3670    -0.7020 H     1 <1>   0.0800 
 28 H        0.0670    -6.3860     1.0220 H     1 <1>   0.0800 
 29 H       -1.9670    -5.1670    -2.0930 H     1 <1>   0.0800 
 30 H       -2.2220    -6.1860     0.7360 H     1 <1>   0.0800 
 31 H       -3.6430    -4.5390     0.1000 H     1 <1>   0.4000 
 32 H       -1.4680    -7.5830    -1.8530 H     1 <1>   0.0800 
 33 H       -3.0480    -7.6030    -1.1380 H     1 <1>   0.0800 
 34 H       -3.5540    -9.0270     0.7300 H     1 <1>   0.1500 
 35 H        1.0630   -10.4190     0.5920 H     1 <1>   0.1500 
 36 H       -2.8700   -10.9590     2.1260 H     1 <1>   0.1500 
 37 H       -0.4790   -11.6460     2.0300 H     1 <1>   0.1500 
@<TRIPOS>BOND
  1   1   2  1   
  2   1   3  1   
  3   2   4  2   
  4   2   5  1   
  5   3   6  2   
  6   3  22  1   
  7   4   6  1   
  8   5  23  1   
  9   5  24  1   
 10   6   7  1   
 11   7   8  2   
 12   7   9  am  
 13   9  10  1   
 14   9  11  1   
 15  10  12  1   
 16  10  25  1   
 17  10  26  1   
 18  11  13  1   
 19  11  27  1   
 20  11  28  1   
 21  12  13  1   
 22  12  14  1   
 23  12  29  1   
 24  13  15  1   
 25  13  30  1   
 26  14  31  1   
 27  15  16  1   
 28  15  32  1   
 29  15  33  1   
 30  16  17  ar  
 31  16  18  ar  
 32  17  19  ar  
 33  18  20  ar  
 34  18  34  1   
 35  19  21  ar  
 36  19  35  1   
 37  20  21  ar  
 38  20  36  1   
 39  21  37  1   
@<TRIPOS>SUBSTRUCTURE
  1 ****  11 GROUP 4 **** **** 0

# MOE 2024.06 (io_trps.svl 2023.06)
