@<TRIPOS>MOLECULE
NONAME
50 53 1 0 0 
SMALL
USER_CHARGES


@<TRIPOS>ATOM
  1 O        2.1980     1.8490     0.7090 O.3   1 <1>  -0.0190 
  2 N        2.8110     0.7250     0.4890 N.2   1 <1>  -0.4100 
  3 C        0.9680     1.8300     0.2690 C.2   1 <1>  -0.0400 
  4 C        1.9550    -0.0410    -0.0860 C.2   1 <1>   0.1080 
  5 C        0.7400     0.6180    -0.2580 C.2   1 <1>  -0.1500 
  6 C        0.0930     3.0610     0.4100 C.3   1 <1>   0.0200 
  7 C        2.2380    -1.4640    -0.5140 C.3   1 <1>  -0.0590 
  8 C        0.6620     4.2330    -0.4130 C.3   1 <1>  -0.0800 
  9 C       -0.1880     5.5050    -0.4060 C.3   1 <1>   0.2000 
 10 C        2.0490     4.6920     0.0620 C.3   1 <1>   0.3430 
 11 O       -0.6280     5.7260     0.9030 O.3   1 <1>  -0.5600 
 12 C        0.8410     6.5780    -0.7550 C.3   1 <1>   0.3430 
 13 N        2.0360     6.1820     0.0410 N.4   1 <1>  -0.9590 
 14 C       -1.7510     6.5460     1.0230 C.3   1 <1>   0.0400 
 15 C        3.3130     6.8230    -0.3790 C.3   1 <1>   0.5230 
 16 C        3.2100     8.3270    -0.2070 C.2   1 <1>  -0.0400 
 17 O        2.4520     9.0020    -1.0700 O.3   1 <1>  -0.2800 
 18 C        3.7690     9.1540     0.7000 C.2   1 <1>  -0.1810 
 19 C        2.5090    10.2890    -0.7280 C.ar  1 <1>   0.1400 
 20 C        3.3190    10.4540     0.3810 C.ar  1 <1>   0.0000 
 21 C        4.7000     8.8660     1.8650 C.3   1 <1>  -0.0590 
 22 C        1.8750    11.3600    -1.3450 C.ar  1 <1>  -0.1500 
 23 C        3.5070    11.7340     0.9040 C.ar  1 <1>  -0.1500 
 24 C        2.0660    12.6220    -0.8200 C.ar  1 <1>  -0.1500 
 25 C        2.8800    12.8060     0.3020 C.ar  1 <1>  -0.1500 
 26 H       -0.1450     0.2130    -0.7130 H     1 <1>   0.1500 
 27 H       -0.9000     2.8280     0.0670 H     1 <1>   0.0800 
 28 H        0.0270     3.3210     1.4530 H     1 <1>   0.0800 
 29 H        1.5640    -2.1360    -0.0160 H     1 <1>   0.0800 
 30 H        3.2470    -1.7320    -0.2570 H     1 <1>   0.0800 
 31 H        2.1130    -1.5600    -1.5770 H     1 <1>   0.0800 
 32 H        0.7640     3.9050    -1.4330 H     1 <1>   0.0800 
 33 H       -1.0260     5.4590    -1.0830 H     1 <1>   0.0800 
 34 H        2.8090     4.2950    -0.5920 H     1 <1>   0.0800 
 35 H        2.2360     4.3410     1.0650 H     1 <1>   0.0800 
 36 H        0.4920     7.5640    -0.4960 H     1 <1>   0.0800 
 37 H        1.0670     6.5410    -1.8070 H     1 <1>   0.0800 
 38 H        1.8210     6.4960     0.9990 H     1 <1>   0.4500 
 39 H       -1.9840     6.6450     2.0700 H     1 <1>   0.0800 
 40 H       -2.5840     6.0900     0.5160 H     1 <1>   0.0800 
 41 H       -1.5410     7.5180     0.6100 H     1 <1>   0.0800 
 42 H        4.1200     6.4540     0.2310 H     1 <1>   0.0800 
 43 H        3.5290     6.5930    -1.4090 H     1 <1>   0.0800 
 44 H        5.6230     9.4030     1.7330 H     1 <1>   0.0800 
 45 H        4.9200     7.8170     1.9380 H     1 <1>   0.0800 
 46 H        4.2460     9.1890     2.7850 H     1 <1>   0.0800 
 47 H        1.2570    11.1960    -2.2080 H     1 <1>   0.1500 
 48 H        4.1340    11.8730     1.7660 H     1 <1>   0.1500 
 49 H        1.5900    13.4750    -1.2730 H     1 <1>   0.1500 
 50 H        3.0150    13.7990     0.6940 H     1 <1>   0.1500 
@<TRIPOS>BOND
  1   1   2  1   
  2   1   3  1   
  3   2   4  2   
  4   3   5  2   
  5   3   6  1   
  6   4   5  1   
  7   4   7  1   
  8   5  26  1   
  9   6   8  1   
 10   6  27  1   
 11   6  28  1   
 12   7  29  1   
 13   7  30  1   
 14   7  31  1   
 15   8   9  1   
 16   8  10  1   
 17   8  32  1   
 18   9  11  1   
 19   9  12  1   
 20   9  33  1   
 21  10  13  1   
 22  10  34  1   
 23  10  35  1   
 24  11  14  1   
 25  12  13  1   
 26  12  36  1   
 27  12  37  1   
 28  13  15  1   
 29  13  38  1   
 30  14  39  1   
 31  14  40  1   
 32  14  41  1   
 33  15  16  1   
 34  15  42  1   
 35  15  43  1   
 36  16  17  1   
 37  16  18  2   
 38  17  19  1   
 39  18  20  1   
 40  18  21  1   
 41  19  20  ar  
 42  19  22  ar  
 43  20  23  ar  
 44  21  44  1   
 45  21  45  1   
 46  21  46  1   
 47  22  24  ar  
 48  22  47  1   
 49  23  25  ar  
 50  23  48  1   
 51  24  25  ar  
 52  24  49  1   
 53  25  50  1   
@<TRIPOS>SUBSTRUCTURE
  1 ****  13 GROUP 4 **** **** 0

# MOE 2024.06 (io_trps.svl 2023.06)
