@<TRIPOS>MOLECULE
NONAME
58 60 1 0 0 
SMALL
USER_CHARGES


@<TRIPOS>ATOM
  1 O        0.0630    -0.5600    -0.6500 O.3   1 <1>  -0.5600 
  2 C        1.4040    -0.7920    -1.0000 C.3   1 <1>   0.2000 
  3 C       -0.3180     0.7780    -0.5940 C.3   1 <1>   0.1200 
  4 C        2.3790    -0.0260    -0.0600 C.3   1 <1>   0.5660 
  5 C        1.6740    -2.3040    -0.9240 C.3   1 <1>   0.1200 
  6 C        0.5030     1.5020     0.4850 C.3   1 <1>   0.3430 
  7 N        1.9850     1.4000     0.2360 N.4   1 <1>  -0.9590 
  8 C        3.7870     0.0120    -0.6420 C.ar  1 <1>  -0.1430 
  9 O        1.7840    -2.7050     0.4060 O.3   1 <1>  -0.6800 
 10 C        2.7690     1.9020     1.4070 C.3   1 <1>   0.3430 
 11 C        4.8390    -0.5080     0.1000 C.ar  1 <1>  -0.1500 
 12 C        4.0470     0.5620    -1.8930 C.ar  1 <1>  -0.1500 
 13 C        3.3700     3.3100     1.1980 C.3   1 <1>  -0.0800 
 14 C        6.1320    -0.4610    -0.3900 C.ar  1 <1>  -0.1500 
 15 C        5.3410     0.6050    -2.3820 C.ar  1 <1>  -0.1500 
 16 C        2.3390     4.4240     0.9500 C.3   1 <1>  -0.1600 
 17 C        4.4350     3.3600     0.0900 C.3   1 <1>  -0.1600 
 18 C        6.3840     0.0980    -1.6290 C.ar  1 <1>  -0.1500 
 19 C        3.0190     5.7970     0.8480 C.3   1 <1>   0.3430 
 20 C        5.0930     4.7400     0.0050 C.3   1 <1>   0.3430 
 21 N        4.0600     5.8020    -0.2320 N.4   1 <1>  -0.9590 
 22 C        4.6810     7.1530    -0.4050 C.3   1 <1>   0.4230 
 23 C        3.6010     8.1940    -0.7110 C.3   1 <1>  -0.2400 
 24 C        5.6780     7.1290    -1.5670 C.3   1 <1>  -0.2400 
 25 H        1.5240    -0.4740    -2.0200 H     1 <1>   0.0800 
 26 H       -0.1870     1.2240    -1.5650 H     1 <1>   0.0800 
 27 H       -1.3650     0.8050    -0.3420 H     1 <1>   0.0800 
 28 H        2.4090    -0.5700     0.8700 H     1 <1>   0.0800 
 29 H        2.5980    -2.5500    -1.4190 H     1 <1>   0.0800 
 30 H        0.8680    -2.8490    -1.3880 H     1 <1>   0.0800 
 31 H        0.2630     1.0550     1.4360 H     1 <1>   0.0800 
 32 H        0.2050     2.5360     0.5220 H     1 <1>   0.0800 
 33 H        2.2450     1.9250    -0.6010 H     1 <1>   0.4500 
 34 H        1.7180    -3.6810     0.4770 H     1 <1>   0.4000 
 35 H        2.1420     1.9080     2.2850 H     1 <1>   0.0800 
 36 H        3.5840     1.2250     1.6100 H     1 <1>   0.0800 
 37 H        4.6660    -0.9640     1.0620 H     1 <1>   0.1500 
 38 H        3.2590     0.9570    -2.5110 H     1 <1>   0.1500 
 39 H        3.8720     3.5440     2.1240 H     1 <1>   0.0800 
 40 H        6.9450    -0.8690     0.1880 H     1 <1>   0.1500 
 41 H        5.5440     1.0240    -3.3550 H     1 <1>   0.1500 
 42 H        1.6370     4.4560     1.7650 H     1 <1>   0.0800 
 43 H        1.7840     4.2450     0.0460 H     1 <1>   0.0800 
 44 H        4.0100     3.1250    -0.8690 H     1 <1>   0.0800 
 45 H        5.2040     2.6310     0.2900 H     1 <1>   0.0800 
 46 H        7.3910     0.1260    -2.0110 H     1 <1>   0.1500 
 47 H        3.4800     6.0420     1.7930 H     1 <1>   0.0800 
 48 H        2.2660     6.5400     0.6440 H     1 <1>   0.0800 
 49 H        5.8100     4.7290    -0.7990 H     1 <1>   0.0800 
 50 H        5.6210     4.9470     0.9220 H     1 <1>   0.0800 
 51 H        3.5970     5.5990    -1.1250 H     1 <1>   0.4500 
 52 H        5.2000     7.4390     0.4970 H     1 <1>   0.0800 
 53 H        2.9960     7.8960    -1.5490 H     1 <1>   0.0800 
 54 H        4.0650     9.1330    -0.9590 H     1 <1>   0.0800 
 55 H        2.9770     8.3830     0.1430 H     1 <1>   0.0800 
 56 H        5.2220     6.7550    -2.4660 H     1 <1>   0.0800 
 57 H        6.5510     6.5480    -1.3310 H     1 <1>   0.0800 
 58 H        6.0250     8.1280    -1.7650 H     1 <1>   0.0800 
@<TRIPOS>BOND
  1   1   2  1   
  2   1   3  1   
  3   2   4  1   
  4   2   5  1   
  5   2  25  1   
  6   3   6  1   
  7   3  26  1   
  8   3  27  1   
  9   4   7  1   
 10   4   8  1   
 11   4  28  1   
 12   5   9  1   
 13   5  29  1   
 14   5  30  1   
 15   6   7  1   
 16   6  31  1   
 17   6  32  1   
 18   7  10  1   
 19   7  33  1   
 20   8  11  ar  
 21   8  12  ar  
 22   9  34  1   
 23  10  13  1   
 24  10  35  1   
 25  10  36  1   
 26  11  14  ar  
 27  11  37  1   
 28  12  15  ar  
 29  12  38  1   
 30  13  16  1   
 31  13  17  1   
 32  13  39  1   
 33  14  18  ar  
 34  14  40  1   
 35  15  18  ar  
 36  15  41  1   
 37  16  19  1   
 38  16  42  1   
 39  16  43  1   
 40  17  20  1   
 41  17  44  1   
 42  17  45  1   
 43  18  46  1   
 44  19  21  1   
 45  19  47  1   
 46  19  48  1   
 47  20  21  1   
 48  20  49  1   
 49  20  50  1   
 50  21  22  1   
 51  21  51  1   
 52  22  23  1   
 53  22  24  1   
 54  22  52  1   
 55  23  53  1   
 56  23  54  1   
 57  23  55  1   
 58  24  56  1   
 59  24  57  1   
 60  24  58  1   
@<TRIPOS>SUBSTRUCTURE
  1 ****   7 GROUP 4 **** **** 0

# MOE 2024.06 (io_trps.svl 2023.06)
