@<TRIPOS>MOLECULE
NONAME
44 47 1 0 0 
SMALL
USER_CHARGES


@<TRIPOS>ATOM
  1 O       -0.3590    -0.1150    -2.3340 O.2   1 <1>  -0.5700 
  2 C       -1.1110     0.5620    -1.6730 C.2   1 <1>   0.5690 
  3 N       -2.0800    -0.0130    -0.8860 N.am  1 <1>  -0.6600 
  4 C       -0.9390     2.0630    -1.7710 C.3   1 <1>   0.1570 
  5 C       -2.1640    -1.4990    -0.7110 C.3   1 <1>   0.1400 
  6 C       -3.0660     0.7320    -0.0350 C.3   1 <1>   0.1400 
  7 N       -0.4840     2.6030    -0.4850 N.pl3 1 <1>   0.3140 
  8 C       -3.6200    -1.9970    -0.7550 C.3   1 <1>   0.3440 
  9 C       -4.4690     0.0960    -0.1020 C.3   1 <1>   0.2950 
 10 N       -1.2320     3.4740     0.2220 N.2   1 <1>  -0.7070 
 11 C        0.6780     2.3380     0.1450 C.2   1 <1>  -0.3020 
 12 O       -4.4050    -1.2750     0.1560 O.3   1 <1>  -0.5600 
 13 C       -3.6870    -3.4850    -0.4220 C.ar  1 <1>  -0.1440 
 14 C       -5.4130     0.7150     0.9330 C.3   1 <1>  -0.1950 
 15 C       -0.5260     3.7390     1.2800 C.2   1 <1>   0.1390 
 16 C        0.6830     3.0550     1.2890 C.2   1 <1>  -0.1500 
 17 C       -3.6140    -4.4200    -1.4450 C.ar  1 <1>  -0.1500 
 18 C       -3.8050    -3.9290     0.8880 C.ar  1 <1>  -0.1500 
 19 C       -6.8980     0.6560     0.7630 C.3   1 <1>  -0.2000 
 20 C       -6.1750     1.9680     0.6330 C.3   1 <1>  -0.2000 
 21 C       -3.6560    -5.7750    -1.1640 C.ar  1 <1>  -0.1500 
 22 C       -3.8470    -5.2840     1.1710 C.ar  1 <1>  -0.1500 
 23 C       -3.7730    -6.2080     0.1440 C.ar  1 <1>  -0.1500 
 24 H       -1.8680     2.5240    -2.0420 H     1 <1>   0.0800 
 25 H       -0.2050     2.2940    -2.5180 H     1 <1>   0.0800 
 26 H       -1.6020    -2.0030    -1.4780 H     1 <1>   0.0800 
 27 H       -1.7320    -1.7670     0.2370 H     1 <1>   0.0800 
 28 H       -2.7220     0.7270     0.9850 H     1 <1>   0.0800 
 29 H       -3.1490     1.7570    -0.3450 H     1 <1>   0.0800 
 30 H       -4.0260    -1.8390    -1.7390 H     1 <1>   0.0800 
 31 H       -4.8820     0.2320    -1.0870 H     1 <1>   0.0800 
 32 H        1.4200     1.6660    -0.2480 H     1 <1>   0.1500 
 33 H       -5.0330     0.6070     1.9350 H     1 <1>   0.1000 
 34 H       -0.8490     4.4130     2.0550 H     1 <1>   0.1500 
 35 H        1.4370     3.1060     2.0540 H     1 <1>   0.1500 
 36 H       -3.5220    -4.1000    -2.4680 H     1 <1>   0.1500 
 37 H       -3.8670    -3.2180     1.6940 H     1 <1>   0.1500 
 38 H       -7.2970     0.1850    -0.1190 H     1 <1>   0.1000 
 39 H       -7.5030     0.4750     1.6340 H     1 <1>   0.1000 
 40 H       -6.2920     2.7010     1.4130 H     1 <1>   0.1000 
 41 H       -6.1040     2.4150    -0.3440 H     1 <1>   0.1000 
 42 H       -3.5990    -6.4930    -1.9640 H     1 <1>   0.1500 
 43 H       -3.9410    -5.6160     2.1900 H     1 <1>   0.1500 
 44 H       -3.8060    -7.2600     0.3640 H     1 <1>   0.1500 
@<TRIPOS>BOND
  1   1   2  2   
  2   2   3  am  
  3   2   4  1   
  4   3   5  1   
  5   3   6  1   
  6   4   7  1   
  7   4  24  1   
  8   4  25  1   
  9   5   8  1   
 10   5  26  1   
 11   5  27  1   
 12   6   9  1   
 13   6  28  1   
 14   6  29  1   
 15   7  10  1   
 16   7  11  1   
 17   8  12  1   
 18   8  13  1   
 19   8  30  1   
 20   9  12  1   
 21   9  14  1   
 22   9  31  1   
 23  10  15  2   
 24  11  16  2   
 25  11  32  1   
 26  13  17  ar  
 27  13  18  ar  
 28  14  19  1   
 29  14  20  1   
 30  14  33  1   
 31  15  16  1   
 32  15  34  1   
 33  16  35  1   
 34  17  21  ar  
 35  17  36  1   
 36  18  22  ar  
 37  18  37  1   
 38  19  20  1   
 39  19  38  1   
 40  19  39  1   
 41  20  40  1   
 42  20  41  1   
 43  21  23  ar  
 44  21  42  1   
 45  22  23  ar  
 46  22  43  1   
 47  23  44  1   
@<TRIPOS>SUBSTRUCTURE
  1 ****   3 GROUP 4 **** **** 0

# MOE 2024.06 (io_trps.svl 2023.06)
