@<TRIPOS>MOLECULE
NONAME
52 54 1 0 0 
SMALL
USER_CHARGES


@<TRIPOS>ATOM
  1 O        0.7120     0.1200    -1.1550 O.3   1 <1>  -0.0190 
  2 N        1.5690     1.0880    -0.9680 N.2   1 <1>  -0.4100 
  3 C        1.2740    -0.9160    -0.5820 C.2   1 <1>   0.2980 
  4 C        2.5540     0.5950    -0.3200 C.2   1 <1>   0.5990 
  5 N        2.4060    -0.6940    -0.0460 N.2   1 <1>  -0.5650 
  6 C        0.5210    -2.2460    -0.6190 C.3   1 <1>   0.1000 
  7 N        3.6940     1.3010     0.0790 N.pl3 1 <1>  -0.8210 
  8 C       -0.7050    -2.2000     0.3030 C.3   1 <1>  -0.2400 
  9 C        1.4120    -3.4400    -0.2400 C.3   1 <1>  -0.2400 
 10 C        3.5560     2.7730     0.1840 C.3   1 <1>   0.2090 
 11 C        4.5410     0.6930     1.1450 C.3   1 <1>   0.2090 
 12 C        4.9440     3.4190     0.0900 C.3   1 <1>  -0.0800 
 13 C        5.9290     1.3410     1.1340 C.3   1 <1>  -0.1600 
 14 C        5.8650     2.8740     1.2030 C.3   1 <1>  -0.1600 
 15 C        4.7850     4.9450     0.1350 C.3   1 <1>   0.3430 
 16 N        6.0990     5.6390     0.0400 N.4   1 <1>  -0.9590 
 17 C        6.0390     7.0960     0.3910 C.3   1 <1>   0.3430 
 18 C        6.8320     5.4460    -1.2580 C.3   1 <1>   0.3430 
 19 C        7.4610     7.7090     0.4430 C.3   1 <1>   0.1100 
 20 C        8.2420     6.0840    -1.1960 C.3   1 <1>   0.1100 
 21 N        8.5120     6.7160     0.1170 N.3   1 <1>  -0.8100 
 22 C        9.8510     7.3190     0.1560 C.3   1 <1>   0.0300 
 23 H        0.1820    -2.3950    -1.6300 H     1 <1>   0.0800 
 24 H       -0.3980    -2.0380     1.3220 H     1 <1>   0.0800 
 25 H       -1.2530    -3.1240     0.2490 H     1 <1>   0.0800 
 26 H       -1.3600    -1.3980     0.0120 H     1 <1>   0.0800 
 27 H        1.7650    -3.3390     0.7710 H     1 <1>   0.0800 
 28 H        2.2650    -3.4840    -0.8950 H     1 <1>   0.0800 
 29 H        0.8660    -4.3620    -0.3270 H     1 <1>   0.0800 
 30 H        3.0810     3.0170     1.1200 H     1 <1>   0.0800 
 31 H        2.9390     3.1420    -0.6180 H     1 <1>   0.0800 
 32 H        4.6510    -0.3650     0.9780 H     1 <1>   0.0800 
 33 H        4.0670     0.8370     2.1020 H     1 <1>   0.0800 
 34 H        5.3420     3.1400    -0.8690 H     1 <1>   0.0800 
 35 H        6.4320     1.0390     0.2310 H     1 <1>   0.0800 
 36 H        6.4990     0.9610     1.9630 H     1 <1>   0.0800 
 37 H        5.4850     3.1650     2.1690 H     1 <1>   0.0800 
 38 H        6.8630     3.2610     1.1030 H     1 <1>   0.0800 
 39 H        4.3070     5.2130     1.0630 H     1 <1>   0.0800 
 40 H        4.1460     5.2640    -0.6730 H     1 <1>   0.0800 
 41 H        6.7530     5.2540     0.7400 H     1 <1>   0.4500 
 42 H        5.5710     7.2240     1.3520 H     1 <1>   0.0800 
 43 H        5.4490     7.6280    -0.3370 H     1 <1>   0.0800 
 44 H        6.2760     5.8880    -2.0680 H     1 <1>   0.0800 
 45 H        6.9400     4.3960    -1.4690 H     1 <1>   0.0800 
 46 H        7.6360     8.0990     1.4320 H     1 <1>   0.0800 
 47 H        7.5140     8.5380    -0.2440 H     1 <1>   0.0800 
 48 H        8.3350     6.8150    -1.9820 H     1 <1>   0.0800 
 49 H        8.9770     5.3180    -1.3790 H     1 <1>   0.0800 
 50 H       10.0400     7.7330     1.1330 H     1 <1>   0.0800 
 51 H        9.9400     8.1020    -0.5780 H     1 <1>   0.0800 
 52 H       10.5990     6.5690    -0.0400 H     1 <1>   0.0800 
@<TRIPOS>BOND
  1   1   2  1   
  2   1   3  1   
  3   2   4  2   
  4   3   5  2   
  5   3   6  1   
  6   4   5  1   
  7   4   7  1   
  8   6   8  1   
  9   6   9  1   
 10   6  23  1   
 11   7  10  1   
 12   7  11  1   
 13   8  24  1   
 14   8  25  1   
 15   8  26  1   
 16   9  27  1   
 17   9  28  1   
 18   9  29  1   
 19  10  12  1   
 20  10  30  1   
 21  10  31  1   
 22  11  13  1   
 23  11  32  1   
 24  11  33  1   
 25  12  14  1   
 26  12  15  1   
 27  12  34  1   
 28  13  14  1   
 29  13  35  1   
 30  13  36  1   
 31  14  37  1   
 32  14  38  1   
 33  15  16  1   
 34  15  39  1   
 35  15  40  1   
 36  16  17  1   
 37  16  18  1   
 38  16  41  1   
 39  17  19  1   
 40  17  42  1   
 41  17  43  1   
 42  18  20  1   
 43  18  44  1   
 44  18  45  1   
 45  19  21  1   
 46  19  46  1   
 47  19  47  1   
 48  20  21  1   
 49  20  48  1   
 50  20  49  1   
 51  21  22  1   
 52  22  50  1   
 53  22  51  1   
 54  22  52  1   
@<TRIPOS>SUBSTRUCTURE
  1 ****  10 GROUP 4 **** **** 0

# MOE 2024.06 (io_trps.svl 2023.06)
