@<TRIPOS>MOLECULE
NONAME
52 54 1 0 0 
SMALL
USER_CHARGES


@<TRIPOS>ATOM
  1 O       -0.2640     0.2890    -0.0050 O.3   1 <1>  -0.5600 
  2 C        0.9800     0.3040    -0.6400 C.3   1 <1>   0.2640 
  3 C       -1.3110     0.8130    -0.7430 C.3   1 <1>   0.1200 
  4 C        2.0160    -0.2470     0.3240 C.ar  1 <1>  -0.1440 
  5 C       -2.5680     0.6920     0.1260 C.3   1 <1>   0.3430 
  6 C        1.9440    -1.5670     0.7430 C.ar  1 <1>  -0.1500 
  7 C        3.0450     0.5580     0.7910 C.ar  1 <1>  -0.1500 
  8 N       -3.8050     1.1870    -0.5590 N.4   1 <1>  -0.9590 
  9 C        2.8900    -2.0780     1.6150 C.ar  1 <1>  -0.1500 
 10 C        3.9910     0.0480     1.6640 C.ar  1 <1>  -0.1500 
 11 C       -5.0070     0.7740     0.2360 C.3   1 <1>   0.3430 
 12 C       -3.7920     2.6670    -0.7580 C.3   1 <1>   0.3430 
 13 C        3.9140    -1.2710     2.0760 C.ar  1 <1>  -0.1500 
 14 C       -6.3240     1.1550    -0.4750 C.3   1 <1>   0.0000 
 15 C       -5.0520     3.1020    -1.5110 C.3   1 <1>  -0.1600 
 16 C       -7.5110     0.7470     0.4110 C.3   1 <1>   0.2000 
 17 C       -6.3320     2.6670    -0.7800 C.3   1 <1>  -0.1600 
 18 C       -6.5380     0.2960    -1.7330 C.3   1 <1>  -0.1600 
 19 O       -7.1790     0.9230     1.7550 O.3   1 <1>  -0.5600 
 20 C       -7.7850    -0.7300     0.1010 C.3   1 <1>  -0.1600 
 21 C       -7.0610    -1.0440    -1.2140 C.3   1 <1>  -0.1600 
 22 C       -8.2660     0.9150     2.6310 C.3   1 <1>   0.0400 
 23 H        0.9300    -0.3130    -1.5210 H     1 <1>   0.0800 
 24 H        1.2200     1.3160    -0.9170 H     1 <1>   0.0800 
 25 H       -1.0870     1.8420    -0.9650 H     1 <1>   0.0800 
 26 H       -1.4130     0.2370    -1.6470 H     1 <1>   0.0800 
 27 H       -2.4150     1.2440     1.0390 H     1 <1>   0.0800 
 28 H       -2.6950    -0.3470     0.3810 H     1 <1>   0.0800 
 29 H        1.1470    -2.2000     0.3940 H     1 <1>   0.1500 
 30 H        3.1180     1.5850     0.4820 H     1 <1>   0.1500 
 31 H       -3.8890     0.7350    -1.4770 H     1 <1>   0.4500 
 32 H        2.8270    -3.1030     1.9370 H     1 <1>   0.1500 
 33 H        4.7860     0.6770     2.0230 H     1 <1>   0.1500 
 34 H       -4.9960    -0.2900     0.4050 H     1 <1>   0.0800 
 35 H       -4.9820     1.2580     1.1990 H     1 <1>   0.0800 
 36 H       -3.7600     3.1610     0.2000 H     1 <1>   0.0800 
 37 H       -2.9220     2.9610    -1.3210 H     1 <1>   0.0800 
 38 H        4.6500    -1.6670     2.7540 H     1 <1>   0.1500 
 39 H       -5.0490     4.1740    -1.6040 H     1 <1>   0.0800 
 40 H       -5.0360     2.6960    -2.5070 H     1 <1>   0.0800 
 41 H       -8.3740     1.3480     0.1700 H     1 <1>   0.0800 
 42 H       -7.1960     2.9280    -1.3680 H     1 <1>   0.0800 
 43 H       -6.4030     3.2080     0.1500 H     1 <1>   0.0800 
 44 H       -7.3040     0.7420    -2.3460 H     1 <1>   0.0800 
 45 H       -5.6560     0.1740    -2.3350 H     1 <1>   0.0800 
 46 H       -7.4160    -1.3680     0.8860 H     1 <1>   0.0800 
 47 H       -8.8440    -0.8860    -0.0110 H     1 <1>   0.0800 
 48 H       -6.2400    -1.7140    -1.0220 H     1 <1>   0.0800 
 49 H       -7.7210    -1.5090    -1.9270 H     1 <1>   0.0800 
 50 H       -7.8930     1.0620     3.6290 H     1 <1>   0.0800 
 51 H       -8.7720    -0.0320     2.5720 H     1 <1>   0.0800 
 52 H       -8.9360     1.7180     2.3760 H     1 <1>   0.0800 
@<TRIPOS>BOND
  1   1   2  1   
  2   1   3  1   
  3   2   4  1   
  4   2  23  1   
  5   2  24  1   
  6   3   5  1   
  7   3  25  1   
  8   3  26  1   
  9   4   6  ar  
 10   4   7  ar  
 11   5   8  1   
 12   5  27  1   
 13   5  28  1   
 14   6   9  ar  
 15   6  29  1   
 16   7  10  ar  
 17   7  30  1   
 18   8  11  1   
 19   8  12  1   
 20   8  31  1   
 21   9  13  ar  
 22   9  32  1   
 23  10  13  ar  
 24  10  33  1   
 25  11  14  1   
 26  11  34  1   
 27  11  35  1   
 28  12  15  1   
 29  12  36  1   
 30  12  37  1   
 31  13  38  1   
 32  14  16  1   
 33  14  17  1   
 34  14  18  1   
 35  15  17  1   
 36  15  39  1   
 37  15  40  1   
 38  16  19  1   
 39  16  20  1   
 40  16  41  1   
 41  17  42  1   
 42  17  43  1   
 43  18  21  1   
 44  18  44  1   
 45  18  45  1   
 46  19  22  1   
 47  20  21  1   
 48  20  46  1   
 49  20  47  1   
 50  21  48  1   
 51  21  49  1   
 52  22  50  1   
 53  22  51  1   
 54  22  52  1   
@<TRIPOS>SUBSTRUCTURE
  1 ****   5 GROUP 4 **** **** 0

# MOE 2024.06 (io_trps.svl 2023.06)
