@<TRIPOS>MOLECULE
NONAME
54 57 1 0 0 
SMALL
USER_CHARGES


@<TRIPOS>ATOM
  1 O       -0.4560     0.3430     0.6040 O.2   1 <1>  -0.5700 
  2 C       -1.4310     1.0050     0.2890 C.2   1 <1>   0.7150 
  3 N       -2.6150     0.3220     0.0810 N.am  1 <1>  -0.6600 
  4 C       -1.3020     2.4450     0.1400 C.2   1 <1>   0.0550 
  5 C       -3.8670     0.8840    -0.4900 C.3   1 <1>   0.1400 
  6 C       -2.6920    -1.1640     0.1030 C.3   1 <1>   0.1400 
  7 O       -2.3390     3.2590     0.3420 O.3   1 <1>  -0.2800 
  8 C       -0.2210     3.2190    -0.1800 C.2   1 <1>  -0.1810 
  9 C       -4.8800    -0.2550    -0.3930 C.3   1 <1>   0.2000 
 10 C       -4.0250    -1.5110    -0.5680 C.3   1 <1>  -0.0800 
 11 C       -1.9590     4.5050     0.1690 C.2   1 <1>  -0.0400 
 12 C       -0.6510     4.5460    -0.1600 C.2   1 <1>  -0.1500 
 13 C        1.2050     2.8120    -0.5060 C.3   1 <1>  -0.0590 
 14 O       -5.4210    -0.2340     0.8850 O.3   1 <1>  -0.6800 
 15 C       -4.6560    -2.8200    -0.0580 C.3   1 <1>   0.0210 
 16 C       -2.9770     5.6150     0.3560 C.3   1 <1>   0.3000 
 17 C       -3.7280    -3.9950    -0.2960 C.2   1 <1>   0.1080 
 18 O       -2.3780     6.8650     0.0810 O.3   1 <1>  -0.3630 
 19 N       -3.4090    -4.4100    -1.4830 N.2   1 <1>  -0.7070 
 20 C       -3.1170    -4.7430     0.7050 C.2   1 <1>  -0.1500 
 21 C       -3.0870     8.0170     0.1730 C.ar  1 <1>   0.0820 
 22 N       -2.5780    -5.4470    -1.2680 N.pl3 1 <1>   0.3000 
 23 C       -2.3840    -5.6670     0.0490 C.2   1 <1>  -0.3320 
 24 C       -4.4260     8.0790     0.5520 C.ar  1 <1>  -0.1500 
 25 C       -2.4120     9.1870    -0.1360 C.ar  1 <1>  -0.1500 
 26 C       -1.4970    -6.7640     0.6090 C.3   1 <1>  -0.0600 
 27 C       -5.0700     9.3030     0.6170 C.ar  1 <1>  -0.1500 
 28 C       -3.0580    10.4090    -0.0700 C.ar  1 <1>  -0.1500 
 29 C       -4.3880    10.4670     0.3070 C.ar  1 <1>  -0.1500 
 30 H       -4.2120     1.7480     0.0510 H     1 <1>   0.0800 
 31 H       -3.6980     1.1440    -1.5200 H     1 <1>   0.0800 
 32 H       -1.8640    -1.6040    -0.4300 H     1 <1>   0.0800 
 33 H       -2.6720    -1.5010     1.1250 H     1 <1>   0.0800 
 34 H       -5.6810    -0.1770    -1.1080 H     1 <1>   0.0800 
 35 H       -3.8290    -1.6290    -1.6190 H     1 <1>   0.0800 
 36 H       -0.0470     5.4120    -0.3650 H     1 <1>   0.1500 
 37 H        1.5190     3.2770    -1.4220 H     1 <1>   0.0800 
 38 H        1.2870     1.7460    -0.6200 H     1 <1>   0.0800 
 39 H        1.8620     3.1230     0.2860 H     1 <1>   0.0800 
 40 H       -4.6890    -0.1330     1.5280 H     1 <1>   0.4000 
 41 H       -5.5790    -3.0000    -0.5780 H     1 <1>   0.0800 
 42 H       -4.8750    -2.7530     0.9920 H     1 <1>   0.0800 
 43 H       -3.3280     5.6220     1.3720 H     1 <1>   0.0800 
 44 H       -3.7990     5.4770    -0.3230 H     1 <1>   0.0800 
 45 H       -3.2230    -4.5930     1.7640 H     1 <1>   0.1500 
 46 H       -2.1620    -5.9820    -2.0390 H     1 <1>   0.2700 
 47 H       -4.9830     7.1970     0.8000 H     1 <1>   0.1500 
 48 H       -1.3780     9.1350    -0.4270 H     1 <1>   0.1500 
 49 H       -1.5060    -6.7340     1.6840 H     1 <1>   0.0800 
 50 H       -0.4840    -6.6320     0.2720 H     1 <1>   0.0800 
 51 H       -1.8510    -7.7280     0.2910 H     1 <1>   0.0800 
 52 H       -6.1050     9.3520     0.9100 H     1 <1>   0.1500 
 53 H       -2.5260    11.3130    -0.3120 H     1 <1>   0.1500 
 54 H       -4.8920    11.4170     0.3580 H     1 <1>   0.1500 
@<TRIPOS>BOND
  1   1   2  2   
  2   2   3  am  
  3   2   4  1   
  4   3   5  1   
  5   3   6  1   
  6   4   7  1   
  7   4   8  2   
  8   5   9  1   
  9   5  30  1   
 10   5  31  1   
 11   6  10  1   
 12   6  32  1   
 13   6  33  1   
 14   7  11  1   
 15   8  12  1   
 16   8  13  1   
 17   9  10  1   
 18   9  14  1   
 19   9  34  1   
 20  10  15  1   
 21  10  35  1   
 22  11  12  2   
 23  11  16  1   
 24  12  36  1   
 25  13  37  1   
 26  13  38  1   
 27  13  39  1   
 28  14  40  1   
 29  15  17  1   
 30  15  41  1   
 31  15  42  1   
 32  16  18  1   
 33  16  43  1   
 34  16  44  1   
 35  17  19  2   
 36  17  20  1   
 37  18  21  1   
 38  19  22  1   
 39  20  23  2   
 40  20  45  1   
 41  21  24  ar  
 42  21  25  ar  
 43  22  23  1   
 44  22  46  1   
 45  23  26  1   
 46  24  27  ar  
 47  24  47  1   
 48  25  28  ar  
 49  25  48  1   
 50  26  49  1   
 51  26  50  1   
 52  26  51  1   
 53  27  29  ar  
 54  27  52  1   
 55  28  29  ar  
 56  28  53  1   
 57  29  54  1   
@<TRIPOS>SUBSTRUCTURE
  1 ****   7 GROUP 4 **** **** 0

# MOE 2024.06 (io_trps.svl 2023.06)
