@<TRIPOS>MOLECULE
NONAME
51 54 1 0 0 
SMALL
USER_CHARGES


@<TRIPOS>ATOM
  1 O       -0.5860    -0.6740    -0.1280 O.3   1 <1>  -0.5600 
  2 C       -1.7520    -1.4460    -0.0710 C.3   1 <1>   0.1200 
  3 C        0.4930    -1.3310    -0.7330 C.3   1 <1>   0.1200 
  4 C       -1.5230    -2.7370     0.7390 C.3   1 <1>   0.2090 
  5 C        0.8620    -2.6040     0.0470 C.3   1 <1>   0.2090 
  6 N       -0.3370    -3.4950     0.2220 N.pl3 1 <1>  -0.8380 
  7 C       -0.3660    -4.7990    -0.1750 C.ar  1 <1>   0.4100 
  8 N        0.4540    -5.1510    -1.1650 N.ar  1 <1>  -0.6200 
  9 C       -1.2080    -5.7260     0.4270 C.ar  1 <1>  -0.1500 
 10 C        0.4280    -6.3930    -1.5550 C.ar  1 <1>   0.7710 
 11 C       -1.2150    -7.0270    -0.0050 C.ar  1 <1>   0.4610 
 12 N       -0.3750    -7.3270    -1.0110 N.ar  1 <1>  -0.1790 
 13 N        1.2550    -6.7280    -2.5500 N.pl3 1 <1>  -0.9000 
 14 N       -2.0120    -7.9860     0.5460 N.pl3 1 <1>  -0.8690 
 15 C       -2.2110    -9.4160     0.1690 C.3   1 <1>   0.2890 
 16 C       -3.6780    -9.8160     0.2380 C.3   1 <1>  -0.0800 
 17 C       -1.5700   -10.3840     1.1530 C.3   1 <1>   0.1200 
 18 C       -3.6220   -11.2790     0.6990 C.3   1 <1>   0.1200 
 19 C       -4.4240    -9.6160    -1.0920 C.3   1 <1>  -0.0170 
 20 O       -2.2850   -11.5600     0.9820 O.3   1 <1>  -0.5600 
 21 C       -5.8710   -10.0670    -0.9820 C.ar  1 <1>  -0.1430 
 22 C       -6.8260    -9.3030    -0.3410 C.ar  1 <1>  -0.1500 
 23 C       -6.3080   -11.2640    -1.5150 C.ar  1 <1>  -0.1500 
 24 C       -8.1310    -9.7610    -0.2610 C.ar  1 <1>   0.1600 
 25 C       -7.6370   -11.6300    -1.3790 C.ar  1 <1>   0.1600 
 26 N       -8.5570   -10.9080    -0.7620 N.ar  1 <1>  -0.6200 
 27 H       -2.5160    -0.8470     0.3910 H     1 <1>   0.0800 
 28 H       -2.0570    -1.6800    -1.0760 H     1 <1>   0.0800 
 29 H        0.2280    -1.5740    -1.7470 H     1 <1>   0.0800 
 30 H        1.3260    -0.6500    -0.7460 H     1 <1>   0.0800 
 31 H       -2.4130    -3.3360     0.6800 H     1 <1>   0.0800 
 32 H       -1.3580    -2.4770     1.7710 H     1 <1>   0.0800 
 33 H        1.2330    -2.3200     1.0160 H     1 <1>   0.0800 
 34 H        1.6570    -3.1150    -0.4650 H     1 <1>   0.0800 
 35 H       -1.8380    -5.4240     1.2380 H     1 <1>   0.1500 
 36 H       -0.3140    -8.2690    -1.3590 H     1 <1>   0.4570 
 37 H        1.3920    -7.6350    -2.9970 H     1 <1>   0.4000 
 38 H        1.8440    -5.9820    -2.9360 H     1 <1>   0.4000 
 39 H       -2.5780    -7.7240     1.3660 H     1 <1>   0.4000 
 40 H       -1.8210    -9.6210    -0.8120 H     1 <1>   0.0800 
 41 H       -4.1770    -9.2580     1.0110 H     1 <1>   0.0800 
 42 H       -1.7020   -10.0640     2.1720 H     1 <1>   0.0800 
 43 H       -0.5330   -10.5750     0.9430 H     1 <1>   0.0800 
 44 H       -3.9500   -11.9680    -0.0600 H     1 <1>   0.0800 
 45 H       -4.2010   -11.4310     1.5950 H     1 <1>   0.0800 
 46 H       -3.9360   -10.1690    -1.8760 H     1 <1>   0.0800 
 47 H       -4.4040    -8.5750    -1.3650 H     1 <1>   0.0800 
 48 H       -6.5730    -8.3550     0.0960 H     1 <1>   0.1500 
 49 H       -5.6340   -11.9190    -2.0350 H     1 <1>   0.1500 
 50 H       -8.8630    -9.1520     0.2420 H     1 <1>   0.1500 
 51 H       -7.9600   -12.5670    -1.8000 H     1 <1>   0.1500 
@<TRIPOS>BOND
  1   1   2  1   
  2   1   3  1   
  3   2   4  1   
  4   2  27  1   
  5   2  28  1   
  6   3   5  1   
  7   3  29  1   
  8   3  30  1   
  9   4   6  1   
 10   4  31  1   
 11   4  32  1   
 12   5   6  1   
 13   5  33  1   
 14   5  34  1   
 15   6   7  1   
 16   7   8  ar  
 17   7   9  ar  
 18   8  10  ar  
 19   9  11  ar  
 20   9  35  1   
 21  10  12  ar  
 22  10  13  1   
 23  11  12  ar  
 24  11  14  1   
 25  12  36  1   
 26  13  37  1   
 27  13  38  1   
 28  14  15  1   
 29  14  39  1   
 30  15  16  1   
 31  15  17  1   
 32  15  40  1   
 33  16  18  1   
 34  16  19  1   
 35  16  41  1   
 36  17  20  1   
 37  17  42  1   
 38  17  43  1   
 39  18  20  1   
 40  18  44  1   
 41  18  45  1   
 42  19  21  1   
 43  19  46  1   
 44  19  47  1   
 45  21  22  ar  
 46  21  23  ar  
 47  22  24  ar  
 48  22  48  1   
 49  23  25  ar  
 50  23  49  1   
 51  24  26  ar  
 52  24  50  1   
 53  25  26  ar  
 54  25  51  1   
@<TRIPOS>SUBSTRUCTURE
  1 ****  14 GROUP 4 **** **** 0

# MOE 2024.06 (io_trps.svl 2023.06)
