@<TRIPOS>MOLECULE
NONAME
48 49 1 0 0 
SMALL
USER_CHARGES


@<TRIPOS>ATOM
  1 O        1.5110    -0.7960    -2.1870 O.2   1 <1>  -0.5700 
  2 C        1.6610    -0.6120    -1.0000 C.2   1 <1>   0.5690 
  3 N        2.1190     0.5730    -0.4940 N.am  1 <1>  -0.4930 
  4 C        1.3470    -1.7550    -0.0120 C.3   1 <1>   0.2810 
  5 C        2.3900     1.7820    -1.1800 C.2   1 <1>   0.0630 
  6 N        2.4500    -2.7540     0.0000 N.am  1 <1>  -0.7300 
  7 C        0.0290    -2.4990    -0.3050 C.3   1 <1>  -0.1600 
  8 C        2.2370     2.0990    -2.5310 C.2   1 <1>   0.1390 
  9 C        2.8630     2.9140    -0.6210 C.2   1 <1>  -0.3020 
 10 C        3.0280    -3.3840     1.0450 C.2   1 <1>   0.5690 
 11 C       -1.2430    -1.7770     0.1850 C.3   1 <1>  -0.0800 
 12 N        2.5820     3.3260    -2.7930 N.2   1 <1>  -0.7070 
 13 N        2.9690     3.8360    -1.6080 N.pl3 1 <1>   0.3140 
 14 O        3.9400    -4.1440     0.8610 O.2   1 <1>  -0.5700 
 15 C        2.5440    -3.1500     2.4550 C.3   1 <1>  -0.1790 
 16 C       -2.4580    -2.6850    -0.0370 C.3   1 <1>  -0.2400 
 17 C       -1.4850    -0.4360    -0.5220 C.3   1 <1>  -0.2400 
 18 C        3.4560     5.2310    -1.4970 C.3   1 <1>   0.2390 
 19 C        3.2670     5.7940    -0.0930 C.ar  1 <1>  -0.1430 
 20 C        1.9990     6.1330     0.3550 C.ar  1 <1>  -0.1500 
 21 C        4.3560     5.9690     0.7490 C.ar  1 <1>  -0.1500 
 22 C        1.8210     6.6410     1.6300 C.ar  1 <1>  -0.1500 
 23 C        4.1780     6.4770     2.0240 C.ar  1 <1>  -0.1500 
 24 C        2.9100     6.8130     2.4650 C.ar  1 <1>  -0.1500 
 25 H        2.3130     0.6110     0.5040 H     1 <1>   0.3700 
 26 H        1.2700    -1.3270     0.9710 H     1 <1>   0.0800 
 27 H        2.8150    -2.9970    -0.9260 H     1 <1>   0.3700 
 28 H       -0.0480    -2.6920    -1.3620 H     1 <1>   0.0800 
 29 H        0.0670    -3.4540     0.1900 H     1 <1>   0.0800 
 30 H        1.8760     1.4110    -3.2760 H     1 <1>   0.1500 
 31 H        3.1230     3.1220     0.4000 H     1 <1>   0.1500 
 32 H       -1.1590    -1.5950     1.2440 H     1 <1>   0.0800 
 33 H        1.4860    -3.3200     2.5140 H     1 <1>   0.0800 
 34 H        2.7720    -2.1450     2.7560 H     1 <1>   0.0800 
 35 H        3.0400    -3.8310     3.1220 H     1 <1>   0.0800 
 36 H       -2.5920    -2.8890    -1.0860 H     1 <1>   0.0800 
 37 H       -3.3520    -2.2170     0.3360 H     1 <1>   0.0800 
 38 H       -2.3310    -3.6200     0.4800 H     1 <1>   0.0800 
 39 H       -1.4550    -0.5600    -1.5910 H     1 <1>   0.0800 
 40 H       -0.7520     0.2950    -0.2370 H     1 <1>   0.0800 
 41 H       -2.4500    -0.0420    -0.2560 H     1 <1>   0.0800 
 42 H        4.4930     5.2440    -1.7730 H     1 <1>   0.0800 
 43 H        2.9130     5.8300    -2.2050 H     1 <1>   0.0800 
 44 H        1.1440     6.0010    -0.2860 H     1 <1>   0.1500 
 45 H        5.3490     5.7120     0.4200 H     1 <1>   0.1500 
 46 H        0.8350     6.9030     1.9720 H     1 <1>   0.1500 
 47 H        5.0250     6.6130     2.6740 H     1 <1>   0.1500 
 48 H        2.7720     7.2090     3.4560 H     1 <1>   0.1500 
@<TRIPOS>BOND
  1   1   2  2   
  2   2   3  am  
  3   2   4  1   
  4   3   5  1   
  5   3  25  1   
  6   4   6  1   
  7   4   7  1   
  8   4  26  1   
  9   5   8  1   
 10   5   9  2   
 11   6  10  am  
 12   6  27  1   
 13   7  11  1   
 14   7  28  1   
 15   7  29  1   
 16   8  12  2   
 17   8  30  1   
 18   9  13  1   
 19   9  31  1   
 20  10  14  2   
 21  10  15  1   
 22  11  16  1   
 23  11  17  1   
 24  11  32  1   
 25  12  13  1   
 26  13  18  1   
 27  15  33  1   
 28  15  34  1   
 29  15  35  1   
 30  16  36  1   
 31  16  37  1   
 32  16  38  1   
 33  17  39  1   
 34  17  40  1   
 35  17  41  1   
 36  18  19  1   
 37  18  42  1   
 38  18  43  1   
 39  19  20  ar  
 40  19  21  ar  
 41  20  22  ar  
 42  20  44  1   
 43  21  23  ar  
 44  21  45  1   
 45  22  24  ar  
 46  22  46  1   
 47  23  24  ar  
 48  23  47  1   
 49  24  48  1   
@<TRIPOS>SUBSTRUCTURE
  1 ****   3 GROUP 4 **** **** 0

# MOE 2024.06 (io_trps.svl 2023.06)
