@<TRIPOS>MOLECULE
NONAME
50 51 1 0 0 
SMALL
USER_CHARGES


@<TRIPOS>ATOM
  1 O        0.2880     0.2480    -0.3400 O.2   1 <1>  -0.5700 
  2 C        1.0050    -0.2900     0.4660 C.2   1 <1>   0.5690 
  3 N        2.0860     0.3280     0.9990 N.am  1 <1>  -0.7300 
  4 C        0.7000    -1.7090     0.8730 C.3   1 <1>  -0.0990 
  5 C        2.4690     1.7380     0.7260 C.3   1 <1>   0.1400 
  6 C        0.9110    -2.6420    -0.3220 C.3   1 <1>   0.0960 
  7 C        3.0990     1.8800    -0.6660 C.3   1 <1>   0.2090 
  8 N        0.6770    -4.0400     0.0820 N.pl3 1 <1>   0.3140 
  9 N        3.6310     3.2510    -0.8650 N.pl3 1 <1>  -0.8690 
 10 N        1.6360    -4.7110     0.7320 N.2   1 <1>  -0.7070 
 11 C       -0.4300    -4.7900    -0.0780 C.2   1 <1>  -0.3320 
 12 C        4.8230     3.5650    -0.2760 C.ar  1 <1>   0.4100 
 13 C        1.1310    -5.8760     0.9670 C.2   1 <1>   0.1080 
 14 C       -0.1750    -6.0200     0.4730 C.2   1 <1>  -0.0860 
 15 C       -1.6960    -4.2560    -0.7390 C.3   1 <1>  -0.0600 
 16 N        4.6770     4.2710     0.8320 N.ar  1 <1>  -0.6200 
 17 C        6.0580     3.1680    -0.8040 C.ar  1 <1>  -0.1430 
 18 C        1.9250    -6.9390     1.6980 C.3   1 <1>  -0.0590 
 19 C       -0.9630    -7.2240     0.5690 C.2   1 <1>   0.5950 
 20 C        5.7970     4.5950     1.4550 C.ar  1 <1>   0.1600 
 21 C        7.2090     3.5120    -0.1300 C.ar  1 <1>  -0.1500 
 22 C        6.1600     2.3850    -2.1080 C.3   1 <1>  -0.0970 
 23 O       -0.8410    -8.0410     1.4470 O.2   1 <1>  -0.5700 
 24 C       -1.9940    -7.5360    -0.4930 C.3   1 <1>  -0.1790 
 25 C        7.0660     4.2450     1.0300 C.ar  1 <1>  -0.1500 
 26 H        2.6790    -0.1690     1.6680 H     1 <1>   0.3700 
 27 H       -0.3210    -1.7590     1.2020 H     1 <1>   0.0800 
 28 H        1.3420    -2.0040     1.6830 H     1 <1>   0.0800 
 29 H        3.1710     2.0600     1.4760 H     1 <1>   0.0800 
 30 H        1.5920     2.3600     0.7830 H     1 <1>   0.0800 
 31 H        1.9220    -2.5620    -0.6770 H     1 <1>   0.0800 
 32 H        0.2460    -2.3830    -1.1250 H     1 <1>   0.0800 
 33 H        2.3570     1.6780    -1.4200 H     1 <1>   0.0800 
 34 H        3.8990     1.1680    -0.7690 H     1 <1>   0.0800 
 35 H        2.9390     3.9490    -0.5800 H     1 <1>   0.4000 
 36 H       -1.9180    -3.2670    -0.3780 H     1 <1>   0.0800 
 37 H       -2.5440    -4.8750    -0.5140 H     1 <1>   0.0800 
 38 H       -1.5680    -4.2150    -1.8060 H     1 <1>   0.0800 
 39 H        2.9330    -6.6020     1.8580 H     1 <1>   0.0800 
 40 H        1.9480    -7.8440     1.1200 H     1 <1>   0.0800 
 41 H        1.4690    -7.1390     2.6500 H     1 <1>   0.0800 
 42 H        5.6990     5.1720     2.3580 H     1 <1>   0.1500 
 43 H        8.1830     3.2310    -0.4890 H     1 <1>   0.1500 
 44 H        5.4460     2.7590    -2.8200 H     1 <1>   0.0800 
 45 H        5.9620     1.3450    -1.9290 H     1 <1>   0.0800 
 46 H        7.1420     2.4820    -2.5350 H     1 <1>   0.0800 
 47 H       -1.7360    -7.0570    -1.4190 H     1 <1>   0.0800 
 48 H       -2.9600    -7.2050    -0.1650 H     1 <1>   0.0800 
 49 H       -2.0290    -8.5980    -0.6550 H     1 <1>   0.0800 
 50 H        7.9290     4.5450     1.5960 H     1 <1>   0.1500 
@<TRIPOS>BOND
  1   1   2  2   
  2   2   3  am  
  3   2   4  1   
  4   3   5  1   
  5   3  26  1   
  6   4   6  1   
  7   4  27  1   
  8   4  28  1   
  9   5   7  1   
 10   5  29  1   
 11   5  30  1   
 12   6   8  1   
 13   6  31  1   
 14   6  32  1   
 15   7   9  1   
 16   7  33  1   
 17   7  34  1   
 18   8  10  1   
 19   8  11  1   
 20   9  12  1   
 21   9  35  1   
 22  10  13  2   
 23  11  14  2   
 24  11  15  1   
 25  12  16  ar  
 26  12  17  ar  
 27  13  14  1   
 28  13  18  1   
 29  14  19  1   
 30  15  36  1   
 31  15  37  1   
 32  15  38  1   
 33  16  20  ar  
 34  17  21  ar  
 35  17  22  1   
 36  18  39  1   
 37  18  40  1   
 38  18  41  1   
 39  19  23  2   
 40  19  24  1   
 41  20  25  ar  
 42  20  42  1   
 43  21  25  ar  
 44  21  43  1   
 45  22  44  1   
 46  22  45  1   
 47  22  46  1   
 48  24  47  1   
 49  24  48  1   
 50  24  49  1   
 51  25  50  1   
@<TRIPOS>SUBSTRUCTURE
  1 ****   2 GROUP 4 **** **** 0

# MOE 2024.06 (io_trps.svl 2023.06)
