@<TRIPOS>MOLECULE
NONAME
48 51 1 0 0 
SMALL
USER_CHARGES


@<TRIPOS>ATOM
  1 O        3.5860    -2.5990    -0.8770 O.2   1 <1>  -0.5700 
  2 C        2.4530    -2.4140    -0.4610 C.2   1 <1>   0.5440 
  3 N        2.1900    -1.1860     0.1220 N.am  1 <1>  -0.6600 
  4 C        1.4750    -3.5000    -0.5780 C.ar  1 <1>   0.3960 
  5 C        0.9330    -0.7910     0.7980 C.3   1 <1>   0.1400 
  6 C        3.2320    -0.1510     0.3090 C.3   1 <1>   0.1400 
  7 N        0.1620    -3.2510    -0.7380 N.ar  1 <1>  -0.6200 
  8 C        1.9610    -4.8120    -0.5270 C.ar  1 <1>   0.1600 
  9 C        1.1880     0.6150     1.3310 C.3   1 <1>  -0.1600 
 10 C        2.7050     0.7280     1.4360 C.3   1 <1>  -0.1600 
 11 C       -0.5770    -4.3350    -0.8320 C.ar  1 <1>   0.4100 
 12 N        1.2280    -5.9140    -0.6090 N.ar  1 <1>  -0.6200 
 13 N       -1.9060    -4.0500    -1.0040 N.pl3 1 <1>  -0.8690 
 14 C       -0.0500    -5.6350    -0.7620 C.ar  1 <1>   0.1600 
 15 C       -2.7070    -4.8160    -1.9970 C.3   1 <1>   0.3890 
 16 C       -3.3760    -6.0080    -1.3350 C.2   1 <1>   0.0060 
 17 N       -3.6810    -7.1060    -1.9370 N.2   1 <1>  -0.5650 
 18 N       -3.7020    -5.9980    -0.0180 N.pl3 1 <1>   0.0330 
 19 C       -4.2480    -7.8770    -0.9650 C.ar  1 <1>   0.2270 
 20 C       -4.2670    -7.2020     0.2380 C.ar  1 <1>  -0.1520 
 21 C       -4.7660    -9.1670    -1.0400 C.ar  1 <1>  -0.1500 
 22 C       -4.7960    -7.7890     1.3870 C.ar  1 <1>  -0.1500 
 23 C       -5.2950    -9.7640     0.0860 C.ar  1 <1>  -0.1430 
 24 C       -5.3100    -9.0680     1.3110 C.ar  1 <1>  -0.1430 
 25 C       -5.8560   -11.1750    -0.0210 C.3   1 <1>  -0.0970 
 26 C       -5.8870    -9.7090     2.5650 C.3   1 <1>  -0.0970 
 27 H        0.7330    -1.4740     1.6060 H     1 <1>   0.0800 
 28 H        0.1080    -0.7920     0.1050 H     1 <1>   0.0800 
 29 H        3.3280     0.4150    -0.6020 H     1 <1>   0.0800 
 30 H        4.1820    -0.5920     0.5610 H     1 <1>   0.0800 
 31 H        3.0220    -4.9510    -0.4080 H     1 <1>   0.1500 
 32 H        0.6980     0.7800     2.2740 H     1 <1>   0.0800 
 33 H        0.8190     1.3300     0.6160 H     1 <1>   0.0800 
 34 H        3.0510     1.7420     1.3460 H     1 <1>   0.0800 
 35 H        3.0390     0.3250     2.3760 H     1 <1>   0.0800 
 36 H       -2.0230    -3.0390    -1.1170 H     1 <1>   0.4000 
 37 H       -0.7290    -6.4650    -0.8360 H     1 <1>   0.1500 
 38 H       -2.0780    -5.1580    -2.8010 H     1 <1>   0.0800 
 39 H       -3.4660    -4.1770    -2.4140 H     1 <1>   0.0800 
 40 H       -3.5000    -5.2420     0.6420 H     1 <1>   0.2700 
 41 H       -4.7350    -9.6640    -1.9910 H     1 <1>   0.1500 
 42 H       -4.7970    -7.2400     2.3110 H     1 <1>   0.1500 
 43 H       -5.7650   -11.5480    -1.0250 H     1 <1>   0.0800 
 44 H       -6.8970   -11.1790     0.2470 H     1 <1>   0.0800 
 45 H       -5.3190   -11.8360     0.6350 H     1 <1>   0.0800 
 46 H       -5.8160    -9.0440     3.4060 H     1 <1>   0.0800 
 47 H       -5.3480   -10.6080     2.8000 H     1 <1>   0.0800 
 48 H       -6.9240    -9.9490     2.4120 H     1 <1>   0.0800 
@<TRIPOS>BOND
  1   1   2  2   
  2   2   3  am  
  3   2   4  1   
  4   3   5  1   
  5   3   6  1   
  6   4   7  ar  
  7   4   8  ar  
  8   5   9  1   
  9   5  27  1   
 10   5  28  1   
 11   6  10  1   
 12   6  29  1   
 13   6  30  1   
 14   7  11  ar  
 15   8  12  ar  
 16   8  31  1   
 17   9  10  1   
 18   9  32  1   
 19   9  33  1   
 20  10  34  1   
 21  10  35  1   
 22  11  13  1   
 23  11  14  ar  
 24  12  14  ar  
 25  13  15  1   
 26  13  36  1   
 27  14  37  1   
 28  15  16  1   
 29  15  38  1   
 30  15  39  1   
 31  16  17  2   
 32  16  18  1   
 33  17  19  1   
 34  18  20  1   
 35  18  40  1   
 36  19  20  ar  
 37  19  21  ar  
 38  20  22  ar  
 39  21  23  ar  
 40  21  41  1   
 41  22  24  ar  
 42  22  42  1   
 43  23  24  ar  
 44  23  25  1   
 45  24  26  1   
 46  25  43  1   
 47  25  44  1   
 48  25  45  1   
 49  26  46  1   
 50  26  47  1   
 51  26  48  1   
@<TRIPOS>SUBSTRUCTURE
  1 ****  11 GROUP 4 **** **** 0

# MOE 2024.06 (io_trps.svl 2023.06)
