@<TRIPOS>MOLECULE
NONAME
62 65 1 0 0 
SMALL
USER_CHARGES


@<TRIPOS>ATOM
  1 O       -1.4440     3.2110     0.9940 O.3   1 <1>  -0.3630 
  2 C       -0.2510     2.7370     0.5510 C.ar  1 <1>   0.0830 
  3 C       -1.9250     2.7000     2.2250 C.3   1 <1>   0.1200 
  4 C       -0.1830     2.0730    -0.6730 C.ar  1 <1>   0.0820 
  5 C        0.8950     2.9060     1.3130 C.ar  1 <1>  -0.1500 
  6 C       -2.2080     1.1950     2.0800 C.3   1 <1>   0.3430 
  7 O       -1.3140     1.9460    -1.4220 O.3   1 <1>  -0.3630 
  8 C        1.0310     1.5470    -1.0990 C.ar  1 <1>  -0.1500 
  9 C        2.0990     2.3830     0.8760 C.ar  1 <1>  -0.1500 
 10 N       -2.9470     0.9040     0.8140 N.4   1 <1>  -0.9590 
 11 C       -1.1920     2.1440    -2.8180 C.3   1 <1>   0.0400 
 12 C        2.1710     1.6970    -0.3260 C.ar  1 <1>  -0.1430 
 13 C       -4.3720     1.3720     0.8890 C.3   1 <1>   0.3430 
 14 C       -2.8410    -0.5300     0.4350 C.3   1 <1>   0.3430 
 15 C        3.4980     1.1270    -0.7960 C.3   1 <1>  -0.0970 
 16 C       -5.1430     1.1490    -0.4220 C.3   1 <1>   0.1430 
 17 C       -3.5400    -0.7750    -0.9060 C.3   1 <1>  -0.1600 
 18 C       -6.5890     1.4930    -0.1610 C.ar  1 <1>   0.1670 
 19 C       -5.0090    -0.3160    -0.8850 C.3   1 <1>  -0.1600 
 20 C       -4.7460     2.1550    -1.5370 C.3   1 <1>  -0.1600 
 21 N       -7.2840     1.0340     0.8480 N.ar  1 <1>  -0.6200 
 22 C       -7.0850     2.3600    -1.0840 C.ar  1 <1>  -0.1430 
 23 C       -6.0540     2.7260    -2.1210 C.3   1 <1>  -0.0170 
 24 C       -8.5450     1.4730     0.9090 C.ar  1 <1>   0.7200 
 25 C       -8.3890     2.7600    -0.9400 C.ar  1 <1>   0.1600 
 26 N       -9.1250     2.3230     0.0560 N.ar  1 <1>  -0.6200 
 27 N       -9.3150     1.0110     1.9560 N.pl3 1 <1>  -0.8380 
 28 C       -9.0430    -0.2870     2.6320 C.3   1 <1>   0.1290 
 29 C      -10.6020     1.6630     2.3250 C.3   1 <1>   0.1290 
 30 H       -2.8250     3.2340     2.4700 H     1 <1>   0.0800 
 31 H       -1.2000     2.8850     2.9970 H     1 <1>   0.0800 
 32 H        0.8600     3.4500     2.2390 H     1 <1>   0.1500 
 33 H       -2.7650     0.8410     2.9310 H     1 <1>   0.0800 
 34 H       -1.2610     0.6800     2.0660 H     1 <1>   0.0800 
 35 H        1.0990     1.0160    -2.0300 H     1 <1>   0.1500 
 36 H        2.9860     2.5190     1.4730 H     1 <1>   0.1500 
 37 H       -2.4620     1.4580     0.0750 H     1 <1>   0.4500 
 38 H       -2.1680     2.3230    -3.2280 H     1 <1>   0.0800 
 39 H       -0.7660     1.2630    -3.2650 H     1 <1>   0.0800 
 40 H       -0.5640     3.0000    -2.9990 H     1 <1>   0.0800 
 41 H       -4.4070     2.4210     1.1330 H     1 <1>   0.0800 
 42 H       -4.8830     0.8350     1.6710 H     1 <1>   0.0800 
 43 H       -3.3020    -1.1420     1.1940 H     1 <1>   0.0800 
 44 H       -1.8030    -0.8120     0.3530 H     1 <1>   0.0800 
 45 H        3.3410     0.2640    -1.4190 H     1 <1>   0.0800 
 46 H        4.1010     0.8310     0.0440 H     1 <1>   0.0800 
 47 H        4.0330     1.8690    -1.3610 H     1 <1>   0.0800 
 48 H       -3.5040    -1.8280    -1.1270 H     1 <1>   0.0800 
 49 H       -2.9980    -0.2700    -1.6850 H     1 <1>   0.0800 
 50 H       -5.4520    -0.4380    -1.8590 H     1 <1>   0.0800 
 51 H       -5.5590    -0.9470    -0.2050 H     1 <1>   0.0800 
 52 H       -4.1610     1.6950    -2.3110 H     1 <1>   0.0800 
 53 H       -4.1760     2.9660    -1.1170 H     1 <1>   0.0800 
 54 H       -6.2970     2.2500    -3.0550 H     1 <1>   0.0800 
 55 H       -5.9940     3.7920    -2.2600 H     1 <1>   0.0800 
 56 H       -8.8340     3.4440    -1.6420 H     1 <1>   0.1500 
 57 H       -8.3760    -0.8930     2.0450 H     1 <1>   0.0800 
 58 H       -9.9620    -0.8320     2.7640 H     1 <1>   0.0800 
 59 H       -8.5990    -0.1050     3.5940 H     1 <1>   0.0800 
 60 H      -10.5590     2.7200     2.1260 H     1 <1>   0.0800 
 61 H      -10.8010     1.5230     3.3730 H     1 <1>   0.0800 
 62 H      -11.4030     1.2320     1.7490 H     1 <1>   0.0800 
@<TRIPOS>BOND
  1   1   2  1   
  2   1   3  1   
  3   2   4  ar  
  4   2   5  ar  
  5   3   6  1   
  6   3  30  1   
  7   3  31  1   
  8   4   7  1   
  9   4   8  ar  
 10   5   9  ar  
 11   5  32  1   
 12   6  10  1   
 13   6  33  1   
 14   6  34  1   
 15   7  11  1   
 16   8  12  ar  
 17   8  35  1   
 18   9  12  ar  
 19   9  36  1   
 20  10  13  1   
 21  10  14  1   
 22  10  37  1   
 23  11  38  1   
 24  11  39  1   
 25  11  40  1   
 26  12  15  1   
 27  13  16  1   
 28  13  41  1   
 29  13  42  1   
 30  14  17  1   
 31  14  43  1   
 32  14  44  1   
 33  15  45  1   
 34  15  46  1   
 35  15  47  1   
 36  16  18  1   
 37  16  19  1   
 38  16  20  1   
 39  17  19  1   
 40  17  48  1   
 41  17  49  1   
 42  18  21  ar  
 43  18  22  ar  
 44  19  50  1   
 45  19  51  1   
 46  20  23  1   
 47  20  52  1   
 48  20  53  1   
 49  21  24  ar  
 50  22  23  1   
 51  22  25  ar  
 52  23  54  1   
 53  23  55  1   
 54  24  26  ar  
 55  24  27  1   
 56  25  26  ar  
 57  25  56  1   
 58  27  28  1   
 59  27  29  1   
 60  28  57  1   
 61  28  58  1   
 62  28  59  1   
 63  29  60  1   
 64  29  61  1   
 65  29  62  1   
@<TRIPOS>SUBSTRUCTURE
  1 ****  13 GROUP 4 **** **** 0

# MOE 2024.06 (io_trps.svl 2023.06)
