@<TRIPOS>MOLECULE
NONAME
54 56 1 0 0 
SMALL
USER_CHARGES


@<TRIPOS>ATOM
  1 O        0.1300     0.3360    -0.8590 O.2   1 <1>  -0.5700 
  2 C       -0.8590     1.0070    -0.6930 C.2   1 <1>   0.5690 
  3 N       -2.0800     0.4380    -0.4550 N.am  1 <1>  -0.6600 
  4 C       -0.7060     2.5150    -0.7370 C.3   1 <1>  -0.0990 
  5 C       -3.3690     1.1440    -0.2430 C.3   1 <1>   0.1400 
  6 C       -2.2580    -1.0280    -0.3250 C.3   1 <1>   0.1400 
  7 C       -0.4230     3.0790     0.6590 C.3   1 <1>  -0.0160 
  8 C       -4.4120     0.0330    -0.1170 C.3   1 <1>   0.2000 
  9 C       -3.6330    -1.2050     0.3190 C.3   1 <1>  -0.0800 
 10 C       -0.3880     4.5980     0.6230 C.ar  1 <1>  -0.1440 
 11 O       -5.3790     0.3490     0.8220 O.3   1 <1>  -0.6800 
 12 C       -4.3240    -2.5240    -0.0590 C.3   1 <1>   0.0210 
 13 C        0.7830     5.2600     0.2860 C.ar  1 <1>  -0.1500 
 14 C       -1.5230     5.3340     0.9260 C.ar  1 <1>  -0.1500 
 15 C       -3.4600    -3.7130     0.3120 C.2   1 <1>   0.1080 
 16 C        0.8280     6.6440     0.2530 C.ar  1 <1>   0.0820 
 17 C       -1.4920     6.7180     0.8810 C.ar  1 <1>  -0.1500 
 18 N       -3.0850    -3.9550     1.5300 N.2   1 <1>  -0.7070 
 19 C       -2.9690    -4.6540    -0.5870 C.2   1 <1>  -0.1500 
 20 O        2.0160     7.2240    -0.0460 O.3   1 <1>  -0.3630 
 21 C       -0.3290     7.3810     0.5300 C.ar  1 <1>   0.0820 
 22 N       -2.3350    -5.0690     1.4390 N.pl3 1 <1>   0.3000 
 23 C       -2.2490    -5.5110     0.1670 C.2   1 <1>  -0.3320 
 24 C        2.6310     7.9500     0.9950 C.3   1 <1>   0.0400 
 25 O       -0.3760     8.7360     0.4690 O.3   1 <1>  -0.3630 
 26 C       -1.4710    -6.7430    -0.2570 C.3   1 <1>  -0.0600 
 27 C       -0.1720     9.3150    -0.8010 C.3   1 <1>   0.0400 
 28 H        0.1140     2.7560    -1.3890 H     1 <1>   0.0800 
 29 H       -1.5870     2.9670    -1.1490 H     1 <1>   0.0800 
 30 H       -3.3160     1.7210     0.6630 H     1 <1>   0.0800 
 31 H       -3.5960     1.7790    -1.0810 H     1 <1>   0.0800 
 32 H       -2.2270    -1.4720    -1.3050 H     1 <1>   0.0800 
 33 H       -1.4810    -1.4610     0.2840 H     1 <1>   0.0800 
 34 H        0.5200     2.7000     1.0140 H     1 <1>   0.0800 
 35 H       -1.1820     2.7510     1.3480 H     1 <1>   0.0800 
 36 H       -4.8960    -0.1180    -1.0670 H     1 <1>   0.0800 
 37 H       -3.4840    -1.1820     1.3840 H     1 <1>   0.0800 
 38 H       -5.0170     0.2530     1.7250 H     1 <1>   0.4000 
 39 H       -4.5290    -2.5470    -1.1140 H     1 <1>   0.0800 
 40 H       -5.2600    -2.6020     0.4660 H     1 <1>   0.0800 
 41 H        1.6750     4.7080     0.0500 H     1 <1>   0.1500 
 42 H       -2.4370     4.8370     1.1970 H     1 <1>   0.1500 
 43 H       -2.3720     7.2910     1.1120 H     1 <1>   0.1500 
 44 H       -3.1390    -4.6700    -1.6480 H     1 <1>   0.1500 
 45 H       -1.8970    -5.5010     2.2610 H     1 <1>   0.2700 
 46 H        3.5980     8.2740     0.6540 H     1 <1>   0.0800 
 47 H        2.7370     7.3060     1.8500 H     1 <1>   0.0800 
 48 H        2.0250     8.8030     1.2420 H     1 <1>   0.0800 
 49 H       -1.5550    -6.8860    -1.3200 H     1 <1>   0.0800 
 50 H       -1.8580    -7.6160     0.2380 H     1 <1>   0.0800 
 51 H       -0.4310    -6.6290    -0.0090 H     1 <1>   0.0800 
 52 H       -0.3800    10.3670    -0.7280 H     1 <1>   0.0800 
 53 H       -0.8430     8.8530    -1.5050 H     1 <1>   0.0800 
 54 H        0.8480     9.1630    -1.1030 H     1 <1>   0.0800 
@<TRIPOS>BOND
  1   1   2  2   
  2   2   3  am  
  3   2   4  1   
  4   3   5  1   
  5   3   6  1   
  6   4   7  1   
  7   4  28  1   
  8   4  29  1   
  9   5   8  1   
 10   5  30  1   
 11   5  31  1   
 12   6   9  1   
 13   6  32  1   
 14   6  33  1   
 15   7  10  1   
 16   7  34  1   
 17   7  35  1   
 18   8   9  1   
 19   8  11  1   
 20   8  36  1   
 21   9  12  1   
 22   9  37  1   
 23  10  13  ar  
 24  10  14  ar  
 25  11  38  1   
 26  12  15  1   
 27  12  39  1   
 28  12  40  1   
 29  13  16  ar  
 30  13  41  1   
 31  14  17  ar  
 32  14  42  1   
 33  15  18  2   
 34  15  19  1   
 35  16  20  1   
 36  16  21  ar  
 37  17  21  ar  
 38  17  43  1   
 39  18  22  1   
 40  19  23  2   
 41  19  44  1   
 42  20  24  1   
 43  21  25  1   
 44  22  23  1   
 45  22  45  1   
 46  23  26  1   
 47  24  46  1   
 48  24  47  1   
 49  24  48  1   
 50  25  27  1   
 51  26  49  1   
 52  26  50  1   
 53  26  51  1   
 54  27  52  1   
 55  27  53  1   
 56  27  54  1   
@<TRIPOS>SUBSTRUCTURE
  1 ****   2 GROUP 4 **** **** 0

# MOE 2024.06 (io_trps.svl 2023.06)
