@<TRIPOS>MOLECULE
NONAME
47 49 1 0 0 
SMALL
USER_CHARGES


@<TRIPOS>ATOM
  1 O        0.6750     0.2840    -0.4680 O.2   1 <1>  -0.5700 
  2 C        0.5520     1.4890    -0.4900 C.2   1 <1>   0.5690 
  3 N       -0.6620     2.0830    -0.7300 N.am  1 <1>  -0.6600 
  4 C        1.8130     2.3530    -0.2130 C.3   1 <1>   0.2510 
  5 C       -0.7930     3.5620    -0.6950 C.3   1 <1>   0.1400 
  6 C       -1.8690     1.3020    -1.1220 C.3   1 <1>   0.1400 
  7 N        1.6030     3.8300    -0.0720 N.3   1 <1>  -0.8100 
  8 C        2.8410     2.1570    -1.3350 C.3   1 <1>  -0.2400 
  9 C        0.2130     4.1740     0.2910 C.3   1 <1>   0.1100 
 10 C       -2.8850     1.1880     0.0320 C.3   1 <1>  -0.0800 
 11 C        2.5970     4.4360     0.8550 C.3   1 <1>   0.2900 
 12 C       -2.2920     0.4730     1.2560 C.3   1 <1>  -0.2400 
 13 C       -4.1320     0.4310    -0.4450 C.3   1 <1>  -0.2400 
 14 C        2.6800     5.9590     0.7830 C.2   1 <1>   0.2980 
 15 O        1.7880     6.6670     1.4280 O.3   1 <1>  -0.0190 
 16 N        3.5640     6.6350     0.1690 N.2   1 <1>  -0.5650 
 17 N        2.1240     7.8950     1.1930 N.2   1 <1>  -0.4100 
 18 C        3.1710     7.8810     0.4460 C.2   1 <1>   0.4620 
 19 C        3.8700     9.0500    -0.0520 C.ar  1 <1>   0.0540 
 20 C        3.4970    10.3440     0.2860 C.ar  1 <1>  -0.1500 
 21 C        4.9650     8.9700    -0.9030 C.ar  1 <1>  -0.1500 
 22 C        4.1940    11.4290    -0.2110 C.ar  1 <1>   0.1600 
 23 C        5.5960    10.1170    -1.3460 C.ar  1 <1>   0.1600 
 24 N        5.2370    11.3470    -1.0200 N.ar  1 <1>  -0.6200 
 25 H        2.2280     1.9710     0.7030 H     1 <1>   0.0800 
 26 H       -1.7870     3.8340    -0.3910 H     1 <1>   0.0800 
 27 H       -0.6180     3.9590    -1.6800 H     1 <1>   0.0800 
 28 H       -1.5730     0.3140    -1.4310 H     1 <1>   0.0800 
 29 H       -2.3310     1.7790    -1.9680 H     1 <1>   0.0800 
 30 H        2.4390     2.5220    -2.2630 H     1 <1>   0.0800 
 31 H        3.0570     1.1100    -1.4500 H     1 <1>   0.0800 
 32 H        3.7600     2.6680    -1.1200 H     1 <1>   0.0800 
 33 H       -0.0100     3.8270     1.2860 H     1 <1>   0.0800 
 34 H        0.0860     5.2410     0.2670 H     1 <1>   0.0800 
 35 H       -3.1940     2.1760     0.3240 H     1 <1>   0.0800 
 36 H        3.5750     4.0590     0.6170 H     1 <1>   0.0800 
 37 H        2.3750     4.1440     1.8670 H     1 <1>   0.0800 
 38 H       -1.9330    -0.5040     0.9830 H     1 <1>   0.0800 
 39 H       -3.0330     0.3670     2.0280 H     1 <1>   0.0800 
 40 H       -1.4680     1.0340     1.6560 H     1 <1>   0.0800 
 41 H       -3.8750    -0.5710    -0.7420 H     1 <1>   0.0800 
 42 H       -4.5790     0.9340    -1.2840 H     1 <1>   0.0800 
 43 H       -4.8610     0.3780     0.3440 H     1 <1>   0.0800 
 44 H        2.6590    10.5080     0.9390 H     1 <1>   0.1500 
 45 H        5.3270     8.0090    -1.2220 H     1 <1>   0.1500 
 46 H        3.8780    12.4190     0.0710 H     1 <1>   0.1500 
 47 H        6.4420    10.0180    -2.0050 H     1 <1>   0.1500 
@<TRIPOS>BOND
  1   1   2  2   
  2   2   3  am  
  3   2   4  1   
  4   3   5  1   
  5   3   6  1   
  6   4   7  1   
  7   4   8  1   
  8   4  25  1   
  9   5   9  1   
 10   5  26  1   
 11   5  27  1   
 12   6  10  1   
 13   6  28  1   
 14   6  29  1   
 15   7   9  1   
 16   7  11  1   
 17   8  30  1   
 18   8  31  1   
 19   8  32  1   
 20   9  33  1   
 21   9  34  1   
 22  10  12  1   
 23  10  13  1   
 24  10  35  1   
 25  11  14  1   
 26  11  36  1   
 27  11  37  1   
 28  12  38  1   
 29  12  39  1   
 30  12  40  1   
 31  13  41  1   
 32  13  42  1   
 33  13  43  1   
 34  14  15  1   
 35  14  16  2   
 36  15  17  1   
 37  16  18  1   
 38  17  18  2   
 39  18  19  1   
 40  19  20  ar  
 41  19  21  ar  
 42  20  22  ar  
 43  20  44  1   
 44  21  23  ar  
 45  21  45  1   
 46  22  24  ar  
 47  22  46  1   
 48  23  24  ar  
 49  23  47  1   
@<TRIPOS>SUBSTRUCTURE
  1 ****   7 GROUP 4 **** **** 0

# MOE 2024.06 (io_trps.svl 2023.06)
