@<TRIPOS>MOLECULE
NONAME
54 57 1 0 0 
SMALL
USER_CHARGES


@<TRIPOS>ATOM
  1 O        1.2830    -0.5730     1.5460 O.co2 1 <1>  -0.9000 
  2 C        1.2480     0.4060     0.7840 C.2   1 <1>   0.9060 
  3 O        0.4560     1.3300     0.9580 O.co2 1 <1>  -0.9000 
  4 C        2.2340     0.4510    -0.3990 C.3   1 <1>  -0.1060 
  5 C        3.5850    -0.1330     0.0800 C.3   1 <1>   0.4230 
  6 C        2.4870     1.9190    -0.8520 C.3   1 <1>  -0.1600 
  7 C        1.6580    -0.3730    -1.5890 C.3   1 <1>  -0.1600 
  8 N        3.4220    -1.5900     0.4110 N.4   1 <1>  -0.9590 
  9 C        4.1680     0.7300     1.2200 C.3   1 <1>   0.1400 
 10 C        3.1250     2.7750     0.2560 C.3   1 <1>   0.1400 
 11 C        2.5280    -1.5890    -1.9480 C.3   1 <1>  -0.1600 
 12 C        2.9050    -2.4230    -0.7160 C.3   1 <1>   0.3430 
 13 C        4.5610    -2.2260     1.1250 C.3   1 <1>   0.2630 
 14 N        4.3860     2.1160     0.7070 N.am  1 <1>  -0.6600 
 15 C        5.6510     2.6150     0.5320 C.2   1 <1>   0.5690 
 16 O        6.6220     1.9100     0.6840 O.2   1 <1>  -0.5700 
 17 C        5.8490     4.0650     0.1160 C.3   1 <1>  -0.0990 
 18 C        7.3060     4.5410     0.2050 C.3   1 <1>   0.0210 
 19 C        7.4630     6.0010    -0.1950 C.2   1 <1>  -0.1810 
 20 C        8.7090     6.6690    -0.1930 C.ar  1 <1>   0.0000 
 21 C        6.5260     6.8920    -0.6030 C.2   1 <1>  -0.3020 
 22 C        8.4620     7.9720    -0.6120 C.ar  1 <1>  -0.1520 
 23 C       10.0170     6.2860     0.1250 C.ar  1 <1>  -0.1500 
 24 N        7.1200     8.0950    -0.8600 N.pl3 1 <1>   0.0330 
 25 C        9.4980     8.9040    -0.7200 C.ar  1 <1>  -0.1500 
 26 C       11.0380     7.2030     0.0190 C.ar  1 <1>  -0.1500 
 27 C       10.7780     8.5130    -0.4030 C.ar  1 <1>  -0.1500 
 28 H        4.2840    -0.0610    -0.7360 H     1 <1>   0.0800 
 29 H        1.5510     2.3730    -1.1330 H     1 <1>   0.0800 
 30 H        3.1280     1.9390    -1.7150 H     1 <1>   0.0800 
 31 H        0.6710    -0.7210    -1.3280 H     1 <1>   0.0800 
 32 H        1.5400     0.2450    -2.4620 H     1 <1>   0.0800 
 33 H        2.6050    -1.5260     1.0790 H     1 <1>   0.4500 
 34 H        5.1010     0.3200     1.5580 H     1 <1>   0.0800 
 35 H        3.4940     0.7660     2.0580 H     1 <1>   0.0800 
 36 H        2.4510     2.8660     1.0930 H     1 <1>   0.0800 
 37 H        3.3080     3.7650    -0.1210 H     1 <1>   0.0800 
 38 H        3.4260    -1.2630    -2.4420 H     1 <1>   0.0800 
 39 H        1.9950    -2.2150    -2.6430 H     1 <1>   0.0800 
 40 H        3.6430    -3.1530    -1.0010 H     1 <1>   0.0800 
 41 H        2.0290    -2.9510    -0.3740 H     1 <1>   0.0800 
 42 H        5.4440    -2.2080     0.5080 H     1 <1>   0.0800 
 43 H        4.3210    -3.2480     1.3680 H     1 <1>   0.0800 
 44 H        4.7650    -1.7000     2.0430 H     1 <1>   0.0800 
 45 H        5.5080     4.1780    -0.8960 H     1 <1>   0.0800 
 46 H        5.2500     4.6850     0.7560 H     1 <1>   0.0800 
 47 H        7.9210     3.9380    -0.4400 H     1 <1>   0.0800 
 48 H        7.6610     4.4170     1.2130 H     1 <1>   0.0800 
 49 H        5.4680     6.7520    -0.7300 H     1 <1>   0.1500 
 50 H       10.2050     5.2790     0.4480 H     1 <1>   0.1500 
 51 H        6.6570     8.9500    -1.1830 H     1 <1>   0.2700 
 52 H        9.2890     9.9070    -1.0450 H     1 <1>   0.1500 
 53 H       12.0470     6.9210     0.2610 H     1 <1>   0.1500 
 54 H       11.5940     9.2100    -0.4780 H     1 <1>   0.1500 
@<TRIPOS>BOND
  1   1   2  ar  
  2   2   3  ar  
  3   2   4  1   
  4   4   5  1   
  5   4   6  1   
  6   4   7  1   
  7   5   8  1   
  8   5   9  1   
  9   5  28  1   
 10   6  10  1   
 11   6  29  1   
 12   6  30  1   
 13   7  11  1   
 14   7  31  1   
 15   7  32  1   
 16   8  12  1   
 17   8  13  1   
 18   8  33  1   
 19   9  14  1   
 20   9  34  1   
 21   9  35  1   
 22  10  14  1   
 23  10  36  1   
 24  10  37  1   
 25  11  12  1   
 26  11  38  1   
 27  11  39  1   
 28  12  40  1   
 29  12  41  1   
 30  13  42  1   
 31  13  43  1   
 32  13  44  1   
 33  14  15  am  
 34  15  16  2   
 35  15  17  1   
 36  17  18  1   
 37  17  45  1   
 38  17  46  1   
 39  18  19  1   
 40  18  47  1   
 41  18  48  1   
 42  19  20  1   
 43  19  21  2   
 44  20  22  ar  
 45  20  23  ar  
 46  21  24  1   
 47  21  49  1   
 48  22  24  1   
 49  22  25  ar  
 50  23  26  ar  
 51  23  50  1   
 52  24  51  1   
 53  25  27  ar  
 54  25  52  1   
 55  26  27  ar  
 56  26  53  1   
 57  27  54  1   
@<TRIPOS>SUBSTRUCTURE
  1 ****  15 GROUP 4 **** **** 0

# MOE 2024.06 (io_trps.svl 2023.06)
