@<TRIPOS>MOLECULE
NONAME
42 44 1 0 0 
SMALL
USER_CHARGES


@<TRIPOS>ATOM
  1 O       -2.0560     0.2500    -2.1160 O.2   1 <1>  -0.5700 
  2 C       -2.0090     0.4880    -0.9200 C.2   1 <1>   0.7160 
  3 N       -1.9800    -0.5650    -0.0530 N.am  1 <1>  -0.7300 
  4 C       -2.0010     1.8440    -0.3950 C.2   1 <1>   0.2030 
  5 C       -1.9800    -2.0020    -0.4020 C.3   1 <1>   0.2200 
  6 N       -1.9970     2.1700     0.8870 N.2   1 <1>  -0.7070 
  7 C       -2.0000     3.0000    -1.1840 C.2   1 <1>  -0.1500 
  8 C       -3.3380    -2.6360    -0.1350 C.3   1 <1>  -0.0800 
  9 C       -1.1120    -2.7610     0.5930 C.3   1 <1>   0.1200 
 10 N       -1.9890     3.5070     0.9180 N.pl3 1 <1>   0.3140 
 11 C       -1.9910     4.0370    -0.3250 C.2   1 <1>  -0.3320 
 12 C       -3.2710    -2.9650     1.3590 C.3   1 <1>   0.1200 
 13 C       -4.5650    -1.8020    -0.5450 C.3   1 <1>  -0.0160 
 14 O       -1.9180    -2.9780     1.7130 O.3   1 <1>  -0.5600 
 15 C       -1.9780     4.2430     2.1890 C.3   1 <1>   0.0160 
 16 C       -1.9850     5.5230    -0.6400 C.3   1 <1>  -0.0600 
 17 C       -5.8520    -2.5760    -0.3010 C.ar  1 <1>  -0.1430 
 18 C       -6.3080    -3.5260    -1.1920 C.ar  1 <1>  -0.1500 
 19 C       -6.6280    -2.3710     0.8220 C.ar  1 <1>  -0.1500 
 20 C       -7.4820    -4.2100    -0.9230 C.ar  1 <1>   0.1600 
 21 C       -7.7860    -3.1100     0.9970 C.ar  1 <1>   0.1600 
 22 N       -8.2310    -4.0270     0.1520 N.ar  1 <1>  -0.6200 
 23 H       -1.9560    -0.3340     0.9460 H     1 <1>   0.3700 
 24 H       -1.6500    -2.1430    -1.4170 H     1 <1>   0.0800 
 25 H       -2.0030     3.0070    -2.2600 H     1 <1>   0.1500 
 26 H       -3.3730    -3.5710    -0.6680 H     1 <1>   0.0800 
 27 H       -0.2310    -2.2150     0.8800 H     1 <1>   0.0800 
 28 H       -0.8360    -3.7230     0.1990 H     1 <1>   0.0800 
 29 H       -3.7040    -3.9260     1.5790 H     1 <1>   0.0800 
 30 H       -3.7520    -2.2060     1.9510 H     1 <1>   0.0800 
 31 H       -4.4930    -1.5480    -1.5880 H     1 <1>   0.0800 
 32 H       -4.5960    -0.8800     0.0090 H     1 <1>   0.0800 
 33 H       -1.1010     4.8610     2.2300 H     1 <1>   0.0800 
 34 H       -1.9630     3.5420     3.0020 H     1 <1>   0.0800 
 35 H       -2.8600     4.8500     2.2520 H     1 <1>   0.0800 
 36 H       -1.9900     5.6750    -1.7050 H     1 <1>   0.0800 
 37 H       -1.1040     5.9870    -0.2330 H     1 <1>   0.0800 
 38 H       -2.8570     5.9970    -0.2240 H     1 <1>   0.0800 
 39 H       -5.7620    -3.7390    -2.0930 H     1 <1>   0.1500 
 40 H       -6.3440    -1.6460     1.5620 H     1 <1>   0.1500 
 41 H       -7.8220    -4.9470    -1.6290 H     1 <1>   0.1500 
 42 H       -8.3790    -2.9370     1.8790 H     1 <1>   0.1500 
@<TRIPOS>BOND
  1   1   2  2   
  2   2   3  am  
  3   2   4  1   
  4   3   5  1   
  5   3  23  1   
  6   4   6  2   
  7   4   7  1   
  8   5   8  1   
  9   5   9  1   
 10   5  24  1   
 11   6  10  1   
 12   7  11  2   
 13   7  25  1   
 14   8  12  1   
 15   8  13  1   
 16   8  26  1   
 17   9  14  1   
 18   9  27  1   
 19   9  28  1   
 20  10  11  1   
 21  10  15  1   
 22  11  16  1   
 23  12  14  1   
 24  12  29  1   
 25  12  30  1   
 26  13  17  1   
 27  13  31  1   
 28  13  32  1   
 29  15  33  1   
 30  15  34  1   
 31  15  35  1   
 32  16  36  1   
 33  16  37  1   
 34  16  38  1   
 35  17  18  ar  
 36  17  19  ar  
 37  18  20  ar  
 38  18  39  1   
 39  19  21  ar  
 40  19  40  1   
 41  20  22  ar  
 42  20  41  1   
 43  21  22  ar  
 44  21  42  1   
@<TRIPOS>SUBSTRUCTURE
  1 ****   3 GROUP 4 **** **** 0

# MOE 2024.06 (io_trps.svl 2023.06)
