@<TRIPOS>MOLECULE
NONAME
48 51 1 0 0 
SMALL
USER_CHARGES


@<TRIPOS>ATOM
  1 O        0.8960    -0.4050     0.7650 O.2   1 <1>  -0.5750 
  2 C        2.0680    -0.1790     0.5730 C.2   1 <1>   0.6860 
  3 N        2.5570     1.1100     0.4160 N.am  1 <1>  -0.4420 
  4 N        2.9310    -1.2350     0.5080 N.am  1 <1>  -0.4960 
  5 C        3.9160     1.2570     0.1810 C.2   1 <1>   0.4200 
  6 C        1.6470     2.2910     0.4810 C.3   1 <1>   0.0520 
  7 C        4.2720    -1.1060     0.2830 C.2   1 <1>   0.6990 
  8 N        4.6120     2.4090    -0.0140 N.pl3 1 <1>  -0.7040 
  9 C        4.7830     0.2220     0.1090 C.2   1 <1>   0.2700 
 10 O        4.9650    -2.1030     0.2390 O.2   1 <1>  -0.5750 
 11 C        5.8910     2.1010    -0.2040 C.cat 1 <1>   1.0680 
 12 N        6.0530     0.7780    -0.1400 N.pl3 1 <1>  -0.7680 
 13 N        6.8850     2.9580    -0.4240 N.pl3 1 <1>  -0.7180 
 14 C        7.2690    -0.0740    -0.2840 C.3   1 <1>   0.2670 
 15 C        6.9770     4.4410    -0.5310 C.3   1 <1>   0.2400 
 16 C        7.8050     5.0020     0.6330 C.3   1 <1>   0.1320 
 17 C        5.6280     5.1790    -0.5990 C.3   1 <1>  -0.1680 
 18 N        8.0370     6.4490     0.3950 N.am  1 <1>  -0.6650 
 19 C        5.8620     6.6940    -0.7520 C.3   1 <1>  -0.1680 
 20 C        9.2580     6.8960    -0.0780 C.2   1 <1>   0.7110 
 21 C        6.7960     7.2680     0.3270 C.3   1 <1>   0.1320 
 22 O        9.9750     6.0720    -0.6250 O.2   1 <1>  -0.5750 
 23 C        9.7040     8.2710     0.0290 C.2   1 <1>   0.0460 
 24 O        9.1430     9.1400     0.8700 O.3   1 <1>  -0.2870 
 25 C       10.7150     8.9100    -0.6250 C.2   1 <1>  -0.1580 
 26 C        9.7580    10.2960     0.7640 C.2   1 <1>  -0.0190 
 27 C       10.7460    10.2210    -0.1510 C.2   1 <1>  -0.1580 
 28 H        2.5410    -2.1680     0.6290 H     1 <1>   0.3640 
 29 H        0.6900     2.0120     0.8890 H     1 <1>   0.0720 
 30 H        1.4930     2.6860    -0.5080 H     1 <1>   0.0720 
 31 H        2.0710     3.0520     1.1120 H     1 <1>   0.0720 
 32 H        4.2430     3.3550    -0.0350 H     1 <1>   0.4440 
 33 H        7.8000     2.5330    -0.5640 H     1 <1>   0.4440 
 34 H        7.1410    -0.7570    -1.1080 H     1 <1>   0.0720 
 35 H        7.4220    -0.6500     0.6140 H     1 <1>   0.0720 
 36 H        8.1450     0.5240    -0.4640 H     1 <1>   0.0720 
 37 H        7.5180     4.6570    -1.4390 H     1 <1>   0.0720 
 38 H        8.7470     4.4870     0.7070 H     1 <1>   0.0720 
 39 H        7.2780     4.8840     1.5640 H     1 <1>   0.0720 
 40 H        5.0770     5.0290     0.3120 H     1 <1>   0.0720 
 41 H        5.0550     4.8350    -1.4430 H     1 <1>   0.0720 
 42 H        4.9210     7.2140    -0.7110 H     1 <1>   0.0720 
 43 H        6.2960     6.8970    -1.7170 H     1 <1>   0.0720 
 44 H        7.0210     8.2910     0.0820 H     1 <1>   0.0720 
 45 H        6.3130     7.2550     1.2890 H     1 <1>   0.0720 
 46 H       11.3750     8.4940    -1.3660 H     1 <1>   0.1420 
 47 H        9.4330    11.1200     1.3750 H     1 <1>   0.1420 
 48 H       11.4300    10.9890    -0.4670 H     1 <1>   0.1420 
@<TRIPOS>BOND
  1   1   2  2   
  2   2   3  am  
  3   2   4  am  
  4   3   5  1   
  5   3   6  1   
  6   4   7  am  
  7   4  28  1   
  8   5   8  1   
  9   5   9  2   
 10   6  29  1   
 11   6  30  1   
 12   6  31  1   
 13   7   9  1   
 14   7  10  2   
 15   8  11  ar  
 16   8  32  1   
 17   9  12  1   
 18  11  12  ar  
 19  11  13  ar  
 20  12  14  1   
 21  13  15  1   
 22  13  33  1   
 23  14  34  1   
 24  14  35  1   
 25  14  36  1   
 26  15  16  1   
 27  15  17  1   
 28  15  37  1   
 29  16  18  1   
 30  16  38  1   
 31  16  39  1   
 32  17  19  1   
 33  17  40  1   
 34  17  41  1   
 35  18  20  am  
 36  18  21  1   
 37  19  21  1   
 38  19  42  1   
 39  19  43  1   
 40  20  22  2   
 41  20  23  1   
 42  21  44  1   
 43  21  45  1   
 44  23  24  1   
 45  23  25  2   
 46  24  26  1   
 47  25  27  1   
 48  25  46  1   
 49  26  27  2   
 50  26  47  1   
 51  27  48  1   
@<TRIPOS>SUBSTRUCTURE
  1 ****  15 GROUP 4 **** **** 0

# MOE 2024.06 (io_trps.svl 2023.06)
