@<TRIPOS>MOLECULE
NONAME
36 37 1 0 0 
SMALL
USER_CHARGES


@<TRIPOS>ATOM
  1 O        0.9680    -1.2000    -0.1610 O.co2 1 <1>  -0.9000 
  2 C        2.1200    -0.8950    -0.4760 C.2   1 <1>   0.9060 
  3 O        2.7110    -1.4020    -1.4390 O.co2 1 <1>  -0.9000 
  4 C        2.8500     0.1300     0.3690 C.3   1 <1>  -0.1860 
  5 C        4.2130    -0.4040     0.8310 C.3   1 <1>   0.2000 
  6 C        2.9940     1.4940    -0.3410 C.3   1 <1>  -0.1600 
  7 O        4.9560    -0.7790    -0.2810 O.3   1 <1>  -0.6800 
  8 C        4.9760     0.6640     1.6430 C.3   1 <1>   0.2090 
  9 C        3.7190     2.5210     0.5350 C.3   1 <1>   0.2090 
 10 N        5.0570     1.9960     0.9380 N.pl3 1 <1>  -0.8380 
 11 C        6.2090     2.4910     0.4180 C.ar  1 <1>   0.1000 
 12 C        7.2010     1.6560    -0.1110 C.ar  1 <1>  -0.1500 
 13 C        6.4530     3.8680     0.3690 C.ar  1 <1>  -0.1500 
 14 C        8.3480     2.1690    -0.6540 C.ar  1 <1>   0.2180 
 15 C        7.6090     4.3640    -0.1760 C.ar  1 <1>   0.2180 
 16 N        8.5360     3.5110    -0.6780 N.ar  1 <1>  -0.1790 
 17 C        9.4220     1.2720    -1.2440 C.3   1 <1>  -0.0970 
 18 C        7.8930     5.8550    -0.2350 C.3   1 <1>  -0.0970 
 19 H        2.2480     0.2800     1.2460 H     1 <1>   0.0800 
 20 H        4.0700    -1.2900     1.4250 H     1 <1>   0.0800 
 21 H        2.0160     1.8640    -0.5930 H     1 <1>   0.0800 
 22 H        3.5390     1.3650    -1.2600 H     1 <1>   0.0800 
 23 H        4.2840    -1.1350    -0.9410 H     1 <1>   0.4000 
 24 H        5.9590     0.2980     1.8790 H     1 <1>   0.0800 
 25 H        4.4590     0.8110     2.5740 H     1 <1>   0.0800 
 26 H        3.1370     2.7230     1.4180 H     1 <1>   0.0800 
 27 H        3.8250     3.4380    -0.0170 H     1 <1>   0.0800 
 28 H        7.0340     0.5950    -0.1020 H     1 <1>   0.1500 
 29 H        5.7090     4.5240     0.7820 H     1 <1>   0.1500 
 30 H        9.3950     3.8860    -1.0870 H     1 <1>   0.4570 
 31 H        9.1300     0.2390    -1.1670 H     1 <1>   0.0800 
 32 H       10.3510     1.3980    -0.7160 H     1 <1>   0.0800 
 33 H        9.5710     1.4980    -2.2850 H     1 <1>   0.0800 
 34 H        7.0800     6.4110     0.1980 H     1 <1>   0.0800 
 35 H        8.0100     6.1750    -1.2560 H     1 <1>   0.0800 
 36 H        8.7880     6.0890     0.3140 H     1 <1>   0.0800 
@<TRIPOS>BOND
  1   1   2  ar  
  2   2   3  ar  
  3   2   4  1   
  4   4   5  1   
  5   4   6  1   
  6   4  19  1   
  7   5   7  1   
  8   5   8  1   
  9   5  20  1   
 10   6   9  1   
 11   6  21  1   
 12   6  22  1   
 13   7  23  1   
 14   8  10  1   
 15   8  24  1   
 16   8  25  1   
 17   9  10  1   
 18   9  26  1   
 19   9  27  1   
 20  10  11  1   
 21  11  12  ar  
 22  11  13  ar  
 23  12  14  ar  
 24  12  28  1   
 25  13  15  ar  
 26  13  29  1   
 27  14  16  ar  
 28  14  17  1   
 29  15  16  ar  
 30  15  18  1   
 31  16  30  1   
 32  17  31  1   
 33  17  32  1   
 34  17  33  1   
 35  18  34  1   
 36  18  35  1   
 37  18  36  1   
@<TRIPOS>SUBSTRUCTURE
  1 ****  10 GROUP 4 **** **** 0

# MOE 2024.06 (io_trps.svl 2023.06)
