@<TRIPOS>MOLECULE
NONAME
52 55 1 0 0 
SMALL
USER_CHARGES


@<TRIPOS>ATOM
  1 O        0.4240    -1.0590    -1.3130 O.2   1 <1>  -0.5700 
  2 C        1.3790    -0.4210    -0.8990 C.2   1 <1>   0.6900 
  3 N        2.4380    -0.9260    -0.1990 N.am  1 <1>  -0.4770 
  4 N        1.5360     0.9140    -1.0520 N.am  1 <1>  -0.5470 
  5 C        3.2810     0.1390     0.1080 C.ar  1 <1>   0.1170 
  6 C        2.6220    -2.3480     0.1490 C.3   1 <1>   0.1400 
  7 C        2.7160     1.2850    -0.4280 C.ar  1 <1>   0.1170 
  8 C        4.4790     0.2030     0.8050 C.ar  1 <1>  -0.1500 
  9 C        1.8430    -2.6760     1.4220 C.3   1 <1>  -0.0990 
 10 C        3.3310     2.5190    -0.2860 C.ar  1 <1>  -0.1500 
 11 C        5.0980     1.4340     0.9490 C.ar  1 <1>  -0.1500 
 12 C        1.5600    -4.1590     1.4810 C.2   1 <1>   0.5690 
 13 C        4.5290     2.5850     0.4070 C.ar  1 <1>  -0.1500 
 14 O        2.3170    -4.8550     2.1140 O.2   1 <1>  -0.5700 
 15 N        0.4900    -4.6790     0.8090 N.am  1 <1>  -0.6600 
 16 C       -0.4410    -3.9480    -0.0940 C.3   1 <1>   0.1400 
 17 C        0.1080    -6.1050     0.8790 C.3   1 <1>   0.1400 
 18 C       -1.5100    -4.9690    -0.5050 C.3   1 <1>   0.2000 
 19 C       -0.8130    -6.3230    -0.3240 C.3   1 <1>  -0.0800 
 20 O       -2.6000    -4.9010     0.3710 O.3   1 <1>  -0.5600 
 21 C       -1.7710    -7.5170    -0.1590 C.3   1 <1>   0.0200 
 22 C       -3.5480    -3.9280     0.0610 C.3   1 <1>   0.0400 
 23 C       -1.0630    -8.8620    -0.1620 C.2   1 <1>  -0.0400 
 24 O       -1.7690    -9.9410     0.0470 O.3   1 <1>  -0.0190 
 25 C        0.2120    -9.2400    -0.3460 C.2   1 <1>  -0.1500 
 26 N       -1.0380   -11.0180     0.0150 N.2   1 <1>  -0.4100 
 27 C        0.1620   -10.6250    -0.2190 C.2   1 <1>   0.1080 
 28 C        1.3520   -11.5500    -0.3370 C.3   1 <1>  -0.0590 
 29 H        0.8630     1.4980    -1.5410 H     1 <1>   0.3700 
 30 H        2.2600    -2.9450    -0.6710 H     1 <1>   0.0800 
 31 H        3.6670    -2.5670     0.2840 H     1 <1>   0.0800 
 32 H        4.9120    -0.6880     1.2220 H     1 <1>   0.1500 
 33 H        0.9130    -2.1400     1.4510 H     1 <1>   0.0800 
 34 H        2.4200    -2.3900     2.2810 H     1 <1>   0.0800 
 35 H        2.8830     3.4000    -0.7080 H     1 <1>   0.1500 
 36 H        6.0290     1.5050     1.4860 H     1 <1>   0.1500 
 37 H        5.0260     3.5320     0.5300 H     1 <1>   0.1500 
 38 H       -0.8750    -3.0940     0.3950 H     1 <1>   0.0800 
 39 H        0.0980    -3.6270    -0.9670 H     1 <1>   0.0800 
 40 H        0.9780    -6.7380     0.8480 H     1 <1>   0.0800 
 41 H       -0.4250    -6.2730     1.8000 H     1 <1>   0.0800 
 42 H       -1.8550    -4.8250    -1.5150 H     1 <1>   0.0800 
 43 H       -0.1940    -6.4890    -1.1870 H     1 <1>   0.0800 
 44 H       -2.4860    -7.5100    -0.9620 H     1 <1>   0.0800 
 45 H       -2.3180    -7.4200     0.7630 H     1 <1>   0.0800 
 46 H       -4.3200    -3.9650     0.8090 H     1 <1>   0.0800 
 47 H       -3.9710    -4.1390    -0.9060 H     1 <1>   0.0800 
 48 H       -3.0860    -2.9560     0.0680 H     1 <1>   0.0800 
 49 H        1.0910    -8.6570    -0.5460 H     1 <1>   0.1500 
 50 H        1.7970   -11.4500    -1.3100 H     1 <1>   0.0800 
 51 H        1.0390   -12.5690    -0.2000 H     1 <1>   0.0800 
 52 H        2.0800   -11.3050     0.4150 H     1 <1>   0.0800 
@<TRIPOS>BOND
  1   1   2  2   
  2   2   3  am  
  3   2   4  am  
  4   3   5  1   
  5   3   6  1   
  6   4   7  1   
  7   4  29  1   
  8   5   7  ar  
  9   5   8  ar  
 10   6   9  1   
 11   6  30  1   
 12   6  31  1   
 13   7  10  ar  
 14   8  11  ar  
 15   8  32  1   
 16   9  12  1   
 17   9  33  1   
 18   9  34  1   
 19  10  13  ar  
 20  10  35  1   
 21  11  13  ar  
 22  11  36  1   
 23  12  14  2   
 24  12  15  am  
 25  13  37  1   
 26  15  16  1   
 27  15  17  1   
 28  16  18  1   
 29  16  38  1   
 30  16  39  1   
 31  17  19  1   
 32  17  40  1   
 33  17  41  1   
 34  18  19  1   
 35  18  20  1   
 36  18  42  1   
 37  19  21  1   
 38  19  43  1   
 39  20  22  1   
 40  21  23  1   
 41  21  44  1   
 42  21  45  1   
 43  22  46  1   
 44  22  47  1   
 45  22  48  1   
 46  23  24  1   
 47  23  25  2   
 48  24  26  1   
 49  25  27  1   
 50  25  49  1   
 51  26  27  2   
 52  27  28  1   
 53  28  50  1   
 54  28  51  1   
 55  28  52  1   
@<TRIPOS>SUBSTRUCTURE
  1 ****  15 GROUP 4 **** **** 0

# MOE 2024.06 (io_trps.svl 2023.06)
