@<TRIPOS>MOLECULE
NONAME
43 46 1 0 0 
SMALL
USER_CHARGES


@<TRIPOS>ATOM
  1 S       -1.1880     0.5680     2.4660 S.3   1 <1>  -0.0800 
  2 C       -1.4910     1.4060     0.9520 C.2   1 <1>  -0.1400 
  3 C       -2.7750    -0.1880     2.4020 C.2   1 <1>  -0.1100 
  4 C       -2.7120     1.1140     0.4850 C.2   1 <1>  -0.1810 
  5 C       -0.4690     2.3310     0.3010 C.3   1 <1>   0.4600 
  6 C       -3.4490     0.2000     1.3020 C.2   1 <1>  -0.1500 
  7 C       -3.1860     1.7430    -0.8060 C.3   1 <1>   0.0210 
  8 O       -0.9540     2.7110    -0.9720 O.3   1 <1>  -0.5600 
  9 C        0.8570     1.6040     0.0570 C.3   1 <1>  -0.1600 
 10 C       -0.2350     3.5920     1.1450 C.3   1 <1>  -0.1600 
 11 C       -2.3290     2.9880    -1.1050 C.3   1 <1>   0.1200 
 12 C        1.9050     2.5350    -0.5570 C.3   1 <1>   0.1400 
 13 C        0.8220     4.5010     0.5180 C.3   1 <1>   0.1400 
 14 N        2.0830     3.7290     0.3190 N.am  1 <1>  -0.6600 
 15 C        3.3280     4.0880     0.7840 C.2   1 <1>   0.5690 
 16 O        4.3080     3.4190     0.5450 O.2   1 <1>  -0.5700 
 17 C        3.5500     5.3220     1.6450 C.3   1 <1>   0.0810 
 18 C        3.6220     6.5950     0.8210 C.2   1 <1>  -0.0400 
 19 O        2.5360     7.1320     0.3330 O.3   1 <1>  -0.0190 
 20 C        4.6590     7.3630     0.4550 C.2   1 <1>  -0.1500 
 21 N        2.7890     8.2180    -0.3370 N.2   1 <1>  -0.4100 
 22 C        4.0620     8.3810    -0.2840 C.2   1 <1>   0.1080 
 23 C        4.8020     9.5250    -0.9390 C.3   1 <1>  -0.0590 
 24 H       -3.0380    -0.8520     3.2050 H     1 <1>   0.1500 
 25 H       -4.4400    -0.1190     1.0290 H     1 <1>   0.1500 
 26 H       -4.2180     2.0330    -0.7190 H     1 <1>   0.0800 
 27 H       -3.0970     1.0350    -1.6100 H     1 <1>   0.0800 
 28 H        0.6860     0.7650    -0.5930 H     1 <1>   0.0800 
 29 H        1.2420     1.2240     0.9850 H     1 <1>   0.0800 
 30 H        0.1000     3.3020     2.1240 H     1 <1>   0.0800 
 31 H       -1.1560     4.1280     1.2720 H     1 <1>   0.0800 
 32 H       -2.5820     3.7880    -0.4310 H     1 <1>   0.0800 
 33 H       -2.4990     3.3220    -2.1130 H     1 <1>   0.0800 
 34 H        1.5840     2.8590    -1.5320 H     1 <1>   0.0800 
 35 H        2.8320     2.0010    -0.6740 H     1 <1>   0.0800 
 36 H        0.9740     5.3510     1.1550 H     1 <1>   0.0800 
 37 H        0.4790     4.8610    -0.4380 H     1 <1>   0.0800 
 38 H        4.4830     5.2000     2.1640 H     1 <1>   0.0800 
 39 H        2.7820     5.4020     2.3900 H     1 <1>   0.0800 
 40 H        5.7080     7.2490     0.6590 H     1 <1>   0.1500 
 41 H        5.5130     9.1410    -1.6470 H     1 <1>   0.0800 
 42 H        5.3170    10.1010    -0.1930 H     1 <1>   0.0800 
 43 H        4.1070    10.1640    -1.4550 H     1 <1>   0.0800 
@<TRIPOS>BOND
  1   1   2  1   
  2   1   3  1   
  3   2   4  2   
  4   2   5  1   
  5   3   6  2   
  6   3  24  1   
  7   4   6  1   
  8   4   7  1   
  9   5   8  1   
 10   5   9  1   
 11   5  10  1   
 12   6  25  1   
 13   7  11  1   
 14   7  26  1   
 15   7  27  1   
 16   8  11  1   
 17   9  12  1   
 18   9  28  1   
 19   9  29  1   
 20  10  13  1   
 21  10  30  1   
 22  10  31  1   
 23  11  32  1   
 24  11  33  1   
 25  12  14  1   
 26  12  34  1   
 27  12  35  1   
 28  13  14  1   
 29  13  36  1   
 30  13  37  1   
 31  14  15  am  
 32  15  16  2   
 33  15  17  1   
 34  17  18  1   
 35  17  38  1   
 36  17  39  1   
 37  18  19  1   
 38  18  20  2   
 39  19  21  1   
 40  20  22  1   
 41  20  40  1   
 42  21  22  2   
 43  22  23  1   
 44  23  41  1   
 45  23  42  1   
 46  23  43  1   
@<TRIPOS>SUBSTRUCTURE
  1 ****  13 GROUP 4 **** **** 0

# MOE 2024.06 (io_trps.svl 2023.06)
