@<TRIPOS>MOLECULE
NONAME
53 56 1 0 0 
SMALL
USER_CHARGES


@<TRIPOS>ATOM
  1 O        1.0810    -0.1240     3.7370 O.3   1 <1>  -0.6800 
  2 C        1.3750    -0.8240     2.5760 C.3   1 <1>   0.2000 
  3 C        2.0550    -2.1310     2.9950 C.3   1 <1>  -0.0800 
  4 C        2.4480    -0.0180     1.8240 C.3   1 <1>   0.3430 
  5 C        3.5060    -1.6670     3.1880 C.3   1 <1>   0.3430 
  6 C        1.8980    -3.2960     1.9760 C.3   1 <1>  -0.0170 
  7 N        3.7570    -0.7100     2.0740 N.4   1 <1>  -0.9590 
  8 C        2.8330    -3.1720     0.7740 C.ar  1 <1>  -0.1440 
  9 C        4.9060     0.2140     2.2590 C.3   1 <1>   0.4860 
 10 C        2.5330    -2.3750    -0.3570 C.ar  1 <1>   0.0000 
 11 C        4.0540    -3.7810     0.8130 C.ar  1 <1>  -0.1500 
 12 C        5.0100     1.1060     1.0430 C.ar  1 <1>  -0.1440 
 13 C        3.5900    -2.1030    -1.2580 C.ar  1 <1>   0.3100 
 14 C        1.2660    -1.8110    -0.6330 C.ar  1 <1>  -0.1500 
 15 C        5.0040    -3.5140    -0.1770 C.ar  1 <1>   0.1600 
 16 C        4.5880     2.4160     1.0830 C.ar  1 <1>   0.1600 
 17 C        5.5060     0.6500    -0.1580 C.ar  1 <1>   0.1600 
 18 N        4.8160    -2.6700    -1.1390 N.ar  1 <1>  -0.6200 
 19 C        3.3740    -1.1940    -2.3040 C.ar  1 <1>  -0.1500 
 20 C        1.0830    -0.9420    -1.6750 C.ar  1 <1>  -0.1500 
 21 N        4.6160     3.1910     0.0300 N.ar  1 <1>  -0.6200 
 22 N        5.5490     1.4060    -1.2240 N.ar  1 <1>  -0.6200 
 23 C        2.1530    -0.6150    -2.5100 C.ar  1 <1>  -0.1500 
 24 C        5.0880     2.6420    -1.0790 C.ar  1 <1>   0.7200 
 25 N        5.0850     3.4570    -2.1550 N.pl3 1 <1>  -0.8690 
 26 C        5.9040     3.2380    -3.3570 C.3   1 <1>   0.2090 
 27 C        5.6090     4.3540    -4.3490 C.3   1 <1>  -0.2400 
 28 H        0.2510    -0.4450     4.1520 H     1 <1>   0.4000 
 29 H        0.4670    -0.9450     2.0110 H     1 <1>   0.0800 
 30 H        1.6530    -2.4720     3.9330 H     1 <1>   0.0800 
 31 H        2.4590     0.9920     2.1980 H     1 <1>   0.0800 
 32 H        2.2410     0.0040     0.7670 H     1 <1>   0.0800 
 33 H        4.1980    -2.4930     3.1730 H     1 <1>   0.0800 
 34 H        3.5830    -1.1500     4.1320 H     1 <1>   0.0800 
 35 H        0.8740    -3.3950     1.6650 H     1 <1>   0.0800 
 36 H        2.1350    -4.2150     2.4870 H     1 <1>   0.0800 
 37 H        3.9400    -1.2780     1.2280 H     1 <1>   0.4500 
 38 H        4.7570     0.8140     3.1430 H     1 <1>   0.0800 
 39 H        5.8190    -0.3470     2.3760 H     1 <1>   0.0800 
 40 H        4.3330    -4.4550     1.6050 H     1 <1>   0.1500 
 41 H        0.4200    -2.0700    -0.0260 H     1 <1>   0.1500 
 42 H        5.9560    -4.0190    -0.1220 H     1 <1>   0.1500 
 43 H        4.2070     2.8460     1.9950 H     1 <1>   0.1500 
 44 H        5.8730    -0.3590    -0.2600 H     1 <1>   0.1500 
 45 H        4.2060    -0.9630    -2.9470 H     1 <1>   0.1500 
 46 H        0.1170    -0.5070    -1.8760 H     1 <1>   0.1500 
 47 H        2.0030     0.0840    -3.3170 H     1 <1>   0.1500 
 48 H        4.8820     4.4260    -1.9180 H     1 <1>   0.4000 
 49 H        6.9480     3.2390    -3.0880 H     1 <1>   0.0800 
 50 H        5.6600     2.2810    -3.7890 H     1 <1>   0.0800 
 51 H        5.8740     5.3080    -3.9290 H     1 <1>   0.0800 
 52 H        4.5660     4.3500    -4.6100 H     1 <1>   0.0800 
 53 H        6.1860     4.2030    -5.2430 H     1 <1>   0.0800 
@<TRIPOS>BOND
  1   1   2  1   
  2   1  28  1   
  3   2   3  1   
  4   2   4  1   
  5   2  29  1   
  6   3   5  1   
  7   3   6  1   
  8   3  30  1   
  9   4   7  1   
 10   4  31  1   
 11   4  32  1   
 12   5   7  1   
 13   5  33  1   
 14   5  34  1   
 15   6   8  1   
 16   6  35  1   
 17   6  36  1   
 18   7   9  1   
 19   7  37  1   
 20   8  10  ar  
 21   8  11  ar  
 22   9  12  1   
 23   9  38  1   
 24   9  39  1   
 25  10  13  ar  
 26  10  14  ar  
 27  11  15  ar  
 28  11  40  1   
 29  12  16  ar  
 30  12  17  ar  
 31  13  18  ar  
 32  13  19  ar  
 33  14  20  ar  
 34  14  41  1   
 35  15  18  ar  
 36  15  42  1   
 37  16  21  ar  
 38  16  43  1   
 39  17  22  ar  
 40  17  44  1   
 41  19  23  ar  
 42  19  45  1   
 43  20  23  ar  
 44  20  46  1   
 45  21  24  ar  
 46  22  24  ar  
 47  23  47  1   
 48  24  25  1   
 49  25  26  1   
 50  25  48  1   
 51  26  27  1   
 52  26  49  1   
 53  26  50  1   
 54  27  51  1   
 55  27  52  1   
 56  27  53  1   
@<TRIPOS>SUBSTRUCTURE
  1 ****   7 GROUP 4 **** **** 0

# MOE 2024.06 (io_trps.svl 2023.06)
