@<TRIPOS>MOLECULE
NONAME
52 54 1 0 0 
SMALL
USER_CHARGES


@<TRIPOS>ATOM
  1 S       -0.4420     0.1180     1.4310 S.3   1 <1>  -0.0800 
  2 C       -1.4330     0.5480     0.0450 C.2   1 <1>  -0.1400 
  3 C        0.9320     0.9920     0.7770 C.2   1 <1>  -0.1100 
  4 C       -0.7280     1.3020    -0.8200 C.2   1 <1>  -0.1500 
  5 C       -2.8650     0.0490     0.0190 C.3   1 <1>   0.0200 
  6 C        0.6180     1.5540    -0.4040 C.2   1 <1>  -0.1500 
  7 C       -2.9230    -1.4670    -0.2080 C.3   1 <1>  -0.1600 
  8 C       -4.3750    -1.9800    -0.2580 C.3   1 <1>  -0.0990 
  9 C       -4.5030    -3.4770    -0.5230 C.2   1 <1>   0.5690 
 10 O       -3.5340    -4.1860    -0.3870 O.2   1 <1>  -0.5700 
 11 N       -5.7110    -4.0210    -0.8830 N.am  1 <1>  -0.6600 
 12 C       -5.7980    -5.4570    -1.2600 C.3   1 <1>   0.1400 
 13 C       -7.0340    -3.3880    -0.6270 C.3   1 <1>   0.1400 
 14 C       -6.4480    -6.2410    -0.1000 C.3   1 <1>   0.4230 
 15 C       -7.7010    -4.1420     0.5320 C.3   1 <1>  -0.1600 
 16 N       -6.4180    -7.7520    -0.2810 N.4   1 <1>  -0.9590 
 17 C       -7.8500    -5.6720     0.2770 C.3   1 <1>   0.0000 
 18 C       -7.3820    -8.4930     0.5960 C.3   1 <1>   0.3430 
 19 C       -6.5360    -8.2370    -1.6960 C.3   1 <1>   0.2630 
 20 C       -8.3410    -6.3520     1.5900 C.3   1 <1>  -0.1600 
 21 C       -8.8620    -5.9300    -0.8770 C.3   1 <1>   0.1200 
 22 C       -7.6730    -7.7110     1.8760 C.3   1 <1>  -0.1600 
 23 O      -10.0530    -5.2540    -0.6740 O.3   1 <1>  -0.6800 
 24 H        1.8390     0.9910     1.3550 H     1 <1>   0.1500 
 25 H       -1.0990     1.7000    -1.7480 H     1 <1>   0.1500 
 26 H       -3.3400     0.3030     0.9500 H     1 <1>   0.0800 
 27 H       -3.3920     0.5510    -0.7730 H     1 <1>   0.0800 
 28 H        1.2820     2.1440    -1.0110 H     1 <1>   0.1500 
 29 H       -2.4260    -1.7050    -1.1330 H     1 <1>   0.0800 
 30 H       -2.3940    -1.9680     0.5850 H     1 <1>   0.0800 
 31 H       -4.8970    -1.4560    -1.0370 H     1 <1>   0.0800 
 32 H       -4.8540    -1.7640     0.6790 H     1 <1>   0.0800 
 33 H       -6.3730    -5.5380    -2.1640 H     1 <1>   0.0800 
 34 H       -4.8150    -5.8490    -1.4550 H     1 <1>   0.0800 
 35 H       -6.9290    -2.3500    -0.3660 H     1 <1>   0.0800 
 36 H       -7.6420    -3.4410    -1.5150 H     1 <1>   0.0800 
 37 H       -5.8230    -6.0310     0.7530 H     1 <1>   0.0800 
 38 H       -7.0990    -3.9750     1.4090 H     1 <1>   0.0800 
 39 H       -8.6590    -3.6940     0.7310 H     1 <1>   0.0800 
 40 H       -5.4770    -8.0240     0.0430 H     1 <1>   0.4500 
 41 H       -8.3110    -8.6440     0.0700 H     1 <1>   0.0800 
 42 H       -6.9810    -9.4640     0.8440 H     1 <1>   0.0800 
 43 H       -7.4840    -7.9460    -2.1180 H     1 <1>   0.0800 
 44 H       -6.4610    -9.3120    -1.7300 H     1 <1>   0.0800 
 45 H       -5.7450    -7.8270    -2.3040 H     1 <1>   0.0800 
 46 H       -8.1500    -5.7170     2.4400 H     1 <1>   0.0800 
 47 H       -9.4080    -6.4880     1.5580 H     1 <1>   0.0800 
 48 H       -9.0980    -6.9740    -0.9720 H     1 <1>   0.0800 
 49 H       -8.4790    -5.5830    -1.8200 H     1 <1>   0.0800 
 50 H       -8.3190    -8.2950     2.5090 H     1 <1>   0.0800 
 51 H       -6.7530    -7.5660     2.4160 H     1 <1>   0.0800 
 52 H      -10.5260    -5.5650     0.1230 H     1 <1>   0.4000 
@<TRIPOS>BOND
  1   1   2  1   
  2   1   3  1   
  3   2   4  2   
  4   2   5  1   
  5   3   6  2   
  6   3  24  1   
  7   4   6  1   
  8   4  25  1   
  9   5   7  1   
 10   5  26  1   
 11   5  27  1   
 12   6  28  1   
 13   7   8  1   
 14   7  29  1   
 15   7  30  1   
 16   8   9  1   
 17   8  31  1   
 18   8  32  1   
 19   9  10  2   
 20   9  11  am  
 21  11  12  1   
 22  11  13  1   
 23  12  14  1   
 24  12  33  1   
 25  12  34  1   
 26  13  15  1   
 27  13  35  1   
 28  13  36  1   
 29  14  16  1   
 30  14  17  1   
 31  14  37  1   
 32  15  17  1   
 33  15  38  1   
 34  15  39  1   
 35  16  18  1   
 36  16  19  1   
 37  16  40  1   
 38  17  20  1   
 39  17  21  1   
 40  18  22  1   
 41  18  41  1   
 42  18  42  1   
 43  19  43  1   
 44  19  44  1   
 45  19  45  1   
 46  20  22  1   
 47  20  46  1   
 48  20  47  1   
 49  21  23  1   
 50  21  48  1   
 51  21  49  1   
 52  22  50  1   
 53  22  51  1   
 54  23  52  1   
@<TRIPOS>SUBSTRUCTURE
  1 ****   9 GROUP 4 **** **** 0

# MOE 2024.06 (io_trps.svl 2023.06)
