@<TRIPOS>MOLECULE
NONAME
32 33 1 0 0 
SMALL
USER_CHARGES


@<TRIPOS>ATOM
  1 F        1.1940    -0.8150    -0.0950 F     1 <1>  -0.1900 
  2 C        0.3310    -1.7970    -0.1260 C.ar  1 <1>   0.1900 
  3 C       -0.9550    -1.6000     0.3510 C.ar  1 <1>  -0.1440 
  4 C        0.7590    -3.0040    -0.6450 C.ar  1 <1>  -0.1500 
  5 C       -1.8290    -2.6820     0.2930 C.ar  1 <1>  -0.1500 
  6 C       -1.3630    -0.2370     0.9110 C.3   1 <1>   1.1640 
  7 C       -0.1250    -4.0680    -0.6940 C.ar  1 <1>  -0.1500 
  8 C       -1.4270    -3.9070    -0.2220 C.ar  1 <1>   0.0830 
  9 F       -0.6300     0.1270     1.9560 F     1 <1>  -0.3400 
 10 F       -1.2600     0.7350     0.0140 F     1 <1>  -0.3400 
 11 F       -2.6240    -0.2140     1.3270 F     1 <1>  -0.3400 
 12 O       -2.3670    -4.8860    -0.2280 O.3   1 <1>  -0.3630 
 13 C       -2.1040    -6.2180    -0.6080 C.3   1 <1>   0.2000 
 14 C       -3.4670    -6.8640    -0.9120 C.3   1 <1>   0.3430 
 15 C       -1.3920    -6.9390     0.5490 C.3   1 <1>  -0.1600 
 16 N       -3.3630    -8.3500    -1.1070 N.4   1 <1>  -0.9060 
 17 C       -1.3450    -8.4580     0.3130 C.3   1 <1>  -0.1600 
 18 C       -2.7370    -9.0430     0.0530 C.3   1 <1>   0.3430 
 19 H        1.7690    -3.1030    -1.0020 H     1 <1>   0.1500 
 20 H       -2.8420    -2.5890     0.6500 H     1 <1>   0.1500 
 21 H        0.2240    -4.9970    -1.1020 H     1 <1>   0.1500 
 22 H       -1.5110    -6.2120    -1.5050 H     1 <1>   0.0800 
 23 H       -3.8840    -6.4060    -1.7940 H     1 <1>   0.0800 
 24 H       -4.1250    -6.6630    -0.0820 H     1 <1>   0.0800 
 25 H       -1.9210    -6.7420     1.4670 H     1 <1>   0.0800 
 26 H       -0.3890    -6.5650     0.6580 H     1 <1>   0.0800 
 27 H       -2.8140    -8.5500    -1.9530 H     1 <1>   0.4500 
 28 H       -4.3030    -8.7380    -1.2700 H     1 <1>   0.4500 
 29 H       -0.9250    -8.9360     1.1820 H     1 <1>   0.0800 
 30 H       -0.6980    -8.6850    -0.5170 H     1 <1>   0.0800 
 31 H       -2.6560   -10.1010    -0.1440 H     1 <1>   0.0800 
 32 H       -3.3490    -8.9110     0.9320 H     1 <1>   0.0800 
@<TRIPOS>BOND
  1   1   2  1   
  2   2   3  ar  
  3   2   4  ar  
  4   3   5  ar  
  5   3   6  1   
  6   4   7  ar  
  7   4  19  1   
  8   5   8  ar  
  9   5  20  1   
 10   6   9  1   
 11   6  10  1   
 12   6  11  1   
 13   7   8  ar  
 14   7  21  1   
 15   8  12  1   
 16  12  13  1   
 17  13  14  1   
 18  13  15  1   
 19  13  22  1   
 20  14  16  1   
 21  14  23  1   
 22  14  24  1   
 23  15  17  1   
 24  15  25  1   
 25  15  26  1   
 26  16  18  1   
 27  16  27  1   
 28  16  28  1   
 29  17  18  1   
 30  17  29  1   
 31  17  30  1   
 32  18  31  1   
 33  18  32  1   
@<TRIPOS>SUBSTRUCTURE
  1 ****   8 GROUP 4 **** **** 0

# MOE 2024.06 (io_trps.svl 2023.06)
