@<TRIPOS>MOLECULE
NONAME
57 60 1 0 0 
SMALL
USER_CHARGES


@<TRIPOS>ATOM
  1 O        0.2870     0.5880     0.7760 O.2   1 <1>  -0.5700 
  2 C        0.4460     1.7440     0.4610 C.2   1 <1>   0.5690 
  3 N       -0.5770     2.6550     0.5210 N.am  1 <1>  -0.6600 
  4 C        1.8240     2.1770    -0.0160 C.3   1 <1>  -0.0990 
  5 C       -1.9590     2.1990     0.8950 C.3   1 <1>   0.1400 
  6 C       -0.4160     4.1070     0.2070 C.3   1 <1>   0.1400 
  7 C        2.7940     1.0020    -0.2230 C.3   1 <1>   0.0200 
  8 C       -3.0660     3.0070     0.1750 C.3   1 <1>   0.0000 
  9 C       -1.4920     4.9400     0.9070 C.3   1 <1>  -0.1600 
 10 C        4.1370     1.4860    -0.7320 C.2   1 <1>   0.2980 
 11 C       -4.4450     2.4320     0.5640 C.3   1 <1>   0.2000 
 12 C       -2.9220     4.5140     0.5260 C.3   1 <1>  -0.1600 
 13 C       -3.0240     2.7370    -1.3440 C.3   1 <1>  -0.1600 
 14 O        4.2180     1.9410    -1.9550 O.3   1 <1>  -0.0190 
 15 N        5.2180     1.5030    -0.0710 N.2   1 <1>  -0.5650 
 16 O       -5.4440     3.3570     0.2370 O.3   1 <1>  -0.5600 
 17 C       -4.6290     1.1910    -0.3190 C.3   1 <1>  -0.1600 
 18 C       -3.7480     1.4040    -1.5570 C.3   1 <1>  -0.1600 
 19 N        5.4620     2.2780    -2.0840 N.2   1 <1>  -0.4100 
 20 C        6.0600     2.0190    -0.9740 C.2   1 <1>   0.4620 
 21 C       -6.6260     3.2300     0.9610 C.3   1 <1>   0.0400 
 22 C        7.4690     2.2460    -0.6960 C.ar  1 <1>   0.0540 
 23 C        8.0350     1.9330     0.5430 C.ar  1 <1>  -0.1500 
 24 C        8.3180     2.7900    -1.6610 C.ar  1 <1>  -0.1500 
 25 C        9.3760     2.1480     0.8120 C.ar  1 <1>  -0.1440 
 26 C        9.6580     3.0110    -1.4040 C.ar  1 <1>  -0.1500 
 27 C       10.1880     2.6910    -0.1680 C.ar  1 <1>  -0.1500 
 28 C        9.9570     1.7970     2.1700 C.3   1 <1>  -0.0970 
 29 H        1.7140     2.7050    -0.9450 H     1 <1>   0.0800 
 30 H        2.2430     2.8460     0.7120 H     1 <1>   0.0800 
 31 H       -2.0640     1.1530     0.6650 H     1 <1>   0.0800 
 32 H       -2.0730     2.3090     1.9590 H     1 <1>   0.0800 
 33 H        0.5510     4.4500     0.5300 H     1 <1>   0.0800 
 34 H       -0.4880     4.2490    -0.8580 H     1 <1>   0.0800 
 35 H        2.3830     0.3030    -0.9290 H     1 <1>   0.0800 
 36 H        2.9400     0.4860     0.7100 H     1 <1>   0.0800 
 37 H       -1.3580     4.8340     1.9690 H     1 <1>   0.0800 
 38 H       -1.3540     5.9800     0.6700 H     1 <1>   0.0800 
 39 H       -4.5000     2.2080     1.6160 H     1 <1>   0.0800 
 40 H       -3.2680     5.1090    -0.3010 H     1 <1>   0.0800 
 41 H       -3.5610     4.7500     1.3590 H     1 <1>   0.0800 
 42 H       -3.5800     3.5020    -1.8580 H     1 <1>   0.0800 
 43 H       -2.0280     2.7110    -1.7460 H     1 <1>   0.0800 
 44 H       -4.2830     0.3230     0.2130 H     1 <1>   0.0800 
 45 H       -5.6580     1.0380    -0.5910 H     1 <1>   0.0800 
 46 H       -3.0320     0.6030    -1.6400 H     1 <1>   0.0800 
 47 H       -4.3410     1.4360    -2.4550 H     1 <1>   0.0800 
 48 H       -7.3190     3.9690     0.5980 H     1 <1>   0.0800 
 49 H       -6.4230     3.4050     2.0030 H     1 <1>   0.0800 
 50 H       -7.0370     2.2470     0.8140 H     1 <1>   0.0800 
 51 H        7.4060     1.5120     1.3080 H     1 <1>   0.1500 
 52 H        7.9230     3.0450    -2.6290 H     1 <1>   0.1500 
 53 H       10.2910     3.4330    -2.1660 H     1 <1>   0.1500 
 54 H       11.2310     2.8660     0.0280 H     1 <1>   0.1500 
 55 H       10.9240     1.3420     2.0530 H     1 <1>   0.0800 
 56 H        9.3190     1.1070     2.6910 H     1 <1>   0.0800 
 57 H       10.0610     2.6880     2.7620 H     1 <1>   0.0800 
@<TRIPOS>BOND
  1   1   2  2   
  2   2   3  am  
  3   2   4  1   
  4   3   5  1   
  5   3   6  1   
  6   4   7  1   
  7   4  29  1   
  8   4  30  1   
  9   5   8  1   
 10   5  31  1   
 11   5  32  1   
 12   6   9  1   
 13   6  33  1   
 14   6  34  1   
 15   7  10  1   
 16   7  35  1   
 17   7  36  1   
 18   8  11  1   
 19   8  12  1   
 20   8  13  1   
 21   9  12  1   
 22   9  37  1   
 23   9  38  1   
 24  10  14  1   
 25  10  15  2   
 26  11  16  1   
 27  11  17  1   
 28  11  39  1   
 29  12  40  1   
 30  12  41  1   
 31  13  18  1   
 32  13  42  1   
 33  13  43  1   
 34  14  19  1   
 35  15  20  1   
 36  16  21  1   
 37  17  18  1   
 38  17  44  1   
 39  17  45  1   
 40  18  46  1   
 41  18  47  1   
 42  19  20  2   
 43  20  22  1   
 44  21  48  1   
 45  21  49  1   
 46  21  50  1   
 47  22  23  ar  
 48  22  24  ar  
 49  23  25  ar  
 50  23  51  1   
 51  24  26  ar  
 52  24  52  1   
 53  25  27  ar  
 54  25  28  1   
 55  26  27  ar  
 56  26  53  1   
 57  27  54  1   
 58  28  55  1   
 59  28  56  1   
 60  28  57  1   
@<TRIPOS>SUBSTRUCTURE
  1 ****   4 GROUP 4 **** **** 0

# MOE 2024.06 (io_trps.svl 2023.06)
