@<TRIPOS>MOLECULE
NONAME
66 69 1 0 0 
SMALL
USER_CHARGES


@<TRIPOS>ATOM
  1 O       -1.7150    -0.0590    -0.9170 O.3   1 <1>  -0.5600 
  2 C       -2.7070    -0.8160    -0.2880 C.3   1 <1>   0.1200 
  3 C       -2.1530     0.7030    -2.0030 C.3   1 <1>   0.1200 
  4 C       -3.8210     0.1060     0.2440 C.3   1 <1>   0.3430 
  5 C       -3.2410     1.6960    -1.5500 C.3   1 <1>   0.3430 
  6 N       -4.3740     0.9970    -0.8420 N.4   1 <1>  -0.9590 
  7 C       -5.3560     1.9900    -0.3240 C.3   1 <1>   0.3430 
  8 C       -6.6770     1.3120     0.0470 C.3   1 <1>  -0.1600 
  9 C       -7.6810     2.3550     0.5430 C.3   1 <1>   0.1200 
 10 O       -8.8910     1.7040     0.8790 O.3   1 <1>  -0.3630 
 11 C       -9.8680     2.3870     1.5410 C.ar  1 <1>   0.0830 
 12 C      -10.9150     1.6550     2.0970 C.ar  1 <1>  -0.1430 
 13 C       -9.8610     3.7740     1.6750 C.ar  1 <1>  -0.1500 
 14 C      -11.9240     2.3050     2.7930 C.ar  1 <1>  -0.1500 
 15 C      -10.9790     0.1500     1.9330 C.3   1 <1>   0.4860 
 16 C      -10.8750     4.4140     2.3650 C.ar  1 <1>  -0.1500 
 17 C      -11.9040     3.6810     2.9260 C.ar  1 <1>  -0.1500 
 18 N      -11.1560    -0.1710     0.4900 N.4   1 <1>  -0.9590 
 19 C      -12.3770     0.4860    -0.0670 C.3   1 <1>   0.4230 
 20 C      -11.0450    -1.6440     0.2500 C.3   1 <1>   0.2630 
 21 C      -13.6990    -0.1010     0.4220 C.3   1 <1>  -0.1600 
 22 C      -12.4690     0.4060    -1.5850 C.3   1 <1>  -0.1600 
 23 C      -14.7240     0.4100    -0.5970 C.3   1 <1>  -0.0800 
 24 C      -13.9390     0.7270    -1.8840 C.3   1 <1>  -0.0800 
 25 C      -15.4050     1.7200    -0.1720 C.3   1 <1>  -0.1600 
 26 C      -14.1920     2.2110    -2.1920 C.3   1 <1>  -0.1600 
 27 C      -15.4730     2.5460    -1.4460 C.3   1 <1>   0.2000 
 28 O      -15.5120     3.8880    -1.1420 O.3   1 <1>  -0.6800 
 29 H       -3.0930    -1.5350    -0.9900 H     1 <1>   0.0800 
 30 H       -2.2440    -1.3470     0.5260 H     1 <1>   0.0800 
 31 H       -1.3020     1.2370    -2.3910 H     1 <1>   0.0800 
 32 H       -2.5180     0.0410    -2.7690 H     1 <1>   0.0800 
 33 H       -3.4080     0.7090     1.0360 H     1 <1>   0.0800 
 34 H       -4.6060    -0.5000     0.6640 H     1 <1>   0.0800 
 35 H       -3.6140     2.2280    -2.4100 H     1 <1>   0.0800 
 36 H       -2.7840     2.4140    -0.8890 H     1 <1>   0.0800 
 37 H       -4.8370     0.3970    -1.5360 H     1 <1>   0.4500 
 38 H       -4.9460     2.4950     0.5370 H     1 <1>   0.0800 
 39 H       -5.5490     2.7320    -1.0830 H     1 <1>   0.0800 
 40 H       -6.5180     0.5960     0.8330 H     1 <1>   0.0800 
 41 H       -7.0850     0.8210    -0.8190 H     1 <1>   0.0800 
 42 H       -7.8940     3.0830    -0.2230 H     1 <1>   0.0800 
 43 H       -7.3080     2.8480     1.4260 H     1 <1>   0.0800 
 44 H       -9.0850     4.3850     1.2540 H     1 <1>   0.1500 
 45 H      -12.7350     1.7560     3.2400 H     1 <1>   0.1500 
 46 H      -11.7980    -0.2500     2.5070 H     1 <1>   0.0800 
 47 H      -10.0610    -0.2820     2.2990 H     1 <1>   0.0800 
 48 H      -10.8630     5.4860     2.4700 H     1 <1>   0.1500 
 49 H      -12.6870     4.1860     3.4690 H     1 <1>   0.1500 
 50 H      -10.3590     0.3080     0.0440 H     1 <1>   0.4500 
 51 H      -12.3700     1.5340     0.1910 H     1 <1>   0.0800 
 52 H      -11.8470    -2.1680     0.7440 H     1 <1>   0.0800 
 53 H      -10.1080    -2.0160     0.6310 H     1 <1>   0.0800 
 54 H      -11.0920    -1.8610    -0.8050 H     1 <1>   0.0800 
 55 H      -13.6880    -1.1740     0.3730 H     1 <1>   0.0800 
 56 H      -13.9410     0.2110     1.4220 H     1 <1>   0.0800 
 57 H      -11.8000     1.0960    -2.0680 H     1 <1>   0.0800 
 58 H      -12.2690    -0.5900    -1.9350 H     1 <1>   0.0800 
 59 H      -15.4760    -0.3370    -0.7940 H     1 <1>   0.0800 
 60 H      -14.3050     0.1240    -2.7000 H     1 <1>   0.0800 
 61 H      -14.8110     2.2360     0.5620 H     1 <1>   0.0800 
 62 H      -16.3890     1.5410     0.2240 H     1 <1>   0.0800 
 63 H      -14.3070     2.3780    -3.2490 H     1 <1>   0.0800 
 64 H      -13.3860     2.8190    -1.8190 H     1 <1>   0.0800 
 65 H      -16.3430     2.2920    -2.0290 H     1 <1>   0.0800 
 66 H      -14.7200     4.1520    -0.6390 H     1 <1>   0.4000 
@<TRIPOS>BOND
  1   1   2  1   
  2   1   3  1   
  3   2   4  1   
  4   2  29  1   
  5   2  30  1   
  6   3   5  1   
  7   3  31  1   
  8   3  32  1   
  9   4   6  1   
 10   4  33  1   
 11   4  34  1   
 12   5   6  1   
 13   5  35  1   
 14   5  36  1   
 15   6   7  1   
 16   6  37  1   
 17   7   8  1   
 18   7  38  1   
 19   7  39  1   
 20   8   9  1   
 21   8  40  1   
 22   8  41  1   
 23   9  10  1   
 24   9  42  1   
 25   9  43  1   
 26  10  11  1   
 27  11  12  ar  
 28  11  13  ar  
 29  12  14  ar  
 30  12  15  1   
 31  13  16  ar  
 32  13  44  1   
 33  14  17  ar  
 34  14  45  1   
 35  15  18  1   
 36  15  46  1   
 37  15  47  1   
 38  16  17  ar  
 39  16  48  1   
 40  17  49  1   
 41  18  19  1   
 42  18  20  1   
 43  18  50  1   
 44  19  21  1   
 45  19  22  1   
 46  19  51  1   
 47  20  52  1   
 48  20  53  1   
 49  20  54  1   
 50  21  23  1   
 51  21  55  1   
 52  21  56  1   
 53  22  24  1   
 54  22  57  1   
 55  22  58  1   
 56  23  24  1   
 57  23  25  1   
 58  23  59  1   
 59  24  26  1   
 60  24  60  1   
 61  25  27  1   
 62  25  61  1   
 63  25  62  1   
 64  26  27  1   
 65  26  63  1   
 66  26  64  1   
 67  27  28  1   
 68  27  65  1   
 69  28  66  1   
@<TRIPOS>SUBSTRUCTURE
  1 ****  10 GROUP 4 **** **** 0

# MOE 2024.06 (io_trps.svl 2023.06)
