@<TRIPOS>MOLECULE
NONAME
59 63 1 0 0 
SMALL
USER_CHARGES


@<TRIPOS>ATOM
  1 O       -1.7100     0.9160    -0.1010 O.3   1 <1>  -0.3630 
  2 C       -2.3160    -0.2340     0.2970 C.ar  1 <1>   0.0830 
  3 C       -2.1320     2.1270     0.4890 C.3   1 <1>   0.1200 
  4 C       -2.7600    -0.4660     1.6060 C.ar  1 <1>   0.0820 
  5 C       -2.5150    -1.1970    -0.6750 C.ar  1 <1>  -0.1500 
  6 C       -1.4070     2.3480     1.8180 C.3   1 <1>  -0.1600 
  7 O       -2.5480     0.3890     2.6420 O.3   1 <1>  -0.3630 
  8 C       -3.4370    -1.6360     1.9000 C.ar  1 <1>  -0.1500 
  9 C       -3.1830    -2.3790    -0.3720 C.ar  1 <1>   0.0830 
 10 C       -1.3180     1.0820     2.6730 C.3   1 <1>   0.1200 
 11 C       -3.6550    -2.5930     0.9210 C.ar  1 <1>  -0.1430 
 12 O       -3.4200    -3.3490    -1.3000 O.3   1 <1>  -0.3630 
 13 C       -4.4110    -3.8610     1.2670 C.3   1 <1>   0.4860 
 14 C       -2.7240    -3.3460    -2.5320 C.3   1 <1>   0.0400 
 15 N       -5.6080    -3.9300     0.3960 N.4   1 <1>  -0.9590 
 16 C       -6.5580    -2.7970     0.6590 C.3   1 <1>   0.3430 
 17 C       -6.2870    -5.2510     0.4390 C.3   1 <1>   0.3430 
 18 C       -7.6780    -2.7540    -0.3920 C.3   1 <1>   0.1430 
 19 C       -7.3920    -5.2880    -0.6220 C.3   1 <1>  -0.1600 
 20 C       -8.6570    -1.6740    -0.0010 C.ar  1 <1>   0.1670 
 21 C       -8.3890    -4.1220    -0.4700 C.3   1 <1>  -0.1600 
 22 C       -7.1770    -2.2700    -1.7800 C.3   1 <1>  -0.1600 
 23 N       -9.1580    -1.5240     1.2030 N.ar  1 <1>  -0.6200 
 24 C       -8.9540    -0.8550    -1.0470 C.ar  1 <1>  -0.1430 
 25 C       -8.2200    -1.2610    -2.3000 C.3   1 <1>  -0.0170 
 26 C       -9.9990    -0.5030     1.3150 C.ar  1 <1>   0.4770 
 27 C       -9.8340     0.1740    -0.8170 C.ar  1 <1>   0.1600 
 28 N      -10.3660     0.3570     0.3740 N.ar  1 <1>  -0.6200 
 29 C      -10.6130    -0.2840     2.6760 C.3   1 <1>  -0.0970 
 30 H       -3.1990     2.0820     0.6320 H     1 <1>   0.0800 
 31 H       -1.9090     2.9240    -0.1980 H     1 <1>   0.0800 
 32 H       -2.1470    -0.9870    -1.6610 H     1 <1>   0.1500 
 33 H       -1.9200     3.1130     2.3710 H     1 <1>   0.0800 
 34 H       -0.4130     2.7080     1.6250 H     1 <1>   0.0800 
 35 H       -3.7790    -1.7790     2.9110 H     1 <1>   0.1500 
 36 H       -1.1060     1.3330     3.6970 H     1 <1>   0.0800 
 37 H       -0.5470     0.4230     2.3110 H     1 <1>   0.0800 
 38 H       -4.7010    -3.8550     2.3050 H     1 <1>   0.0800 
 39 H       -3.7720    -4.7100     1.0870 H     1 <1>   0.0800 
 40 H       -2.9560    -4.2570    -3.0560 H     1 <1>   0.0800 
 41 H       -1.6660    -3.2990    -2.3390 H     1 <1>   0.0800 
 42 H       -3.0430    -2.5010    -3.1170 H     1 <1>   0.0800 
 43 H       -5.2170    -3.7890    -0.5520 H     1 <1>   0.4500 
 44 H       -6.0340    -1.8550     0.6470 H     1 <1>   0.0800 
 45 H       -7.0040    -2.9150     1.6330 H     1 <1>   0.0800 
 46 H       -6.7190    -5.4070     1.4150 H     1 <1>   0.0800 
 47 H       -5.5770    -6.0400     0.2480 H     1 <1>   0.0800 
 48 H       -7.9260    -6.2190    -0.5340 H     1 <1>   0.0800 
 49 H       -6.9450    -5.2720    -1.6000 H     1 <1>   0.0800 
 50 H       -9.0930    -4.1270    -1.2860 H     1 <1>   0.0800 
 51 H       -8.9540    -4.2690     0.4360 H     1 <1>   0.0800 
 52 H       -7.0350    -3.0730    -2.4810 H     1 <1>   0.0800 
 53 H       -6.2410    -1.7490    -1.6670 H     1 <1>   0.0800 
 54 H       -8.9060    -1.7340    -2.9820 H     1 <1>   0.0800 
 55 H       -7.7550    -0.4170    -2.7800 H     1 <1>   0.0800 
 56 H      -10.1070     0.8520    -1.6080 H     1 <1>   0.1500 
 57 H      -10.4830    -1.1530     3.2940 H     1 <1>   0.0800 
 58 H      -11.6640    -0.0860     2.5710 H     1 <1>   0.0800 
 59 H      -10.1420     0.5580     3.1470 H     1 <1>   0.0800 
@<TRIPOS>BOND
  1   1   2  1   
  2   1   3  1   
  3   2   4  ar  
  4   2   5  ar  
  5   3   6  1   
  6   3  30  1   
  7   3  31  1   
  8   4   7  1   
  9   4   8  ar  
 10   5   9  ar  
 11   5  32  1   
 12   6  10  1   
 13   6  33  1   
 14   6  34  1   
 15   7  10  1   
 16   8  11  ar  
 17   8  35  1   
 18   9  11  ar  
 19   9  12  1   
 20  10  36  1   
 21  10  37  1   
 22  11  13  1   
 23  12  14  1   
 24  13  15  1   
 25  13  38  1   
 26  13  39  1   
 27  14  40  1   
 28  14  41  1   
 29  14  42  1   
 30  15  16  1   
 31  15  17  1   
 32  15  43  1   
 33  16  18  1   
 34  16  44  1   
 35  16  45  1   
 36  17  19  1   
 37  17  46  1   
 38  17  47  1   
 39  18  20  1   
 40  18  21  1   
 41  18  22  1   
 42  19  21  1   
 43  19  48  1   
 44  19  49  1   
 45  20  23  ar  
 46  20  24  ar  
 47  21  50  1   
 48  21  51  1   
 49  22  25  1   
 50  22  52  1   
 51  22  53  1   
 52  23  26  ar  
 53  24  25  1   
 54  24  27  ar  
 55  25  54  1   
 56  25  55  1   
 57  26  28  ar  
 58  26  29  1   
 59  27  28  ar  
 60  27  56  1   
 61  29  57  1   
 62  29  58  1   
 63  29  59  1   
@<TRIPOS>SUBSTRUCTURE
  1 ****  16 GROUP 4 **** **** 0

# MOE 2024.06 (io_trps.svl 2023.06)
