@<TRIPOS>MOLECULE
NONAME
54 56 1 0 0 
SMALL
USER_CHARGES


@<TRIPOS>ATOM
  1 O        0.1360    -0.0530     2.5220 O.2   1 <1>  -0.5700 
  2 C        0.5710    -0.5990     1.5360 C.2   1 <1>   0.5690 
  3 N        1.2610     0.0700     0.5770 N.am  1 <1>  -0.7300 
  4 C        0.3380    -2.1000     1.3500 C.3   1 <1>   0.1710 
  5 C        1.5570     1.5200     0.5680 C.3   1 <1>   0.1400 
  6 N        0.2650    -2.5510    -0.0760 N.3   1 <1>  -0.8100 
  7 C        3.0160     1.7560     0.9560 C.3   1 <1>  -0.0170 
  8 C       -0.9330    -2.0380    -0.7680 C.3   1 <1>   0.1100 
  9 C        0.1400    -4.0090    -0.1590 C.3   1 <1>   0.1100 
 10 C        3.3430     3.2400     0.9020 C.ar  1 <1>  -0.1440 
 11 C       -2.0500    -3.0680    -0.5690 C.3   1 <1>   0.2000 
 12 C       -1.3540    -4.3190    -0.0290 C.3   1 <1>  -0.0800 
 13 C        3.0040     4.0640     1.9640 C.ar  1 <1>  -0.1500 
 14 C        3.9760     3.7840    -0.2050 C.ar  1 <1>  -0.1500 
 15 O       -2.9660    -2.6130     0.3660 O.3   1 <1>  -0.6800 
 16 C       -1.7720    -5.6010    -0.7640 C.3   1 <1>  -0.0170 
 17 C        3.2940     5.4160     1.9180 C.ar  1 <1>  -0.1500 
 18 C        4.2680     5.1360    -0.2540 C.ar  1 <1>  -0.1500 
 19 C       -1.0130    -6.8030    -0.2270 C.ar  1 <1>  -0.1440 
 20 C        3.9270     5.9620     0.8140 C.ar  1 <1>   0.0820 
 21 C       -1.3500    -7.3930     0.9740 C.ar  1 <1>  -0.1500 
 22 C        0.0550    -7.3600    -0.9010 C.ar  1 <1>  -0.1500 
 23 O        4.1760     7.2950     0.8480 O.3   1 <1>  -0.3620 
 24 C       -0.6190    -8.4760     1.4350 C.ar  1 <1>   0.1600 
 25 C        0.7200    -8.4450    -0.3530 C.ar  1 <1>   0.1600 
 26 C        4.8240     7.9470    -0.2210 C.3   1 <1>   0.0400 
 27 N        0.4110    -9.0130     0.8010 N.ar  1 <1>  -0.6200 
 28 H        1.5400    -0.4800    -0.2420 H     1 <1>   0.3700 
 29 H       -0.5610    -2.3690     1.8730 H     1 <1>   0.0800 
 30 H        1.1570    -2.6050     1.8310 H     1 <1>   0.0800 
 31 H        1.3670     1.9180    -0.4140 H     1 <1>   0.0800 
 32 H        0.9130     2.0260     1.2680 H     1 <1>   0.0800 
 33 H        3.1820     1.3900     1.9540 H     1 <1>   0.0800 
 34 H        3.6620     1.2170     0.2860 H     1 <1>   0.0800 
 35 H       -1.2190    -1.0550    -0.4320 H     1 <1>   0.0800 
 36 H       -0.7070    -1.9820    -1.8190 H     1 <1>   0.0800 
 37 H        0.4940    -4.3230    -1.1270 H     1 <1>   0.0800 
 38 H        0.7240    -4.5100     0.5950 H     1 <1>   0.0800 
 39 H       -2.5780    -3.2450    -1.4910 H     1 <1>   0.0800 
 40 H       -1.5730    -4.4390     1.0180 H     1 <1>   0.0800 
 41 H        2.5110     3.6560     2.8300 H     1 <1>   0.1500 
 42 H        4.2460     3.1570    -1.0360 H     1 <1>   0.1500 
 43 H       -2.4990    -2.2840     1.1580 H     1 <1>   0.4000 
 44 H       -1.5900    -5.4960    -1.8200 H     1 <1>   0.0800 
 45 H       -2.8290    -5.7590    -0.6310 H     1 <1>   0.0800 
 46 H        3.0320     6.0570     2.7400 H     1 <1>   0.1500 
 47 H        4.7590     5.5260    -1.1240 H     1 <1>   0.1500 
 48 H       -2.1730    -7.0200     1.5570 H     1 <1>   0.1500 
 49 H        0.3790    -6.9640    -1.8460 H     1 <1>   0.1500 
 50 H       -0.8960    -8.9240     2.3740 H     1 <1>   0.1500 
 51 H        1.5510    -8.8670    -0.8920 H     1 <1>   0.1500 
 52 H        4.9150     8.9880     0.0290 H     1 <1>   0.0800 
 53 H        4.2280     7.8350    -1.1100 H     1 <1>   0.0800 
 54 H        5.8000     7.5150    -0.3530 H     1 <1>   0.0800 
@<TRIPOS>BOND
  1   1   2  2   
  2   2   3  am  
  3   2   4  1   
  4   3   5  1   
  5   3  28  1   
  6   4   6  1   
  7   4  29  1   
  8   4  30  1   
  9   5   7  1   
 10   5  31  1   
 11   5  32  1   
 12   6   8  1   
 13   6   9  1   
 14   7  10  1   
 15   7  33  1   
 16   7  34  1   
 17   8  11  1   
 18   8  35  1   
 19   8  36  1   
 20   9  12  1   
 21   9  37  1   
 22   9  38  1   
 23  10  13  ar  
 24  10  14  ar  
 25  11  12  1   
 26  11  15  1   
 27  11  39  1   
 28  12  16  1   
 29  12  40  1   
 30  13  17  ar  
 31  13  41  1   
 32  14  18  ar  
 33  14  42  1   
 34  15  43  1   
 35  16  19  1   
 36  16  44  1   
 37  16  45  1   
 38  17  20  ar  
 39  17  46  1   
 40  18  20  ar  
 41  18  47  1   
 42  19  21  ar  
 43  19  22  ar  
 44  20  23  1   
 45  21  24  ar  
 46  21  48  1   
 47  22  25  ar  
 48  22  49  1   
 49  23  26  1   
 50  24  27  ar  
 51  24  50  1   
 52  25  27  ar  
 53  25  51  1   
 54  26  52  1   
 55  26  53  1   
 56  26  54  1   
@<TRIPOS>SUBSTRUCTURE
  1 ****   3 GROUP 4 **** **** 0

# MOE 2024.06 (io_trps.svl 2023.06)
