@<TRIPOS>MOLECULE
NONAME
54 57 1 0 0 
SMALL
USER_CHARGES


@<TRIPOS>ATOM
  1 O        0.3860     0.6160    -0.7320 O.3   1 <1>  -0.3630 
  2 C        0.2580     1.9390    -0.4690 C.ar  1 <1>   0.0830 
  3 C       -0.7310    -0.2400    -0.8050 C.3   1 <1>   0.0400 
  4 C        1.4020     2.6920    -0.4270 C.ar  1 <1>  -0.1500 
  5 C       -0.9810     2.5610    -0.2410 C.ar  1 <1>  -0.1500 
  6 C        1.3800     4.0680    -0.1630 C.ar  1 <1>   0.3100 
  7 C       -1.0350     3.9040     0.0200 C.ar  1 <1>  -0.1500 
  8 N        2.5630     4.7270    -0.1470 N.ar  1 <1>  -0.6200 
  9 C        0.1320     4.6960     0.0670 C.ar  1 <1>   0.0000 
 10 C        2.5330     6.0060     0.0950 C.ar  1 <1>   0.4100 
 11 C        0.1370     6.0840     0.3330 C.ar  1 <1>  -0.1430 
 12 N        3.7260     6.6970     0.0910 N.pl3 1 <1>  -0.8380 
 13 C        1.3430     6.7130     0.3430 C.ar  1 <1>  -0.1500 
 14 C       -1.1480     6.8530     0.6040 C.3   1 <1>  -0.0970 
 15 C        3.9700     7.6160    -1.0570 C.3   1 <1>   0.2090 
 16 C        4.9190     6.0170     0.6490 C.3   1 <1>   0.2090 
 17 C        4.4710     8.9850    -0.5700 C.3   1 <1>   0.2090 
 18 C        5.9270     7.0190     1.2170 C.3   1 <1>  -0.1600 
 19 N        5.9440     9.0620    -0.2590 N.pl3 1 <1>  -0.8380 
 20 C        6.6610     7.8110     0.1330 C.3   1 <1>   0.2090 
 21 C        6.6290    10.2210    -0.4240 C.ar  1 <1>   0.1000 
 22 C        6.3550    11.3960     0.3050 C.ar  1 <1>  -0.1430 
 23 C        7.6710    10.2730    -1.3580 C.ar  1 <1>  -0.1500 
 24 C        7.0890    12.5320     0.0660 C.ar  1 <1>   0.2110 
 25 C        5.2710    11.4160     1.3790 C.3   1 <1>  -0.0970 
 26 C        8.3800    11.4250    -1.5640 C.ar  1 <1>   0.2110 
 27 N        8.0830    12.5420    -0.8570 N.ar  1 <1>  -0.1790 
 28 H       -0.3780    -1.2310    -1.0260 H     1 <1>   0.0800 
 29 H       -1.3810     0.1000    -1.5910 H     1 <1>   0.0800 
 30 H       -1.2360    -0.2360     0.1450 H     1 <1>   0.0800 
 31 H        2.3540     2.2300    -0.5990 H     1 <1>   0.1500 
 32 H       -1.8900     1.9930    -0.2690 H     1 <1>   0.1500 
 33 H       -1.9890     4.3670     0.1920 H     1 <1>   0.1500 
 34 H        1.4320     7.7620     0.5470 H     1 <1>   0.1500 
 35 H       -1.6430     6.4500     1.4690 H     1 <1>   0.0800 
 36 H       -1.8050     6.7850    -0.2440 H     1 <1>   0.0800 
 37 H       -0.9400     7.8920     0.7880 H     1 <1>   0.0800 
 38 H        3.0430     7.7620    -1.5840 H     1 <1>   0.0800 
 39 H        4.6690     7.1810    -1.7480 H     1 <1>   0.0800 
 40 H        5.3750     5.4090    -0.1140 H     1 <1>   0.0800 
 41 H        4.6010     5.3610     1.4420 H     1 <1>   0.0800 
 42 H        3.9050     9.2480     0.3060 H     1 <1>   0.0800 
 43 H        4.2520     9.7110    -1.3320 H     1 <1>   0.0800 
 44 H        6.6620     6.4490     1.7540 H     1 <1>   0.0800 
 45 H        5.4530     7.6780     1.9220 H     1 <1>   0.0800 
 46 H        6.8170     7.1940    -0.7360 H     1 <1>   0.0800 
 47 H        7.6300     8.0830     0.5150 H     1 <1>   0.0800 
 48 H        7.8950     9.3840    -1.9200 H     1 <1>   0.1500 
 49 H        6.8930    13.4400     0.6130 H     1 <1>   0.1500 
 50 H        5.3170    10.5170     1.9690 H     1 <1>   0.0800 
 51 H        4.2990    11.4800     0.9250 H     1 <1>   0.0800 
 52 H        5.3900    12.2530     2.0440 H     1 <1>   0.0800 
 53 H        9.1790    11.4630    -2.2880 H     1 <1>   0.1500 
 54 H        8.6170    13.4030    -1.0170 H     1 <1>   0.4570 
@<TRIPOS>BOND
  1   1   2  1   
  2   1   3  1   
  3   2   4  ar  
  4   2   5  ar  
  5   3  28  1   
  6   3  29  1   
  7   3  30  1   
  8   4   6  ar  
  9   4  31  1   
 10   5   7  ar  
 11   5  32  1   
 12   6   8  ar  
 13   6   9  ar  
 14   7   9  ar  
 15   7  33  1   
 16   8  10  ar  
 17   9  11  ar  
 18  10  12  1   
 19  10  13  ar  
 20  11  13  ar  
 21  11  14  1   
 22  12  15  1   
 23  12  16  1   
 24  13  34  1   
 25  14  35  1   
 26  14  36  1   
 27  14  37  1   
 28  15  17  1   
 29  15  38  1   
 30  15  39  1   
 31  16  18  1   
 32  16  40  1   
 33  16  41  1   
 34  17  19  1   
 35  17  42  1   
 36  17  43  1   
 37  18  20  1   
 38  18  44  1   
 39  18  45  1   
 40  19  20  1   
 41  19  21  1   
 42  20  46  1   
 43  20  47  1   
 44  21  22  ar  
 45  21  23  ar  
 46  22  24  ar  
 47  22  25  1   
 48  23  26  ar  
 49  23  48  1   
 50  24  27  ar  
 51  24  49  1   
 52  25  50  1   
 53  25  51  1   
 54  25  52  1   
 55  26  27  ar  
 56  26  53  1   
 57  27  54  1   
@<TRIPOS>SUBSTRUCTURE
  1 ****  12 GROUP 4 **** **** 0

# MOE 2024.06 (io_trps.svl 2023.06)
