@<TRIPOS>MOLECULE
NONAME
58 61 1 0 0 
SMALL
USER_CHARGES


@<TRIPOS>ATOM
  1 O        0.9020    -0.1120    -2.0260 O.2   1 <1>  -0.5700 
  2 C        1.5460    -0.8640    -1.3350 C.2   1 <1>   0.5690 
  3 N        1.2330    -1.1440    -0.0330 N.am  1 <1>  -0.6600 
  4 C        2.7700    -1.5390    -1.9200 C.3   1 <1>  -0.0990 
  5 C        2.0810    -2.0720     0.7560 C.3   1 <1>   0.1400 
  6 C        0.0830    -0.5170     0.6710 C.3   1 <1>   0.0600 
  7 C        2.7920    -3.0360    -1.5540 C.3   1 <1>  -0.0800 
  8 C        2.4130    -3.3220    -0.0820 C.3   1 <1>  -0.0800 
  9 C        4.1580    -3.6920    -1.7920 C.3   1 <1>  -0.1600 
 10 C        3.5720    -4.1370     0.5090 C.3   1 <1>  -0.1600 
 11 C        4.2710    -4.7500    -0.6970 C.3   1 <1>   0.2200 
 12 N        5.6570    -5.2210    -0.4030 N.am  1 <1>  -0.6600 
 13 C        6.8040    -4.4600    -0.5410 C.2   1 <1>   0.5440 
 14 C        5.7830    -6.7050    -0.3710 C.3   1 <1>   0.0600 
 15 O        7.7480    -4.9410    -1.1410 O.2   1 <1>  -0.5700 
 16 C        6.9340    -3.1290     0.0170 C.ar  1 <1>   0.0860 
 17 C        6.7200    -2.8840     1.3740 C.ar  1 <1>  -0.1500 
 18 C        7.2980    -2.0450    -0.7830 C.ar  1 <1>  -0.1500 
 19 C        6.8290    -1.6110     1.9030 C.ar  1 <1>  -0.1500 
 20 C        7.4080    -0.7680    -0.2650 C.ar  1 <1>  -0.1500 
 21 C        7.1740    -0.5450     1.0880 C.ar  1 <1>   0.0820 
 22 O        7.2590     0.6840     1.6480 O.3   1 <1>  -0.1650 
 23 C        8.1020     1.6360     1.1740 C.ar  1 <1>   0.0820 
 24 C        9.4230     1.3440     0.8560 C.ar  1 <1>  -0.1500 
 25 C        7.6240     2.9280     1.0250 C.ar  1 <1>  -0.1500 
 26 C       10.2580     2.3380     0.3780 C.ar  1 <1>  -0.1500 
 27 C        8.4600     3.9220     0.5470 C.ar  1 <1>  -0.1500 
 28 C        9.7770     3.6360     0.2190 C.ar  1 <1>   0.0820 
 29 O       10.5260     4.6690    -0.2450 O.3   1 <1>  -0.3630 
 30 C       11.8840     4.4910    -0.5830 C.3   1 <1>   0.0400 
 31 H        2.7720    -1.4190    -2.9880 H     1 <1>   0.0800 
 32 H        3.6340    -1.0390    -1.5230 H     1 <1>   0.0800 
 33 H        2.9860    -1.5540     1.0260 H     1 <1>   0.0800 
 34 H        1.5750    -2.3640     1.6600 H     1 <1>   0.0800 
 35 H        0.4360     0.0380     1.5220 H     1 <1>   0.0800 
 36 H       -0.6010    -1.2790     1.0000 H     1 <1>   0.0800 
 37 H       -0.4400     0.1560     0.0140 H     1 <1>   0.0800 
 38 H        2.0640    -3.5340    -2.1730 H     1 <1>   0.0800 
 39 H        1.5360    -3.9480    -0.0880 H     1 <1>   0.0800 
 40 H        4.9250    -2.9510    -1.6910 H     1 <1>   0.0800 
 41 H        4.2200    -4.1340    -2.7710 H     1 <1>   0.0800 
 42 H        3.2200    -4.8950     1.1860 H     1 <1>   0.0800 
 43 H        4.2410    -3.4800     1.0240 H     1 <1>   0.0800 
 44 H        3.6810    -5.5930    -1.0190 H     1 <1>   0.0800 
 45 H        5.0700    -7.1210     0.3190 H     1 <1>   0.0800 
 46 H        6.7730    -6.9890    -0.0560 H     1 <1>   0.0800 
 47 H        5.6080    -7.1040    -1.3550 H     1 <1>   0.0800 
 48 H        6.4650    -3.7110     2.0140 H     1 <1>   0.1500 
 49 H        7.4920    -2.2190    -1.8280 H     1 <1>   0.1500 
 50 H        6.6540    -1.4380     2.9500 H     1 <1>   0.1500 
 51 H        7.6720     0.0490    -0.9120 H     1 <1>   0.1500 
 52 H        9.7960     0.3430     0.9870 H     1 <1>   0.1500 
 53 H        6.6040     3.1500     1.2810 H     1 <1>   0.1500 
 54 H       11.2740     2.0870     0.1380 H     1 <1>   0.1500 
 55 H        8.0980     4.9270     0.4260 H     1 <1>   0.1500 
 56 H       12.2710     5.4380    -0.9150 H     1 <1>   0.0800 
 57 H       11.9540     3.7700    -1.3770 H     1 <1>   0.0800 
 58 H       12.4210     4.1620     0.2890 H     1 <1>   0.0800 
@<TRIPOS>BOND
  1   1   2  2   
  2   2   3  am  
  3   2   4  1   
  4   3   5  1   
  5   3   6  1   
  6   4   7  1   
  7   4  31  1   
  8   4  32  1   
  9   5   8  1   
 10   5  33  1   
 11   5  34  1   
 12   6  35  1   
 13   6  36  1   
 14   6  37  1   
 15   7   8  1   
 16   7   9  1   
 17   7  38  1   
 18   8  10  1   
 19   8  39  1   
 20   9  11  1   
 21   9  40  1   
 22   9  41  1   
 23  10  11  1   
 24  10  42  1   
 25  10  43  1   
 26  11  12  1   
 27  11  44  1   
 28  12  13  am  
 29  12  14  1   
 30  13  15  2   
 31  13  16  1   
 32  14  45  1   
 33  14  46  1   
 34  14  47  1   
 35  16  17  ar  
 36  16  18  ar  
 37  17  19  ar  
 38  17  48  1   
 39  18  20  ar  
 40  18  49  1   
 41  19  21  ar  
 42  19  50  1   
 43  20  21  ar  
 44  20  51  1   
 45  21  22  1   
 46  22  23  1   
 47  23  24  ar  
 48  23  25  ar  
 49  24  26  ar  
 50  24  52  1   
 51  25  27  ar  
 52  25  53  1   
 53  26  28  ar  
 54  26  54  1   
 55  27  28  ar  
 56  27  55  1   
 57  28  29  1   
 58  29  30  1   
 59  30  56  1   
 60  30  57  1   
 61  30  58  1   
@<TRIPOS>SUBSTRUCTURE
  1 ****  20 GROUP 4 **** **** 0

# MOE 2024.06 (io_trps.svl 2023.06)
