@<TRIPOS>MOLECULE
NONAME
45 47 1 0 0 
SMALL
USER_CHARGES


@<TRIPOS>ATOM
  1 O        0.2530    -0.3760     0.5580 O.2   1 <1>  -0.5700 
  2 C        0.1420    -1.5920     0.6400 C.2   1 <1>   0.6160 
  3 N        1.0640    -2.4320     0.0330 N.am  1 <1>  -0.4690 
  4 C       -0.9290    -2.1960     1.3530 C.2   1 <1>  -0.1360 
  5 C        0.9220    -3.7980     0.1140 C.2   1 <1>  -0.0410 
  6 C        2.2170    -1.8380    -0.6930 C.3   1 <1>   0.0600 
  7 C       -1.0610    -3.5470     1.4250 C.2   1 <1>  -0.1500 
  8 C       -0.1200    -4.4010     0.7740 C.2   1 <1>   0.0140 
  9 C       -0.2550    -5.8380     0.8260 C.2   1 <1>   0.6160 
 10 O        0.7390    -6.5340     0.9310 O.2   1 <1>  -0.5700 
 11 N       -1.4850    -6.4530     0.7310 N.am  1 <1>  -0.6600 
 12 C       -2.5870    -5.9370    -0.1250 C.3   1 <1>   0.1400 
 13 C       -1.6780    -7.9070     0.9530 C.3   1 <1>   0.1400 
 14 C       -3.4980    -7.1390    -0.4200 C.3   1 <1>   0.2000 
 15 C       -2.5970    -8.3540    -0.1840 C.3   1 <1>  -0.0800 
 16 O       -4.5480    -7.1700     0.5050 O.3   1 <1>  -0.5600 
 17 C       -3.3490    -9.6650     0.1100 C.3   1 <1>   0.0200 
 18 C       -5.6750    -6.4330     0.1490 C.3   1 <1>   0.0400 
 19 C       -2.4350   -10.8790     0.1670 C.2   1 <1>  -0.0400 
 20 O       -2.9460   -12.0340     0.5020 O.3   1 <1>  -0.0190 
 21 C       -1.1250   -11.0660    -0.0660 C.2   1 <1>  -0.1500 
 22 N       -2.0520   -12.9800     0.5090 N.2   1 <1>  -0.4100 
 23 C       -0.9450   -12.4260     0.1710 C.2   1 <1>   0.1080 
 24 C        0.3730   -13.1580     0.0500 C.3   1 <1>  -0.0590 
 25 H       -1.6160    -1.5230     1.8300 H     1 <1>   0.1500 
 26 H        1.6710    -4.4070    -0.3660 H     1 <1>   0.1500 
 27 H        2.8490    -2.6080    -1.0960 H     1 <1>   0.0800 
 28 H        2.7900    -1.2290    -0.0160 H     1 <1>   0.0800 
 29 H        1.8550    -1.2200    -1.4960 H     1 <1>   0.0800 
 30 H       -1.8630    -4.0030     1.9800 H     1 <1>   0.1500 
 31 H       -3.1290    -5.1540     0.3740 H     1 <1>   0.0800 
 32 H       -2.1710    -5.5610    -1.0430 H     1 <1>   0.0800 
 33 H       -0.7450    -8.4440     0.9470 H     1 <1>   0.0800 
 34 H       -2.1630    -8.0490     1.9040 H     1 <1>   0.0800 
 35 H       -3.9010    -7.1240    -1.4180 H     1 <1>   0.0800 
 36 H       -1.9920    -8.4900    -1.0630 H     1 <1>   0.0800 
 37 H       -4.0840    -9.8330    -0.6560 H     1 <1>   0.0800 
 38 H       -3.8690    -9.5850     1.0480 H     1 <1>   0.0800 
 39 H       -6.3950    -6.5210     0.9450 H     1 <1>   0.0800 
 40 H       -6.0910    -6.8360    -0.7580 H     1 <1>   0.0800 
 41 H       -5.4070    -5.4000     0.0190 H     1 <1>   0.0800 
 42 H       -0.3620   -10.3720    -0.3650 H     1 <1>   0.1500 
 43 H        1.0970   -12.7160     0.7080 H     1 <1>   0.0800 
 44 H        0.7290   -13.1020    -0.9620 H     1 <1>   0.0800 
 45 H        0.2430   -14.1910     0.3180 H     1 <1>   0.0800 
@<TRIPOS>BOND
  1   1   2  2   
  2   2   3  am  
  3   2   4  1   
  4   3   5  1   
  5   3   6  1   
  6   4   7  2   
  7   4  25  1   
  8   5   8  2   
  9   5  26  1   
 10   6  27  1   
 11   6  28  1   
 12   6  29  1   
 13   7   8  1   
 14   7  30  1   
 15   8   9  1   
 16   9  10  2   
 17   9  11  am  
 18  11  12  1   
 19  11  13  1   
 20  12  14  1   
 21  12  31  1   
 22  12  32  1   
 23  13  15  1   
 24  13  33  1   
 25  13  34  1   
 26  14  15  1   
 27  14  16  1   
 28  14  35  1   
 29  15  17  1   
 30  15  36  1   
 31  16  18  1   
 32  17  19  1   
 33  17  37  1   
 34  17  38  1   
 35  18  39  1   
 36  18  40  1   
 37  18  41  1   
 38  19  20  1   
 39  19  21  2   
 40  20  22  1   
 41  21  23  1   
 42  21  42  1   
 43  22  23  2   
 44  23  24  1   
 45  24  43  1   
 46  24  44  1   
 47  24  45  1   
@<TRIPOS>SUBSTRUCTURE
  1 ****  11 GROUP 4 **** **** 0

# MOE 2024.06 (io_trps.svl 2023.06)
