@<TRIPOS>MOLECULE
NONAME
36 38 1 0 0 
SMALL
USER_CHARGES


@<TRIPOS>ATOM
  1 S        0.6260    -1.1800     2.2580 S.3   1 <1>  -0.0800 
  2 C        0.4900    -2.8030     1.6220 C.2   1 <1>  -0.1100 
  3 C        0.2190    -0.4950     0.7000 C.2   1 <1>  -0.1100 
  4 C        0.1530    -2.8100     0.3070 C.2   1 <1>  -0.0860 
  5 C        0.0040    -1.4690    -0.2020 C.2   1 <1>  -0.1500 
  6 C       -0.0470    -3.9730    -0.5330 C.2   1 <1>   0.7160 
  7 O       -0.3340    -3.8660    -1.7090 O.2   1 <1>  -0.5700 
  8 N        0.0690    -5.2220    -0.0050 N.am  1 <1>  -0.7300 
  9 C       -0.0790    -6.4940    -0.7480 C.3   1 <1>   0.2200 
 10 C       -1.4130    -7.1630    -0.4400 C.3   1 <1>  -0.0800 
 11 C        0.8840    -7.5140    -0.1570 C.3   1 <1>   0.1200 
 12 C       -1.1260    -7.9280     0.8570 C.3   1 <1>   0.1200 
 13 C       -2.6360    -6.2300    -0.3700 C.3   1 <1>  -0.0160 
 14 O        0.2640    -7.9500     1.0140 O.3   1 <1>  -0.5600 
 15 C       -3.9120    -7.0260    -0.1450 C.ar  1 <1>  -0.1430 
 16 C       -4.5580    -7.6690    -1.1820 C.ar  1 <1>  -0.1500 
 17 C       -4.4900    -7.1500     1.1020 C.ar  1 <1>  -0.1500 
 18 C       -5.7130    -8.3890    -0.9290 C.ar  1 <1>   0.1600 
 19 C       -5.6480    -7.8950     1.2490 C.ar  1 <1>   0.1600 
 20 N       -6.2730    -8.5200     0.2630 N.ar  1 <1>  -0.6200 
 21 H        0.6800    -3.6070     2.3100 H     1 <1>   0.1500 
 22 H        0.1830     0.5770     0.6230 H     1 <1>   0.1500 
 23 H       -0.2610    -1.3080    -1.2340 H     1 <1>   0.1500 
 24 H        0.2750    -5.3400     0.9870 H     1 <1>   0.3700 
 25 H        0.0810    -6.3440    -1.8030 H     1 <1>   0.0800 
 26 H       -1.5960    -7.8940    -1.2080 H     1 <1>   0.0800 
 27 H        1.8480    -7.0980     0.0730 H     1 <1>   0.0800 
 28 H        0.9940    -8.3620    -0.8100 H     1 <1>   0.0800 
 29 H       -1.4900    -8.9400     0.8110 H     1 <1>   0.0800 
 30 H       -1.5430    -7.4310     1.7160 H     1 <1>   0.0800 
 31 H       -2.7180    -5.6780    -1.2910 H     1 <1>   0.0800 
 32 H       -2.5210    -5.5140     0.4240 H     1 <1>   0.0800 
 33 H       -4.1740    -7.6150    -2.1850 H     1 <1>   0.1500 
 34 H       -4.0530    -6.6760     1.9610 H     1 <1>   0.1500 
 35 H       -6.2030    -8.8830    -1.7500 H     1 <1>   0.1500 
 36 H       -6.0850    -7.9820     2.2290 H     1 <1>   0.1500 
@<TRIPOS>BOND
  1   1   2  1   
  2   1   3  1   
  3   2   4  2   
  4   2  21  1   
  5   3   5  2   
  6   3  22  1   
  7   4   5  1   
  8   4   6  1   
  9   5  23  1   
 10   6   7  2   
 11   6   8  am  
 12   8   9  1   
 13   8  24  1   
 14   9  10  1   
 15   9  11  1   
 16   9  25  1   
 17  10  12  1   
 18  10  13  1   
 19  10  26  1   
 20  11  14  1   
 21  11  27  1   
 22  11  28  1   
 23  12  14  1   
 24  12  29  1   
 25  12  30  1   
 26  13  15  1   
 27  13  31  1   
 28  13  32  1   
 29  15  16  ar  
 30  15  17  ar  
 31  16  18  ar  
 32  16  33  1   
 33  17  19  ar  
 34  17  34  1   
 35  18  20  ar  
 36  18  35  1   
 37  19  20  ar  
 38  19  36  1   
@<TRIPOS>SUBSTRUCTURE
  1 ****  13 GROUP 4 **** **** 0

# MOE 2024.06 (io_trps.svl 2023.06)
