@<TRIPOS>MOLECULE
NONAME
54 56 1 0 0 
SMALL
USER_CHARGES


@<TRIPOS>ATOM
  1 F       -0.7450     2.1980    -0.2890 F     1 <1>  -0.1900 
  2 C       -2.0430     2.3510    -0.2780 C.ar  1 <1>   0.1900 
  3 C       -2.5820     3.5040    -0.8160 C.ar  1 <1>  -0.1500 
  4 C       -2.8260     1.3540     0.2710 C.ar  1 <1>  -0.1500 
  5 C       -3.9580     3.6570    -0.8010 C.ar  1 <1>  -0.1500 
  6 C       -4.2020     1.5160     0.2830 C.ar  1 <1>  -0.1500 
  7 C       -4.7720     2.6720    -0.2550 C.ar  1 <1>   0.0820 
  8 O       -6.1070     2.9080    -0.2850 O.3   1 <1>  -0.3630 
  9 C       -7.0290     1.9790     0.2270 C.3   1 <1>   0.1200 
 10 C       -8.4240     2.5640     0.0190 C.3   1 <1>  -0.1600 
 11 C       -9.4970     1.6010     0.5210 C.3   1 <1>   0.3430 
 12 N      -10.8400     2.2300     0.4300 N.4   1 <1>  -0.9590 
 13 C      -11.8740     1.5010     1.2040 C.3   1 <1>   0.3430 
 14 C      -11.3010     2.4980    -0.9650 C.3   1 <1>   0.3430 
 15 C      -13.0970     2.4000     1.4060 C.3   1 <1>  -0.1600 
 16 C      -12.7310     3.0530    -0.9850 C.3   1 <1>  -0.1600 
 17 C      -13.2150     3.5570     0.3900 C.3   1 <1>   0.2800 
 18 O      -12.2740     4.5330     0.8000 O.3   1 <1>  -0.5600 
 19 C      -14.6750     4.1070     0.3700 C.3   1 <1>   0.2000 
 20 C      -12.7120     5.8380     1.0680 C.3   1 <1>   0.1200 
 21 O      -15.5520     3.1770    -0.1980 O.3   1 <1>  -0.6800 
 22 C      -14.8230     5.5180    -0.2780 C.3   1 <1>   0.2800 
 23 C      -13.5360     6.3420    -0.1160 C.3   1 <1>  -0.1600 
 24 O      -15.8150     6.1660     0.4300 O.3   1 <1>  -0.6800 
 25 C      -15.2960     5.5390    -1.7390 C.3   1 <1>  -0.2400 
 26 H       -1.9400     4.2570    -1.2350 H     1 <1>   0.1500 
 27 H       -2.3640     0.4730     0.6790 H     1 <1>   0.1500 
 28 H       -4.4080     4.5430    -1.2120 H     1 <1>   0.1500 
 29 H       -4.8030     0.7380     0.7120 H     1 <1>   0.1500 
 30 H       -6.9080     1.0550    -0.3130 H     1 <1>   0.0800 
 31 H       -6.8170     1.8350     1.2730 H     1 <1>   0.0800 
 32 H       -8.4880     3.4920     0.5600 H     1 <1>   0.0800 
 33 H       -8.5550     2.7500    -1.0320 H     1 <1>   0.0800 
 34 H       -9.2880     1.3550     1.5500 H     1 <1>   0.0800 
 35 H       -9.4760     0.6910    -0.0550 H     1 <1>   0.0800 
 36 H      -10.8130     3.1740     0.8650 H     1 <1>   0.4500 
 37 H      -12.1630     0.6130     0.6640 H     1 <1>   0.0800 
 38 H      -11.4870     1.2040     2.1650 H     1 <1>   0.0800 
 39 H      -10.6460     3.2250    -1.4180 H     1 <1>   0.0800 
 40 H      -11.2580     1.5960    -1.5530 H     1 <1>   0.0800 
 41 H      -13.0920     2.8030     2.4030 H     1 <1>   0.0800 
 42 H      -13.9650     1.7680     1.3370 H     1 <1>   0.0800 
 43 H      -13.3890     2.2730    -1.3270 H     1 <1>   0.0800 
 44 H      -12.7840     3.8400    -1.7120 H     1 <1>   0.0800 
 45 H      -14.9750     4.1970     1.4010 H     1 <1>   0.0800 
 46 H      -13.2900     5.8360     1.9780 H     1 <1>   0.0800 
 47 H      -11.8410     6.4540     1.2120 H     1 <1>   0.0800 
 48 H      -16.4610     3.5420    -0.1550 H     1 <1>   0.4000 
 49 H      -12.9250     6.2590    -0.9970 H     1 <1>   0.0800 
 50 H      -13.7660     7.3850     0.0140 H     1 <1>   0.0800 
 51 H      -16.0290     7.0160     0.0000 H     1 <1>   0.4000 
 52 H      -14.6240     4.9820    -2.3630 H     1 <1>   0.0800 
 53 H      -15.3340     6.5470    -2.1120 H     1 <1>   0.0800 
 54 H      -16.2730     5.0990    -1.8340 H     1 <1>   0.0800 
@<TRIPOS>BOND
  1   1   2  1   
  2   2   3  ar  
  3   2   4  ar  
  4   3   5  ar  
  5   3  26  1   
  6   4   6  ar  
  7   4  27  1   
  8   5   7  ar  
  9   5  28  1   
 10   6   7  ar  
 11   6  29  1   
 12   7   8  1   
 13   8   9  1   
 14   9  10  1   
 15   9  30  1   
 16   9  31  1   
 17  10  11  1   
 18  10  32  1   
 19  10  33  1   
 20  11  12  1   
 21  11  34  1   
 22  11  35  1   
 23  12  13  1   
 24  12  14  1   
 25  12  36  1   
 26  13  15  1   
 27  13  37  1   
 28  13  38  1   
 29  14  16  1   
 30  14  39  1   
 31  14  40  1   
 32  15  17  1   
 33  15  41  1   
 34  15  42  1   
 35  16  17  1   
 36  16  43  1   
 37  16  44  1   
 38  17  18  1   
 39  17  19  1   
 40  18  20  1   
 41  19  21  1   
 42  19  22  1   
 43  19  45  1   
 44  20  23  1   
 45  20  46  1   
 46  20  47  1   
 47  21  48  1   
 48  22  23  1   
 49  22  24  1   
 50  22  25  1   
 51  23  49  1   
 52  23  50  1   
 53  24  51  1   
 54  25  52  1   
 55  25  53  1   
 56  25  54  1   
@<TRIPOS>SUBSTRUCTURE
  1 ****  10 GROUP 4 **** **** 0

# MOE 2024.06 (io_trps.svl 2023.06)
