@<TRIPOS>MOLECULE
NONAME
52 55 1 0 0 
SMALL
USER_CHARGES


@<TRIPOS>ATOM
  1 O        1.9690    -0.0810    -0.7600 O.3   1 <1>  -0.0190 
  2 N        0.9970     0.6080    -1.2740 N.2   1 <1>  -0.4100 
  3 C        1.5600    -0.3530     0.4550 C.2   1 <1>   0.2980 
  4 C        0.0940     0.7150    -0.3800 C.2   1 <1>   0.3350 
  5 N        0.4110     0.1130     0.7590 N.2   1 <1>  -0.5650 
  6 C        2.4690    -1.1790     1.3680 C.3   1 <1>   0.4690 
  7 C       -1.2460     1.4360    -0.5340 C.3   1 <1>   0.1010 
  8 N        2.8880    -2.4760     0.7600 N.pl3 1 <1>  -0.8380 
  9 C        3.7770    -0.4670     1.7150 C.3   1 <1>  -0.1600 
 10 C       -2.3550     0.4380    -0.8970 C.3   1 <1>  -0.2400 
 11 C       -1.1920     2.5640    -1.5770 C.3   1 <1>  -0.2400 
 12 C        2.0380    -3.5330     0.9760 C.ar  1 <1>   0.4100 
 13 C        4.3460    -2.6750     0.9550 C.3   1 <1>   0.2090 
 14 C        4.7750    -1.5960     1.9400 C.3   1 <1>  -0.1600 
 15 N        2.1260    -4.1200     2.1530 N.ar  1 <1>  -0.6200 
 16 C        1.1200    -3.9460     0.0220 C.ar  1 <1>  -0.1440 
 17 C        1.2930    -5.1170     2.3580 C.ar  1 <1>   0.4700 
 18 C        0.2970    -4.9940     0.3710 C.ar  1 <1>   0.3930 
 19 C        1.0190    -3.2630    -1.3450 C.3   1 <1>  -0.0960 
 20 N        0.3760    -5.5980     1.5460 N.ar  1 <1>  -0.6200 
 21 O       -0.6200    -5.4310    -0.5250 O.3   1 <1>  -0.1650 
 22 C       -1.6930    -6.2100    -0.2190 C.ar  1 <1>   0.0820 
 23 C       -1.9940    -7.3320    -0.9930 C.ar  1 <1>   0.1670 
 24 C       -2.5260    -5.8780     0.8370 C.ar  1 <1>  -0.1500 
 25 N       -3.0410    -8.1180    -0.7860 N.ar  1 <1>  -0.6200 
 26 C       -1.1180    -7.7420    -2.1640 C.3   1 <1>  -0.0970 
 27 C       -3.6110    -6.6960     1.0610 C.ar  1 <1>  -0.1500 
 28 C       -3.8190    -7.7850     0.2320 C.ar  1 <1>   0.1600 
 29 H        1.9360    -1.3850     2.2810 H     1 <1>   0.0800 
 30 H       -1.4860     1.8770     0.4180 H     1 <1>   0.0800 
 31 H        4.0930     0.1360     0.8810 H     1 <1>   0.0800 
 32 H        3.6630     0.1620     2.5790 H     1 <1>   0.0800 
 33 H       -2.1400    -0.0290    -1.8430 H     1 <1>   0.0800 
 34 H       -3.3050     0.9360    -0.9600 H     1 <1>   0.0800 
 35 H       -2.4180    -0.3280    -0.1440 H     1 <1>   0.0800 
 36 H       -0.9770     2.1650    -2.5530 H     1 <1>   0.0800 
 37 H       -0.4190     3.2660    -1.3180 H     1 <1>   0.0800 
 38 H       -2.1310     3.0870    -1.6150 H     1 <1>   0.0800 
 39 H        4.5680    -3.6610     1.3290 H     1 <1>   0.0800 
 40 H        4.8420    -2.5370     0.0090 H     1 <1>   0.0800 
 41 H        4.6770    -1.9820     2.9400 H     1 <1>   0.0800 
 42 H        5.7930    -1.2880     1.7780 H     1 <1>   0.0800 
 43 H        1.3690    -5.6020     3.3170 H     1 <1>   0.1500 
 44 H        1.9700    -2.8610    -1.6450 H     1 <1>   0.0800 
 45 H        0.3070    -2.4590    -1.2980 H     1 <1>   0.0800 
 46 H        0.7060    -3.9570    -2.1050 H     1 <1>   0.0800 
 47 H       -2.3300    -5.0190     1.4540 H     1 <1>   0.1500 
 48 H       -0.1540    -7.2700    -2.1300 H     1 <1>   0.0800 
 49 H       -1.6060    -7.4780    -3.0840 H     1 <1>   0.0800 
 50 H       -0.9710    -8.8070    -2.1460 H     1 <1>   0.0800 
 51 H       -4.2900    -6.4940     1.8680 H     1 <1>   0.1500 
 52 H       -4.6710    -8.4170     0.4160 H     1 <1>   0.1500 
@<TRIPOS>BOND
  1   1   2  1   
  2   1   3  1   
  3   2   4  2   
  4   3   5  2   
  5   3   6  1   
  6   4   5  1   
  7   4   7  1   
  8   6   8  1   
  9   6   9  1   
 10   6  29  1   
 11   7  10  1   
 12   7  11  1   
 13   7  30  1   
 14   8  12  1   
 15   8  13  1   
 16   9  14  1   
 17   9  31  1   
 18   9  32  1   
 19  10  33  1   
 20  10  34  1   
 21  10  35  1   
 22  11  36  1   
 23  11  37  1   
 24  11  38  1   
 25  12  15  ar  
 26  12  16  ar  
 27  13  14  1   
 28  13  39  1   
 29  13  40  1   
 30  14  41  1   
 31  14  42  1   
 32  15  17  ar  
 33  16  18  ar  
 34  16  19  1   
 35  17  20  ar  
 36  17  43  1   
 37  18  20  ar  
 38  18  21  1   
 39  19  44  1   
 40  19  45  1   
 41  19  46  1   
 42  21  22  1   
 43  22  23  ar  
 44  22  24  ar  
 45  23  25  ar  
 46  23  26  1   
 47  24  27  ar  
 48  24  47  1   
 49  25  28  ar  
 50  26  48  1   
 51  26  49  1   
 52  26  50  1   
 53  27  28  ar  
 54  27  51  1   
 55  28  52  1   
@<TRIPOS>SUBSTRUCTURE
  1 ****  16 GROUP 4 **** **** 0

# MOE 2024.06 (io_trps.svl 2023.06)
