@<TRIPOS>MOLECULE
NONAME
45 47 1 0 0 
SMALL
USER_CHARGES


@<TRIPOS>ATOM
  1 S        0.2340    -0.0600     0.8020 S.o2  1 <1>   1.4470 
  2 O        1.5780    -0.5400     0.5830 O.2   1 <1>  -0.6500 
  3 O       -0.4540    -0.3510     2.0390 O.2   1 <1>  -0.6500 
  4 N       -0.6470    -0.7610    -0.4400 N.am  1 <1>  -0.9140 
  5 C        0.1340     1.7170     0.4390 C.ar  1 <1>  -0.0090 
  6 C       -1.1270    -2.0890    -0.1080 C.3   1 <1>   0.1960 
  7 C        1.2740     2.5070     0.3570 C.ar  1 <1>  -0.1500 
  8 C       -1.0910     2.3400     0.2380 C.ar  1 <1>  -0.1500 
  9 C       -1.7870    -2.6930    -1.3470 C.3   1 <1>  -0.1600 
 10 C        1.1950     3.8620     0.0860 C.ar  1 <1>  -0.1500 
 11 C       -1.1730     3.6940    -0.0330 C.ar  1 <1>  -0.1500 
 12 C       -2.3320    -4.0970    -1.0600 C.3   1 <1>  -0.2400 
 13 C       -0.0340     4.4940    -0.1090 C.ar  1 <1>   0.0860 
 14 C       -0.1390     5.9160    -0.3820 C.2   1 <1>   0.5440 
 15 O       -1.0120     6.3310    -1.1180 O.2   1 <1>  -0.5700 
 16 N        0.7480     6.7920     0.2020 N.am  1 <1>  -0.4940 
 17 C        0.9220     8.1890     0.0430 C.2   1 <1>  -0.0880 
 18 N       -0.0380     9.1510    -0.1250 N.pl3 1 <1>   0.3140 
 19 C        2.1030     8.8510     0.0530 C.2   1 <1>  -0.1810 
 20 N        0.5090    10.3900    -0.2120 N.2   1 <1>  -0.7070 
 21 C       -1.5000     9.0070    -0.1240 C.3   1 <1>   0.0160 
 22 C        1.7820    10.1830    -0.1090 C.2   1 <1>   0.1080 
 23 C        3.5680     8.5050     0.1800 C.3   1 <1>   0.2510 
 24 C        2.9210    11.1740    -0.1400 C.3   1 <1>   0.2510 
 25 S        4.3910    10.1230     0.0920 S.3   1 <1>  -0.4600 
 26 H        0.0420    -0.8760    -1.1810 H     1 <1>   0.4200 
 27 H       -1.8460    -2.0250     0.6930 H     1 <1>   0.0800 
 28 H       -0.3060    -2.7100     0.2150 H     1 <1>   0.0800 
 29 H        2.2400     2.0500     0.5040 H     1 <1>   0.1500 
 30 H       -1.9930     1.7520     0.2930 H     1 <1>   0.1500 
 31 H       -1.0690    -2.7540    -2.1460 H     1 <1>   0.0800 
 32 H       -2.5990    -2.0590    -1.6600 H     1 <1>   0.0800 
 33 H        2.1070     4.4290     0.0130 H     1 <1>   0.1500 
 34 H       -2.1380     4.1470    -0.1910 H     1 <1>   0.1500 
 35 H       -1.5370    -4.7580    -0.7600 H     1 <1>   0.0800 
 36 H       -2.7940    -4.5000    -1.9440 H     1 <1>   0.0800 
 37 H       -3.0690    -4.0630    -0.2760 H     1 <1>   0.0800 
 38 H        1.4340     6.3510     0.8120 H     1 <1>   0.3700 
 39 H       -1.7820     8.2220     0.5510 H     1 <1>   0.0800 
 40 H       -1.8260     8.7690    -1.1190 H     1 <1>   0.0800 
 41 H       -1.9460     9.9310     0.1900 H     1 <1>   0.0800 
 42 H        3.9190     7.9080    -0.6410 H     1 <1>   0.0800 
 43 H        3.8070     8.0620     1.1300 H     1 <1>   0.0800 
 44 H        2.8680    11.8760     0.6720 H     1 <1>   0.0800 
 45 H        2.9990    11.6690    -1.0910 H     1 <1>   0.0800 
@<TRIPOS>BOND
  1   1   2  2   
  2   1   3  2   
  3   1   4  am  
  4   1   5  1   
  5   4   6  1   
  6   4  26  1   
  7   5   7  ar  
  8   5   8  ar  
  9   6   9  1   
 10   6  27  1   
 11   6  28  1   
 12   7  10  ar  
 13   7  29  1   
 14   8  11  ar  
 15   8  30  1   
 16   9  12  1   
 17   9  31  1   
 18   9  32  1   
 19  10  13  ar  
 20  10  33  1   
 21  11  13  ar  
 22  11  34  1   
 23  12  35  1   
 24  12  36  1   
 25  12  37  1   
 26  13  14  1   
 27  14  15  2   
 28  14  16  am  
 29  16  17  1   
 30  16  38  1   
 31  17  18  1   
 32  17  19  2   
 33  18  20  1   
 34  18  21  1   
 35  19  22  1   
 36  19  23  1   
 37  20  22  2   
 38  21  39  1   
 39  21  40  1   
 40  21  41  1   
 41  22  24  1   
 42  23  25  1   
 43  23  42  1   
 44  23  43  1   
 45  24  25  1   
 46  24  44  1   
 47  24  45  1   
@<TRIPOS>SUBSTRUCTURE
  1 ****  13 GROUP 4 **** **** 0

# MOE 2024.06 (io_trps.svl 2023.06)
