@<TRIPOS>MOLECULE
NONAME
53 56 1 0 0 
SMALL
USER_CHARGES


@<TRIPOS>ATOM
  1 O        0.3610     1.5220     2.0820 O.2   1 <1>  -0.5700 
  2 C        0.1740     2.5810     1.5400 C.2   1 <1>   0.5690 
  3 N       -0.9870     3.2490     1.7130 N.am  1 <1>  -0.7300 
  4 C        1.2400     3.1780     0.6220 C.3   1 <1>   0.1810 
  5 C       -1.3010     4.5480     1.0640 C.3   1 <1>   0.3640 
  6 O        1.0990     4.5740     0.4840 O.3   1 <1>  -0.5600 
  7 C       -2.6580     4.4300     0.3790 C.ar  1 <1>  -0.1440 
  8 C       -0.1960     5.0030     0.0710 C.3   1 <1>   0.2610 
  9 C       -3.0050     3.2970    -0.3470 C.ar  1 <1>   0.1600 
 10 C       -3.5730     5.4620     0.4610 C.ar  1 <1>  -0.1500 
 11 C       -0.2320     6.5290    -0.0550 C.2   1 <1>   0.5690 
 12 N       -4.1560     3.1170    -0.9750 N.ar  1 <1>  -0.6200 
 13 C       -4.7770     5.2920    -0.1870 C.ar  1 <1>  -0.1500 
 14 O       -1.1190     7.0550    -0.6820 O.2   1 <1>  -0.5700 
 15 N        0.7410     7.2570     0.5520 N.am  1 <1>  -0.7300 
 16 C       -5.0140     4.1180    -0.8810 C.ar  1 <1>   0.1600 
 17 C        0.9460     8.7240     0.4310 C.3   1 <1>   0.1400 
 18 C        2.3250     9.1280    -0.1510 C.3   1 <1>   0.1430 
 19 C        2.3360    10.6690    -0.1780 C.ar  1 <1>  -0.1430 
 20 C        2.5680     8.5180    -1.5460 C.3   1 <1>  -0.1600 
 21 C        3.4980     8.5440     0.6620 C.3   1 <1>  -0.1600 
 22 C        2.8180    11.4070     0.8980 C.ar  1 <1>  -0.1500 
 23 C        1.8230    11.3640    -1.2690 C.ar  1 <1>  -0.1500 
 24 C        3.2510     7.1610    -1.3470 C.3   1 <1>  -0.1600 
 25 C        3.8590     7.1830     0.0560 C.3   1 <1>  -0.1600 
 26 C        2.8100    12.7910     0.8760 C.ar  1 <1>  -0.1500 
 27 C        1.8140    12.7480    -1.2950 C.ar  1 <1>  -0.1500 
 28 C        2.3100    13.4640    -0.2230 C.ar  1 <1>  -0.1500 
 29 H       -1.6970     2.8420     2.3250 H     1 <1>   0.3700 
 30 H        1.1750     2.7280    -0.3520 H     1 <1>   0.0800 
 31 H        2.2140     2.9840     1.0320 H     1 <1>   0.0800 
 32 H       -1.3750     5.2880     1.8430 H     1 <1>   0.0800 
 33 H       -0.3850     4.5840    -0.9000 H     1 <1>   0.0800 
 34 H       -2.3010     2.4850    -0.4200 H     1 <1>   0.1500 
 35 H       -3.3620     6.3730     0.9970 H     1 <1>   0.1500 
 36 H       -5.5250     6.0630    -0.1610 H     1 <1>   0.1500 
 37 H        1.5310     6.7340     0.9450 H     1 <1>   0.3700 
 38 H       -5.9580     3.9980    -1.3850 H     1 <1>   0.1500 
 39 H        0.1720     9.1390    -0.1930 H     1 <1>   0.0800 
 40 H        0.8390     9.1640     1.4060 H     1 <1>   0.0800 
 41 H        1.6570     8.4220    -2.1110 H     1 <1>   0.0800 
 42 H        3.2470     9.1520    -2.0910 H     1 <1>   0.0800 
 43 H        4.3550     9.1850     0.5440 H     1 <1>   0.0800 
 44 H        3.2710     8.4670     1.7110 H     1 <1>   0.0800 
 45 H        3.2040    10.9180     1.7740 H     1 <1>   0.1500 
 46 H        1.4180    10.8370    -2.1140 H     1 <1>   0.1500 
 47 H        2.5260     6.3690    -1.4190 H     1 <1>   0.0800 
 48 H        4.0060     7.0010    -2.0980 H     1 <1>   0.0800 
 49 H        4.9290     7.0610     0.0130 H     1 <1>   0.0800 
 50 H        3.4490     6.3820     0.6460 H     1 <1>   0.0800 
 51 H        3.1930    13.3450     1.7160 H     1 <1>   0.1500 
 52 H        1.4170    13.2660    -2.1500 H     1 <1>   0.1500 
 53 H        2.3040    14.5400    -0.2420 H     1 <1>   0.1500 
@<TRIPOS>BOND
  1   1   2  2   
  2   2   3  am  
  3   2   4  1   
  4   3   5  1   
  5   3  29  1   
  6   4   6  1   
  7   4  30  1   
  8   4  31  1   
  9   5   7  1   
 10   5   8  1   
 11   5  32  1   
 12   6   8  1   
 13   7   9  ar  
 14   7  10  ar  
 15   8  11  1   
 16   8  33  1   
 17   9  12  ar  
 18   9  34  1   
 19  10  13  ar  
 20  10  35  1   
 21  11  14  2   
 22  11  15  am  
 23  12  16  ar  
 24  13  16  ar  
 25  13  36  1   
 26  15  17  1   
 27  15  37  1   
 28  16  38  1   
 29  17  18  1   
 30  17  39  1   
 31  17  40  1   
 32  18  19  1   
 33  18  20  1   
 34  18  21  1   
 35  19  22  ar  
 36  19  23  ar  
 37  20  24  1   
 38  20  41  1   
 39  20  42  1   
 40  21  25  1   
 41  21  43  1   
 42  21  44  1   
 43  22  26  ar  
 44  22  45  1   
 45  23  27  ar  
 46  23  46  1   
 47  24  25  1   
 48  24  47  1   
 49  24  48  1   
 50  25  49  1   
 51  25  50  1   
 52  26  28  ar  
 53  26  51  1   
 54  27  28  ar  
 55  27  52  1   
 56  28  53  1   
@<TRIPOS>SUBSTRUCTURE
  1 ****  11 GROUP 4 **** **** 0

# MOE 2024.06 (io_trps.svl 2023.06)
