@<TRIPOS>MOLECULE
NONAME
62 66 1 0 0 
SMALL
USER_CHARGES


@<TRIPOS>ATOM
  1 O       -1.1380     0.6460    -0.1100 O.2   1 <1>  -0.5700 
  2 C       -2.2140     0.9920     0.3180 C.2   1 <1>   0.5690 
  3 N       -3.2460     0.0990     0.4320 N.am  1 <1>  -0.6600 
  4 C       -2.4080     2.4590     0.7210 C.3   1 <1>  -0.0190 
  5 C       -4.6260     0.3710     0.9060 C.3   1 <1>   0.1400 
  6 C       -3.1060    -1.3220     0.0270 C.3   1 <1>   0.1400 
  7 C       -2.9050     3.2950    -0.4740 C.3   1 <1>  -0.1600 
  8 C       -1.1220     3.0880     1.2990 C.3   1 <1>  -0.1600 
  9 C       -5.3830    -0.9430     0.7090 C.3   1 <1>   0.2000 
 10 C       -4.3140    -2.0320     0.6400 C.3   1 <1>  -0.0800 
 11 C       -3.0880     4.7690    -0.1000 C.3   1 <1>   0.1400 
 12 C       -1.3310     4.5600     1.6600 C.3   1 <1>   0.1400 
 13 O       -6.2480    -1.1920     1.7630 O.3   1 <1>  -0.6800 
 14 C       -4.7760    -3.2690    -0.1470 C.3   1 <1>  -0.0170 
 15 N       -1.8140     5.2980     0.4610 N.am  1 <1>  -0.6600 
 16 C       -3.6840    -4.3230    -0.2100 C.ar  1 <1>   0.1670 
 17 C       -1.1610     6.3510    -0.1380 C.2   1 <1>   0.5770 
 18 N       -2.8310    -4.2420    -1.1840 N.ar  1 <1>  -0.6200 
 19 C       -3.6420    -5.3190     0.7800 C.ar  1 <1>  -0.1500 
 20 O       -1.6690     6.9670    -1.0470 O.2   1 <1>  -0.5700 
 21 C        0.2300     6.7780     0.3370 C.3   1 <1>   0.0530 
 22 C       -1.8410    -5.1690    -1.2380 C.ar  1 <1>   0.3100 
 23 C       -2.6630    -6.2640     0.7470 C.ar  1 <1>  -0.1500 
 24 C        0.9940     7.8000    -0.5550 C.3   1 <1>   0.0000 
 25 C        1.3620     5.7700    -0.0050 C.3   1 <1>   0.0000 
 26 C       -1.7160    -6.2070    -0.2890 C.ar  1 <1>   0.0000 
 27 C       -0.8990    -5.0970    -2.2770 C.ar  1 <1>  -0.1500 
 28 C        2.2800     6.9980    -0.2310 C.3   1 <1>   0.0000 
 29 C       -0.6580    -7.1290    -0.4170 C.ar  1 <1>  -0.1500 
 30 C        0.1230    -6.0030    -2.3840 C.ar  1 <1>  -0.1500 
 31 C        0.2430    -7.0300    -1.4430 C.ar  1 <1>  -0.1500 
 32 H       -3.1510     2.5010     1.4950 H     1 <1>   0.0800 
 33 H       -4.5970     0.6420     1.9470 H     1 <1>   0.0800 
 34 H       -5.0760     1.1560     0.3250 H     1 <1>   0.0800 
 35 H       -3.1260    -1.3830    -1.0490 H     1 <1>   0.0800 
 36 H       -2.1770    -1.7380     0.3830 H     1 <1>   0.0800 
 37 H       -3.8400     2.9030    -0.8320 H     1 <1>   0.0800 
 38 H       -2.1950     3.2280    -1.2800 H     1 <1>   0.0800 
 39 H       -0.3240     3.0190     0.5790 H     1 <1>   0.0800 
 40 H       -0.8170     2.5430     2.1750 H     1 <1>   0.0800 
 41 H       -5.9570    -0.8990    -0.2010 H     1 <1>   0.0800 
 42 H       -4.0330    -2.3260     1.6360 H     1 <1>   0.0800 
 43 H       -3.8660     4.8730     0.6360 H     1 <1>   0.0800 
 44 H       -3.3830     5.3240    -0.9740 H     1 <1>   0.0800 
 45 H       -0.4130     4.9730     2.0360 H     1 <1>   0.0800 
 46 H       -2.0700     4.6430     2.4400 H     1 <1>   0.0800 
 47 H       -5.7490    -1.3050     2.5940 H     1 <1>   0.4000 
 48 H       -5.0440    -2.9860    -1.1500 H     1 <1>   0.0800 
 49 H       -5.6520    -3.6850     0.3170 H     1 <1>   0.0800 
 50 H       -4.3860    -5.3220     1.5550 H     1 <1>   0.1500 
 51 H        0.2480     7.0740     1.3720 H     1 <1>   0.0000 
 52 H       -2.5970    -7.0420     1.4870 H     1 <1>   0.1500 
 53 H        0.7410     7.7460    -1.6000 H     1 <1>   0.0000 
 54 H        0.9980     8.8020    -0.1640 H     1 <1>   0.0000 
 55 H        1.6640     5.1510     0.8210 H     1 <1>   0.0000 
 56 H        1.1770     5.2180    -0.9110 H     1 <1>   0.0000 
 57 H       -1.0080    -4.2990    -2.9880 H     1 <1>   0.1500 
 58 H        2.7620     7.3300     0.6730 H     1 <1>   0.0000 
 59 H        2.9510     6.8930    -1.0660 H     1 <1>   0.0000 
 60 H       -0.5710    -7.9160     0.3100 H     1 <1>   0.1500 
 61 H        0.8390    -5.9350    -3.1850 H     1 <1>   0.1500 
 62 H        1.0510    -7.7350    -1.5380 H     1 <1>   0.1500 
@<TRIPOS>BOND
  1   1   2  2   
  2   2   3  am  
  3   2   4  1   
  4   3   5  1   
  5   3   6  1   
  6   4   7  1   
  7   4   8  1   
  8   4  32  1   
  9   5   9  1   
 10   5  33  1   
 11   5  34  1   
 12   6  10  1   
 13   6  35  1   
 14   6  36  1   
 15   7  11  1   
 16   7  37  1   
 17   7  38  1   
 18   8  12  1   
 19   8  39  1   
 20   8  40  1   
 21   9  10  1   
 22   9  13  1   
 23   9  41  1   
 24  10  14  1   
 25  10  42  1   
 26  11  15  1   
 27  11  43  1   
 28  11  44  1   
 29  12  15  1   
 30  12  45  1   
 31  12  46  1   
 32  13  47  1   
 33  14  16  1   
 34  14  48  1   
 35  14  49  1   
 36  15  17  am  
 37  16  18  ar  
 38  16  19  ar  
 39  17  20  2   
 40  17  21  1   
 41  18  22  ar  
 42  19  23  ar  
 43  19  50  1   
 44  21  24  1   
 45  21  25  1   
 46  21  51  1   
 47  22  26  ar  
 48  22  27  ar  
 49  23  26  ar  
 50  23  52  1   
 51  24  28  1   
 52  24  53  1   
 53  24  54  1   
 54  25  28  1   
 55  25  55  1   
 56  25  56  1   
 57  26  29  ar  
 58  27  30  ar  
 59  27  57  1   
 60  28  58  1   
 61  28  59  1   
 62  29  31  ar  
 63  29  60  1   
 64  30  31  ar  
 65  30  61  1   
 66  31  62  1   
@<TRIPOS>SUBSTRUCTURE
  1 ****   2 GROUP 4 **** **** 0

# MOE 2024.06 (io_trps.svl 2023.06)
