@<TRIPOS>MOLECULE
NONAME
58 62 1 0 0 
SMALL
USER_CHARGES


@<TRIPOS>ATOM
  1 O       -0.2480    -2.1100     0.4280 O.3   1 <1>  -0.6800 
  2 C        0.8520    -2.4210    -0.3550 C.3   1 <1>   0.1200 
  3 C        2.1720    -2.2520     0.4540 C.3   1 <1>   0.0000 
  4 C        3.4060    -2.5280    -0.4530 C.3   1 <1>   0.4230 
  5 C        2.2860    -0.7930     0.9830 C.3   1 <1>  -0.1600 
  6 C        2.2060    -3.2190     1.6760 C.3   1 <1>  -0.1600 
  7 N        3.5150    -3.9700    -0.9420 N.4   1 <1>  -0.9590 
  8 C        3.5570    -1.4590    -1.5640 C.3   1 <1>   0.2090 
  9 C        2.4680     0.2610    -0.1160 C.3   1 <1>   0.2090 
 10 C        3.0380    -4.4930     1.4440 C.3   1 <1>  -0.1600 
 11 C        2.9340    -4.9790     0.0020 C.3   1 <1>   0.3430 
 12 C        3.0210    -4.2220    -2.3340 C.3   1 <1>   0.2630 
 13 N        3.6470    -0.1060    -0.9500 N.pl3 1 <1>  -0.8380 
 14 C        4.8860     0.3880    -0.5930 C.ar  1 <1>   0.4100 
 15 N        5.7630    -0.4890    -0.2050 N.ar  1 <1>  -0.6200 
 16 C        5.1710     1.7740    -0.6140 C.ar  1 <1>   0.0000 
 17 C        6.9360    -0.0330     0.2790 C.ar  1 <1>   0.6200 
 18 C        6.4050     2.1450    -0.0750 C.ar  1 <1>   0.3100 
 19 C        4.3330     2.7800    -1.1370 C.ar  1 <1>  -0.1500 
 20 N        7.2700     1.2240     0.3840 N.ar  1 <1>  -0.6200 
 21 C        7.8700    -1.0450     0.7280 C.ar  1 <1>   0.0000 
 22 C        6.7520     3.5030    -0.0270 C.ar  1 <1>  -0.1500 
 23 C        4.6930     4.1020    -1.0870 C.ar  1 <1>  -0.1500 
 24 C        8.4660    -0.9720     1.9880 C.ar  1 <1>  -0.1500 
 25 C        8.2050    -2.1350    -0.0790 C.ar  1 <1>  -0.1500 
 26 C        5.9140     4.4700    -0.5200 C.ar  1 <1>  -0.1500 
 27 C        9.3430    -1.9460     2.4290 C.ar  1 <1>  -0.1500 
 28 C        9.0830    -3.1110     0.3550 C.ar  1 <1>  -0.1500 
 29 C        9.6520    -3.0200     1.6130 C.ar  1 <1>  -0.1500 
 30 H       -1.0890    -2.1890    -0.0680 H     1 <1>   0.4000 
 31 H        0.7280    -3.4360    -0.6870 H     1 <1>   0.0800 
 32 H        0.8260    -1.7700    -1.2100 H     1 <1>   0.0800 
 33 H        4.2560    -2.3720     0.1900 H     1 <1>   0.0800 
 34 H        3.1350    -0.7100     1.6400 H     1 <1>   0.0800 
 35 H        1.4190    -0.5390     1.5680 H     1 <1>   0.0800 
 36 H        2.6130    -2.7240     2.5410 H     1 <1>   0.0800 
 37 H        1.2030    -3.5030     1.9490 H     1 <1>   0.0800 
 38 H        4.5300    -4.1470    -0.9460 H     1 <1>   0.4500 
 39 H        2.7240    -1.4750    -2.2420 H     1 <1>   0.0800 
 40 H        4.4560    -1.6450    -2.1260 H     1 <1>   0.0800 
 41 H        2.6210     1.2230     0.3430 H     1 <1>   0.0800 
 42 H        1.5890     0.3270    -0.7350 H     1 <1>   0.0800 
 43 H        2.6890    -5.2660     2.1070 H     1 <1>   0.0800 
 44 H        4.0720    -4.3110     1.6860 H     1 <1>   0.0800 
 45 H        1.8940    -5.1410    -0.2270 H     1 <1>   0.0800 
 46 H        3.4500    -5.9210    -0.1040 H     1 <1>   0.0800 
 47 H        1.9660    -4.0100    -2.4040 H     1 <1>   0.0800 
 48 H        3.1810    -5.2540    -2.6050 H     1 <1>   0.0800 
 49 H        3.5470    -3.6020    -3.0410 H     1 <1>   0.0800 
 50 H        3.4000     2.4940    -1.5880 H     1 <1>   0.1500 
 51 H        7.7010     3.7630     0.4060 H     1 <1>   0.1500 
 52 H        4.0450     4.8650    -1.4840 H     1 <1>   0.1500 
 53 H        8.2360    -0.1360     2.6270 H     1 <1>   0.1500 
 54 H        7.7750    -2.2060    -1.0610 H     1 <1>   0.1500 
 55 H        6.1890     5.5110    -0.4810 H     1 <1>   0.1500 
 56 H        9.7880    -1.8680     3.4050 H     1 <1>   0.1500 
 57 H        9.3330    -3.9400    -0.2840 H     1 <1>   0.1500 
 58 H       10.3360    -3.7770     1.9540 H     1 <1>   0.1500 
@<TRIPOS>BOND
  1   1   2  1   
  2   1  30  1   
  3   2   3  1   
  4   2  31  1   
  5   2  32  1   
  6   3   4  1   
  7   3   5  1   
  8   3   6  1   
  9   4   7  1   
 10   4   8  1   
 11   4  33  1   
 12   5   9  1   
 13   5  34  1   
 14   5  35  1   
 15   6  10  1   
 16   6  36  1   
 17   6  37  1   
 18   7  11  1   
 19   7  12  1   
 20   7  38  1   
 21   8  13  1   
 22   8  39  1   
 23   8  40  1   
 24   9  13  1   
 25   9  41  1   
 26   9  42  1   
 27  10  11  1   
 28  10  43  1   
 29  10  44  1   
 30  11  45  1   
 31  11  46  1   
 32  12  47  1   
 33  12  48  1   
 34  12  49  1   
 35  13  14  1   
 36  14  15  ar  
 37  14  16  ar  
 38  15  17  ar  
 39  16  18  ar  
 40  16  19  ar  
 41  17  20  ar  
 42  17  21  1   
 43  18  20  ar  
 44  18  22  ar  
 45  19  23  ar  
 46  19  50  1   
 47  21  24  ar  
 48  21  25  ar  
 49  22  26  ar  
 50  22  51  1   
 51  23  26  ar  
 52  23  52  1   
 53  24  27  ar  
 54  24  53  1   
 55  25  28  ar  
 56  25  54  1   
 57  26  55  1   
 58  27  29  ar  
 59  27  56  1   
 60  28  29  ar  
 61  28  57  1   
 62  29  58  1   
@<TRIPOS>SUBSTRUCTURE
  1 ****  15 GROUP 4 **** **** 0

# MOE 2024.06 (io_trps.svl 2023.06)
