@<TRIPOS>MOLECULE
NONAME
37 40 1 0 0 
SMALL
USER_CHARGES


@<TRIPOS>ATOM
  1 CL       0.0800     0.6790     1.5410 Cl    1 <1>  -0.1770 
  2 C       -1.3620     1.3370     0.7950 C.ar  1 <1>   0.1770 
  3 C       -1.3080     2.6030     0.1700 C.ar  1 <1>   0.3100 
  4 C       -2.5070     0.5870     0.8460 C.ar  1 <1>  -0.1500 
  5 N       -0.1500     3.3130     0.1480 N.ar  1 <1>  -0.6200 
  6 C       -2.5030     3.0780    -0.4180 C.ar  1 <1>   0.0000 
  7 C       -3.6790     1.0730     0.2630 C.ar  1 <1>  -0.1500 
  8 C       -0.1520     4.4790    -0.4370 C.ar  1 <1>   0.4100 
  9 C       -2.4700     4.3310    -1.0540 C.ar  1 <1>  -0.1500 
 10 C       -3.6720     2.2950    -0.3560 C.ar  1 <1>  -0.1500 
 11 N        1.0210     5.2070    -0.4410 N.pl3 1 <1>  -0.8380 
 12 C       -1.2960     5.0150    -1.0590 C.ar  1 <1>  -0.1500 
 13 C        1.0300     6.5650     0.1850 C.3   1 <1>   0.2090 
 14 C        2.3170     4.4940    -0.2230 C.3   1 <1>   0.2090 
 15 C        2.2930     7.3620    -0.2090 C.3   1 <1>   0.2950 
 16 C        3.5100     5.3920    -0.5980 C.3   1 <1>   0.1200 
 17 O        3.4520     6.6250     0.0670 O.3   1 <1>  -0.5600 
 18 C        2.3910     8.6840     0.5600 C.3   1 <1>  -0.1950 
 19 C        1.6990     9.9180     0.0720 C.3   1 <1>  -0.2000 
 20 C        3.1980     9.8280     0.0340 C.3   1 <1>  -0.2000 
 21 H       -2.5080    -0.3720     1.3330 H     1 <1>   0.1500 
 22 H       -4.5770     0.4790     0.3070 H     1 <1>   0.1500 
 23 H       -3.3570     4.7190    -1.5220 H     1 <1>   0.1500 
 24 H       -4.5720     2.6760    -0.8090 H     1 <1>   0.1500 
 25 H       -1.2070     5.9670    -1.5430 H     1 <1>   0.1500 
 26 H        1.0020     6.4580     1.2560 H     1 <1>   0.0800 
 27 H        0.1600     7.1190    -0.1140 H     1 <1>   0.0800 
 28 H        2.3390     3.5990    -0.8200 H     1 <1>   0.0800 
 29 H        2.3970     4.2050     0.8110 H     1 <1>   0.0800 
 30 H        2.2710     7.5610    -1.2670 H     1 <1>   0.0800 
 31 H        3.5200     5.5730    -1.6590 H     1 <1>   0.0800 
 32 H        4.4320     4.9130    -0.3210 H     1 <1>   0.0800 
 33 H        2.4120     8.5240     1.6240 H     1 <1>   0.1000 
 34 H        1.2420    10.5760     0.7920 H     1 <1>   0.1000 
 35 H        1.1660     9.8990    -0.8630 H     1 <1>   0.1000 
 36 H        3.6950     9.7140    -0.9140 H     1 <1>   0.1000 
 37 H        3.7780    10.4060     0.7340 H     1 <1>   0.1000 
@<TRIPOS>BOND
  1   1   2  1   
  2   2   3  ar  
  3   2   4  ar  
  4   3   5  ar  
  5   3   6  ar  
  6   4   7  ar  
  7   4  21  1   
  8   5   8  ar  
  9   6   9  ar  
 10   6  10  ar  
 11   7  10  ar  
 12   7  22  1   
 13   8  11  1   
 14   8  12  ar  
 15   9  12  ar  
 16   9  23  1   
 17  10  24  1   
 18  11  13  1   
 19  11  14  1   
 20  12  25  1   
 21  13  15  1   
 22  13  26  1   
 23  13  27  1   
 24  14  16  1   
 25  14  28  1   
 26  14  29  1   
 27  15  17  1   
 28  15  18  1   
 29  15  30  1   
 30  16  17  1   
 31  16  31  1   
 32  16  32  1   
 33  18  19  1   
 34  18  20  1   
 35  18  33  1   
 36  19  20  1   
 37  19  34  1   
 38  19  35  1   
 39  20  36  1   
 40  20  37  1   
@<TRIPOS>SUBSTRUCTURE
  1 ****   8 GROUP 4 **** **** 0

# MOE 2024.06 (io_trps.svl 2023.06)
