@<TRIPOS>MOLECULE
NONAME
39 41 1 0 0 
SMALL
USER_CHARGES


@<TRIPOS>ATOM
  1 F       -1.5480    -1.2340     1.9030 F     1 <1>  -0.1900 
  2 C       -2.6490    -1.5350     1.2450 C.ar  1 <1>   0.1900 
  3 C       -3.3180    -0.5970     0.4570 C.ar  1 <1>   0.4100 
  4 C       -3.1390    -2.8090     1.3280 C.ar  1 <1>   0.1600 
  5 N       -4.4070    -0.9600    -0.1980 N.ar  1 <1>  -0.6200 
  6 N       -2.9080     0.7280     0.3060 N.pl3 1 <1>  -0.8380 
  7 N       -4.2290    -3.1730     0.6810 N.ar  1 <1>  -0.6200 
  8 C       -4.7950    -2.2130    -0.0420 C.ar  1 <1>   0.7200 
  9 C       -2.4800     1.5380     1.4790 C.3   1 <1>   0.1290 
 10 C       -3.3010     1.5150    -0.8960 C.3   1 <1>   0.1290 
 11 N       -5.9220    -2.5210    -0.7260 N.pl3 1 <1>  -0.8690 
 12 C       -6.1740    -3.8810    -1.2810 C.3   1 <1>   0.2090 
 13 C       -6.7800    -4.8360    -0.2430 C.3   1 <1>   0.2000 
 14 O       -7.1750    -6.0150    -0.9260 O.3   1 <1>  -0.3630 
 15 C       -7.9840    -4.2250     0.4960 C.3   1 <1>   0.1200 
 16 C       -8.0120    -6.8590    -0.2720 C.ar  1 <1>   0.0820 
 17 O       -8.6010    -5.1830     1.3390 O.3   1 <1>  -0.3630 
 18 C       -8.7130    -6.4480     0.8630 C.ar  1 <1>   0.0820 
 19 C       -8.1620    -8.1510    -0.7470 C.ar  1 <1>  -0.1500 
 20 C       -9.5420    -7.3380     1.5220 C.ar  1 <1>  -0.1500 
 21 C       -8.9990    -9.0370    -0.0870 C.ar  1 <1>  -0.1500 
 22 C       -9.6850    -8.6320     1.0470 C.ar  1 <1>  -0.1500 
 23 H       -2.6310    -3.5410     1.9310 H     1 <1>   0.1500 
 24 H       -2.6870     1.0150     2.3960 H     1 <1>   0.0800 
 25 H       -3.0110     2.4740     1.4960 H     1 <1>   0.0800 
 26 H       -1.4230     1.7330     1.4160 H     1 <1>   0.0800 
 27 H       -3.3760     0.8690    -1.7540 H     1 <1>   0.0800 
 28 H       -2.5620     2.2700    -1.0990 H     1 <1>   0.0800 
 29 H       -4.2550     1.9830    -0.7270 H     1 <1>   0.0800 
 30 H       -6.1630    -1.7490    -1.3480 H     1 <1>   0.4000 
 31 H       -5.2480    -4.2960    -1.6420 H     1 <1>   0.0800 
 32 H       -6.8540    -3.7900    -2.1100 H     1 <1>   0.0800 
 33 H       -6.0270    -5.1150     0.4720 H     1 <1>   0.0800 
 34 H       -8.7190    -3.8770    -0.2080 H     1 <1>   0.0800 
 35 H       -7.6690    -3.4010     1.1110 H     1 <1>   0.0800 
 36 H       -7.6240    -8.4570    -1.6260 H     1 <1>   0.1500 
 37 H      -10.0720    -7.0130     2.4000 H     1 <1>   0.1500 
 38 H       -9.1130   -10.0410    -0.4550 H     1 <1>   0.1500 
 39 H      -10.3320    -9.3220     1.5600 H     1 <1>   0.1500 
@<TRIPOS>BOND
  1   1   2  1   
  2   2   3  ar  
  3   2   4  ar  
  4   3   5  ar  
  5   3   6  1   
  6   4   7  ar  
  7   4  23  1   
  8   5   8  ar  
  9   6   9  1   
 10   6  10  1   
 11   7   8  ar  
 12   8  11  1   
 13   9  24  1   
 14   9  25  1   
 15   9  26  1   
 16  10  27  1   
 17  10  28  1   
 18  10  29  1   
 19  11  12  1   
 20  11  30  1   
 21  12  13  1   
 22  12  31  1   
 23  12  32  1   
 24  13  14  1   
 25  13  15  1   
 26  13  33  1   
 27  14  16  1   
 28  15  17  1   
 29  15  34  1   
 30  15  35  1   
 31  16  18  ar  
 32  16  19  ar  
 33  17  18  1   
 34  18  20  ar  
 35  19  21  ar  
 36  19  36  1   
 37  20  22  ar  
 38  20  37  1   
 39  21  22  ar  
 40  21  38  1   
 41  22  39  1   
@<TRIPOS>SUBSTRUCTURE
  1 ****  13 GROUP 4 **** **** 0

# MOE 2024.06 (io_trps.svl 2023.06)
