@<TRIPOS>MOLECULE
NONAME
45 47 1 0 0 
SMALL
USER_CHARGES


@<TRIPOS>ATOM
  1 S        0.1530    -0.4370     0.5420 S.3   1 <1>  -0.0800 
  2 C       -1.3480    -1.0300    -0.0960 C.2   1 <1>   0.4420 
  3 C       -0.3570     1.1470     0.0730 C.2   1 <1>   0.1980 
  4 N       -2.0700    -0.0820    -0.5770 N.2   1 <1>  -0.3380 
  5 N       -1.5620    -2.3890    -0.0060 N.am  1 <1>  -0.4940 
  6 N       -1.5000     1.1550    -0.4770 N.2   1 <1>  -0.3380 
  7 C        0.5580     2.3200     0.3470 C.3   1 <1>   0.0200 
  8 C       -2.6380    -3.1410    -0.4090 C.2   1 <1>   0.5440 
  9 C       -0.1040     3.5970    -0.1860 C.3   1 <1>   0.3430 
 10 O       -3.5900    -2.6160    -0.9450 O.2   1 <1>  -0.5700 
 11 C       -2.6030    -4.5700    -0.1750 C.ar  1 <1>   0.0860 
 12 N        0.7540     4.8190    -0.0220 N.4   1 <1>  -0.9590 
 13 C       -3.5850    -5.2430     0.5710 C.ar  1 <1>  -0.1430 
 14 C       -1.5440    -5.3200    -0.6910 C.ar  1 <1>  -0.1500 
 15 C        0.9160     5.2200     1.4130 C.3   1 <1>   0.2630 
 16 C        0.1650     5.9510    -0.8040 C.3   1 <1>   0.2630 
 17 C       -3.4940    -6.6100     0.7840 C.ar  1 <1>  -0.1500 
 18 C       -4.7720    -4.4900     1.1610 C.3   1 <1>  -0.0970 
 19 C       -1.4480    -6.6780    -0.4670 C.ar  1 <1>   0.0830 
 20 C       -2.4350    -7.3340     0.2670 C.ar  1 <1>   0.0830 
 21 O       -0.3820    -7.3520    -0.9680 O.3   1 <1>  -0.3630 
 22 O       -2.3820    -8.6690     0.4790 O.3   1 <1>  -0.3620 
 23 C       -0.1530    -8.6580    -0.4680 C.3   1 <1>   0.1200 
 24 C       -1.4800    -9.4150    -0.3160 C.3   1 <1>   0.1200 
 25 H       -0.8230    -2.9160     0.4510 H     1 <1>   0.3700 
 26 H        1.4940     2.1510    -0.1520 H     1 <1>   0.0800 
 27 H        0.7170     2.3870     1.4070 H     1 <1>   0.0800 
 28 H       -1.0470     3.7420     0.3180 H     1 <1>   0.0800 
 29 H       -0.3190     3.4490    -1.2320 H     1 <1>   0.0800 
 30 H        1.6870     4.6200    -0.4190 H     1 <1>   0.4500 
 31 H       -0.7830    -4.8430    -1.2810 H     1 <1>   0.1500 
 32 H       -0.0460     5.4210     1.8570 H     1 <1>   0.0800 
 33 H        1.5200     6.1110     1.4860 H     1 <1>   0.0800 
 34 H        1.3980     4.4360     1.9740 H     1 <1>   0.0800 
 35 H       -0.8170     6.1940    -0.4300 H     1 <1>   0.0800 
 36 H        0.0790     5.6830    -1.8450 H     1 <1>   0.0800 
 37 H        0.7890     6.8260    -0.7270 H     1 <1>   0.0800 
 38 H       -4.2440    -7.1340     1.3490 H     1 <1>   0.1500 
 39 H       -4.4340    -3.6480     1.7380 H     1 <1>   0.0800 
 40 H       -5.3570    -5.1250     1.8020 H     1 <1>   0.0800 
 41 H       -5.4070    -4.1310     0.3690 H     1 <1>   0.0800 
 42 H        0.3360    -8.5690     0.4860 H     1 <1>   0.0800 
 43 H        0.5010    -9.1660    -1.1540 H     1 <1>   0.0800 
 44 H       -1.9340    -9.5710    -1.2790 H     1 <1>   0.0800 
 45 H       -1.3260   -10.3660     0.1600 H     1 <1>   0.0800 
@<TRIPOS>BOND
  1   1   2  1   
  2   1   3  1   
  3   2   4  2   
  4   2   5  1   
  5   3   6  2   
  6   3   7  1   
  7   4   6  1   
  8   5   8  am  
  9   5  25  1   
 10   7   9  1   
 11   7  26  1   
 12   7  27  1   
 13   8  10  2   
 14   8  11  1   
 15   9  12  1   
 16   9  28  1   
 17   9  29  1   
 18  11  13  ar  
 19  11  14  ar  
 20  12  15  1   
 21  12  16  1   
 22  12  30  1   
 23  13  17  ar  
 24  13  18  1   
 25  14  19  ar  
 26  14  31  1   
 27  15  32  1   
 28  15  33  1   
 29  15  34  1   
 30  16  35  1   
 31  16  36  1   
 32  16  37  1   
 33  17  20  ar  
 34  17  38  1   
 35  18  39  1   
 36  18  40  1   
 37  18  41  1   
 38  19  20  ar  
 39  19  21  1   
 40  20  22  1   
 41  21  23  1   
 42  22  24  1   
 43  23  24  1   
 44  23  42  1   
 45  23  43  1   
 46  24  44  1   
 47  24  45  1   
@<TRIPOS>SUBSTRUCTURE
  1 ****   5 GROUP 4 **** **** 0

# MOE 2024.06 (io_trps.svl 2023.06)
