@<TRIPOS>MOLECULE
NONAME
55 59 1 0 0 
SMALL
USER_CHARGES


@<TRIPOS>ATOM
  1 O       -2.1380     0.5000     2.4360 O.2   1 <1>  -0.5700 
  2 C       -2.1050     1.0070     1.3310 C.2   1 <1>   0.5440 
  3 N       -2.3290     0.2260     0.2190 N.am  1 <1>  -0.6600 
  4 C       -1.8500     2.4270     1.2050 C.ar  1 <1>   0.0860 
  5 C       -2.3180    -1.2750     0.3330 C.3   1 <1>   0.3640 
  6 C       -2.8340     0.8370    -1.0510 C.3   1 <1>   0.1400 
  7 C       -0.7840     2.9080     0.4610 C.ar  1 <1>  -0.1500 
  8 C       -2.6950     3.3600     1.8410 C.ar  1 <1>  -0.1500 
  9 C       -0.9050    -1.8120     0.0780 C.ar  1 <1>  -0.1430 
 10 C       -3.3390    -2.0140    -0.5870 C.3   1 <1>   0.2000 
 11 C       -3.3430    -0.1960    -2.0650 C.3   1 <1>   0.1200 
 12 C       -0.5800     4.2820     0.3330 C.ar  1 <1>  -0.1520 
 13 C       -2.5020     4.7150     1.7180 C.ar  1 <1>  -0.1500 
 14 C       -0.0910    -1.3280    -0.9390 C.ar  1 <1>  -0.1500 
 15 C       -0.4220    -2.8300     0.8890 C.ar  1 <1>  -0.1500 
 16 O       -4.0970    -1.1610    -1.4090 O.3   1 <1>  -0.5600 
 17 C       -4.3370    -2.8550     0.2200 C.3   1 <1>   0.1200 
 18 N        0.3890     4.9880    -0.3390 N.pl3 1 <1>   0.0330 
 19 C       -1.4350     5.1910     0.9500 C.ar  1 <1>   0.0000 
 20 C        1.1720    -1.8560    -1.1450 C.ar  1 <1>  -0.1500 
 21 C        0.8410    -3.3590     0.6860 C.ar  1 <1>  -0.1500 
 22 O       -3.6820    -3.8910     0.8830 O.3   1 <1>  -0.6800 
 23 C        0.1460     6.3170    -0.1530 C.2   1 <1>  -0.3320 
 24 C       -0.9530     6.4730     0.6160 C.2   1 <1>  -0.1810 
 25 C        1.6390    -2.8730    -0.3330 C.ar  1 <1>  -0.1500 
 26 C        0.9760     7.4520    -0.7230 C.3   1 <1>   0.0200 
 27 C       -1.5190     7.8180     1.0260 C.3   1 <1>   0.0210 
 28 C        0.6080     8.7730    -0.0210 C.3   1 <1>  -0.1600 
 29 C       -0.9160     8.9360     0.1540 C.3   1 <1>  -0.1600 
 30 H       -2.5680    -1.5350     1.3470 H     1 <1>   0.0800 
 31 H       -3.6450     1.5040    -0.8120 H     1 <1>   0.0800 
 32 H       -2.0550     1.4200    -1.5070 H     1 <1>   0.0800 
 33 H       -0.1090     2.2190    -0.0140 H     1 <1>   0.1500 
 34 H       -3.5070     2.9790     2.4350 H     1 <1>   0.1500 
 35 H       -2.8050    -2.6750    -1.2470 H     1 <1>   0.0800 
 36 H       -2.5300    -0.6760    -2.5800 H     1 <1>   0.0800 
 37 H       -3.9760     0.2820    -2.7920 H     1 <1>   0.0800 
 38 H       -3.1500     5.4210     2.2040 H     1 <1>   0.1500 
 39 H       -0.4300    -0.5350    -1.5770 H     1 <1>   0.1500 
 40 H       -1.0310    -3.2170     1.6900 H     1 <1>   0.1500 
 41 H       -5.0750    -3.2910    -0.4310 H     1 <1>   0.0800 
 42 H       -4.8240    -2.2440     0.9590 H     1 <1>   0.0800 
 43 H        1.1650     4.5800    -0.8680 H     1 <1>   0.2700 
 44 H        1.7930    -1.4740    -1.9360 H     1 <1>   0.1500 
 45 H        1.2010    -4.1470     1.3240 H     1 <1>   0.1500 
 46 H       -3.3480    -4.5560     0.2490 H     1 <1>   0.4000 
 47 H        2.6210    -3.2840    -0.4910 H     1 <1>   0.1500 
 48 H        2.0240     7.2530    -0.5880 H     1 <1>   0.0800 
 49 H        0.7760     7.5340    -1.7770 H     1 <1>   0.0800 
 50 H       -2.5890     7.8120     0.9230 H     1 <1>   0.0800 
 51 H       -1.2770     7.9900     2.0600 H     1 <1>   0.0800 
 52 H        1.0690     8.7870     0.9520 H     1 <1>   0.0800 
 53 H        1.0030     9.5990    -0.5860 H     1 <1>   0.0800 
 54 H       -1.3800     8.9050    -0.8170 H     1 <1>   0.0800 
 55 H       -1.1350     9.8920     0.5960 H     1 <1>   0.0800 
@<TRIPOS>BOND
  1   1   2  2   
  2   2   3  am  
  3   2   4  1   
  4   3   5  1   
  5   3   6  1   
  6   4   7  ar  
  7   4   8  ar  
  8   5   9  1   
  9   5  10  1   
 10   5  30  1   
 11   6  11  1   
 12   6  31  1   
 13   6  32  1   
 14   7  12  ar  
 15   7  33  1   
 16   8  13  ar  
 17   8  34  1   
 18   9  14  ar  
 19   9  15  ar  
 20  10  16  1   
 21  10  17  1   
 22  10  35  1   
 23  11  16  1   
 24  11  36  1   
 25  11  37  1   
 26  12  18  1   
 27  12  19  ar  
 28  13  19  ar  
 29  13  38  1   
 30  14  20  ar  
 31  14  39  1   
 32  15  21  ar  
 33  15  40  1   
 34  17  22  1   
 35  17  41  1   
 36  17  42  1   
 37  18  23  1   
 38  18  43  1   
 39  19  24  1   
 40  20  25  ar  
 41  20  44  1   
 42  21  25  ar  
 43  21  45  1   
 44  22  46  1   
 45  23  24  2   
 46  23  26  1   
 47  24  27  1   
 48  25  47  1   
 49  26  28  1   
 50  26  48  1   
 51  26  49  1   
 52  27  29  1   
 53  27  50  1   
 54  27  51  1   
 55  28  29  1   
 56  28  52  1   
 57  28  53  1   
 58  29  54  1   
 59  29  55  1   
@<TRIPOS>SUBSTRUCTURE
  1 ****   4 GROUP 4 **** **** 0

# MOE 2024.06 (io_trps.svl 2023.06)
