@<TRIPOS>MOLECULE
NONAME
52 54 1 0 0 
SMALL
USER_CHARGES


@<TRIPOS>ATOM
  1 O       -0.0570     1.2510     0.3390 O.2   1 <1>  -0.5700 
  2 C       -0.1650     2.4280     0.1080 C.2   1 <1>   0.5690 
  3 N       -1.0820     3.1780     0.7580 N.am  1 <1>  -0.7300 
  4 C        0.7190     3.0890    -0.9520 C.3   1 <1>   0.1810 
  5 C       -1.2950     4.6230     0.5020 C.3   1 <1>   0.3640 
  6 O        0.7670     4.4940    -0.8200 O.3   1 <1>  -0.5600 
  7 C       -2.7930     4.8740     0.3640 C.ar  1 <1>  -0.1440 
  8 C       -0.5100     5.1180    -0.7400 C.3   1 <1>   0.2610 
  9 C       -3.3700     5.9490     1.0230 C.ar  1 <1>  -0.1500 
 10 C       -3.5990     4.0560    -0.4160 C.ar  1 <1>  -0.1500 
 11 C       -0.3600     6.6400    -0.6730 C.2   1 <1>   0.5690 
 12 C       -4.7230     6.2100     0.9030 C.ar  1 <1>   0.0830 
 13 C       -4.9580     4.3020    -0.5330 C.ar  1 <1>  -0.1500 
 14 O       -1.2790     7.3440    -1.0180 O.2   1 <1>  -0.5700 
 15 N        0.8080     7.1610    -0.2150 N.am  1 <1>  -0.7300 
 16 O       -5.2100     7.2840     1.5690 O.3   1 <1>  -0.3630 
 17 C       -5.5390     5.3800     0.1290 C.ar  1 <1>   0.0830 
 18 C        1.1280     8.5900    -0.0850 C.3   1 <1>   0.2200 
 19 C       -5.5620     8.3920     0.7720 C.3   1 <1>   0.0400 
 20 O       -6.8730     5.6570     0.0560 O.3   1 <1>  -0.3630 
 21 C        2.3040     8.9190    -1.0100 C.3   1 <1>  -0.1600 
 22 C        1.4670     8.8890     1.3780 C.3   1 <1>  -0.1600 
 23 C       -7.7700     4.7970    -0.6080 C.3   1 <1>   0.0400 
 24 C        2.7550    10.3770    -0.8370 C.3   1 <1>  -0.1600 
 25 C        1.9170    10.3470     1.5560 C.3   1 <1>  -0.1600 
 26 C        3.0940    10.6820     0.6290 C.3   1 <1>  -0.1600 
 27 H       -1.6890     2.7320     1.4470 H     1 <1>   0.3700 
 28 H        0.3460     2.8510    -1.9320 H     1 <1>   0.0800 
 29 H        1.7230     2.7160    -0.8620 H     1 <1>   0.0800 
 30 H       -0.9330     5.1620     1.3620 H     1 <1>   0.0800 
 31 H       -1.0540     4.8760    -1.6350 H     1 <1>   0.0800 
 32 H       -2.7770     6.6100     1.6300 H     1 <1>   0.1500 
 33 H       -3.1760     3.2150    -0.9400 H     1 <1>   0.1500 
 34 H       -5.5430     3.6420    -1.1430 H     1 <1>   0.1500 
 35 H        1.5820     6.5120    -0.0520 H     1 <1>   0.3700 
 36 H        0.2740     9.1810    -0.3770 H     1 <1>   0.0800 
 37 H       -5.8250     9.2050     1.4240 H     1 <1>   0.0800 
 38 H       -6.4010     8.1310     0.1540 H     1 <1>   0.0800 
 39 H       -4.7170     8.6640     0.1630 H     1 <1>   0.0800 
 40 H        3.1320     8.2690    -0.7870 H     1 <1>   0.0800 
 41 H        2.0080     8.7580    -2.0320 H     1 <1>   0.0800 
 42 H        0.6000     8.7090     1.9880 H     1 <1>   0.0800 
 43 H        2.2580     8.2380     1.7050 H     1 <1>   0.0800 
 44 H       -8.7620     5.1950    -0.4910 H     1 <1>   0.0800 
 45 H       -7.7130     3.8210    -0.1610 H     1 <1>   0.0800 
 46 H       -7.5110     4.7610    -1.6520 H     1 <1>   0.0800 
 47 H        3.6170    10.5640    -1.4540 H     1 <1>   0.0800 
 48 H        1.9660    11.0340    -1.1640 H     1 <1>   0.0800 
 49 H        1.0920    11.0040     1.3340 H     1 <1>   0.0800 
 50 H        2.2040    10.5150     2.5790 H     1 <1>   0.0800 
 51 H        3.3470    11.7240     0.7300 H     1 <1>   0.0800 
 52 H        3.9540    10.1050     0.9230 H     1 <1>   0.0800 
@<TRIPOS>BOND
  1   1   2  2   
  2   2   3  am  
  3   2   4  1   
  4   3   5  1   
  5   3  27  1   
  6   4   6  1   
  7   4  28  1   
  8   4  29  1   
  9   5   7  1   
 10   5   8  1   
 11   5  30  1   
 12   6   8  1   
 13   7   9  ar  
 14   7  10  ar  
 15   8  11  1   
 16   8  31  1   
 17   9  12  ar  
 18   9  32  1   
 19  10  13  ar  
 20  10  33  1   
 21  11  14  2   
 22  11  15  am  
 23  12  16  1   
 24  12  17  ar  
 25  13  17  ar  
 26  13  34  1   
 27  15  18  1   
 28  15  35  1   
 29  16  19  1   
 30  17  20  1   
 31  18  21  1   
 32  18  22  1   
 33  18  36  1   
 34  19  37  1   
 35  19  38  1   
 36  19  39  1   
 37  20  23  1   
 38  21  24  1   
 39  21  40  1   
 40  21  41  1   
 41  22  25  1   
 42  22  42  1   
 43  22  43  1   
 44  23  44  1   
 45  23  45  1   
 46  23  46  1   
 47  24  26  1   
 48  24  47  1   
 49  24  48  1   
 50  25  26  1   
 51  25  49  1   
 52  25  50  1   
 53  26  51  1   
 54  26  52  1   
@<TRIPOS>SUBSTRUCTURE
  1 ****  11 GROUP 4 **** **** 0

# MOE 2024.06 (io_trps.svl 2023.06)
