@<TRIPOS>MOLECULE
NONAME
40 42 1 0 0 
SMALL
USER_CHARGES


@<TRIPOS>ATOM
  1 CL      -0.4620    -0.1990    -0.1750 Cl    1 <1>  -0.1230 
  2 C       -1.7010     1.0300     0.0180 C.2   1 <1>   0.1230 
  3 C       -3.0620     0.8150     0.2620 C.2   1 <1>   0.2030 
  4 C       -1.5040     2.3560    -0.0640 C.2   1 <1>  -0.3020 
  5 N       -3.6750     1.9930     0.3170 N.2   1 <1>  -0.7070 
  6 C       -3.6400    -0.5130     0.4320 C.2   1 <1>   0.7160 
  7 N       -2.7140     2.9140     0.1240 N.pl3 1 <1>   0.3000 
  8 O       -3.0610    -1.3290     1.1320 O.2   1 <1>  -0.5700 
  9 N       -4.8250    -0.9120    -0.1670 N.am  1 <1>  -0.6600 
 10 C       -5.3110    -2.3290    -0.0900 C.3   1 <1>   0.1400 
 11 C       -5.7280    -0.0080    -0.9320 C.3   1 <1>   0.1400 
 12 C       -6.4280    -2.5040     0.9490 C.3   1 <1>   0.1400 
 13 C       -6.7620     0.6790    -0.0250 C.3   1 <1>  -0.1600 
 14 N       -7.5640    -1.5600     0.7160 N.am  1 <1>  -0.6600 
 15 C       -7.2850    -0.1630     1.1450 C.3   1 <1>   0.1400 
 16 C       -8.7580    -1.9110     0.1070 C.2   1 <1>   0.7160 
 17 O       -9.6560    -1.0810     0.1090 O.2   1 <1>  -0.5700 
 18 C       -8.9880    -3.2120    -0.5260 C.2   1 <1>   0.1410 
 19 N       -8.0430    -3.8880    -1.2560 N.2   1 <1>  -0.5650 
 20 C      -10.1400    -3.9560    -0.5340 C.2   1 <1>  -0.3320 
 21 C       -8.6300    -4.9580    -1.6660 C.2   1 <1>   0.0360 
 22 N       -9.9090    -5.0580    -1.2600 N.pl3 1 <1>   0.0330 
 23 C      -11.4890    -3.6830     0.1140 C.3   1 <1>  -0.0600 
 24 H       -0.6020     2.9110    -0.2410 H     1 <1>   0.1500 
 25 H       -2.9120     3.9240     0.1260 H     1 <1>   0.2700 
 26 H       -4.4980    -2.9870     0.1620 H     1 <1>   0.0800 
 27 H       -5.6730    -2.6370    -1.0550 H     1 <1>   0.0800 
 28 H       -6.2530    -0.5880    -1.6720 H     1 <1>   0.0800 
 29 H       -5.1550     0.7350    -1.4600 H     1 <1>   0.0800 
 30 H       -6.0180    -2.3360     1.9290 H     1 <1>   0.0800 
 31 H       -6.7780    -3.5200     0.9280 H     1 <1>   0.0800 
 32 H       -7.5970     0.9790    -0.6310 H     1 <1>   0.0800 
 33 H       -6.3350     1.5790     0.3760 H     1 <1>   0.0800 
 34 H       -8.1790     0.2850     1.5440 H     1 <1>   0.0800 
 35 H       -6.5490    -0.1710     1.9310 H     1 <1>   0.0800 
 36 H       -8.1650    -5.7140    -2.2750 H     1 <1>   0.1500 
 37 H      -10.5620    -5.8170    -1.4720 H     1 <1>   0.2700 
 38 H      -11.4490    -2.8040     0.7310 H     1 <1>   0.0800 
 39 H      -11.7810    -4.5130     0.7330 H     1 <1>   0.0800 
 40 H      -12.2380    -3.5290    -0.6420 H     1 <1>   0.0800 
@<TRIPOS>BOND
  1   1   2  1   
  2   2   3  1   
  3   2   4  2   
  4   3   5  2   
  5   3   6  1   
  6   4   7  1   
  7   4  24  1   
  8   5   7  1   
  9   6   8  2   
 10   6   9  am  
 11   7  25  1   
 12   9  10  1   
 13   9  11  1   
 14  10  12  1   
 15  10  26  1   
 16  10  27  1   
 17  11  13  1   
 18  11  28  1   
 19  11  29  1   
 20  12  14  1   
 21  12  30  1   
 22  12  31  1   
 23  13  15  1   
 24  13  32  1   
 25  13  33  1   
 26  14  15  1   
 27  14  16  am  
 28  15  34  1   
 29  15  35  1   
 30  16  17  2   
 31  16  18  1   
 32  18  19  1   
 33  18  20  2   
 34  19  21  2   
 35  20  22  1   
 36  20  23  1   
 37  21  22  1   
 38  21  36  1   
 39  22  37  1   
 40  23  38  1   
 41  23  39  1   
 42  23  40  1   
@<TRIPOS>SUBSTRUCTURE
  1 ****   9 GROUP 4 **** **** 0

# MOE 2024.06 (io_trps.svl 2023.06)
