@<TRIPOS>MOLECULE
NONAME
52 54 1 0 0 
SMALL
USER_CHARGES


@<TRIPOS>ATOM
  1 S       -0.0610    -0.3020     0.5860 S.o2  1 <1>   1.3330 
  2 O       -0.3580     0.4220     1.8020 O.2   1 <1>  -0.6500 
  3 O        0.8210    -1.4460     0.6310 O.2   1 <1>  -0.6500 
  4 N       -1.5250    -0.8070    -0.1070 N.am  1 <1>  -0.8490 
  5 C        0.5530     0.8770    -0.6220 C.3   1 <1>  -0.0550 
  6 C       -2.5140    -1.1800     0.9060 C.3   1 <1>   0.1960 
  7 C       -1.3370    -1.8800    -1.0860 C.3   1 <1>   0.1960 
  8 C        1.9000     1.5130    -0.2370 C.3   1 <1>  -0.1600 
  9 C       -3.8780    -1.4090     0.2570 C.3   1 <1>  -0.1600 
 10 C       -2.6440    -2.1780    -1.8190 C.3   1 <1>  -0.1600 
 11 C        2.3740     2.5050    -1.3040 C.3   1 <1>  -0.2400 
 12 C       -3.8600    -2.4120    -0.9080 C.3   1 <1>   0.4240 
 13 O       -4.9470    -2.0780    -1.7350 O.3   1 <1>  -0.5600 
 14 C       -3.9710    -3.8860    -0.4260 C.ar  1 <1>  -0.1440 
 15 C       -6.2110    -2.5170    -1.3540 C.3   1 <1>   0.1200 
 16 C       -5.1030    -4.6450    -0.7140 C.ar  1 <1>  -0.1440 
 17 C       -2.9650    -4.4990     0.3130 C.ar  1 <1>  -0.1500 
 18 C       -6.2470    -4.0320    -1.4960 C.3   1 <1>  -0.0170 
 19 C       -5.2110    -5.9600    -0.2900 C.ar  1 <1>  -0.1500 
 20 C       -3.0520    -5.8130     0.7400 C.ar  1 <1>   0.0820 
 21 C       -4.1970    -6.5640     0.4460 C.ar  1 <1>   0.0820 
 22 O       -1.9720    -6.2610     1.4400 O.3   1 <1>  -0.3620 
 23 O       -4.3070    -7.8480     0.8970 O.3   1 <1>  -0.3620 
 24 C       -1.5280    -7.5930     1.3110 C.3   1 <1>   0.0400 
 25 C       -5.5020    -8.5870     0.7720 C.3   1 <1>   0.0400 
 26 H       -0.1750     1.6560    -0.7420 H     1 <1>   0.0800 
 27 H        0.6630     0.3850    -1.5680 H     1 <1>   0.0800 
 28 H       -2.6230    -0.3790     1.6190 H     1 <1>   0.0800 
 29 H       -2.1850    -2.0490     1.4490 H     1 <1>   0.0800 
 30 H       -0.9520    -2.7620    -0.6080 H     1 <1>   0.0800 
 31 H       -0.6050    -1.5750    -1.8140 H     1 <1>   0.0800 
 32 H        2.6380     0.7370    -0.1150 H     1 <1>   0.0800 
 33 H        1.7960     2.0220     0.7060 H     1 <1>   0.0800 
 34 H       -4.2200    -0.4560    -0.1070 H     1 <1>   0.0800 
 35 H       -4.5650    -1.7450     1.0110 H     1 <1>   0.0800 
 36 H       -2.5080    -3.0360    -2.4510 H     1 <1>   0.0800 
 37 H       -2.8430    -1.3330    -2.4530 H     1 <1>   0.0800 
 38 H        2.5060     2.0100    -2.2500 H     1 <1>   0.0800 
 39 H        3.3150     2.9370    -1.0110 H     1 <1>   0.0800 
 40 H        1.6590     3.3010    -1.4240 H     1 <1>   0.0800 
 41 H       -6.9320    -2.0580    -2.0080 H     1 <1>   0.0800 
 42 H       -6.4060    -2.2120    -0.3410 H     1 <1>   0.0800 
 43 H       -2.0740    -3.9780     0.5860 H     1 <1>   0.1500 
 44 H       -6.1590    -4.2950    -2.5350 H     1 <1>   0.0800 
 45 H       -7.1900    -4.3970    -1.1320 H     1 <1>   0.0800 
 46 H       -6.1010    -6.5020    -0.5450 H     1 <1>   0.1500 
 47 H       -0.4960    -7.6320     1.6070 H     1 <1>   0.0800 
 48 H       -1.6310    -7.9000     0.2850 H     1 <1>   0.0800 
 49 H       -2.1160    -8.2190     1.9570 H     1 <1>   0.0800 
 50 H       -5.3610    -9.5340     1.2610 H     1 <1>   0.0800 
 51 H       -5.7100    -8.7430    -0.2710 H     1 <1>   0.0800 
 52 H       -6.2990    -8.0450     1.2510 H     1 <1>   0.0800 
@<TRIPOS>BOND
  1   1   2  2   
  2   1   3  2   
  3   1   4  am  
  4   1   5  1   
  5   4   6  1   
  6   4   7  1   
  7   5   8  1   
  8   5  26  1   
  9   5  27  1   
 10   6   9  1   
 11   6  28  1   
 12   6  29  1   
 13   7  10  1   
 14   7  30  1   
 15   7  31  1   
 16   8  11  1   
 17   8  32  1   
 18   8  33  1   
 19   9  12  1   
 20   9  34  1   
 21   9  35  1   
 22  10  12  1   
 23  10  36  1   
 24  10  37  1   
 25  11  38  1   
 26  11  39  1   
 27  11  40  1   
 28  12  13  1   
 29  12  14  1   
 30  13  15  1   
 31  14  16  ar  
 32  14  17  ar  
 33  15  18  1   
 34  15  41  1   
 35  15  42  1   
 36  16  18  1   
 37  16  19  ar  
 38  17  20  ar  
 39  17  43  1   
 40  18  44  1   
 41  18  45  1   
 42  19  21  ar  
 43  19  46  1   
 44  20  21  ar  
 45  20  22  1   
 46  21  23  1   
 47  22  24  1   
 48  23  25  1   
 49  24  47  1   
 50  24  48  1   
 51  24  49  1   
 52  25  50  1   
 53  25  51  1   
 54  25  52  1   
@<TRIPOS>SUBSTRUCTURE
  1 ****  17 GROUP 4 **** **** 0

# MOE 2024.06 (io_trps.svl 2023.06)
