@<TRIPOS>MOLECULE
NONAME
54 58 1 0 0 
SMALL
USER_CHARGES


@<TRIPOS>ATOM
  1 O       -0.6530    -2.9540    -0.2260 O.2   1 <1>  -0.5700 
  2 C       -1.8330    -2.7520    -0.4240 C.2   1 <1>   0.6900 
  3 N       -2.4730    -1.6650     0.0860 N.am  1 <1>  -0.6600 
  4 N       -2.4990    -3.6110    -1.1990 N.am  1 <1>  -0.8000 
  5 C       -3.9160    -1.6460     0.4790 C.3   1 <1>   0.2810 
  6 C       -1.7390    -0.5390     0.7020 C.3   1 <1>   0.1400 
  7 C       -4.9650    -1.9810    -0.6120 C.2   1 <1>   0.5690 
  8 C       -4.1090    -0.2450     1.0640 C.3   1 <1>  -0.1600 
  9 C       -2.7440     0.1270     1.6360 C.3   1 <1>  -0.1600 
 10 O       -4.6680    -1.8180    -1.7770 O.2   1 <1>  -0.5700 
 11 N       -6.2020    -2.4880    -0.2740 N.am  1 <1>  -0.6600 
 12 C       -7.1650    -2.9460    -1.3150 C.3   1 <1>   0.1400 
 13 C       -6.6760    -2.7930     1.1040 C.3   1 <1>   0.1400 
 14 C       -7.2920    -4.4670    -1.2200 C.3   1 <1>  -0.1600 
 15 C       -6.7770    -4.3120     1.2510 C.3   1 <1>  -0.1600 
 16 C       -7.7060    -4.9130     0.1900 C.3   1 <1>   0.4600 
 17 O       -8.9940    -4.4090     0.4720 O.3   1 <1>  -0.5600 
 18 C       -7.7200    -6.4320     0.3050 C.2   1 <1>  -0.3320 
 19 C      -10.1080    -5.1200    -0.0160 C.3   1 <1>   0.1200 
 20 N       -6.6350    -7.2630     0.2320 N.pl3 1 <1>   0.0330 
 21 C       -8.8310    -7.1690     0.4990 C.2   1 <1>  -0.1810 
 22 C      -10.1900    -6.5240     0.6070 C.3   1 <1>   0.0210 
 23 C       -7.0790    -8.5540     0.3910 C.ar  1 <1>  -0.1520 
 24 C       -8.4600    -8.5280     0.5650 C.ar  1 <1>   0.0000 
 25 C       -6.3780    -9.7620     0.4000 C.ar  1 <1>  -0.1500 
 26 C       -9.1560    -9.7260     0.7520 C.ar  1 <1>  -0.1500 
 27 C       -7.0760   -10.9340     0.5840 C.ar  1 <1>  -0.1500 
 28 C       -8.4650   -10.9160     0.7600 C.ar  1 <1>  -0.1500 
 29 H       -1.9260    -4.2690    -1.7190 H     1 <1>   0.3700 
 30 H       -3.2860    -3.2130    -1.7240 H     1 <1>   0.3700 
 31 H       -4.0120    -2.3670     1.2680 H     1 <1>   0.0800 
 32 H       -0.8700    -0.8860     1.2360 H     1 <1>   0.0800 
 33 H       -1.4340     0.1410    -0.0760 H     1 <1>   0.0800 
 34 H       -4.3660     0.4330     0.2680 H     1 <1>   0.0800 
 35 H       -4.8860    -0.2200     1.8070 H     1 <1>   0.0800 
 36 H       -2.6300    -0.2870     2.6230 H     1 <1>   0.0800 
 37 H       -2.5950     1.1920     1.6840 H     1 <1>   0.0800 
 38 H       -8.1220    -2.4820    -1.1430 H     1 <1>   0.0800 
 39 H       -6.8330    -2.6660    -2.3000 H     1 <1>   0.0800 
 40 H       -6.0210    -2.3920     1.8540 H     1 <1>   0.0800 
 41 H       -7.6470    -2.3480     1.2490 H     1 <1>   0.0800 
 42 H       -6.3400    -4.9000    -1.4650 H     1 <1>   0.0800 
 43 H       -7.9970    -4.8260    -1.9450 H     1 <1>   0.0800 
 44 H       -7.1520    -4.5650     2.2260 H     1 <1>   0.0800 
 45 H       -5.7940    -4.7340     1.1580 H     1 <1>   0.0800 
 46 H      -10.9900    -4.5540     0.2260 H     1 <1>   0.0800 
 47 H      -10.0270    -5.1910    -1.0860 H     1 <1>   0.0800 
 48 H       -5.6580    -6.9900     0.0890 H     1 <1>   0.2700 
 49 H      -10.4780    -6.4520     1.6400 H     1 <1>   0.0800 
 50 H      -10.9220    -7.1100     0.0840 H     1 <1>   0.0800 
 51 H       -5.3110    -9.7670     0.2650 H     1 <1>   0.1500 
 52 H      -10.2210    -9.6960     0.8870 H     1 <1>   0.1500 
 53 H       -6.5600   -11.8780     0.5950 H     1 <1>   0.1500 
 54 H       -8.9870   -11.8450     0.9030 H     1 <1>   0.1500 
@<TRIPOS>BOND
  1   1   2  2   
  2   2   3  am  
  3   2   4  am  
  4   3   5  1   
  5   3   6  1   
  6   4  29  1   
  7   4  30  1   
  8   5   7  1   
  9   5   8  1   
 10   5  31  1   
 11   6   9  1   
 12   6  32  1   
 13   6  33  1   
 14   7  10  2   
 15   7  11  am  
 16   8   9  1   
 17   8  34  1   
 18   8  35  1   
 19   9  36  1   
 20   9  37  1   
 21  11  12  1   
 22  11  13  1   
 23  12  14  1   
 24  12  38  1   
 25  12  39  1   
 26  13  15  1   
 27  13  40  1   
 28  13  41  1   
 29  14  16  1   
 30  14  42  1   
 31  14  43  1   
 32  15  16  1   
 33  15  44  1   
 34  15  45  1   
 35  16  17  1   
 36  16  18  1   
 37  17  19  1   
 38  18  20  1   
 39  18  21  2   
 40  19  22  1   
 41  19  46  1   
 42  19  47  1   
 43  20  23  1   
 44  20  48  1   
 45  21  22  1   
 46  21  24  1   
 47  22  49  1   
 48  22  50  1   
 49  23  24  ar  
 50  23  25  ar  
 51  24  26  ar  
 52  25  27  ar  
 53  25  51  1   
 54  26  28  ar  
 55  26  52  1   
 56  27  28  ar  
 57  27  53  1   
 58  28  54  1   
@<TRIPOS>SUBSTRUCTURE
  1 ****  15 GROUP 4 **** **** 0

# MOE 2024.06 (io_trps.svl 2023.06)
