@<TRIPOS>MOLECULE
NONAME
38 40 1 0 0 
SMALL
USER_CHARGES


@<TRIPOS>ATOM
  1 O       -0.4830     0.0980     0.2220 O.2   1 <1>  -0.5700 
  2 C       -1.5130     0.7480     0.2970 C.2   1 <1>   0.7160 
  3 N       -2.6990     0.0510     0.1600 N.am  1 <1>  -0.6600 
  4 C       -1.4430     2.1930     0.5140 C.2   1 <1>   0.1410 
  5 C       -4.0530     0.6420     0.0170 C.3   1 <1>   0.1400 
  6 C       -2.7500    -1.4210    -0.0050 C.3   1 <1>   0.1400 
  7 N       -2.4820     2.9700     0.9640 N.2   1 <1>  -0.5650 
  8 C       -0.3820     3.0240     0.3370 C.2   1 <1>  -0.0400 
  9 C       -4.9470    -0.5190    -0.4180 C.3   1 <1>   0.2000 
 10 C       -4.2350    -1.7830     0.0610 C.3   1 <1>  -0.0800 
 11 C       -1.9870     4.1490     1.0230 C.2   1 <1>   0.3280 
 12 O       -0.7360     4.2320     0.6570 O.3   1 <1>  -0.2800 
 13 C        1.0450     2.8130    -0.1360 C.3   1 <1>  -0.0600 
 14 O       -6.2070    -0.4380     0.1520 O.3   1 <1>  -0.6800 
 15 C       -4.6050    -3.0280    -0.7590 C.3   1 <1>  -0.0170 
 16 C       -3.8560    -4.2530    -0.2590 C.ar  1 <1>  -0.1440 
 17 C       -2.7110    -4.7170    -0.8760 C.ar  1 <1>  -0.1500 
 18 C       -4.2830    -4.9620     0.8450 C.ar  1 <1>  -0.1500 
 19 C       -2.0650    -5.8330    -0.3690 C.ar  1 <1>   0.1600 
 20 C       -3.5650    -6.0670     1.2690 C.ar  1 <1>   0.1600 
 21 N       -2.4650    -6.5180     0.6900 N.ar  1 <1>  -0.6200 
 22 H       -4.3680     1.0340     0.9680 H     1 <1>   0.0800 
 23 H       -4.0490     1.4230    -0.7230 H     1 <1>   0.0800 
 24 H       -2.3320    -1.6770    -0.9640 H     1 <1>   0.0800 
 25 H       -2.1880    -1.9150     0.7700 H     1 <1>   0.0800 
 26 H       -5.0570    -0.5130    -1.4890 H     1 <1>   0.0800 
 27 H       -4.4710    -1.9540     1.0970 H     1 <1>   0.0800 
 28 H       -2.4940     5.0460     1.3360 H     1 <1>   0.1500 
 29 H        1.2160     1.7960    -0.4330 H     1 <1>   0.0800 
 30 H        1.7280     3.0600     0.6560 H     1 <1>   0.0800 
 31 H        1.2450     3.4520    -0.9770 H     1 <1>   0.0800 
 32 H       -6.1390    -0.4060     1.1250 H     1 <1>   0.4000 
 33 H       -4.3820    -2.8640    -1.7980 H     1 <1>   0.0800 
 34 H       -5.6650    -3.2030    -0.6800 H     1 <1>   0.0800 
 35 H       -2.3120    -4.2240    -1.7430 H     1 <1>   0.1500 
 36 H       -5.1680    -4.6660     1.3780 H     1 <1>   0.1500 
 37 H       -1.1730    -6.1800    -0.8620 H     1 <1>   0.1500 
 38 H       -3.9130    -6.6080     2.1320 H     1 <1>   0.1500 
@<TRIPOS>BOND
  1   1   2  2   
  2   2   3  am  
  3   2   4  1   
  4   3   5  1   
  5   3   6  1   
  6   4   7  1   
  7   4   8  2   
  8   5   9  1   
  9   5  22  1   
 10   5  23  1   
 11   6  10  1   
 12   6  24  1   
 13   6  25  1   
 14   7  11  2   
 15   8  12  1   
 16   8  13  1   
 17   9  10  1   
 18   9  14  1   
 19   9  26  1   
 20  10  15  1   
 21  10  27  1   
 22  11  12  1   
 23  11  28  1   
 24  13  29  1   
 25  13  30  1   
 26  13  31  1   
 27  14  32  1   
 28  15  16  1   
 29  15  33  1   
 30  15  34  1   
 31  16  17  ar  
 32  16  18  ar  
 33  17  19  ar  
 34  17  35  1   
 35  18  20  ar  
 36  18  36  1   
 37  19  21  ar  
 38  19  37  1   
 39  20  21  ar  
 40  20  38  1   
@<TRIPOS>SUBSTRUCTURE
  1 ****   6 GROUP 4 **** **** 0

# MOE 2024.06 (io_trps.svl 2023.06)
