@<TRIPOS>MOLECULE
NONAME
51 53 1 0 0 
SMALL
USER_CHARGES


@<TRIPOS>ATOM
  1 S       -2.0290    -0.3490     0.2600 S.3   1 <1>  -0.0800 
  2 C       -0.7430     0.7940     0.4020 C.2   1 <1>   0.1980 
  3 C       -0.8840    -1.5570     0.7300 C.2   1 <1>   0.1980 
  4 N        0.3590     0.2680     0.7590 N.2   1 <1>  -0.3380 
  5 C       -1.0110     2.2610     0.1050 C.3   1 <1>   0.5230 
  6 N        0.2770    -1.0810     0.9430 N.2   1 <1>  -0.3380 
  7 C       -1.3560    -2.9910     0.8350 C.3   1 <1>  -0.0600 
  8 N        0.2970     3.0150     0.0840 N.4   1 <1>  -0.9590 
  9 C        0.1260     4.4730     0.3240 C.3   1 <1>   0.3430 
 10 C        1.0790     2.6940    -1.1470 C.3   1 <1>   0.3430 
 11 C        1.5030     5.1340     0.4340 C.3   1 <1>  -0.1600 
 12 C        2.4650     3.3310    -1.0470 C.3   1 <1>  -0.1600 
 13 C        2.3600     4.8400    -0.8080 C.3   1 <1>   0.4230 
 14 N        3.7240     5.4450    -0.7250 N.4   1 <1>  -0.9590 
 15 C        4.5500     5.0430     0.4790 C.3   1 <1>   0.3430 
 16 C        3.6910     6.9520    -0.8370 C.3   1 <1>   0.3430 
 17 C        5.9520     5.6850     0.4590 C.3   1 <1>   0.1100 
 18 C        5.1050     7.5690    -0.8320 C.3   1 <1>   0.1100 
 19 N        5.8650     7.1540     0.3660 N.3   1 <1>  -0.8100 
 20 C        7.2170     7.7570     0.4040 C.3   1 <1>   0.1100 
 21 C        7.1730     9.2530     0.7400 C.3   1 <1>   0.1200 
 22 O        8.4680     9.7420     0.7980 O.3   1 <1>  -0.6800 
 23 H       -1.6520     2.6500     0.8790 H     1 <1>   0.0800 
 24 H       -1.5180     2.3550    -0.8410 H     1 <1>   0.0800 
 25 H       -2.1390    -3.0670     1.5660 H     1 <1>   0.0800 
 26 H       -0.5390    -3.6220     1.1350 H     1 <1>   0.0800 
 27 H       -1.7240    -3.3270    -0.1160 H     1 <1>   0.0800 
 28 H        0.8130     2.5930     0.8770 H     1 <1>   0.4500 
 29 H       -0.4240     4.6360     1.2390 H     1 <1>   0.0800 
 30 H       -0.4310     4.9160    -0.4870 H     1 <1>   0.0800 
 31 H        0.5640     3.0650    -2.0190 H     1 <1>   0.0800 
 32 H        1.1870     1.6240    -1.2500 H     1 <1>   0.0800 
 33 H        1.9780     4.7730     1.3280 H     1 <1>   0.0800 
 34 H        1.3550     6.1940     0.5380 H     1 <1>   0.0800 
 35 H        2.9880     3.1440    -1.9680 H     1 <1>   0.0800 
 36 H        3.0020     2.8440    -0.2520 H     1 <1>   0.0800 
 37 H        1.8580     5.2680    -1.6630 H     1 <1>   0.0800 
 38 H        4.2630     5.1300    -1.5430 H     1 <1>   0.4500 
 39 H        4.6620     3.9730     0.5150 H     1 <1>   0.0800 
 40 H        4.0580     5.3590     1.3840 H     1 <1>   0.0800 
 41 H        3.1470     7.3690    -0.0060 H     1 <1>   0.0800 
 42 H        3.1890     7.2450    -1.7440 H     1 <1>   0.0800 
 43 H        6.5240     5.2940    -0.3650 H     1 <1>   0.0800 
 44 H        6.4620     5.4190     1.3700 H     1 <1>   0.0800 
 45 H        5.0030     8.6400    -0.8410 H     1 <1>   0.0800 
 46 H        5.6340     7.2820    -1.7250 H     1 <1>   0.0800 
 47 H        7.7120     7.6160    -0.5430 H     1 <1>   0.0800 
 48 H        7.7990     7.2690     1.1670 H     1 <1>   0.0800 
 49 H        6.7030     9.4230     1.6930 H     1 <1>   0.0800 
 50 H        6.6600     9.8080    -0.0250 H     1 <1>   0.0800 
 51 H        8.9240     9.4390     1.6080 H     1 <1>   0.4000 
@<TRIPOS>BOND
  1   1   2  1   
  2   1   3  1   
  3   2   4  2   
  4   2   5  1   
  5   3   6  2   
  6   3   7  1   
  7   4   6  1   
  8   5   8  1   
  9   5  23  1   
 10   5  24  1   
 11   7  25  1   
 12   7  26  1   
 13   7  27  1   
 14   8   9  1   
 15   8  10  1   
 16   8  28  1   
 17   9  11  1   
 18   9  29  1   
 19   9  30  1   
 20  10  12  1   
 21  10  31  1   
 22  10  32  1   
 23  11  13  1   
 24  11  33  1   
 25  11  34  1   
 26  12  13  1   
 27  12  35  1   
 28  12  36  1   
 29  13  14  1   
 30  13  37  1   
 31  14  15  1   
 32  14  16  1   
 33  14  38  1   
 34  15  17  1   
 35  15  39  1   
 36  15  40  1   
 37  16  18  1   
 38  16  41  1   
 39  16  42  1   
 40  17  19  1   
 41  17  43  1   
 42  17  44  1   
 43  18  19  1   
 44  18  45  1   
 45  18  46  1   
 46  19  20  1   
 47  20  21  1   
 48  20  47  1   
 49  20  48  1   
 50  21  22  1   
 51  21  49  1   
 52  21  50  1   
 53  22  51  1   
@<TRIPOS>SUBSTRUCTURE
  1 ****  12 GROUP 4 **** **** 0

# MOE 2024.06 (io_trps.svl 2023.06)
