@<TRIPOS>MOLECULE
NONAME
57 60 1 0 0 
SMALL
USER_CHARGES


@<TRIPOS>ATOM
  1 O       -0.4450    -0.8590     1.4160 O.2   1 <1>  -0.5700 
  2 C       -1.3780    -0.3490     0.8450 C.2   1 <1>   0.5690 
  3 N       -2.3870    -0.9910     0.1820 N.am  1 <1>  -0.4770 
  4 C       -1.5500     1.1450     0.8020 C.3   1 <1>  -0.0990 
  5 C       -2.6170    -2.3740     0.1010 C.ar  1 <1>   0.1170 
  6 C       -3.3570    -0.0170    -0.3620 C.3   1 <1>   0.1400 
  7 C       -2.6880     1.3530    -0.2030 C.3   1 <1>  -0.1600 
  8 C       -3.1130    -2.9580    -1.0610 C.ar  1 <1>  -0.1500 
  9 C       -2.3630    -3.2120     1.1830 C.ar  1 <1>  -0.1500 
 10 C       -3.3620    -4.3150    -1.1290 C.ar  1 <1>  -0.1500 
 11 C       -2.6110    -4.5690     1.1130 C.ar  1 <1>  -0.1500 
 12 C       -3.1310    -5.1580    -0.0400 C.ar  1 <1>   0.0860 
 13 C       -3.4120    -6.5810    -0.0980 C.2   1 <1>   0.5440 
 14 O       -2.7510    -7.3760     0.5490 O.2   1 <1>  -0.5700 
 15 N       -4.4550    -7.0940    -0.8400 N.am  1 <1>  -0.6600 
 16 C       -4.4630    -8.5450    -1.1590 C.3   1 <1>   0.1400 
 17 C       -5.8170    -6.5040    -0.7310 C.3   1 <1>   0.1400 
 18 C       -5.1730    -9.2950    -0.0100 C.3   1 <1>   0.4230 
 19 C       -6.5640    -7.2300     0.3970 C.3   1 <1>  -0.1600 
 20 N       -5.0570   -10.8110    -0.0960 N.4   1 <1>  -0.9590 
 21 C       -6.6260    -8.7760     0.2160 C.3   1 <1>   0.0000 
 22 C       -6.0560   -11.5480     0.7440 C.3   1 <1>   0.3430 
 23 C       -5.0280   -11.3810    -1.4820 C.3   1 <1>   0.2630 
 24 C       -7.1990    -9.4080     1.5190 C.3   1 <1>  -0.1600 
 25 C       -7.5200    -9.1410    -1.0040 C.3   1 <1>   0.1200 
 26 C       -6.4900   -10.7090     1.9440 C.3   1 <1>  -0.1600 
 27 O       -8.7570    -8.5230    -0.9360 O.3   1 <1>  -0.6800 
 28 H       -1.8270     1.4910     1.7810 H     1 <1>   0.0800 
 29 H       -0.6410     1.6230     0.4870 H     1 <1>   0.0800 
 30 H       -3.5730    -0.2180    -1.3960 H     1 <1>   0.0800 
 31 H       -4.2650    -0.0680     0.2150 H     1 <1>   0.0800 
 32 H       -2.2810     1.6550    -1.1530 H     1 <1>   0.0800 
 33 H       -3.3890     2.1010     0.1260 H     1 <1>   0.0800 
 34 H       -3.2960    -2.3490    -1.9260 H     1 <1>   0.1500 
 35 H       -1.9620    -2.7940     2.0900 H     1 <1>   0.1500 
 36 H       -3.7370    -4.7360    -2.0460 H     1 <1>   0.1500 
 37 H       -2.3970    -5.1900     1.9660 H     1 <1>   0.1500 
 38 H       -4.9560    -8.6910    -2.1010 H     1 <1>   0.0800 
 39 H       -3.4470    -8.8910    -1.2490 H     1 <1>   0.0800 
 40 H       -5.7580    -5.4530    -0.5030 H     1 <1>   0.0800 
 41 H       -6.3390    -6.6110    -1.6670 H     1 <1>   0.0800 
 42 H       -4.6320    -9.0060     0.8770 H     1 <1>   0.0800 
 43 H       -6.0570    -6.9910     1.3170 H     1 <1>   0.0800 
 44 H       -7.5540    -6.8150     0.4790 H     1 <1>   0.0800 
 45 H       -4.1360   -11.0080     0.3250 H     1 <1>   0.4500 
 46 H       -6.9290   -11.7770     0.1550 H     1 <1>   0.0800 
 47 H       -5.6320   -12.4800     1.0840 H     1 <1>   0.0800 
 48 H       -5.9490   -11.1660    -1.9990 H     1 <1>   0.0800 
 49 H       -4.8990   -12.4510    -1.4420 H     1 <1>   0.0800 
 50 H       -4.2090   -10.9650    -2.0450 H     1 <1>   0.0800 
 51 H       -7.1210    -8.7180     2.3430 H     1 <1>   0.0800 
 52 H       -8.2500    -9.6080     1.4010 H     1 <1>   0.0800 
 53 H       -7.6940   -10.2000    -1.0630 H     1 <1>   0.0800 
 54 H       -7.0750    -8.8190    -1.9280 H     1 <1>   0.0800 
 55 H       -7.1570   -11.2880     2.5600 H     1 <1>   0.0800 
 56 H       -5.6260   -10.4800     2.5450 H     1 <1>   0.0800 
 57 H       -9.2690    -8.8000    -0.1510 H     1 <1>   0.4000 
@<TRIPOS>BOND
  1   1   2  2   
  2   2   3  am  
  3   2   4  1   
  4   3   5  1   
  5   3   6  1   
  6   4   7  1   
  7   4  28  1   
  8   4  29  1   
  9   5   8  ar  
 10   5   9  ar  
 11   6   7  1   
 12   6  30  1   
 13   6  31  1   
 14   7  32  1   
 15   7  33  1   
 16   8  10  ar  
 17   8  34  1   
 18   9  11  ar  
 19   9  35  1   
 20  10  12  ar  
 21  10  36  1   
 22  11  12  ar  
 23  11  37  1   
 24  12  13  1   
 25  13  14  2   
 26  13  15  am  
 27  15  16  1   
 28  15  17  1   
 29  16  18  1   
 30  16  38  1   
 31  16  39  1   
 32  17  19  1   
 33  17  40  1   
 34  17  41  1   
 35  18  20  1   
 36  18  21  1   
 37  18  42  1   
 38  19  21  1   
 39  19  43  1   
 40  19  44  1   
 41  20  22  1   
 42  20  23  1   
 43  20  45  1   
 44  21  24  1   
 45  21  25  1   
 46  22  26  1   
 47  22  46  1   
 48  22  47  1   
 49  23  48  1   
 50  23  49  1   
 51  23  50  1   
 52  24  26  1   
 53  24  51  1   
 54  24  52  1   
 55  25  27  1   
 56  25  53  1   
 57  25  54  1   
 58  26  55  1   
 59  26  56  1   
 60  27  57  1   
@<TRIPOS>SUBSTRUCTURE
  1 ****  13 GROUP 4 **** **** 0

# MOE 2024.06 (io_trps.svl 2023.06)
