@<TRIPOS>MOLECULE
NONAME
50 53 1 0 0 
SMALL
USER_CHARGES


@<TRIPOS>ATOM
  1 O        0.9060    -0.1250    -1.8500 O.2   1 <1>  -0.5700 
  2 C        1.6620    -0.6430    -1.0510 C.2   1 <1>   0.7150 
  3 N        2.6870     0.1380    -0.5420 N.am  1 <1>  -0.6600 
  4 C        1.5090    -2.0430    -0.7000 C.2   1 <1>   0.0550 
  5 C        3.3670    -0.1940     0.7650 C.3   1 <1>   0.2200 
  6 C        3.1010     1.3690    -1.2850 C.3   1 <1>   0.1400 
  7 O        2.6030    -2.7730    -0.4150 O.3   1 <1>  -0.2800 
  8 C        0.4090    -2.8390    -0.6170 C.2   1 <1>  -0.1810 
  9 C        3.5080     1.0230     1.6950 C.3   1 <1>   0.1200 
 10 C        4.7450    -0.8540     0.5170 C.3   1 <1>   0.3430 
 11 C        4.5340     1.8510    -0.9890 C.3   1 <1>  -0.0800 
 12 C        2.2170    -4.0170    -0.1430 C.ar  1 <1>   0.1400 
 13 C        0.8450    -4.1250    -0.2520 C.ar  1 <1>   0.0000 
 14 C       -1.0530    -2.4980    -0.8560 C.3   1 <1>  -0.0590 
 15 O        4.6840     1.7230     1.4160 O.3   1 <1>  -0.5600 
 16 N        5.2430    -0.6190    -0.8840 N.4   1 <1>  -0.9590 
 17 C        4.6220     2.6050     0.3470 C.3   1 <1>   0.1200 
 18 C        5.6560     0.7990    -1.1420 C.3   1 <1>   0.3430 
 19 C        3.0180    -5.0930     0.2080 C.ar  1 <1>  -0.1500 
 20 C        0.2380    -5.3580    -0.0040 C.ar  1 <1>  -0.1500 
 21 C        6.3160    -1.5890    -1.2460 C.3   1 <1>   0.2630 
 22 C        2.4180    -6.3110     0.4560 C.ar  1 <1>   0.0830 
 23 C        1.0210    -6.4390     0.3470 C.ar  1 <1>  -0.1500 
 24 O        3.2380    -7.3340     0.7980 O.3   1 <1>  -0.3630 
 25 C        2.7380    -8.6280     1.0590 C.3   1 <1>   0.0400 
 26 H        2.7530    -0.8960     1.3020 H     1 <1>   0.0800 
 27 H        3.0160     1.1740    -2.3420 H     1 <1>   0.0800 
 28 H        2.4000     2.1560    -1.0590 H     1 <1>   0.0800 
 29 H        3.5940     0.6800     2.7120 H     1 <1>   0.0800 
 30 H        2.6560     1.6790     1.6330 H     1 <1>   0.0800 
 31 H        4.6340    -1.9130     0.6790 H     1 <1>   0.0800 
 32 H        5.4610    -0.4900     1.2360 H     1 <1>   0.0800 
 33 H        4.7380     2.6050    -1.7280 H     1 <1>   0.0800 
 34 H       -1.4280    -3.0660    -1.6890 H     1 <1>   0.0800 
 35 H       -1.1770    -1.4520    -1.0740 H     1 <1>   0.0800 
 36 H       -1.6340    -2.7360     0.0160 H     1 <1>   0.0800 
 37 H        4.4110    -0.7940    -1.4730 H     1 <1>   0.4500 
 38 H        3.7870     3.2720     0.4880 H     1 <1>   0.0800 
 39 H        5.5240     3.1930     0.3770 H     1 <1>   0.0800 
 40 H        6.4700     1.0610    -0.4840 H     1 <1>   0.0800 
 41 H        6.0270     0.8610    -2.1520 H     1 <1>   0.0800 
 42 H        4.0820    -4.9870     0.2850 H     1 <1>   0.1500 
 43 H       -0.8300    -5.4500    -0.0900 H     1 <1>   0.1500 
 44 H        7.1810    -1.4400    -0.6200 H     1 <1>   0.0800 
 45 H        6.6070    -1.4590    -2.2760 H     1 <1>   0.0800 
 46 H        5.9630    -2.6000    -1.1150 H     1 <1>   0.0800 
 47 H        0.5430    -7.3820     0.5360 H     1 <1>   0.1500 
 48 H        3.5710    -9.2650     1.3010 H     1 <1>   0.0800 
 49 H        2.2420    -8.9960     0.1780 H     1 <1>   0.0800 
 50 H        2.0610    -8.5810     1.8930 H     1 <1>   0.0800 
@<TRIPOS>BOND
  1   1   2  2   
  2   2   3  am  
  3   2   4  1   
  4   3   5  1   
  5   3   6  1   
  6   4   7  1   
  7   4   8  2   
  8   5   9  1   
  9   5  10  1   
 10   5  26  1   
 11   6  11  1   
 12   6  27  1   
 13   6  28  1   
 14   7  12  1   
 15   8  13  1   
 16   8  14  1   
 17   9  15  1   
 18   9  29  1   
 19   9  30  1   
 20  10  16  1   
 21  10  31  1   
 22  10  32  1   
 23  11  17  1   
 24  11  18  1   
 25  11  33  1   
 26  12  13  ar  
 27  12  19  ar  
 28  13  20  ar  
 29  14  34  1   
 30  14  35  1   
 31  14  36  1   
 32  15  17  1   
 33  16  18  1   
 34  16  21  1   
 35  16  37  1   
 36  17  38  1   
 37  17  39  1   
 38  18  40  1   
 39  18  41  1   
 40  19  22  ar  
 41  19  42  1   
 42  20  23  ar  
 43  20  43  1   
 44  21  44  1   
 45  21  45  1   
 46  21  46  1   
 47  22  23  ar  
 48  22  24  1   
 49  23  47  1   
 50  24  25  1   
 51  25  48  1   
 52  25  49  1   
 53  25  50  1   
@<TRIPOS>SUBSTRUCTURE
  1 ****   7 GROUP 4 **** **** 0

# MOE 2024.06 (io_trps.svl 2023.06)
