@<TRIPOS>MOLECULE
NONAME
46 49 1 0 0 
SMALL
USER_CHARGES


@<TRIPOS>ATOM
  1 O        0.6830     0.1150     1.3230 O.3   1 <1>  -0.3630 
  2 C        1.3950    -0.9200     0.8680 C.ar  1 <1>   0.0820 
  3 C        1.2120     1.2820     0.6920 C.3   1 <1>   0.4000 
  4 C        2.3330    -0.4930    -0.0210 C.ar  1 <1>   0.0820 
  5 C        1.2680    -2.2520     1.1950 C.ar  1 <1>  -0.1500 
  6 O        2.2560     0.8330    -0.1700 O.3   1 <1>  -0.3630 
  7 C        3.1990    -1.3770    -0.6300 C.ar  1 <1>  -0.1500 
  8 C        2.1200    -3.1690     0.5840 C.ar  1 <1>  -0.1440 
  9 C        3.0950    -2.7300    -0.3230 C.ar  1 <1>  -0.1430 
 10 C        1.9550    -4.6380     0.9200 C.3   1 <1>   0.4870 
 11 C        4.0750    -3.6890    -0.9900 C.3   1 <1>  -0.0960 
 12 N        1.1470    -5.2650    -0.1600 N.4   1 <1>  -0.9590 
 13 C       -0.2640    -4.7640    -0.2080 C.3   1 <1>   0.3430 
 14 C        1.1100    -6.7570    -0.0800 C.3   1 <1>   0.3430 
 15 C       -1.1200    -5.9840    -0.5460 C.3   1 <1>   0.2000 
 16 C       -0.3610    -7.1660     0.0440 C.3   1 <1>  -0.0800 
 17 O       -2.3900    -5.9020     0.0020 O.3   1 <1>  -0.6800 
 18 C       -0.6930    -8.4990    -0.6550 C.3   1 <1>  -0.0170 
 19 C        0.0480    -9.6760    -0.0350 C.ar  1 <1>   0.1670 
 20 N        1.3710    -9.6490    -0.1140 N.ar  1 <1>  -0.6200 
 21 C       -0.6660   -10.7100     0.5690 C.ar  1 <1>   0.1600 
 22 C        1.9220   -10.7240     0.4320 C.ar  1 <1>   0.1600 
 23 N       -0.1140   -11.7720     1.1290 N.ar  1 <1>  -0.6200 
 24 C        1.2040   -11.7500     1.0350 C.ar  1 <1>   0.1600 
 25 H        0.4430     1.7600     0.1110 H     1 <1>   0.0800 
 26 H        1.6180     1.9430     1.4370 H     1 <1>   0.0800 
 27 H        0.5170    -2.5380     1.9110 H     1 <1>   0.1500 
 28 H        3.9310    -0.9980    -1.3220 H     1 <1>   0.1500 
 29 H        1.4620    -4.7480     1.8720 H     1 <1>   0.0800 
 30 H        2.9240    -5.1040     0.9810 H     1 <1>   0.0800 
 31 H        4.8280    -3.1430    -1.5320 H     1 <1>   0.0800 
 32 H        3.5680    -4.3290    -1.6880 H     1 <1>   0.0800 
 33 H        4.5810    -4.2880    -0.2540 H     1 <1>   0.0800 
 34 H        1.6010    -4.9890    -1.0410 H     1 <1>   0.4500 
 35 H       -0.5520    -4.3860     0.7580 H     1 <1>   0.0800 
 36 H       -0.3780    -3.9880    -0.9470 H     1 <1>   0.0800 
 37 H        1.5240    -7.1800    -0.9820 H     1 <1>   0.0800 
 38 H        1.6760    -7.1320     0.7590 H     1 <1>   0.0800 
 39 H       -1.2210    -6.0690    -1.6150 H     1 <1>   0.0800 
 40 H       -0.5820    -7.2530     1.0940 H     1 <1>   0.0800 
 41 H       -2.3970    -5.9940     0.9760 H     1 <1>   0.4000 
 42 H       -0.4340    -8.4460    -1.6980 H     1 <1>   0.0800 
 43 H       -1.7540    -8.6710    -0.5980 H     1 <1>   0.0800 
 44 H       -1.7410   -10.6630     0.5930 H     1 <1>   0.1500 
 45 H        2.9950   -10.8020     0.4030 H     1 <1>   0.1500 
 46 H        1.7400   -12.5830     1.4540 H     1 <1>   0.1500 
@<TRIPOS>BOND
  1   1   2  1   
  2   1   3  1   
  3   2   4  ar  
  4   2   5  ar  
  5   3   6  1   
  6   3  25  1   
  7   3  26  1   
  8   4   6  1   
  9   4   7  ar  
 10   5   8  ar  
 11   5  27  1   
 12   7   9  ar  
 13   7  28  1   
 14   8   9  ar  
 15   8  10  1   
 16   9  11  1   
 17  10  12  1   
 18  10  29  1   
 19  10  30  1   
 20  11  31  1   
 21  11  32  1   
 22  11  33  1   
 23  12  13  1   
 24  12  14  1   
 25  12  34  1   
 26  13  15  1   
 27  13  35  1   
 28  13  36  1   
 29  14  16  1   
 30  14  37  1   
 31  14  38  1   
 32  15  16  1   
 33  15  17  1   
 34  15  39  1   
 35  16  18  1   
 36  16  40  1   
 37  17  41  1   
 38  18  19  1   
 39  18  42  1   
 40  18  43  1   
 41  19  20  ar  
 42  19  21  ar  
 43  20  22  ar  
 44  21  23  ar  
 45  21  44  1   
 46  22  24  ar  
 47  22  45  1   
 48  23  24  ar  
 49  24  46  1   
@<TRIPOS>SUBSTRUCTURE
  1 ****  12 GROUP 4 **** **** 0

# MOE 2024.06 (io_trps.svl 2023.06)
