@<TRIPOS>MOLECULE
NONAME
63 67 1 0 0 
SMALL
USER_CHARGES


@<TRIPOS>ATOM
  1 O        3.1510    -1.8240     2.3610 O.2   1 <1>  -0.5700 
  2 C        2.2930    -2.0500     1.5240 C.2   1 <1>   0.5440 
  3 N        2.0080    -1.0330     0.6280 N.am  1 <1>  -0.6600 
  4 C        1.6580    -3.3710     1.5050 C.ar  1 <1>   0.3960 
  5 C        2.7440     0.2510     0.6150 C.3   1 <1>   0.1400 
  6 C        1.0890    -1.1220    -0.5310 C.3   1 <1>   0.1400 
  7 N        0.3880    -3.5350     1.0900 N.ar  1 <1>  -0.6200 
  8 C        2.4220    -4.4590     1.9430 C.ar  1 <1>   0.1600 
  9 C        2.5400     0.7980    -0.7920 C.3   1 <1>  -0.1600 
 10 C        1.1940     0.2300    -1.2310 C.3   1 <1>  -0.1600 
 11 C       -0.0290    -4.7810     1.1390 C.ar  1 <1>   0.4100 
 12 N        2.0200    -5.7230     1.9880 N.ar  1 <1>  -0.6200 
 13 N       -1.3260    -4.9310     0.7210 N.pl3 1 <1>  -0.8690 
 14 C        0.7780    -5.8460     1.5710 C.ar  1 <1>   0.1600 
 15 C       -2.2780    -5.8270     1.4290 C.3   1 <1>   0.2090 
 16 C       -2.6340    -7.0160     0.5400 C.3   1 <1>   0.1200 
 17 O       -3.4640    -7.8710     1.2730 O.3   1 <1>  -0.5600 
 18 C       -3.9990    -9.0090     0.6560 C.3   1 <1>   0.2800 
 19 C       -2.8990    -9.9290     0.0880 C.3   1 <1>  -0.1600 
 20 C       -4.7570    -9.7600     1.7640 C.3   1 <1>  -0.1600 
 21 C       -4.9940    -8.6220    -0.4570 C.3   1 <1>  -0.1600 
 22 C       -3.5330   -11.2080    -0.4980 C.3   1 <1>   0.0000 
 23 C       -5.4090   -11.0400     1.2060 C.3   1 <1>   0.0000 
 24 C       -5.6360    -9.8960    -1.0400 C.3   1 <1>  -0.0800 
 25 C       -4.3040   -11.9420     0.6200 C.3   1 <1>  -0.1600 
 26 C       -4.5310   -10.8080    -1.6070 C.3   1 <1>  -0.1600 
 27 C       -2.4430   -12.1220    -1.0730 C.3   1 <1>  -0.2400 
 28 C       -6.3840   -10.6460     0.0770 C.3   1 <1>  -0.1600 
 29 C       -6.1610   -11.7800     2.3190 C.3   1 <1>  -0.2400 
 30 H        3.7890     0.1050     0.8360 H     1 <1>   0.0800 
 31 H        2.3090     0.9090     1.3470 H     1 <1>   0.0800 
 32 H        0.0790    -1.3060    -0.2070 H     1 <1>   0.0800 
 33 H        1.4140    -1.9150    -1.1830 H     1 <1>   0.0800 
 34 H        3.4280    -4.2660     2.2740 H     1 <1>   0.1500 
 35 H        3.3220     0.4230    -1.4280 H     1 <1>   0.0800 
 36 H        2.5590     1.8740    -0.8090 H     1 <1>   0.0800 
 37 H        0.4000     0.8650    -0.8810 H     1 <1>   0.0800 
 38 H        1.1190     0.1330    -2.3000 H     1 <1>   0.0800 
 39 H       -1.7330    -4.0210     0.4860 H     1 <1>   0.4000 
 40 H        0.3550    -6.8320     1.5610 H     1 <1>   0.1500 
 41 H       -3.1730    -5.2790     1.6650 H     1 <1>   0.0800 
 42 H       -1.8420    -6.1820     2.3470 H     1 <1>   0.0800 
 43 H       -1.7390    -7.5440     0.2670 H     1 <1>   0.0800 
 44 H       -3.1530    -6.6710    -0.3350 H     1 <1>   0.0800 
 45 H       -2.2080   -10.1880     0.8710 H     1 <1>   0.0800 
 46 H       -2.3620    -9.4290    -0.6960 H     1 <1>   0.0800 
 47 H       -5.5140    -9.1160     2.1750 H     1 <1>   0.0800 
 48 H       -4.0710   -10.0160     2.5510 H     1 <1>   0.0800 
 49 H       -4.4920    -8.1040    -1.2530 H     1 <1>   0.0800 
 50 H       -5.7580    -7.9800    -0.0550 H     1 <1>   0.0800 
 51 H       -6.3260    -9.6310    -1.8230 H     1 <1>   0.0800 
 52 H       -3.6210   -12.2310     1.4000 H     1 <1>   0.0800 
 53 H       -4.7440   -12.8410     0.2240 H     1 <1>   0.0800 
 54 H       -4.9780   -11.6900    -2.0300 H     1 <1>   0.0800 
 55 H       -4.0130   -10.2960    -2.3990 H     1 <1>   0.0800 
 56 H       -1.7460   -12.4060    -0.3050 H     1 <1>   0.0800 
 57 H       -1.9030   -11.6180    -1.8550 H     1 <1>   0.0800 
 58 H       -2.8800   -13.0150    -1.4830 H     1 <1>   0.0800 
 59 H       -7.1670   -10.0200     0.4700 H     1 <1>   0.0800 
 60 H       -6.8470   -11.5280    -0.3300 H     1 <1>   0.0800 
 61 H       -5.4860   -12.0550     3.1100 H     1 <1>   0.0800 
 62 H       -6.6180   -12.6750     1.9350 H     1 <1>   0.0800 
 63 H       -6.9320   -11.1540     2.7330 H     1 <1>   0.0800 
@<TRIPOS>BOND
  1   1   2  2   
  2   2   3  am  
  3   2   4  1   
  4   3   5  1   
  5   3   6  1   
  6   4   7  ar  
  7   4   8  ar  
  8   5   9  1   
  9   5  30  1   
 10   5  31  1   
 11   6  10  1   
 12   6  32  1   
 13   6  33  1   
 14   7  11  ar  
 15   8  12  ar  
 16   8  34  1   
 17   9  10  1   
 18   9  35  1   
 19   9  36  1   
 20  10  37  1   
 21  10  38  1   
 22  11  13  1   
 23  11  14  ar  
 24  12  14  ar  
 25  13  15  1   
 26  13  39  1   
 27  14  40  1   
 28  15  16  1   
 29  15  41  1   
 30  15  42  1   
 31  16  17  1   
 32  16  43  1   
 33  16  44  1   
 34  17  18  1   
 35  18  19  1   
 36  18  20  1   
 37  18  21  1   
 38  19  22  1   
 39  19  45  1   
 40  19  46  1   
 41  20  23  1   
 42  20  47  1   
 43  20  48  1   
 44  21  24  1   
 45  21  49  1   
 46  21  50  1   
 47  22  25  1   
 48  22  26  1   
 49  22  27  1   
 50  23  25  1   
 51  23  28  1   
 52  23  29  1   
 53  24  26  1   
 54  24  28  1   
 55  24  51  1   
 56  25  52  1   
 57  25  53  1   
 58  26  54  1   
 59  26  55  1   
 60  27  56  1   
 61  27  57  1   
 62  27  58  1   
 63  28  59  1   
 64  28  60  1   
 65  29  61  1   
 66  29  62  1   
 67  29  63  1   
@<TRIPOS>SUBSTRUCTURE
  1 ****  15 GROUP 4 **** **** 0

# MOE 2024.06 (io_trps.svl 2023.06)
