@<TRIPOS>MOLECULE
NONAME
45 48 1 0 0 
SMALL
USER_CHARGES


@<TRIPOS>ATOM
  1 O       -3.9720    -0.4740    -1.8010 O.2   1 <1>  -0.5700 
  2 C       -3.1590    -1.0360    -1.1010 C.2   1 <1>   0.7800 
  3 O       -2.4540    -0.3930    -0.1830 O.3   1 <1>  -0.4300 
  4 N       -2.8900    -2.3550    -1.1040 N.am  1 <1>  -0.6600 
  5 C       -1.6150    -1.2880     0.5250 C.3   1 <1>   0.1200 
  6 C       -1.9190    -2.6750    -0.0560 C.3   1 <1>   0.1400 
  7 C       -3.6440    -3.4110    -1.8440 C.3   1 <1>   0.2010 
  8 C       -4.4350    -4.3420    -0.9190 C.2   1 <1>   0.5690 
  9 O       -3.8590    -5.3370    -0.5390 O.2   1 <1>  -0.5700 
 10 N       -5.7280    -4.0690    -0.5310 N.am  1 <1>  -0.6600 
 11 C       -6.5000    -2.8280    -0.8860 C.3   1 <1>   0.1400 
 12 C       -6.5130    -5.0610     0.2600 C.3   1 <1>   0.1400 
 13 C       -7.0970    -2.1440     0.3640 C.3   1 <1>   0.1430 
 14 C       -7.0610    -4.4090     1.5320 C.3   1 <1>  -0.1600 
 15 C       -7.9760    -0.9880    -0.0790 C.ar  1 <1>   0.1670 
 16 C       -7.8990    -3.1640     1.2010 C.3   1 <1>  -0.1600 
 17 C       -6.0000    -1.4390     1.2110 C.3   1 <1>  -0.1600 
 18 N       -9.1310    -1.1040    -0.6940 N.ar  1 <1>  -0.6200 
 19 C       -7.4210     0.2180     0.2310 C.ar  1 <1>  -0.1440 
 20 C       -6.0900     0.0710     0.9210 C.3   1 <1>  -0.0170 
 21 C       -9.7180     0.0520    -0.9620 C.ar  1 <1>   0.7200 
 22 C       -8.1150     1.3520    -0.1170 C.ar  1 <1>   0.1600 
 23 N       -9.2810     1.2800    -0.7210 N.ar  1 <1>  -0.6200 
 24 N      -10.8970    -0.0280    -1.5820 N.pl3 1 <1>  -0.9000 
 25 H       -1.8510    -1.2330     1.5730 H     1 <1>   0.0800 
 26 H       -0.5900    -1.0050     0.3590 H     1 <1>   0.0800 
 27 H       -1.0380    -3.1310    -0.4730 H     1 <1>   0.0800 
 28 H       -2.3520    -3.3220     0.6880 H     1 <1>   0.0800 
 29 H       -2.9420    -4.0070    -2.3960 H     1 <1>   0.0800 
 30 H       -4.3050    -2.9560    -2.5570 H     1 <1>   0.0800 
 31 H       -7.3050    -3.1060    -1.5450 H     1 <1>   0.0800 
 32 H       -5.8870    -2.1180    -1.4070 H     1 <1>   0.0800 
 33 H       -5.9050    -5.9080     0.5280 H     1 <1>   0.0800 
 34 H       -7.3280    -5.4200    -0.3450 H     1 <1>   0.0800 
 35 H       -6.2380    -4.1500     2.1750 H     1 <1>   0.0800 
 36 H       -7.6720    -5.1220     2.0570 H     1 <1>   0.0800 
 37 H       -8.7640    -3.4720     0.6390 H     1 <1>   0.0800 
 38 H       -8.2540    -2.7030     2.1060 H     1 <1>   0.0800 
 39 H       -5.0180    -1.8210     0.9990 H     1 <1>   0.0800 
 40 H       -6.1960    -1.5890     2.2580 H     1 <1>   0.0800 
 41 H       -5.3030     0.3880     0.2590 H     1 <1>   0.0800 
 42 H       -6.0510     0.6480     1.8280 H     1 <1>   0.0800 
 43 H       -7.7100     2.3240     0.1020 H     1 <1>   0.1500 
 44 H      -11.1920     0.8230    -2.0520 H     1 <1>   0.4000 
 45 H      -11.0680    -0.9050    -2.0630 H     1 <1>   0.4000 
@<TRIPOS>BOND
  1   1   2  2   
  2   2   3  1   
  3   2   4  am  
  4   3   5  1   
  5   4   6  1   
  6   4   7  1   
  7   5   6  1   
  8   5  25  1   
  9   5  26  1   
 10   6  27  1   
 11   6  28  1   
 12   7   8  1   
 13   7  29  1   
 14   7  30  1   
 15   8   9  2   
 16   8  10  am  
 17  10  11  1   
 18  10  12  1   
 19  11  13  1   
 20  11  31  1   
 21  11  32  1   
 22  12  14  1   
 23  12  33  1   
 24  12  34  1   
 25  13  15  1   
 26  13  16  1   
 27  13  17  1   
 28  14  16  1   
 29  14  35  1   
 30  14  36  1   
 31  15  18  ar  
 32  15  19  ar  
 33  16  37  1   
 34  16  38  1   
 35  17  20  1   
 36  17  39  1   
 37  17  40  1   
 38  18  21  ar  
 39  19  20  1   
 40  19  22  ar  
 41  20  41  1   
 42  20  42  1   
 43  21  23  ar  
 44  21  24  1   
 45  22  23  ar  
 46  22  43  1   
 47  24  44  1   
 48  24  45  1   
@<TRIPOS>SUBSTRUCTURE
  1 ****  11 GROUP 4 **** **** 0

# MOE 2024.06 (io_trps.svl 2023.06)
