@<TRIPOS>MOLECULE
NONAME
36 38 1 0 0 
SMALL
USER_CHARGES


@<TRIPOS>ATOM
  1 O        0.6790    -0.0860    -1.7730 O.3   1 <1>  -0.0190 
  2 N        0.9980     1.1440    -1.5060 N.2   1 <1>  -0.4100 
  3 C        1.3270    -0.9350    -1.0240 C.2   1 <1>  -0.0400 
  4 C        1.8780     1.1050    -0.5510 C.2   1 <1>   0.2350 
  5 C        2.1250    -0.2320    -0.2100 C.2   1 <1>  -0.1500 
  6 C        1.0950    -2.4260    -1.1930 C.3   1 <1>   0.2900 
  7 C        2.4980     2.2700     0.0490 C.ar  1 <1>   0.0540 
  8 N        0.0970    -2.9430    -0.2340 N.3   1 <1>  -0.8100 
  9 C        2.3960     3.5320    -0.5190 C.ar  1 <1>  -0.1500 
 10 C        3.2350     2.2260     1.2250 C.ar  1 <1>  -0.1500 
 11 C        0.0210    -4.4140    -0.3170 C.3   1 <1>   0.1100 
 12 C       -1.2280    -2.3240    -0.4330 C.3   1 <1>   0.1100 
 13 C        3.0020     4.6230     0.0740 C.ar  1 <1>   0.1600 
 14 C        3.8040     3.3750     1.7400 C.ar  1 <1>   0.1600 
 15 C       -0.9180    -4.9790     0.7600 C.3   1 <1>   0.1200 
 16 C       -2.2090    -2.8180     0.6350 C.3   1 <1>  -0.1600 
 17 N        3.7080     4.5750     1.1920 N.ar  1 <1>  -0.6200 
 18 C       -0.9850    -6.4640     0.6360 C.1   1 <1>   0.3570 
 19 C       -2.3170    -4.3490     0.6420 C.3   1 <1>  -0.1600 
 20 N       -1.0260    -7.5950     0.5250 N.1   1 <1>  -0.5570 
 21 H        2.8030    -0.5920     0.5390 H     1 <1>   0.1500 
 22 H        2.0310    -2.9280    -1.0210 H     1 <1>   0.0800 
 23 H        0.7850    -2.6310    -2.2030 H     1 <1>   0.0800 
 24 H        1.8400     3.6640    -1.4300 H     1 <1>   0.1500 
 25 H        3.3670     1.3000     1.7500 H     1 <1>   0.1500 
 26 H        1.0030    -4.8320    -0.1730 H     1 <1>   0.0800 
 27 H       -0.3310    -4.7050    -1.2930 H     1 <1>   0.0800 
 28 H       -1.6020    -2.5620    -1.4160 H     1 <1>   0.0800 
 29 H       -1.1520    -1.2530    -0.3510 H     1 <1>   0.0800 
 30 H        2.9030     5.5870    -0.3950 H     1 <1>   0.1500 
 31 H        4.3690     3.3080     2.6540 H     1 <1>   0.1500 
 32 H       -0.5040    -4.7480     1.7240 H     1 <1>   0.0800 
 33 H       -3.1780    -2.3870     0.4530 H     1 <1>   0.0800 
 34 H       -1.8730    -2.4690     1.5970 H     1 <1>   0.0800 
 35 H       -2.9350    -4.6680     1.4640 H     1 <1>   0.0800 
 36 H       -2.7830    -4.6730    -0.2720 H     1 <1>   0.0800 
@<TRIPOS>BOND
  1   1   2  1   
  2   1   3  1   
  3   2   4  2   
  4   3   5  2   
  5   3   6  1   
  6   4   5  1   
  7   4   7  1   
  8   5  21  1   
  9   6   8  1   
 10   6  22  1   
 11   6  23  1   
 12   7   9  ar  
 13   7  10  ar  
 14   8  11  1   
 15   8  12  1   
 16   9  13  ar  
 17   9  24  1   
 18  10  14  ar  
 19  10  25  1   
 20  11  15  1   
 21  11  26  1   
 22  11  27  1   
 23  12  16  1   
 24  12  28  1   
 25  12  29  1   
 26  13  17  ar  
 27  13  30  1   
 28  14  17  ar  
 29  14  31  1   
 30  15  18  1   
 31  15  19  1   
 32  15  32  1   
 33  16  19  1   
 34  16  33  1   
 35  16  34  1   
 36  18  20  3   
 37  19  35  1   
 38  19  36  1   
@<TRIPOS>SUBSTRUCTURE
  1 ****   3 GROUP 4 **** **** 0

# MOE 2024.06 (io_trps.svl 2023.06)
