@<TRIPOS>MOLECULE
Untitled Document
60 63 1 0 0 
SMALL
USER_CHARGES


@<TRIPOS>ATOM
  1 F        1.4950     0.4190     1.9280 F     1 <1>  -0.1900 
  2 C        2.0420    -0.6150     1.3460 C.ar  1 <1>   0.1900 
  3 C        3.4080    -0.6090     1.1340 C.ar  1 <1>  -0.1500 
  4 C        1.2220    -1.6700     0.9680 C.ar  1 <1>  -0.1500 
  5 C        3.9810    -1.7160     0.5130 C.ar  1 <1>   0.0280 
  6 C        1.7920    -2.7710     0.3500 C.ar  1 <1>  -0.1500 
  7 C        3.1630    -2.7750     0.1330 C.ar  1 <1>   0.1170 
  8 C        5.3420    -2.0270     0.1500 C.2   1 <1>  -0.0140 
  9 N        3.9500    -3.7420    -0.4550 N.am  1 <1>  -0.5470 
 10 C        5.2430    -3.3330    -0.4600 C.2   1 <1>   0.6160 
 11 C        6.4110    -1.2040     0.3750 C.2   1 <1>  -0.1050 
 12 O        6.1180    -4.0370    -0.9300 O.2   1 <1>  -0.5700 
 13 C        7.8040    -1.3550     0.0830 C.2   1 <1>  -0.1970 
 14 N        8.3380    -2.4680    -0.5000 N.pl3 1 <1>   0.0330 
 15 C        8.8490    -0.4930     0.3090 C.2   1 <1>  -0.1810 
 16 C        9.6700    -2.3190    -0.6280 C.2   1 <1>  -0.3320 
 17 C       10.0440    -1.0850    -0.1410 C.2   1 <1>  -0.0860 
 18 C        8.7840     0.8910     0.9380 C.3   1 <1>  -0.0590 
 19 C       10.5150    -3.4390    -1.2120 C.3   1 <1>  -0.0600 
 20 C       11.3610    -0.4850    -0.1030 C.2   1 <1>   0.7160 
 21 O       11.7550     0.1880     0.8320 O.2   1 <1>  -0.5700 
 22 N       12.2060    -0.6660    -1.1580 N.am  1 <1>  -0.7300 
 23 C       13.4910     0.0450    -1.4030 C.3   1 <1>   0.1400 
 24 C       14.6200    -0.4700    -0.4860 C.3   1 <1>   0.2000 
 25 O       14.3890    -0.0660     0.8290 O.3   1 <1>  -0.6800 
 26 C       16.0100     0.0530    -0.9100 C.3   1 <1>   0.3430 
 27 N       16.9640     0.0250     0.2420 N.4   1 <1>  -0.9590 
 28 C       18.0990     1.0030     0.1460 C.3   1 <1>   0.3430 
 29 C       17.4240    -1.3420     0.6490 C.3   1 <1>   0.3430 
 30 C       19.1500     0.7860     1.2580 C.3   1 <1>   0.1200 
 31 C       18.2670    -1.2900     1.9460 C.3   1 <1>   0.1200 
 32 O       18.6180     0.0220     2.3020 O.3   1 <1>  -0.5600 
 33 H        4.0000     0.2310     1.4450 H     1 <1>   0.1500 
 34 H        0.1640    -1.6200     1.1580 H     1 <1>   0.1500 
 35 H        1.1900    -3.6070     0.0420 H     1 <1>   0.1500 
 36 H        3.6600    -4.6420    -0.8380 H     1 <1>   0.3700 
 37 H        6.1940    -0.2730     0.8590 H     1 <1>   0.1500 
 38 H        7.7770    -3.2900    -0.7750 H     1 <1>   0.2700 
 39 H        9.3190     1.5960     0.3280 H     1 <1>   0.0800 
 40 H        9.2400     0.8650     1.9120 H     1 <1>   0.0800 
 41 H        7.7740     1.2350     1.0400 H     1 <1>   0.0800 
 42 H       11.5590    -3.2820    -1.0160 H     1 <1>   0.0800 
 43 H       10.3600    -3.5040    -2.2750 H     1 <1>   0.0800 
 44 H       10.2330    -4.3770    -0.7670 H     1 <1>   0.0800 
 45 H       11.7780    -1.1390    -1.9580 H     1 <1>   0.3700 
 46 H       13.7660    -0.1100    -2.4320 H     1 <1>   0.0800 
 47 H       13.3510     1.1030    -1.2520 H     1 <1>   0.0800 
 48 H       14.6210    -1.5460    -0.5030 H     1 <1>   0.0800 
 49 H       13.4020    -0.0160     0.9920 H     1 <1>   0.4000 
 50 H       15.8930     1.0710    -1.2430 H     1 <1>   0.0800 
 51 H       16.3910    -0.5240    -1.7370 H     1 <1>   0.0800 
 52 H       16.3800     0.3310     1.0480 H     1 <1>   0.4500 
 53 H       18.5860     0.9170    -0.8110 H     1 <1>   0.0800 
 54 H       17.7140     2.0060     0.2260 H     1 <1>   0.0800 
 55 H       16.5750    -1.9860     0.8120 H     1 <1>   0.0800 
 56 H       18.0200    -1.7750    -0.1370 H     1 <1>   0.0800 
 57 H       19.4640     1.7320     1.6630 H     1 <1>   0.0800 
 58 H       20.0190     0.2800     0.8710 H     1 <1>   0.0800 
 59 H       19.1680    -1.8680     1.8350 H     1 <1>   0.0800 
 60 H       17.7030    -1.7030     2.7650 H     1 <1>   0.0800 
@<TRIPOS>BOND
  1   1   2  1   
  2   2   3  ar  
  3   2   4  ar  
  4   3   5  ar  
  5   3  33  1   
  6   4   6  ar  
  7   4  34  1   
  8   5   7  ar  
  9   5   8  1   
 10   6   7  ar  
 11   6  35  1   
 12   7   9  1   
 13   8  10  1   
 14   8  11  2   
 15   9  10  am  
 16   9  36  1   
 17  10  12  2   
 18  11  13  1   
 19  11  37  1   
 20  13  14  1   
 21  13  15  2   
 22  14  16  1   
 23  14  38  1   
 24  15  17  1   
 25  15  18  1   
 26  16  17  2   
 27  16  19  1   
 28  17  20  1   
 29  18  39  1   
 30  18  40  1   
 31  18  41  1   
 32  19  42  1   
 33  19  43  1   
 34  19  44  1   
 35  20  21  2   
 36  20  22  am  
 37  22  23  1   
 38  22  45  1   
 39  23  24  1   
 40  23  46  1   
 41  23  47  1   
 42  24  25  1   
 43  24  26  1   
 44  24  48  1   
 45  25  49  1   
 46  26  27  1   
 47  26  50  1   
 48  26  51  1   
 49  27  28  1   
 50  27  29  1   
 51  27  52  1   
 52  28  30  1   
 53  28  53  1   
 54  28  54  1   
 55  29  31  1   
 56  29  55  1   
 57  29  56  1   
 58  30  32  1   
 59  30  57  1   
 60  30  58  1   
 61  31  32  1   
 62  31  59  1   
 63  31  60  1   
@<TRIPOS>SUBSTRUCTURE
  1 ****  17 GROUP 4 **** **** 0

# MOE 2024.06 (io_trps.svl 2023.06)
