@<TRIPOS>MOLECULE
NONAME
52 54 1 0 0 
SMALL
USER_CHARGES


@<TRIPOS>ATOM
  1 S       -2.5700    -1.0880     0.4730 S.3   1 <1>  -0.0800 
  2 C       -2.5800    -1.5300    -1.2040 C.2   1 <1>   0.4420 
  3 C       -1.6270     0.2900     0.0250 C.2   1 <1>   0.1980 
  4 N       -1.9340    -0.6890    -1.9280 N.2   1 <1>  -0.3380 
  5 N       -3.2490    -2.6840    -1.5330 N.am  1 <1>  -0.4940 
  6 N       -1.3930     0.3470    -1.2210 N.2   1 <1>  -0.3380 
  7 C       -1.1890     1.2530     1.1050 C.3   1 <1>   0.0200 
  8 C       -3.3920    -3.3200    -2.7330 C.2   1 <1>   0.5690 
  9 C       -0.3350     2.3540     0.4650 C.3   1 <1>   0.3430 
 10 O       -2.9370    -2.9060    -3.7690 O.2   1 <1>  -0.5700 
 11 C       -4.1580    -4.6330    -2.7530 C.3   1 <1>   0.0820 
 12 N        0.2060     3.3360     1.4630 N.4   1 <1>  -0.9590 
 13 C       -4.6630    -5.0210    -1.3640 C.2   1 <1>  -0.1810 
 14 C       -0.8660     4.1930     2.0660 C.3   1 <1>   0.2630 
 15 C        1.2360     4.2000     0.8050 C.3   1 <1>   0.2630 
 16 C       -3.8550    -5.5210    -0.3030 C.ar  1 <1>   0.0000 
 17 C       -5.9330    -4.8970    -0.9050 C.2   1 <1>  -0.3320 
 18 C       -2.4960    -5.8600    -0.1350 C.ar  1 <1>  -0.1430 
 19 C       -4.7150    -5.6560     0.7860 C.ar  1 <1>  -0.1520 
 20 N       -5.9760    -5.2950     0.3970 N.pl3 1 <1>   0.0330 
 21 C       -7.1950    -4.4000    -1.5920 C.3   1 <1>  -0.0600 
 22 C       -2.0650    -6.2870     1.1020 C.ar  1 <1>  -0.1500 
 23 C       -1.4870    -5.7910    -1.2720 C.3   1 <1>  -0.0970 
 24 C       -4.2730    -6.0910     2.0390 C.ar  1 <1>  -0.1430 
 25 C       -2.9420    -6.4000     2.1830 C.ar  1 <1>  -0.1500 
 26 C       -5.2430    -6.2180     3.2010 C.3   1 <1>  -0.0970 
 27 H       -3.6700    -3.1960    -0.7520 H     1 <1>   0.3700 
 28 H       -0.6150     0.7130     1.8360 H     1 <1>   0.0800 
 29 H       -2.0660     1.6680     1.5660 H     1 <1>   0.0800 
 30 H       -0.9250     2.8710    -0.2760 H     1 <1>   0.0800 
 31 H        0.4850     1.8810    -0.0520 H     1 <1>   0.0800 
 32 H       -3.5310    -5.4060    -3.1500 H     1 <1>   0.0800 
 33 H       -4.9810    -4.5240    -3.4320 H     1 <1>   0.0800 
 34 H        0.6770     2.8130     2.2190 H     1 <1>   0.4500 
 35 H       -1.3840     4.7430     1.2960 H     1 <1>   0.0800 
 36 H       -0.4350     4.8980     2.7600 H     1 <1>   0.0800 
 37 H       -1.5810     3.5880     2.5990 H     1 <1>   0.0800 
 38 H        0.7940     4.7660     0.0010 H     1 <1>   0.0800 
 39 H        2.0310     3.5930     0.4000 H     1 <1>   0.0800 
 40 H        1.6610     4.8880     1.5180 H     1 <1>   0.0800 
 41 H       -6.8020    -5.3240     1.0020 H     1 <1>   0.2700 
 42 H       -6.9950    -4.0640    -2.5920 H     1 <1>   0.0800 
 43 H       -7.6150    -3.5770    -1.0410 H     1 <1>   0.0800 
 44 H       -7.9220    -5.1910    -1.6410 H     1 <1>   0.0800 
 45 H       -1.0340    -6.5500     1.2610 H     1 <1>   0.1500 
 46 H       -1.8050    -6.4140    -2.0870 H     1 <1>   0.0800 
 47 H       -0.5240    -6.1440    -0.9500 H     1 <1>   0.0800 
 48 H       -1.3660    -4.7810    -1.6150 H     1 <1>   0.0800 
 49 H       -2.5550    -6.7380     3.1280 H     1 <1>   0.1500 
 50 H       -6.0190    -6.9190     2.9540 H     1 <1>   0.0800 
 51 H       -5.6840    -5.2620     3.4160 H     1 <1>   0.0800 
 52 H       -4.7370    -6.5660     4.0830 H     1 <1>   0.0800 
@<TRIPOS>BOND
  1   1   2  1   
  2   1   3  1   
  3   2   4  2   
  4   2   5  1   
  5   3   6  2   
  6   3   7  1   
  7   4   6  1   
  8   5   8  am  
  9   5  27  1   
 10   7   9  1   
 11   7  28  1   
 12   7  29  1   
 13   8  10  2   
 14   8  11  1   
 15   9  12  1   
 16   9  30  1   
 17   9  31  1   
 18  11  13  1   
 19  11  32  1   
 20  11  33  1   
 21  12  14  1   
 22  12  15  1   
 23  12  34  1   
 24  13  16  1   
 25  13  17  2   
 26  14  35  1   
 27  14  36  1   
 28  14  37  1   
 29  15  38  1   
 30  15  39  1   
 31  15  40  1   
 32  16  18  ar  
 33  16  19  ar  
 34  17  20  1   
 35  17  21  1   
 36  18  22  ar  
 37  18  23  1   
 38  19  20  1   
 39  19  24  ar  
 40  20  41  1   
 41  21  42  1   
 42  21  43  1   
 43  21  44  1   
 44  22  25  ar  
 45  22  45  1   
 46  23  46  1   
 47  23  47  1   
 48  23  48  1   
 49  24  25  ar  
 50  24  26  1   
 51  25  49  1   
 52  26  50  1   
 53  26  51  1   
 54  26  52  1   
@<TRIPOS>SUBSTRUCTURE
  1 ****   5 GROUP 4 **** **** 0

# MOE 2024.06 (io_trps.svl 2023.06)
