@<TRIPOS>MOLECULE
NONAME
42 44 1 0 0 
SMALL
USER_CHARGES


@<TRIPOS>ATOM
  1 S       -0.3310     0.8940     0.7140 S.o2  1 <1>   1.4470 
  2 O       -1.3800     1.6980     0.1350 O.2   1 <1>  -0.6500 
  3 O       -0.5980     0.1200     1.9050 O.2   1 <1>  -0.6500 
  4 N        0.8180     2.0310     1.1490 N.am  1 <1>  -0.9140 
  5 C        0.5100    -0.1290    -0.5410 C.ar  1 <1>  -0.0090 
  6 C        0.5240     2.6460     2.4610 C.3   1 <1>   0.2570 
  7 C        0.9850     0.3760    -1.7620 C.ar  1 <1>  -0.1430 
  8 C        0.7000    -1.4850    -0.2710 C.ar  1 <1>  -0.1500 
  9 C        1.4090     3.8640     2.7460 C.2   1 <1>   0.5690 
 10 C        1.6240    -0.4640    -2.6650 C.ar  1 <1>  -0.1500 
 11 C        0.8300     1.8410    -2.1580 C.3   1 <1>  -0.0960 
 12 C        1.3350    -2.3290    -1.1660 C.ar  1 <1>  -0.1500 
 13 O        0.9930     4.7660     3.4310 O.2   1 <1>  -0.5700 
 14 N        2.6300     3.9130     2.1610 N.am  1 <1>  -0.7300 
 15 C        1.7870    -1.7970    -2.3530 C.ar  1 <1>   0.1900 
 16 C        3.4200     5.1540     1.9500 C.3   1 <1>   0.3210 
 17 F        2.3880    -2.5790    -3.2080 F     1 <1>  -0.1900 
 18 C        3.6190     5.4380     0.4590 C.2   1 <1>   0.3350 
 19 N        3.1520     4.7380    -0.5030 N.2   1 <1>  -0.4100 
 20 N        4.3310     6.4800     0.0520 N.2   1 <1>  -0.5650 
 21 O        3.5390     5.3010    -1.6080 O.3   1 <1>  -0.0190 
 22 C        4.2380     6.3350    -1.2100 C.2   1 <1>   0.3930 
 23 C        4.8570     7.2390    -2.2650 C.3   1 <1>  -0.0150 
 24 C        5.1150     8.6930    -2.0040 C.3   1 <1>  -0.2000 
 25 C        4.0300     8.2820    -2.9540 C.3   1 <1>  -0.2000 
 26 H        0.6770     2.7680     0.4580 H     1 <1>   0.4200 
 27 H        0.6760     1.9240     3.2440 H     1 <1>   0.0800 
 28 H       -0.5050     2.9650     2.4950 H     1 <1>   0.0800 
 29 H        0.3450    -1.8950     0.6610 H     1 <1>   0.1500 
 30 H        1.9970    -0.1010    -3.6060 H     1 <1>   0.1500 
 31 H       -0.1980     2.1480    -2.0970 H     1 <1>   0.0800 
 32 H        1.1530     2.0010    -3.1710 H     1 <1>   0.0800 
 33 H        1.4310     2.4680    -1.5240 H     1 <1>   0.0800 
 34 H        1.4770    -3.3730    -0.9500 H     1 <1>   0.1500 
 35 H        2.8730     3.1450     1.5270 H     1 <1>   0.3700 
 36 H        4.3820     5.0440     2.4170 H     1 <1>   0.0800 
 37 H        2.9200     5.9930     2.4010 H     1 <1>   0.0800 
 38 H        5.5850     6.7140    -2.8580 H     1 <1>   0.1000 
 39 H        6.0130     9.1360    -2.3970 H     1 <1>   0.1000 
 40 H        4.8390     9.0990    -1.0450 H     1 <1>   0.1000 
 41 H        3.0060     8.4170    -2.6500 H     1 <1>   0.1000 
 42 H        4.1730     8.4420    -4.0080 H     1 <1>   0.1000 
@<TRIPOS>BOND
  1   1   2  2   
  2   1   3  2   
  3   1   4  am  
  4   1   5  1   
  5   4   6  1   
  6   4  26  1   
  7   5   7  ar  
  8   5   8  ar  
  9   6   9  1   
 10   6  27  1   
 11   6  28  1   
 12   7  10  ar  
 13   7  11  1   
 14   8  12  ar  
 15   8  29  1   
 16   9  13  2   
 17   9  14  am  
 18  10  15  ar  
 19  10  30  1   
 20  11  31  1   
 21  11  32  1   
 22  11  33  1   
 23  12  15  ar  
 24  12  34  1   
 25  14  16  1   
 26  14  35  1   
 27  15  17  1   
 28  16  18  1   
 29  16  36  1   
 30  16  37  1   
 31  18  19  2   
 32  18  20  1   
 33  19  21  1   
 34  20  22  2   
 35  21  22  1   
 36  22  23  1   
 37  23  24  1   
 38  23  25  1   
 39  23  38  1   
 40  24  25  1   
 41  24  39  1   
 42  24  40  1   
 43  25  41  1   
 44  25  42  1   
@<TRIPOS>SUBSTRUCTURE
  1 ****   4 GROUP 4 **** **** 0

# MOE 2024.06 (io_trps.svl 2023.06)
