@<TRIPOS>MOLECULE
NONAME
45 47 1 0 0 
SMALL
USER_CHARGES


@<TRIPOS>ATOM
  1 O       -0.0690     1.1400    -0.0890 O.2   1 <1>  -0.5700 
  2 C       -0.0870     2.3360     0.0500 C.2   1 <1>   0.5690 
  3 N       -1.1340     2.9470     0.6450 N.am  1 <1>  -0.7300 
  4 C        1.0640     3.1930    -0.4740 C.3   1 <1>   0.1810 
  5 C       -1.2500     4.4170     0.8190 C.3   1 <1>   0.3640 
  6 O        1.1470     4.4320     0.1910 O.3   1 <1>  -0.5600 
  7 C       -2.5770     4.8530     0.2070 C.ar  1 <1>  -0.1440 
  8 C       -0.0540     5.1980     0.1980 C.3   1 <1>   0.2610 
  9 C       -2.9610     4.4210    -1.0580 C.ar  1 <1>   0.1600 
 10 C       -3.4280     5.6960     0.8970 C.ar  1 <1>  -0.1500 
 11 C        0.1780     6.5190     0.9470 C.2   1 <1>   0.5690 
 12 N       -4.0840     4.7570    -1.6700 N.ar  1 <1>  -0.6200 
 13 C       -4.6040     6.0540     0.2750 C.ar  1 <1>  -0.1500 
 14 O       -0.7610     7.1860     1.3130 O.2   1 <1>  -0.5700 
 15 N        1.4500     6.9230     1.1890 N.am  1 <1>  -0.7300 
 16 C       -4.8790     5.5650    -0.9890 C.ar  1 <1>   0.1600 
 17 C        1.8520     8.1970     1.8120 C.3   1 <1>   0.3200 
 18 C        2.9910     8.7970     1.0160 C.2   1 <1>  -0.0400 
 19 O        4.1430     8.1830     0.9670 O.3   1 <1>  -0.0190 
 20 C        3.0890     9.9180     0.2850 C.2   1 <1>  -0.1500 
 21 N        5.0070     8.8320     0.2410 N.2   1 <1>  -0.4100 
 22 C        4.4000     9.8830    -0.1840 C.2   1 <1>   0.1080 
 23 C        5.0350    10.9350    -1.0740 C.3   1 <1>   0.0210 
 24 C        5.4370    12.1740    -0.2620 C.3   1 <1>  -0.1600 
 25 C        6.0840    13.2440    -1.1480 C.3   1 <1>  -0.2400 
 26 H       -1.9080     2.3690     0.9780 H     1 <1>   0.3700 
 27 H        0.9350     3.3740    -1.5250 H     1 <1>   0.0800 
 28 H        1.9930     2.6740    -0.3200 H     1 <1>   0.0800 
 29 H       -1.2720     4.6180     1.8770 H     1 <1>   0.0800 
 30 H       -0.2820     5.4410    -0.8240 H     1 <1>   0.0800 
 31 H       -2.3100     3.7580    -1.6020 H     1 <1>   0.1500 
 32 H       -3.1860     6.0730     1.8770 H     1 <1>   0.1500 
 33 H       -5.3020     6.7100     0.7640 H     1 <1>   0.1500 
 34 H        2.2190     6.3170     0.8820 H     1 <1>   0.3700 
 35 H       -5.8010     5.8540    -1.4660 H     1 <1>   0.1500 
 36 H        1.0190     8.8790     1.8280 H     1 <1>   0.0800 
 37 H        2.1710     8.0180     2.8240 H     1 <1>   0.0800 
 38 H        2.3570    10.6780     0.0840 H     1 <1>   0.1500 
 39 H        5.9050    10.5120    -1.5450 H     1 <1>   0.0800 
 40 H        4.3380    11.2100    -1.8450 H     1 <1>   0.0800 
 41 H        4.5670    12.5860     0.2190 H     1 <1>   0.0800 
 42 H        6.1320    11.8790     0.5070 H     1 <1>   0.0800 
 43 H        5.3990    13.5690    -1.9110 H     1 <1>   0.0800 
 44 H        6.9710    12.8580    -1.6180 H     1 <1>   0.0800 
 45 H        6.3590    14.0970    -0.5510 H     1 <1>   0.0800 
@<TRIPOS>BOND
  1   1   2  2   
  2   2   3  am  
  3   2   4  1   
  4   3   5  1   
  5   3  26  1   
  6   4   6  1   
  7   4  27  1   
  8   4  28  1   
  9   5   7  1   
 10   5   8  1   
 11   5  29  1   
 12   6   8  1   
 13   7   9  ar  
 14   7  10  ar  
 15   8  11  1   
 16   8  30  1   
 17   9  12  ar  
 18   9  31  1   
 19  10  13  ar  
 20  10  32  1   
 21  11  14  2   
 22  11  15  am  
 23  12  16  ar  
 24  13  16  ar  
 25  13  33  1   
 26  15  17  1   
 27  15  34  1   
 28  16  35  1   
 29  17  18  1   
 30  17  36  1   
 31  17  37  1   
 32  18  19  1   
 33  18  20  2   
 34  19  21  1   
 35  20  22  1   
 36  20  38  1   
 37  21  22  2   
 38  22  23  1   
 39  23  24  1   
 40  23  39  1   
 41  23  40  1   
 42  24  25  1   
 43  24  41  1   
 44  24  42  1   
 45  25  43  1   
 46  25  44  1   
 47  25  45  1   
@<TRIPOS>SUBSTRUCTURE
  1 ****  11 GROUP 4 **** **** 0

# MOE 2024.06 (io_trps.svl 2023.06)
