@<TRIPOS>MOLECULE
NONAME
51 53 1 0 0 
SMALL
USER_CHARGES


@<TRIPOS>ATOM
  1 O        1.3760    -0.5090     1.2130 O.2   1 <1>  -0.5700 
  2 C        1.3440    -1.4090     0.4030 C.2   1 <1>   0.5690 
  3 N        2.4920    -1.8550    -0.2010 N.am  1 <1>  -0.6600 
  4 C       -0.0150    -2.0460     0.0810 C.3   1 <1>  -0.0190 
  5 C        3.8140    -1.2380     0.0130 C.3   1 <1>   0.2810 
  6 C        2.6410    -3.1550    -0.8410 C.3   1 <1>   0.1400 
  7 C       -1.1110    -0.9860    -0.1530 C.3   1 <1>  -0.1600 
  8 C       -0.4440    -3.0210     1.1950 C.3   1 <1>  -0.1600 
  9 C        3.9950     0.2360    -0.4690 C.2   1 <1>   0.5690 
 10 C        4.7980    -2.2130    -0.6570 C.3   1 <1>  -0.1600 
 11 C        4.0850    -3.5600    -0.5630 C.3   1 <1>  -0.1600 
 12 C       -2.4650    -1.6360    -0.4690 C.3   1 <1>  -0.1600 
 13 C       -1.8000    -3.6720     0.8840 C.3   1 <1>  -0.1600 
 14 O        4.8650     0.5410    -1.2870 O.2   1 <1>  -0.5700 
 15 N        3.1930     1.1990     0.0540 N.am  1 <1>  -0.7300 
 16 C       -2.8810    -2.6130     0.6390 C.3   1 <1>  -0.1600 
 17 C        3.1560     2.6250    -0.3320 C.3   1 <1>   0.2780 
 18 C        4.3310     3.3740     0.2860 C.2   1 <1>  -0.0380 
 19 N        5.5960     2.9670    -0.0450 N.pl3 1 <1>  -0.5500 
 20 C        4.2400     4.4190     1.1370 C.2   1 <1>  -0.1360 
 21 C        6.7030     3.5790     0.4560 C.2   1 <1>   0.4390 
 22 C        5.4200     5.0330     1.6340 C.2   1 <1>   0.7670 
 23 N        6.6570     4.5750     1.2610 N.2   1 <1>  -0.6610 
 24 C        8.0350     3.0230     0.0190 C.3   1 <1>  -0.1790 
 25 O        5.3490     5.9810     2.3990 O.2   1 <1>  -0.5700 
 26 H        0.0750    -2.6000    -0.8350 H     1 <1>   0.0800 
 27 H        4.0070    -1.2450     1.0870 H     1 <1>   0.0800 
 28 H        1.9630    -3.9030    -0.4260 H     1 <1>   0.0800 
 29 H        2.4790    -3.0580    -1.9170 H     1 <1>   0.0800 
 30 H       -1.2130    -0.3750     0.7290 H     1 <1>   0.0800 
 31 H       -0.8220    -0.3430    -0.9660 H     1 <1>   0.0800 
 32 H        0.3010    -3.7860     1.3190 H     1 <1>   0.0800 
 33 H       -0.5150    -2.4820     2.1250 H     1 <1>   0.0800 
 34 H        4.9300    -1.9510    -1.7090 H     1 <1>   0.0800 
 35 H        5.7610    -2.2220    -0.1460 H     1 <1>   0.0800 
 36 H        4.1700    -3.9630     0.4470 H     1 <1>   0.0800 
 37 H        4.4550    -4.2730    -1.3010 H     1 <1>   0.0800 
 38 H       -3.2150    -0.8710    -0.5740 H     1 <1>   0.0800 
 39 H       -2.4000    -2.1640    -1.4050 H     1 <1>   0.0800 
 40 H       -1.7070    -4.2950     0.0110 H     1 <1>   0.0800 
 41 H       -2.0940    -4.3010     1.7070 H     1 <1>   0.0800 
 42 H        2.4460     0.8840     0.6960 H     1 <1>   0.3700 
 43 H       -3.8040    -3.0950     0.3670 H     1 <1>   0.0800 
 44 H       -3.0530    -2.0630     1.5490 H     1 <1>   0.0800 
 45 H        3.2080     2.7030    -1.4050 H     1 <1>   0.0800 
 46 H        2.2260     3.0570    -0.0060 H     1 <1>   0.0800 
 47 H        5.6930     2.1340    -0.6510 H     1 <1>   0.4000 
 48 H        3.3090     4.8290     1.4740 H     1 <1>   0.1500 
 49 H        8.1090     1.9900     0.3040 H     1 <1>   0.0800 
 50 H        8.8340     3.5690     0.4850 H     1 <1>   0.0800 
 51 H        8.1320     3.1080    -1.0470 H     1 <1>   0.0800 
@<TRIPOS>BOND
  1   1   2  2   
  2   2   3  am  
  3   2   4  1   
  4   3   5  1   
  5   3   6  1   
  6   4   7  1   
  7   4   8  1   
  8   4  26  1   
  9   5   9  1   
 10   5  10  1   
 11   5  27  1   
 12   6  11  1   
 13   6  28  1   
 14   6  29  1   
 15   7  12  1   
 16   7  30  1   
 17   7  31  1   
 18   8  13  1   
 19   8  32  1   
 20   8  33  1   
 21   9  14  2   
 22   9  15  am  
 23  10  11  1   
 24  10  34  1   
 25  10  35  1   
 26  11  36  1   
 27  11  37  1   
 28  12  16  1   
 29  12  38  1   
 30  12  39  1   
 31  13  16  1   
 32  13  40  1   
 33  13  41  1   
 34  15  17  1   
 35  15  42  1   
 36  16  43  1   
 37  16  44  1   
 38  17  18  1   
 39  17  45  1   
 40  17  46  1   
 41  18  19  1   
 42  18  20  2   
 43  19  21  1   
 44  19  47  1   
 45  20  22  1   
 46  20  48  1   
 47  21  23  2   
 48  21  24  1   
 49  22  23  1   
 50  22  25  2   
 51  24  49  1   
 52  24  50  1   
 53  24  51  1   
@<TRIPOS>SUBSTRUCTURE
  1 ****  15 GROUP 4 **** **** 0

# MOE 2024.06 (io_trps.svl 2023.06)
