@<TRIPOS>MOLECULE
NONAME
47 49 1 0 0 
SMALL
USER_CHARGES


@<TRIPOS>ATOM
  1 CL      -1.2640    -0.6590    -1.7650 Cl    1 <1>  -0.1240 
  2 C       -2.5540     0.1590    -0.9110 C.2   1 <1>  -0.0280 
  3 N       -2.7690     1.4850    -0.9830 N.pl3 1 <1>   0.3140 
  4 C       -3.4860    -0.3860    -0.1060 C.2   1 <1>  -0.1810 
  5 N       -3.8450     1.8130    -0.2410 N.2   1 <1>  -0.7070 
  6 C       -1.9960     2.4870    -1.7290 C.3   1 <1>   0.0160 
  7 C       -4.2630     0.7010     0.2850 C.2   1 <1>   0.1080 
  8 C       -3.6670    -1.8320     0.2810 C.3   1 <1>   0.5240 
  9 C       -5.4680     0.6530     1.2100 C.3   1 <1>   0.0210 
 10 N       -3.8520    -2.6230    -0.9630 N.4   1 <1>  -0.9590 
 11 C       -5.0410     0.5330     2.6760 C.3   1 <1>  -0.2400 
 12 C       -5.1320    -2.2410    -1.6430 C.3   1 <1>   0.3430 
 13 C       -3.9410    -4.0840    -0.6600 C.3   1 <1>   0.3430 
 14 C       -6.1630    -3.2740    -1.1820 C.3   1 <1>   0.2000 
 15 C       -5.3260    -4.5510    -1.1240 C.3   1 <1>  -0.0800 
 16 O       -6.5900    -2.9300     0.1000 O.3   1 <1>  -0.6800 
 17 C       -5.8900    -5.7120    -0.2800 C.3   1 <1>   0.0200 
 18 C       -4.8600    -6.8180    -0.1560 C.2   1 <1>  -0.0400 
 19 O       -4.2250    -7.2350    -1.2180 O.3   1 <1>  -0.0190 
 20 C       -4.4010    -7.5100     0.8980 C.2   1 <1>  -0.1500 
 21 N       -3.3540    -8.1550    -0.9300 N.2   1 <1>  -0.4100 
 22 C       -3.4440    -8.3510     0.3370 C.2   1 <1>   0.1080 
 23 C       -2.6170    -9.3620     1.1020 C.3   1 <1>  -0.0590 
 24 H       -0.9720     2.4570    -1.4080 H     1 <1>   0.0800 
 25 H       -2.4040     3.4620    -1.5370 H     1 <1>   0.0800 
 26 H       -2.0560     2.2730    -2.7800 H     1 <1>   0.0800 
 27 H       -4.5250    -1.9390     0.9240 H     1 <1>   0.0800 
 28 H       -2.7910    -2.1700     0.8110 H     1 <1>   0.0800 
 29 H       -6.0360     1.5590     1.0820 H     1 <1>   0.0800 
 30 H       -6.1040    -0.1710     0.9410 H     1 <1>   0.0800 
 31 H       -3.0500    -2.4080    -1.5730 H     1 <1>   0.4500 
 32 H       -4.4160     1.3680     2.9420 H     1 <1>   0.0800 
 33 H       -4.4930    -0.3750     2.8460 H     1 <1>   0.0800 
 34 H       -5.9070     0.5390     3.3140 H     1 <1>   0.0800 
 35 H       -5.4460    -1.2370    -1.4050 H     1 <1>   0.0800 
 36 H       -5.0070    -2.3240    -2.7100 H     1 <1>   0.0800 
 37 H       -3.1680    -4.6390    -1.1680 H     1 <1>   0.0800 
 38 H       -3.8440    -4.2490     0.4010 H     1 <1>   0.0800 
 39 H       -7.0160    -3.3310    -1.8380 H     1 <1>   0.0800 
 40 H       -5.2100    -4.9090    -2.1330 H     1 <1>   0.0800 
 41 H       -7.4540    -3.3460     0.3070 H     1 <1>   0.4000 
 42 H       -6.7730    -6.1070    -0.7510 H     1 <1>   0.0800 
 43 H       -6.1540    -5.3840     0.7100 H     1 <1>   0.0800 
 44 H       -4.6740    -7.4630     1.9370 H     1 <1>   0.1500 
 45 H       -2.0450    -8.8680     1.8640 H     1 <1>   0.0800 
 46 H       -1.9440    -9.8670     0.4330 H     1 <1>   0.0800 
 47 H       -3.2620   -10.0900     1.5580 H     1 <1>   0.0800 
@<TRIPOS>BOND
  1   1   2  1   
  2   2   3  1   
  3   2   4  2   
  4   3   5  1   
  5   3   6  1   
  6   4   7  1   
  7   4   8  1   
  8   5   7  2   
  9   6  24  1   
 10   6  25  1   
 11   6  26  1   
 12   7   9  1   
 13   8  10  1   
 14   8  27  1   
 15   8  28  1   
 16   9  11  1   
 17   9  29  1   
 18   9  30  1   
 19  10  12  1   
 20  10  13  1   
 21  10  31  1   
 22  11  32  1   
 23  11  33  1   
 24  11  34  1   
 25  12  14  1   
 26  12  35  1   
 27  12  36  1   
 28  13  15  1   
 29  13  37  1   
 30  13  38  1   
 31  14  15  1   
 32  14  16  1   
 33  14  39  1   
 34  15  17  1   
 35  15  40  1   
 36  16  41  1   
 37  17  18  1   
 38  17  42  1   
 39  17  43  1   
 40  18  19  1   
 41  18  20  2   
 42  19  21  1   
 43  20  22  1   
 44  20  44  1   
 45  21  22  2   
 46  22  23  1   
 47  23  45  1   
 48  23  46  1   
 49  23  47  1   
@<TRIPOS>SUBSTRUCTURE
  1 ****  10 GROUP 4 **** **** 0

# MOE 2024.06 (io_trps.svl 2023.06)
