@<TRIPOS>MOLECULE
NONAME
49 51 1 0 0 
SMALL
USER_CHARGES


@<TRIPOS>ATOM
  1 O        0.6280     0.4760     2.1030 O.2   1 <1>  -0.5700 
  2 C        1.1390    -0.2790     1.3090 C.2   1 <1>   0.5690 
  3 N        1.9680     0.1830     0.3110 N.am  1 <1>  -0.6600 
  4 C        0.8320    -1.7570     1.4950 C.3   1 <1>   0.1570 
  5 C        2.1970     1.6520     0.1250 C.3   1 <1>   0.1400 
  6 C        2.6190    -0.6610    -0.7330 C.3   1 <1>   0.1400 
  7 N        0.1010    -2.3180     0.3370 N.pl3 1 <1>   0.0480 
  8 C        3.6980     1.9680     0.0910 C.3   1 <1>   0.1000 
  9 C        4.1260    -0.3820    -0.7610 C.3   1 <1>  -0.1600 
 10 C        0.3080    -3.4980    -0.3050 C.2   1 <1>   0.0060 
 11 C       -0.9040    -1.7300    -0.3390 C.2   1 <1>  -0.3020 
 12 C        3.9160     3.4500    -0.1640 C.2   1 <1>   0.2980 
 13 C        4.4230     1.1120    -0.9640 C.3   1 <1>  -0.1600 
 14 N       -0.4740    -3.6690    -1.3230 N.2   1 <1>  -0.5650 
 15 C        1.3590    -4.5120     0.1440 C.3   1 <1>   0.0200 
 16 C       -1.2390    -2.5640    -1.3440 C.2   1 <1>   0.0770 
 17 O        3.4480     3.9810    -1.2670 O.3   1 <1>  -0.0190 
 18 N        4.5290     4.2520     0.6100 N.2   1 <1>  -0.5650 
 19 C        1.3780    -5.7900    -0.7040 C.3   1 <1>  -0.2400 
 20 N        3.7940     5.2280    -1.1870 N.2   1 <1>  -0.4100 
 21 C        4.4240     5.3760    -0.0870 C.2   1 <1>   0.3350 
 22 C        5.0310     6.6790     0.4370 C.3   1 <1>   0.1010 
 23 C        4.3240     7.9260    -0.1190 C.3   1 <1>  -0.2400 
 24 C        6.5320     6.7410     0.1170 C.3   1 <1>  -0.2400 
 25 H        0.2220    -1.8810     2.3700 H     1 <1>   0.0800 
 26 H        1.7510    -2.2860     1.6420 H     1 <1>   0.0800 
 27 H        1.7380     2.2160     0.9200 H     1 <1>   0.0800 
 28 H        1.7380     1.9570    -0.7990 H     1 <1>   0.0800 
 29 H        2.1850    -0.4290    -1.6920 H     1 <1>   0.0800 
 30 H        2.4650    -1.7070    -0.5490 H     1 <1>   0.0800 
 31 H        4.1040     1.7410     1.0620 H     1 <1>   0.0800 
 32 H        4.5760    -0.9480    -1.5570 H     1 <1>   0.0800 
 33 H        4.5610    -0.7170     0.1650 H     1 <1>   0.0800 
 34 H       -1.3170    -0.7720    -0.0780 H     1 <1>   0.1500 
 35 H        5.4830     1.2850    -0.9020 H     1 <1>   0.0800 
 36 H        4.0980     1.4040    -1.9490 H     1 <1>   0.0800 
 37 H        1.1620    -4.7830     1.1660 H     1 <1>   0.0800 
 38 H        2.3310    -4.0560     0.0970 H     1 <1>   0.0800 
 39 H       -2.0020    -2.4280    -2.0920 H     1 <1>   0.1500 
 40 H        0.4190    -6.2750    -0.6600 H     1 <1>   0.0800 
 41 H        2.1290    -6.4700    -0.3430 H     1 <1>   0.0800 
 42 H        1.5910    -5.5490    -1.7300 H     1 <1>   0.0800 
 43 H        4.9130     6.6800     1.5060 H     1 <1>   0.0800 
 44 H        4.4350     7.9760    -1.1880 H     1 <1>   0.0800 
 45 H        4.7380     8.8180     0.3160 H     1 <1>   0.0800 
 46 H        3.2750     7.8850     0.1140 H     1 <1>   0.0800 
 47 H        6.6860     6.7300    -0.9470 H     1 <1>   0.0800 
 48 H        7.0320     5.8890     0.5440 H     1 <1>   0.0800 
 49 H        6.9680     7.6350     0.5250 H     1 <1>   0.0800 
@<TRIPOS>BOND
  1   1   2  2   
  2   2   3  am  
  3   2   4  1   
  4   3   5  1   
  5   3   6  1   
  6   4   7  1   
  7   4  25  1   
  8   4  26  1   
  9   5   8  1   
 10   5  27  1   
 11   5  28  1   
 12   6   9  1   
 13   6  29  1   
 14   6  30  1   
 15   7  10  1   
 16   7  11  1   
 17   8  12  1   
 18   8  13  1   
 19   8  31  1   
 20   9  13  1   
 21   9  32  1   
 22   9  33  1   
 23  10  14  2   
 24  10  15  1   
 25  11  16  2   
 26  11  34  1   
 27  12  17  1   
 28  12  18  2   
 29  13  35  1   
 30  13  36  1   
 31  14  16  1   
 32  15  19  1   
 33  15  37  1   
 34  15  38  1   
 35  16  39  1   
 36  17  20  1   
 37  18  21  1   
 38  19  40  1   
 39  19  41  1   
 40  19  42  1   
 41  20  21  2   
 42  21  22  1   
 43  22  23  1   
 44  22  24  1   
 45  22  43  1   
 46  23  44  1   
 47  23  45  1   
 48  23  46  1   
 49  24  47  1   
 50  24  48  1   
 51  24  49  1   
@<TRIPOS>SUBSTRUCTURE
  1 ****   5 GROUP 4 **** **** 0

# MOE 2024.06 (io_trps.svl 2023.06)
