@<TRIPOS>MOLECULE
NONAME
49 51 1 0 0 
SMALL
USER_CHARGES


@<TRIPOS>ATOM
  1 O       -1.2720    -0.8200    -1.0510 O.3   1 <1>  -0.8290 
  2 C       -1.7760    -1.8590    -0.5650 C.ar  1 <1>   0.1390 
  3 N       -1.8090    -2.9920    -1.3070 N.ar  1 <1>  -0.3100 
  4 C       -2.2900    -1.8140     0.7270 C.ar  1 <1>  -0.1500 
  5 N       -2.3390    -4.0850    -0.8120 N.ar  1 <1>  -0.3100 
  6 C       -2.8420    -2.9550     1.2330 C.ar  1 <1>  -0.1500 
  7 C       -2.8450    -4.0740     0.4160 C.ar  1 <1>   0.1670 
  8 C       -3.4620    -5.3710     0.9120 C.3   1 <1>  -0.0160 
  9 C       -4.6950    -5.7420     0.0710 C.3   1 <1>  -0.0990 
 10 C       -5.4210    -6.9920     0.5460 C.2   1 <1>   0.5690 
 11 O       -5.1350    -7.4550     1.6260 O.2   1 <1>  -0.5700 
 12 N       -6.4010    -7.5570    -0.2300 N.am  1 <1>  -0.6600 
 13 C       -7.1090    -8.7990     0.2120 C.3   1 <1>   0.1400 
 14 C       -6.9290    -6.9770    -1.4980 C.3   1 <1>   0.1400 
 15 C       -8.4690    -8.4910     0.8580 C.3   1 <1>   0.1400 
 16 C       -8.0050    -5.9140    -1.2350 C.3   1 <1>  -0.1600 
 17 N       -9.3370    -7.6420    -0.0210 N.am  1 <1>  -0.6600 
 18 C       -8.9510    -6.2060    -0.0620 C.3   1 <1>   0.1400 
 19 C      -10.3650    -8.1330    -0.7970 C.2   1 <1>   0.5440 
 20 O      -10.9570    -7.3800    -1.5450 O.2   1 <1>  -0.5700 
 21 C      -10.7290    -9.5300    -0.7620 C.ar  1 <1>   0.0860 
 22 C      -11.5760   -10.0760     0.1990 C.ar  1 <1>  -0.1430 
 23 C      -10.1980   -10.3900    -1.7190 C.ar  1 <1>   0.1600 
 24 C      -11.8050   -11.4360     0.1350 C.ar  1 <1>  -0.1500 
 25 C      -12.2300    -9.2160     1.2700 C.3   1 <1>  -0.0970 
 26 N      -10.3980   -11.6960    -1.7870 N.ar  1 <1>  -0.6200 
 27 C      -11.2010   -12.1890    -0.8580 C.ar  1 <1>   0.1600 
 28 H       -2.2300    -0.8890     1.2640 H     1 <1>   0.1500 
 29 H       -3.2550    -2.9770     2.2220 H     1 <1>   0.1500 
 30 H       -3.7440    -5.2670     1.9450 H     1 <1>   0.0800 
 31 H       -2.7280    -6.1540     0.8460 H     1 <1>   0.0800 
 32 H       -4.3720    -5.8930    -0.9420 H     1 <1>   0.0800 
 33 H       -5.3840    -4.9200     0.0860 H     1 <1>   0.0800 
 34 H       -6.5010    -9.3320     0.9230 H     1 <1>   0.0800 
 35 H       -7.2520    -9.4520    -0.6310 H     1 <1>   0.0800 
 36 H       -7.3640    -7.7670    -2.0870 H     1 <1>   0.0800 
 37 H       -6.1310    -6.5540    -2.0830 H     1 <1>   0.0800 
 38 H       -8.3010    -7.9820     1.7910 H     1 <1>   0.0800 
 39 H       -8.9610    -9.4180     1.0900 H     1 <1>   0.0800 
 40 H       -8.5950    -5.8050    -2.1280 H     1 <1>   0.0800 
 41 H       -7.5330    -4.9650    -1.0630 H     1 <1>   0.0800 
 42 H       -9.8340    -5.5960    -0.1500 H     1 <1>   0.0800 
 43 H       -8.4650    -5.9430     0.8620 H     1 <1>   0.0800 
 44 H       -9.5620    -9.9590    -2.4730 H     1 <1>   0.1500 
 45 H      -12.4490   -11.9200     0.8460 H     1 <1>   0.1500 
 46 H      -12.7830    -8.4150     0.8100 H     1 <1>   0.0800 
 47 H      -11.4810    -8.7900     1.9140 H     1 <1>   0.0800 
 48 H      -12.9080    -9.7950     1.8700 H     1 <1>   0.0800 
 49 H      -11.3900   -13.2490    -0.8910 H     1 <1>   0.1500 
@<TRIPOS>BOND
  1   1   2  1   
  2   2   3  ar  
  3   2   4  ar  
  4   3   5  ar  
  5   4   6  ar  
  6   4  28  1   
  7   5   7  ar  
  8   6   7  ar  
  9   6  29  1   
 10   7   8  1   
 11   8   9  1   
 12   8  30  1   
 13   8  31  1   
 14   9  10  1   
 15   9  32  1   
 16   9  33  1   
 17  10  11  2   
 18  10  12  am  
 19  12  13  1   
 20  12  14  1   
 21  13  15  1   
 22  13  34  1   
 23  13  35  1   
 24  14  16  1   
 25  14  36  1   
 26  14  37  1   
 27  15  17  1   
 28  15  38  1   
 29  15  39  1   
 30  16  18  1   
 31  16  40  1   
 32  16  41  1   
 33  17  18  1   
 34  17  19  am  
 35  18  42  1   
 36  18  43  1   
 37  19  20  2   
 38  19  21  1   
 39  21  22  ar  
 40  21  23  ar  
 41  22  24  ar  
 42  22  25  1   
 43  23  26  ar  
 44  23  44  1   
 45  24  27  ar  
 46  24  45  1   
 47  25  46  1   
 48  25  47  1   
 49  25  48  1   
 50  26  27  ar  
 51  27  49  1   
@<TRIPOS>SUBSTRUCTURE
  1 ****  12 GROUP 4 **** **** 0

# MOE 2024.06 (io_trps.svl 2023.06)
