@<TRIPOS>MOLECULE
NONAME
52 55 1 0 0 
SMALL
USER_CHARGES


@<TRIPOS>ATOM
  1 O        0.7580     1.9010     0.2760 O.2   1 <1>  -0.5700 
  2 C       -0.2940     2.2940     0.7490 C.2   1 <1>   0.7150 
  3 N       -0.3320     3.5730     1.2380 N.am  1 <1>  -0.7300 
  4 C       -1.4810     1.4670     0.7920 C.2   1 <1>   0.0550 
  5 C        0.8360     4.4950     1.2940 C.3   1 <1>   0.1400 
  6 O       -1.4830     0.2390     0.2800 O.3   1 <1>  -0.2800 
  7 C       -2.7230     1.7150     1.3000 C.2   1 <1>  -0.1500 
  8 C        1.2650     4.9460    -0.1120 C.3   1 <1>   0.2000 
  9 C       -2.6710    -0.2940     0.4430 C.2   1 <1>  -0.0100 
 10 C       -3.4920     0.5730     1.0720 C.2   1 <1>  -0.1500 
 11 O        2.3300     5.8400    -0.0220 O.3   1 <1>  -0.5600 
 12 C        0.2060     5.7100    -0.8930 C.3   1 <1>  -0.1600 
 13 C        2.4270     6.6020    -1.1820 C.3   1 <1>   0.2800 
 14 C        1.0390     6.5600    -1.8380 C.3   1 <1>  -0.1600 
 15 C        2.8440     8.0070    -0.7500 C.3   1 <1>  -0.1600 
 16 C        3.5230     5.9740    -2.0480 C.3   1 <1>  -0.1600 
 17 C        4.1820     7.9650    -0.0170 C.3   1 <1>   0.3430 
 18 C        4.8480     5.9500    -1.2920 C.3   1 <1>   0.3430 
 19 N        5.2250     7.3350    -0.8850 N.4   1 <1>  -0.9590 
 20 C        6.5630     7.3620    -0.2280 C.3   1 <1>   0.5230 
 21 C        7.0000     8.8000    -0.0520 C.2   1 <1>  -0.0400 
 22 O        7.0060     9.5830    -1.0960 O.3   1 <1>  -0.0190 
 23 C        7.3990     9.5200     1.0090 C.2   1 <1>  -0.1500 
 24 N        7.3760    10.7880    -0.7920 N.2   1 <1>  -0.4100 
 25 C        7.6270    10.7830     0.4680 C.2   1 <1>   0.1080 
 26 C        8.1030    11.9910     1.2460 C.3   1 <1>  -0.0590 
 27 H       -1.1990     3.9090     1.6540 H     1 <1>   0.3700 
 28 H        1.6590     3.9820     1.7610 H     1 <1>   0.0800 
 29 H        0.5800     5.3550     1.8870 H     1 <1>   0.0800 
 30 H       -3.0800     2.6040     1.7880 H     1 <1>   0.1500 
 31 H        1.6070     4.0960    -0.6790 H     1 <1>   0.0800 
 32 H       -2.8490    -1.2930     0.0840 H     1 <1>   0.1500 
 33 H       -4.5220     0.4380     1.3500 H     1 <1>   0.1500 
 34 H       -0.3610     6.3350    -0.2260 H     1 <1>   0.0800 
 35 H       -0.4620     5.0440    -1.4110 H     1 <1>   0.0800 
 36 H        0.6110     7.5400    -1.9600 H     1 <1>   0.0800 
 37 H        1.0910     6.0950    -2.8070 H     1 <1>   0.0800 
 38 H        2.0940     8.4170    -0.0970 H     1 <1>   0.0800 
 39 H        2.9180     8.6550    -1.6050 H     1 <1>   0.0800 
 40 H        3.6340     6.5250    -2.9640 H     1 <1>   0.0800 
 41 H        3.2460     4.9670    -2.3100 H     1 <1>   0.0800 
 42 H        4.0660     7.3890     0.8880 H     1 <1>   0.0800 
 43 H        4.4740     8.9680     0.2510 H     1 <1>   0.0800 
 44 H        5.6130     5.5230    -1.9210 H     1 <1>   0.0800 
 45 H        4.7380     5.3300    -0.4160 H     1 <1>   0.0800 
 46 H        5.3110     7.9210    -1.7280 H     1 <1>   0.4500 
 47 H        7.2850     6.8540    -0.8460 H     1 <1>   0.0800 
 48 H        6.5210     6.8700     0.7300 H     1 <1>   0.0800 
 49 H        7.5290     9.2440     2.0410 H     1 <1>   0.1500 
 50 H        7.3990    12.2310     2.0210 H     1 <1>   0.0800 
 51 H        8.1980    12.8380     0.5890 H     1 <1>   0.0800 
 52 H        9.0620    11.7890     1.6870 H     1 <1>   0.0800 
@<TRIPOS>BOND
  1   1   2  2   
  2   2   3  am  
  3   2   4  1   
  4   3   5  1   
  5   3  27  1   
  6   4   6  1   
  7   4   7  2   
  8   5   8  1   
  9   5  28  1   
 10   5  29  1   
 11   6   9  1   
 12   7  10  1   
 13   7  30  1   
 14   8  11  1   
 15   8  12  1   
 16   8  31  1   
 17   9  10  2   
 18   9  32  1   
 19  10  33  1   
 20  11  13  1   
 21  12  14  1   
 22  12  34  1   
 23  12  35  1   
 24  13  14  1   
 25  13  15  1   
 26  13  16  1   
 27  14  36  1   
 28  14  37  1   
 29  15  17  1   
 30  15  38  1   
 31  15  39  1   
 32  16  18  1   
 33  16  40  1   
 34  16  41  1   
 35  17  19  1   
 36  17  42  1   
 37  17  43  1   
 38  18  19  1   
 39  18  44  1   
 40  18  45  1   
 41  19  20  1   
 42  19  46  1   
 43  20  21  1   
 44  20  47  1   
 45  20  48  1   
 46  21  22  1   
 47  21  23  2   
 48  22  24  1   
 49  23  25  1   
 50  23  49  1   
 51  24  25  2   
 52  25  26  1   
 53  26  50  1   
 54  26  51  1   
 55  26  52  1   
@<TRIPOS>SUBSTRUCTURE
  1 ****  11 GROUP 4 **** **** 0

# MOE 2024.06 (io_trps.svl 2023.06)
