@<TRIPOS>MOLECULE
NONAME
52 54 1 0 0 
SMALL
USER_CHARGES


@<TRIPOS>ATOM
  1 S       -0.0870     0.0360     0.3040 S.o2  1 <1>   1.3330 
  2 O        0.0240    -0.5330     1.6280 O.2   1 <1>  -0.6500 
  3 O       -0.8210     1.2670     0.1140 O.2   1 <1>  -0.6500 
  4 N       -0.7470    -1.1460    -0.7200 N.am  1 <1>  -0.8490 
  5 C        1.5520     0.2740    -0.3820 C.3   1 <1>  -0.0550 
  6 C       -2.2010    -1.0180    -0.8550 C.3   1 <1>   0.1160 
  7 C       -0.4000    -2.5160    -0.3280 C.3   1 <1>   0.1160 
  8 C        2.3310     1.4190     0.2930 C.3   1 <1>  -0.0800 
  9 C        3.6240     1.7210    -0.4490 C.3   1 <1>   0.2200 
 10 C        2.8140     1.0450     1.7040 C.3   1 <1>   0.1200 
 11 N        3.9420     3.1560    -0.2760 N.am  1 <1>  -0.7300 
 12 C        4.6320     0.8810     0.3200 C.3   1 <1>   0.1200 
 13 O        4.2040     0.9260     1.6440 O.3   1 <1>  -0.5600 
 14 C        4.0850     4.0620    -1.2890 C.2   1 <1>   0.5440 
 15 O        4.0590     3.6550    -2.4330 O.2   1 <1>  -0.5700 
 16 C        4.2670     5.4630    -1.0170 C.ar  1 <1>   0.0860 
 17 C        4.8900     6.3120    -1.9110 C.ar  1 <1>   0.1600 
 18 C        3.8270     6.0680     0.1450 C.ar  1 <1>   0.1600 
 19 N        5.0770     7.5890    -1.6820 N.ar  1 <1>  -0.6200 
 20 N        3.9970     7.3400     0.4070 N.ar  1 <1>  -0.6200 
 21 C        4.6220     8.0640    -0.5220 C.ar  1 <1>   0.7200 
 22 N        4.8100     9.4000    -0.2660 N.pl3 1 <1>  -0.8380 
 23 C        4.3390    10.0810     0.9820 C.3   1 <1>   0.2090 
 24 C        5.4590    10.3450    -1.2280 C.3   1 <1>   0.2090 
 25 C        5.4460    10.9760     1.5660 C.3   1 <1>   0.1200 
 26 C        6.5000    11.2250    -0.5120 C.3   1 <1>   0.1200 
 27 O        5.9410    11.8650     0.6030 O.3   1 <1>  -0.5600 
 28 H        2.1110    -0.6390    -0.3080 H     1 <1>   0.0800 
 29 H        1.4410     0.5070    -1.4240 H     1 <1>   0.0800 
 30 H       -2.5820    -1.7710    -1.5220 H     1 <1>   0.0800 
 31 H       -2.4510    -0.0520    -1.2620 H     1 <1>   0.0800 
 32 H       -2.6770    -1.1200     0.1070 H     1 <1>   0.0800 
 33 H       -0.7660    -3.2140    -1.0620 H     1 <1>   0.0800 
 34 H       -0.8350    -2.7550     0.6300 H     1 <1>   0.0800 
 35 H        0.6680    -2.6250    -0.2590 H     1 <1>   0.0800 
 36 H        1.6960     2.2880     0.3230 H     1 <1>   0.0800 
 37 H        3.5910     1.4590    -1.4940 H     1 <1>   0.0800 
 38 H        2.4130     0.1090     2.0520 H     1 <1>   0.0800 
 39 H        2.5790     1.8180     2.4160 H     1 <1>   0.0800 
 40 H        4.1720     3.4020     0.6900 H     1 <1>   0.3700 
 41 H        5.6350     1.2630     0.2470 H     1 <1>   0.0800 
 42 H        4.6050    -0.1450    -0.0020 H     1 <1>   0.0800 
 43 H        5.2450     5.9110    -2.8470 H     1 <1>   0.1500 
 44 H        3.3100     5.4800     0.8820 H     1 <1>   0.1500 
 45 H        3.4820    10.6870     0.7490 H     1 <1>   0.0800 
 46 H        4.0440     9.3690     1.7310 H     1 <1>   0.0800 
 47 H        5.9490     9.8200    -2.0280 H     1 <1>   0.0800 
 48 H        4.7050    10.9760    -1.6640 H     1 <1>   0.0800 
 49 H        6.2600    10.3720     1.9290 H     1 <1>   0.0800 
 50 H        5.0580    11.5590     2.3820 H     1 <1>   0.0800 
 51 H        6.8630    11.9850    -1.1790 H     1 <1>   0.0800 
 52 H        7.3310    10.6250    -0.1850 H     1 <1>   0.0800 
@<TRIPOS>BOND
  1   1   2  2   
  2   1   3  2   
  3   1   4  am  
  4   1   5  1   
  5   4   6  1   
  6   4   7  1   
  7   5   8  1   
  8   5  28  1   
  9   5  29  1   
 10   6  30  1   
 11   6  31  1   
 12   6  32  1   
 13   7  33  1   
 14   7  34  1   
 15   7  35  1   
 16   8   9  1   
 17   8  10  1   
 18   8  36  1   
 19   9  11  1   
 20   9  12  1   
 21   9  37  1   
 22  10  13  1   
 23  10  38  1   
 24  10  39  1   
 25  11  14  am  
 26  11  40  1   
 27  12  13  1   
 28  12  41  1   
 29  12  42  1   
 30  14  15  2   
 31  14  16  1   
 32  16  17  ar  
 33  16  18  ar  
 34  17  19  ar  
 35  17  43  1   
 36  18  20  ar  
 37  18  44  1   
 38  19  21  ar  
 39  20  21  ar  
 40  21  22  1   
 41  22  23  1   
 42  22  24  1   
 43  23  25  1   
 44  23  45  1   
 45  23  46  1   
 46  24  26  1   
 47  24  47  1   
 48  24  48  1   
 49  25  27  1   
 50  25  49  1   
 51  25  50  1   
 52  26  27  1   
 53  26  51  1   
 54  26  52  1   
@<TRIPOS>SUBSTRUCTURE
  1 ****  11 GROUP 4 **** **** 0

# MOE 2024.06 (io_trps.svl 2023.06)
