@<TRIPOS>MOLECULE
NONAME
46 48 1 0 0 
SMALL
USER_CHARGES


@<TRIPOS>ATOM
  1 N        0.6860     0.5200    -0.7450 N.ar  1 <1>  -0.6200 
  2 C        1.7390    -0.2010    -0.4050 C.ar  1 <1>   0.4100 
  3 C        0.9470     1.7600    -1.1050 C.ar  1 <1>   0.4700 
  4 N        1.5320    -1.5130    -0.0280 N.pl3 1 <1>  -0.8380 
  5 C        3.0030     0.3370    -0.4330 C.ar  1 <1>  -0.1500 
  6 N        2.1110     2.3730    -1.1720 N.ar  1 <1>  -0.6200 
  7 C        2.1650    -2.5950    -0.8230 C.3   1 <1>   0.2090 
  8 C        0.2430    -1.9020     0.6040 C.3   1 <1>   0.2090 
  9 C        3.1610     1.6430    -0.8360 C.ar  1 <1>   0.4100 
 10 C        2.4180    -3.8080     0.0780 C.3   1 <1>  -0.1600 
 11 C        0.4660    -3.1130     1.5160 C.3   1 <1>  -0.1600 
 12 N        4.4130     2.2390    -0.8970 N.pl3 1 <1>  -0.8380 
 13 C        1.1270    -4.2790     0.7650 C.3   1 <1>  -0.1600 
 14 C        4.5510     3.7310    -0.9420 C.3   1 <1>   0.2090 
 15 C        5.5430     1.4970    -1.5060 C.3   1 <1>   0.2090 
 16 C        4.0830     4.3480     0.3760 C.3   1 <1>   0.0960 
 17 C        6.5970     1.2440    -0.4340 C.3   1 <1>  -0.2400 
 18 N        4.5470     5.7430     0.5080 N.pl3 1 <1>   0.3140 
 19 N        4.7250     6.5700    -0.5440 N.2   1 <1>  -0.7070 
 20 C        4.8480     6.3650     1.6660 C.2   1 <1>  -0.3020 
 21 C        5.1310     7.6890    -0.0260 C.2   1 <1>   0.1390 
 22 C        5.2290     7.6220     1.3580 C.2   1 <1>  -0.1500 
 23 H        0.0920     2.3530    -1.3830 H     1 <1>   0.1500 
 24 H        3.8410    -0.2510    -0.1290 H     1 <1>   0.1500 
 25 H        3.0930    -2.2540    -1.2470 H     1 <1>   0.0800 
 26 H        1.5060    -2.8690    -1.6300 H     1 <1>   0.0800 
 27 H       -0.4720    -2.1390    -0.1650 H     1 <1>   0.0800 
 28 H       -0.1420    -1.0790     1.1830 H     1 <1>   0.0800 
 29 H        3.1460    -3.5370     0.8220 H     1 <1>   0.0800 
 30 H        2.8280    -4.6090    -0.5100 H     1 <1>   0.0800 
 31 H       -0.4780    -3.4300     1.9210 H     1 <1>   0.0800 
 32 H        1.0920    -2.8100     2.3370 H     1 <1>   0.0800 
 33 H        1.3490    -5.0770     1.4530 H     1 <1>   0.0800 
 34 H        0.4450    -4.6570     0.0230 H     1 <1>   0.0800 
 35 H        3.9710     4.1290    -1.7590 H     1 <1>   0.0800 
 36 H        5.5830     3.9910    -1.1010 H     1 <1>   0.0800 
 37 H        5.9640     2.0700    -2.3150 H     1 <1>   0.0800 
 38 H        5.2000     0.5600    -1.9130 H     1 <1>   0.0800 
 39 H        4.4830     3.7800     1.1940 H     1 <1>   0.0800 
 40 H        3.0110     4.3390     0.4250 H     1 <1>   0.0800 
 41 H        6.9740     2.1760    -0.0540 H     1 <1>   0.0800 
 42 H        7.4160     0.6890    -0.8540 H     1 <1>   0.0800 
 43 H        6.1740     0.6760     0.3740 H     1 <1>   0.0800 
 44 H        4.7750     5.8870     2.6250 H     1 <1>   0.1500 
 45 H        5.3630     8.5630    -0.6110 H     1 <1>   0.1500 
 46 H        5.5420     8.4170     2.0120 H     1 <1>   0.1500 
@<TRIPOS>BOND
  1   1   2  ar  
  2   1   3  ar  
  3   2   4  1   
  4   2   5  ar  
  5   3   6  ar  
  6   3  23  1   
  7   4   7  1   
  8   4   8  1   
  9   5   9  ar  
 10   5  24  1   
 11   6   9  ar  
 12   7  10  1   
 13   7  25  1   
 14   7  26  1   
 15   8  11  1   
 16   8  27  1   
 17   8  28  1   
 18   9  12  1   
 19  10  13  1   
 20  10  29  1   
 21  10  30  1   
 22  11  13  1   
 23  11  31  1   
 24  11  32  1   
 25  12  14  1   
 26  12  15  1   
 27  13  33  1   
 28  13  34  1   
 29  14  16  1   
 30  14  35  1   
 31  14  36  1   
 32  15  17  1   
 33  15  37  1   
 34  15  38  1   
 35  16  18  1   
 36  16  39  1   
 37  16  40  1   
 38  17  41  1   
 39  17  42  1   
 40  17  43  1   
 41  18  19  1   
 42  18  20  1   
 43  19  21  2   
 44  20  22  2   
 45  20  44  1   
 46  21  22  1   
 47  21  45  1   
 48  22  46  1   
@<TRIPOS>SUBSTRUCTURE
  1 ****   9 GROUP 4 **** **** 0

# MOE 2024.06 (io_trps.svl 2023.06)
