@<TRIPOS>MOLECULE
NONAME
53 56 1 0 0 
SMALL
USER_CHARGES


@<TRIPOS>ATOM
  1 F       -1.6110    -6.2760    -1.3730 F     1 <1>  -0.1900 
  2 C       -2.1310    -5.0930    -1.1810 C.ar  1 <1>   0.1900 
  3 C       -2.9490    -4.8930    -0.0850 C.ar  1 <1>  -0.1500 
  4 C       -1.8430    -4.0860    -2.0820 C.ar  1 <1>  -0.1500 
  5 C       -3.5020    -3.6370     0.1200 C.ar  1 <1>  -0.1440 
  6 C       -2.3980    -2.8350    -1.8750 C.ar  1 <1>  -0.1500 
  7 C       -3.2220    -2.6150    -0.7800 C.ar  1 <1>  -0.1500 
  8 C       -4.4060    -3.3950     1.3160 C.3   1 <1>   0.2840 
  9 N       -5.6430    -4.1620     1.1090 N.am  1 <1>  -0.7300 
 10 C       -6.1930    -4.9770     2.0360 C.2   1 <1>   0.6900 
 11 O       -5.8050    -4.9240     3.1890 O.2   1 <1>  -0.5700 
 12 N       -7.1510    -5.8770     1.6510 N.am  1 <1>  -0.6600 
 13 C       -7.4870    -7.0560     2.4900 C.3   1 <1>   0.1400 
 14 C       -7.8530    -5.8680     0.3410 C.3   1 <1>   0.1400 
 15 C       -7.0660    -8.3250     1.7430 C.3   1 <1>  -0.1600 
 16 C       -7.4370    -7.1100    -0.4520 C.3   1 <1>  -0.1600 
 17 C       -7.6960    -8.4090     0.3350 C.3   1 <1>   0.4240 
 18 O       -9.0960    -8.4120     0.5170 O.3   1 <1>  -0.5600 
 19 C       -7.2190    -9.6580    -0.4620 C.ar  1 <1>  -0.1430 
 20 C       -9.7130    -9.6270     0.7920 C.3   1 <1>   0.1200 
 21 C       -5.8780    -9.8440    -0.8250 C.ar  1 <1>   0.0830 
 22 C       -8.1410   -10.6360    -0.8360 C.ar  1 <1>  -0.1430 
 23 C       -9.5980   -10.5040    -0.4450 C.3   1 <1>  -0.0160 
 24 O       -4.9580    -8.9170    -0.4460 O.3   1 <1>  -0.3620 
 25 C       -5.4990   -10.9670    -1.5580 C.ar  1 <1>  -0.1500 
 26 C       -7.7520   -11.7480    -1.5630 C.ar  1 <1>  -0.1500 
 27 C       -3.5820    -9.0370    -0.7330 C.3   1 <1>   0.0400 
 28 C       -6.4320   -11.9140    -1.9270 C.ar  1 <1>  -0.1500 
 29 H       -3.1520    -5.7040     0.5920 H     1 <1>   0.1500 
 30 H       -1.2000    -4.2800    -2.9220 H     1 <1>   0.1500 
 31 H       -2.1890    -2.0330    -2.5620 H     1 <1>   0.1500 
 32 H       -3.6470    -1.6360    -0.6330 H     1 <1>   0.1500 
 33 H       -4.6480    -2.3510     1.4100 H     1 <1>   0.0800 
 34 H       -3.9110    -3.7130     2.2190 H     1 <1>   0.0800 
 35 H       -5.8250    -4.3980     0.1390 H     1 <1>   0.3700 
 36 H       -8.5470    -7.0660     2.6780 H     1 <1>   0.0800 
 37 H       -6.9790    -7.0080     3.4380 H     1 <1>   0.0800 
 38 H       -7.6290    -4.9770    -0.2170 H     1 <1>   0.0800 
 39 H       -8.9160    -5.8840     0.5160 H     1 <1>   0.0800 
 40 H       -7.3250    -9.1940     2.3160 H     1 <1>   0.0800 
 41 H       -5.9970    -8.3120     1.6710 H     1 <1>   0.0800 
 42 H       -6.3990    -7.0070    -0.6940 H     1 <1>   0.0800 
 43 H       -7.9780    -7.1510    -1.3790 H     1 <1>   0.0800 
 44 H      -10.7450    -9.4290     1.0220 H     1 <1>   0.0800 
 45 H       -9.2410   -10.0860     1.6420 H     1 <1>   0.0800 
 46 H      -10.1540   -10.0610    -1.2520 H     1 <1>   0.0800 
 47 H      -10.0180   -11.4700    -0.2310 H     1 <1>   0.0800 
 48 H       -4.4810   -11.1260    -1.8540 H     1 <1>   0.1500 
 49 H       -8.4760   -12.4910    -1.8510 H     1 <1>   0.1500 
 50 H       -3.0760    -8.2000    -0.2880 H     1 <1>   0.0800 
 51 H       -3.4450    -9.0220    -1.7990 H     1 <1>   0.0800 
 52 H       -3.2130    -9.9530    -0.3060 H     1 <1>   0.0800 
 53 H       -6.1330   -12.7790    -2.4950 H     1 <1>   0.1500 
@<TRIPOS>BOND
  1   1   2  1   
  2   2   3  ar  
  3   2   4  ar  
  4   3   5  ar  
  5   3  29  1   
  6   4   6  ar  
  7   4  30  1   
  8   5   7  ar  
  9   5   8  1   
 10   6   7  ar  
 11   6  31  1   
 12   7  32  1   
 13   8   9  1   
 14   8  33  1   
 15   8  34  1   
 16   9  10  am  
 17   9  35  1   
 18  10  11  2   
 19  10  12  am  
 20  12  13  1   
 21  12  14  1   
 22  13  15  1   
 23  13  36  1   
 24  13  37  1   
 25  14  16  1   
 26  14  38  1   
 27  14  39  1   
 28  15  17  1   
 29  15  40  1   
 30  15  41  1   
 31  16  17  1   
 32  16  42  1   
 33  16  43  1   
 34  17  18  1   
 35  17  19  1   
 36  18  20  1   
 37  19  21  ar  
 38  19  22  ar  
 39  20  23  1   
 40  20  44  1   
 41  20  45  1   
 42  21  24  1   
 43  21  25  ar  
 44  22  23  1   
 45  22  26  ar  
 46  23  46  1   
 47  23  47  1   
 48  24  27  1   
 49  25  28  ar  
 50  25  48  1   
 51  26  28  ar  
 52  26  49  1   
 53  27  50  1   
 54  27  51  1   
 55  27  52  1   
 56  28  53  1   
@<TRIPOS>SUBSTRUCTURE
  1 ****  16 GROUP 4 **** **** 0

# MOE 2024.06 (io_trps.svl 2023.06)
