@<TRIPOS>MOLECULE
NONAME
26 26 1 0 0 
SMALL
USER_CHARGES


@<TRIPOS>ATOM
  1 N        8.0060    -0.2210     0.1330 N.pl3 1 <1>  -0.8380 
  2 C        7.1940    -1.0740    -0.6190 C.2   1 <1>  -0.0500 
  3 C        9.3390    -0.9010     0.1730 C.3   1 <1>   0.5780 
  4 C        8.0770     1.1580    -0.4070 C.3   1 <1>   0.2090 
  5 C        7.8350    -2.1740    -1.0010 C.2   1 <1>  -0.0500 
  6 N        9.1640    -2.1860    -0.5750 N.pl3 1 <1>  -0.8380 
  7 C        6.9550     1.9950     0.2070 C.3   1 <1>  -0.1600 
  8 C        9.4870    -3.3760     0.2480 C.3   1 <1>   0.1290 
  9 C        6.9930     3.4440    -0.2960 C.3   1 <1>  -0.1600 
 10 C        5.8660     4.2720     0.3250 C.3   1 <1>  -0.2400 
 11 H        6.1710    -0.8070    -0.8260 H     1 <1>   0.1500 
 12 H        9.6210    -1.0850     1.1960 H     1 <1>   0.0800 
 13 H       10.0940    -0.3050    -0.3100 H     1 <1>   0.0800 
 14 H        7.9810     1.1340    -1.4800 H     1 <1>   0.0800 
 15 H        9.0260     1.6020    -0.1590 H     1 <1>   0.0800 
 16 H        7.4410    -2.9980    -1.5730 H     1 <1>   0.1500 
 17 H        7.0590     1.9820     1.2780 H     1 <1>   0.0800 
 18 H        6.0080     1.5530    -0.0470 H     1 <1>   0.0800 
 19 H       10.5070    -3.3240     0.5860 H     1 <1>   0.0800 
 20 H        9.3630    -4.2660    -0.3430 H     1 <1>   0.0800 
 21 H        8.8290    -3.4250     1.0990 H     1 <1>   0.0800 
 22 H        6.8920     3.4570    -1.3680 H     1 <1>   0.0800 
 23 H        7.9400     3.8910    -0.0430 H     1 <1>   0.0800 
 24 H        4.9080     3.8560     0.0680 H     1 <1>   0.0800 
 25 H        5.9080     5.2840    -0.0380 H     1 <1>   0.0800 
 26 H        5.9580     4.2890     1.3970 H     1 <1>   0.0800 
@<TRIPOS>BOND
  1   1   2  1   
  2   1   3  1   
  3   1   4  1   
  4   2   5  2   
  5   2  11  1   
  6   3   6  1   
  7   3  12  1   
  8   3  13  1   
  9   4   7  1   
 10   4  14  1   
 11   4  15  1   
 12   5   6  1   
 13   5  16  1   
 14   6   8  1   
 15   7   9  1   
 16   7  17  1   
 17   7  18  1   
 18   8  19  1   
 19   8  20  1   
 20   8  21  1   
 21   9  10  1   
 22   9  22  1   
 23   9  23  1   
 24  10  24  1   
 25  10  25  1   
 26  10  26  1   
@<TRIPOS>SUBSTRUCTURE
  1 ****   1 GROUP 4 **** **** 0

# MOE 2024.06 (io_trps.svl 2023.06)
