@<TRIPOS>MOLECULE
NONAME
53 56 1 0 0 
SMALL
USER_CHARGES


@<TRIPOS>ATOM
  1 O       -1.5280     0.6110     2.4500 O.2   1 <1>  -0.5700 
  2 C       -1.8520     1.1180     1.3930 C.2   1 <1>   0.5440 
  3 N       -2.4380     0.3330     0.4300 N.am  1 <1>  -0.6600 
  4 C       -1.6310     2.5220     1.1590 C.ar  1 <1>   0.0860 
  5 C       -3.0520     0.8370    -0.8260 C.3   1 <1>   0.1400 
  6 C       -2.8450    -1.0680     0.6710 C.3   1 <1>   0.1400 
  7 C       -0.6590     2.9840     0.2600 C.ar  1 <1>   0.0000 
  8 C       -2.3800     3.5050     1.7700 C.ar  1 <1>  -0.1500 
  9 C       -3.9880    -0.2800    -1.3050 C.3   1 <1>   0.2000 
 10 C       -3.4040    -1.5480    -0.6710 C.3   1 <1>  -0.0800 
 11 C       -0.5740     4.3370     0.0100 C.ar  1 <1>   0.1050 
 12 C        0.3520     2.4240    -0.5440 C.2   1 <1>   0.1080 
 13 C       -2.1940     4.8560     1.4580 C.ar  1 <1>   0.1660 
 14 O       -5.2750    -0.0710    -0.7960 O.3   1 <1>  -0.5600 
 15 C       -4.4020    -2.7130    -0.5390 C.3   1 <1>   0.0200 
 16 N       -1.3230     5.2950     0.5850 N.ar  1 <1>  -0.5670 
 17 N        0.4140     4.4860    -0.9160 N.pl3 1 <1>   0.3140 
 18 N        0.9760     3.3030    -1.2530 N.2   1 <1>  -0.7070 
 19 C        0.7240     0.9570    -0.5840 C.3   1 <1>  -0.0590 
 20 C       -3.0410     5.9050     2.1490 C.3   1 <1>  -0.0970 
 21 C       -6.0880     0.7650    -1.5580 C.3   1 <1>   0.0400 
 22 C       -3.7580    -4.0090    -0.0760 C.2   1 <1>  -0.0400 
 23 C        0.8730     5.7600    -1.4830 C.3   1 <1>   0.0160 
 24 O       -4.5240    -5.0460     0.1390 O.3   1 <1>  -0.0190 
 25 C       -2.4930    -4.3790     0.1800 C.2   1 <1>  -0.1500 
 26 N       -3.8430    -6.0850     0.5270 N.2   1 <1>  -0.4100 
 27 C       -2.6150    -5.7120     0.5630 C.2   1 <1>   0.1080 
 28 C       -1.4660    -6.6080     0.9670 C.3   1 <1>  -0.0590 
 29 H       -3.5830     1.7570    -0.6580 H     1 <1>   0.0800 
 30 H       -2.2750     0.9980    -1.5520 H     1 <1>   0.0800 
 31 H       -2.0060    -1.6550     1.0000 H     1 <1>   0.0800 
 32 H       -3.6100    -1.0800     1.4290 H     1 <1>   0.0800 
 33 H       -3.1240     3.2210     2.4920 H     1 <1>   0.1500 
 34 H       -4.0370    -0.3530    -2.3780 H     1 <1>   0.0800 
 35 H       -2.5760    -1.8660    -1.2790 H     1 <1>   0.0800 
 36 H       -4.8690    -2.8900    -1.4910 H     1 <1>   0.0800 
 37 H       -5.1790    -2.4500     0.1580 H     1 <1>   0.0800 
 38 H        0.7630     0.5570     0.4120 H     1 <1>   0.0800 
 39 H        1.6920     0.8410    -1.0380 H     1 <1>   0.0800 
 40 H        0.0050     0.4070    -1.1600 H     1 <1>   0.0800 
 41 H       -3.7210     5.4580     2.8510 H     1 <1>   0.0800 
 42 H       -3.6050     6.4520     1.4160 H     1 <1>   0.0800 
 43 H       -2.4020     6.5910     2.6750 H     1 <1>   0.0800 
 44 H       -7.0360     0.8540    -1.0570 H     1 <1>   0.0800 
 45 H       -6.2350     0.3290    -2.5310 H     1 <1>   0.0800 
 46 H       -5.6330     1.7370    -1.6420 H     1 <1>   0.0800 
 47 H        0.0310     6.2840    -1.8950 H     1 <1>   0.0800 
 48 H        1.5960     5.5650    -2.2530 H     1 <1>   0.0800 
 49 H        1.3200     6.3470    -0.7030 H     1 <1>   0.0800 
 50 H       -1.5770    -3.8230     0.1200 H     1 <1>   0.1500 
 51 H       -0.7700    -6.6980     0.1540 H     1 <1>   0.0800 
 52 H       -1.8350    -7.5850     1.2210 H     1 <1>   0.0800 
 53 H       -0.9640    -6.1930     1.8220 H     1 <1>   0.0800 
@<TRIPOS>BOND
  1   1   2  2   
  2   2   3  am  
  3   2   4  1   
  4   3   5  1   
  5   3   6  1   
  6   4   7  ar  
  7   4   8  ar  
  8   5   9  1   
  9   5  29  1   
 10   5  30  1   
 11   6  10  1   
 12   6  31  1   
 13   6  32  1   
 14   7  11  ar  
 15   7  12  1   
 16   8  13  ar  
 17   8  33  1   
 18   9  10  1   
 19   9  14  1   
 20   9  34  1   
 21  10  15  1   
 22  10  35  1   
 23  11  16  ar  
 24  11  17  1   
 25  12  18  2   
 26  12  19  1   
 27  13  16  ar  
 28  13  20  1   
 29  14  21  1   
 30  15  22  1   
 31  15  36  1   
 32  15  37  1   
 33  17  18  1   
 34  17  23  1   
 35  19  38  1   
 36  19  39  1   
 37  19  40  1   
 38  20  41  1   
 39  20  42  1   
 40  20  43  1   
 41  21  44  1   
 42  21  45  1   
 43  21  46  1   
 44  22  24  1   
 45  22  25  2   
 46  23  47  1   
 47  23  48  1   
 48  23  49  1   
 49  24  26  1   
 50  25  27  1   
 51  25  50  1   
 52  26  27  2   
 53  27  28  1   
 54  28  51  1   
 55  28  52  1   
 56  28  53  1   
@<TRIPOS>SUBSTRUCTURE
  1 ****   3 GROUP 4 **** **** 0

# MOE 2024.06 (io_trps.svl 2023.06)
