@<TRIPOS>MOLECULE
NONAME
36 37 1 0 0 
SMALL
USER_CHARGES


@<TRIPOS>ATOM
  1 S       -0.8490     0.8470    -1.5250 S.o2  1 <1>   1.4470 
  2 O       -1.2550     2.2130    -1.7850 O.2   1 <1>  -0.6500 
  3 O       -0.9300    -0.1000    -2.6170 O.2   1 <1>  -0.6500 
  4 N       -1.8620     0.2910    -0.2790 N.am  1 <1>  -0.8490 
  5 C        0.8370     0.8560    -0.8410 C.ar  1 <1>  -0.0090 
  6 C       -1.3930    -0.9380     0.4010 C.3   1 <1>   0.1960 
  7 C       -3.2620     0.2190    -0.7420 C.3   1 <1>   0.1960 
  8 C        1.3380     1.9620    -0.1670 C.ar  1 <1>  -0.1500 
  9 C        1.6610    -0.2580    -0.9470 C.ar  1 <1>  -0.1500 
 10 C       -1.9960    -2.1850    -0.2270 C.3   1 <1>  -0.1860 
 11 C       -4.1070    -0.7700     0.0710 C.3   1 <1>  -0.1600 
 12 C        2.6110     1.9590     0.3780 C.ar  1 <1>  -0.1500 
 13 C        2.9320    -0.2720    -0.4020 C.ar  1 <1>  -0.1500 
 14 C       -1.2070    -3.3920     0.2300 C.2   1 <1>   0.9060 
 15 C       -3.5130    -2.1900     0.0400 C.3   1 <1>   0.2000 
 16 C        3.4270     0.8370     0.2720 C.ar  1 <1>  -0.1440 
 17 O       -0.0050    -3.4240    -0.0530 O.co2 1 <1>  -0.9000 
 18 O       -1.7550    -4.2890     0.8820 O.co2 1 <1>  -0.9000 
 19 O       -3.7740    -2.7550     1.2680 O.3   1 <1>  -0.6800 
 20 C        4.8410     0.8130     0.8750 C.3   1 <1>   1.1640 
 21 F        5.7690     1.0910    -0.0310 F     1 <1>  -0.3400 
 22 F        5.0020     1.6970     1.8530 F     1 <1>  -0.3400 
 23 F        5.1640    -0.3680     1.3890 F     1 <1>  -0.3400 
 24 H       -0.3230    -1.0040     0.4100 H     1 <1>   0.0800 
 25 H       -1.6980    -0.9010     1.4340 H     1 <1>   0.0800 
 26 H       -3.6960     1.2030    -0.6930 H     1 <1>   0.0800 
 27 H       -3.2900    -0.0970    -1.7730 H     1 <1>   0.0800 
 28 H        0.7180     2.8380    -0.0680 H     1 <1>   0.1500 
 29 H        1.2950    -1.1430    -1.4500 H     1 <1>   0.1500 
 30 H       -1.8380    -2.1390    -1.2860 H     1 <1>   0.0800 
 31 H       -5.1050    -0.7980    -0.3240 H     1 <1>   0.0800 
 32 H       -4.1600    -0.4060     1.0820 H     1 <1>   0.0800 
 33 H        2.9580     2.8420     0.8900 H     1 <1>   0.1500 
 34 H        3.5250    -1.1670    -0.5030 H     1 <1>   0.1500 
 35 H       -3.9990    -2.8000    -0.7030 H     1 <1>   0.0800 
 36 H       -3.1290    -3.5240     1.3550 H     1 <1>   0.4000 
@<TRIPOS>BOND
  1   1   2  2   
  2   1   3  2   
  3   1   4  am  
  4   1   5  1   
  5   4   6  1   
  6   4   7  1   
  7   5   8  ar  
  8   5   9  ar  
  9   6  10  1   
 10   6  24  1   
 11   6  25  1   
 12   7  11  1   
 13   7  26  1   
 14   7  27  1   
 15   8  12  ar  
 16   8  28  1   
 17   9  13  ar  
 18   9  29  1   
 19  10  14  1   
 20  10  15  1   
 21  10  30  1   
 22  11  15  1   
 23  11  31  1   
 24  11  32  1   
 25  12  16  ar  
 26  12  33  1   
 27  13  16  ar  
 28  13  34  1   
 29  14  17  ar  
 30  14  18  ar  
 31  15  19  1   
 32  15  35  1   
 33  16  20  1   
 34  19  36  1   
 35  20  21  1   
 36  20  22  1   
 37  20  23  1   
@<TRIPOS>SUBSTRUCTURE
  1 ****   5 GROUP 4 **** **** 0

# MOE 2024.06 (io_trps.svl 2023.06)
