@<TRIPOS>MOLECULE
NONAME
49 52 1 0 0 
SMALL
USER_CHARGES


@<TRIPOS>ATOM
  1 CL      -0.3960    -4.8900    -0.4910 Cl    1 <1>  -0.1770 
  2 C       -1.3520    -3.4430    -0.2630 C.ar  1 <1>   0.1770 
  3 C       -2.6490    -3.5740     0.2280 C.ar  1 <1>  -0.1520 
  4 C       -0.8440    -2.2010    -0.5530 C.ar  1 <1>  -0.1500 
  5 N       -3.3580    -4.6860     0.5760 N.pl3 1 <1>   0.0330 
  6 C       -3.4430    -2.4540     0.4360 C.ar  1 <1>   0.0000 
  7 C       -1.6400    -1.0650    -0.3490 C.ar  1 <1>  -0.1500 
  8 C       -4.5960    -4.2860     1.0100 C.2   1 <1>  -0.3320 
  9 C       -4.6770    -2.9320     0.9350 C.2   1 <1>  -0.1810 
 10 C       -2.9230    -1.1870     0.1400 C.ar  1 <1>  -0.1500 
 11 C       -5.6240    -5.2900     1.4720 C.3   1 <1>   0.5230 
 12 C       -5.8270    -2.0120     1.3010 C.3   1 <1>  -0.0590 
 13 N       -5.7930    -6.2250     0.3510 N.4   1 <1>  -0.9590 
 14 C       -6.4590    -5.6690    -0.8630 C.3   1 <1>   0.3430 
 15 C       -6.3810    -7.5480     0.6270 C.3   1 <1>   0.3430 
 16 C       -7.1800    -6.8650    -1.5060 C.3   1 <1>   0.2000 
 17 C       -6.6240    -8.0960    -0.7780 C.3   1 <1>  -0.0800 
 18 O       -8.5460    -6.7790    -1.2600 O.3   1 <1>  -0.6800 
 19 C       -5.3300    -8.6100    -1.4730 C.3   1 <1>   0.0210 
 20 C       -4.0720    -8.6620    -0.6120 C.2   1 <1>   0.1080 
 21 N       -3.3760    -7.6150    -0.2620 N.2   1 <1>  -0.7070 
 22 C       -3.5140    -9.8440    -0.1390 C.2   1 <1>  -0.1500 
 23 N       -2.3110    -8.1290     0.4050 N.pl3 1 <1>   0.3000 
 24 C       -2.3920    -9.4690     0.5080 C.2   1 <1>  -0.3320 
 25 C       -1.3590   -10.3330     1.2110 C.3   1 <1>  -0.0600 
 26 H        0.1570    -2.0980    -0.9320 H     1 <1>   0.1500 
 27 H       -3.0130    -5.6470     0.4380 H     1 <1>   0.2700 
 28 H       -1.2350    -0.0940    -0.5780 H     1 <1>   0.1500 
 29 H       -3.5360    -0.3180     0.3000 H     1 <1>   0.1500 
 30 H       -6.5560    -4.8070     1.7140 H     1 <1>   0.0800 
 31 H       -5.2560    -5.8100     2.3430 H     1 <1>   0.0800 
 32 H       -5.5100    -1.3250     2.0660 H     1 <1>   0.0800 
 33 H       -6.6710    -2.5660     1.6650 H     1 <1>   0.0800 
 34 H       -6.1300    -1.4470     0.4370 H     1 <1>   0.0800 
 35 H       -4.8270    -6.4630     0.0490 H     1 <1>   0.4500 
 36 H       -7.1670    -4.8960    -0.6120 H     1 <1>   0.0800 
 37 H       -5.7150    -5.2670    -1.5320 H     1 <1>   0.0800 
 38 H       -5.7100    -8.1730     1.1960 H     1 <1>   0.0800 
 39 H       -7.3150    -7.4410     1.1540 H     1 <1>   0.0800 
 40 H       -7.0470    -6.8950    -2.5750 H     1 <1>   0.0800 
 41 H       -7.3450    -8.8960    -0.7560 H     1 <1>   0.0800 
 42 H       -8.7740    -6.7810    -0.3110 H     1 <1>   0.4000 
 43 H       -5.0950    -8.0070    -2.3320 H     1 <1>   0.0800 
 44 H       -5.5180    -9.6000    -1.8500 H     1 <1>   0.0800 
 45 H       -3.8990   -10.8390    -0.2840 H     1 <1>   0.1500 
 46 H       -1.5270    -7.5600     0.7570 H     1 <1>   0.2700 
 47 H       -1.6380   -11.3700     1.1500 H     1 <1>   0.0800 
 48 H       -1.2850   -10.0600     2.2490 H     1 <1>   0.0800 
 49 H       -0.3950   -10.2130     0.7490 H     1 <1>   0.0800 
@<TRIPOS>BOND
  1   1   2  1   
  2   2   3  ar  
  3   2   4  ar  
  4   3   5  1   
  5   3   6  ar  
  6   4   7  ar  
  7   4  26  1   
  8   5   8  1   
  9   5  27  1   
 10   6   9  1   
 11   6  10  ar  
 12   7  10  ar  
 13   7  28  1   
 14   8   9  2   
 15   8  11  1   
 16   9  12  1   
 17  10  29  1   
 18  11  13  1   
 19  11  30  1   
 20  11  31  1   
 21  12  32  1   
 22  12  33  1   
 23  12  34  1   
 24  13  14  1   
 25  13  15  1   
 26  13  35  1   
 27  14  16  1   
 28  14  36  1   
 29  14  37  1   
 30  15  17  1   
 31  15  38  1   
 32  15  39  1   
 33  16  17  1   
 34  16  18  1   
 35  16  40  1   
 36  17  19  1   
 37  17  41  1   
 38  18  42  1   
 39  19  20  1   
 40  19  43  1   
 41  19  44  1   
 42  20  21  2   
 43  20  22  1   
 44  21  23  1   
 45  22  24  2   
 46  22  45  1   
 47  23  24  1   
 48  23  46  1   
 49  24  25  1   
 50  25  47  1   
 51  25  48  1   
 52  25  49  1   
@<TRIPOS>SUBSTRUCTURE
  1 ****   5 GROUP 4 **** **** 0

# MOE 2024.06 (io_trps.svl 2023.06)
