@<TRIPOS>MOLECULE
NONAME
48 51 1 0 0 
SMALL
USER_CHARGES


@<TRIPOS>ATOM
  1 S        0.0060     0.1820    -2.2190 S.o2  1 <1>   1.4470 
  2 O       -0.3200    -0.7750    -3.2540 O.2   1 <1>  -0.6500 
  3 O        0.4350     1.5150    -2.5850 O.2   1 <1>  -0.6500 
  4 N       -1.3620     0.3460    -1.2300 N.am  1 <1>  -0.8490 
  5 C        1.2190    -0.5710    -1.0990 C.ar  1 <1>  -0.0090 
  6 C       -2.5730     0.5710    -2.0270 C.3   1 <1>   0.1960 
  7 C       -1.2010     1.4200    -0.2440 C.3   1 <1>   0.1960 
  8 C        2.4630     0.0150    -0.8860 C.ar  1 <1>  -0.1500 
  9 C        0.9170    -1.7610    -0.4250 C.ar  1 <1>  -0.1500 
 10 C       -3.8050     0.5350    -1.1210 C.3   1 <1>  -0.1600 
 11 C       -2.3730     1.3990     0.7350 C.3   1 <1>  -0.1600 
 12 C        3.3510    -0.5930    -0.0180 C.ar  1 <1>   0.0830 
 13 C        1.8140    -2.3640     0.4430 C.ar  1 <1>  -0.1500 
 14 C       -3.7040     1.5720    -0.0030 C.3   1 <1>   0.4180 
 15 O        4.5910    -0.1920     0.3250 O.3   1 <1>  -0.2330 
 16 C        3.0440    -1.7610     0.6420 C.ar  1 <1>   0.1170 
 17 O       -3.7260     2.8290    -0.6350 O.3   1 <1>  -0.5600 
 18 C       -4.8890     1.4300     0.9470 C.2   1 <1>  -0.2880 
 19 C        5.0650    -1.0940     1.1880 C.2   1 <1>   0.7800 
 20 N        4.1400    -2.0790     1.4130 N.am  1 <1>  -0.4770 
 21 C       -4.0730     3.9390     0.1440 C.3   1 <1>   0.1200 
 22 C       -5.7270     2.4240     1.2530 C.2   1 <1>  -0.2760 
 23 O        6.1730    -1.0110     1.6830 O.2   1 <1>  -0.5700 
 24 C        4.2980    -3.2590     2.2900 C.3   1 <1>   0.0600 
 25 C       -5.5100     3.8060     0.6660 C.3   1 <1>  -0.0220 
 26 C       -6.9330     2.2840     2.1660 C.3   1 <1>  -0.1020 
 27 H       -2.6740    -0.2020    -2.7710 H     1 <1>   0.0800 
 28 H       -2.5110     1.5200    -2.5360 H     1 <1>   0.0800 
 29 H       -1.1520     2.3770    -0.7400 H     1 <1>   0.0800 
 30 H       -0.2850     1.2790     0.3060 H     1 <1>   0.0800 
 31 H        2.7400     0.9280    -1.3850 H     1 <1>   0.1500 
 32 H       -0.0460    -2.2160    -0.5930 H     1 <1>   0.1500 
 33 H       -3.8910    -0.4490    -0.6980 H     1 <1>   0.0800 
 34 H       -4.6920     0.7230    -1.6980 H     1 <1>   0.0800 
 35 H       -2.2560     2.1680     1.4740 H     1 <1>   0.0800 
 36 H       -2.3730     0.4570     1.2520 H     1 <1>   0.0800 
 37 H        1.5680    -3.2790     0.9530 H     1 <1>   0.1500 
 38 H       -4.9890     0.4360     1.3440 H     1 <1>   0.1500 
 39 H       -3.9790     4.8160    -0.4710 H     1 <1>   0.0800 
 40 H       -3.3810     4.0160     0.9630 H     1 <1>   0.0800 
 41 H        3.5450    -3.2430     3.0580 H     1 <1>   0.0800 
 42 H        5.2710    -3.2450     2.7510 H     1 <1>   0.0800 
 43 H        4.1980    -4.1580     1.7080 H     1 <1>   0.0800 
 44 H       -6.2050     3.9740    -0.1370 H     1 <1>   0.0800 
 45 H       -5.6730     4.5600     1.4150 H     1 <1>   0.0800 
 46 H       -6.8360     2.9380     3.0140 H     1 <1>   0.0800 
 47 H       -7.0200     1.2730     2.5230 H     1 <1>   0.0800 
 48 H       -7.8310     2.5350     1.6310 H     1 <1>   0.0800 
@<TRIPOS>BOND
  1   1   2  2   
  2   1   3  2   
  3   1   4  am  
  4   1   5  1   
  5   4   6  1   
  6   4   7  1   
  7   5   8  ar  
  8   5   9  ar  
  9   6  10  1   
 10   6  27  1   
 11   6  28  1   
 12   7  11  1   
 13   7  29  1   
 14   7  30  1   
 15   8  12  ar  
 16   8  31  1   
 17   9  13  ar  
 18   9  32  1   
 19  10  14  1   
 20  10  33  1   
 21  10  34  1   
 22  11  14  1   
 23  11  35  1   
 24  11  36  1   
 25  12  15  1   
 26  12  16  ar  
 27  13  16  ar  
 28  13  37  1   
 29  14  17  1   
 30  14  18  1   
 31  15  19  1   
 32  16  20  1   
 33  17  21  1   
 34  18  22  2   
 35  18  38  1   
 36  19  20  am  
 37  19  23  2   
 38  20  24  1   
 39  21  25  1   
 40  21  39  1   
 41  21  40  1   
 42  22  25  1   
 43  22  26  1   
 44  24  41  1   
 45  24  42  1   
 46  24  43  1   
 47  25  44  1   
 48  25  45  1   
 49  26  46  1   
 50  26  47  1   
 51  26  48  1   
@<TRIPOS>SUBSTRUCTURE
  1 ****   7 GROUP 4 **** **** 0

# MOE 2024.06 (io_trps.svl 2023.06)
