@<TRIPOS>MOLECULE
NONAME
44 46 1 0 0 
SMALL
USER_CHARGES


@<TRIPOS>ATOM
  1 O        3.3580     0.1190     2.2630 O.3   1 <1>  -0.6800 
  2 C        2.4500    -0.1610     1.2410 C.3   1 <1>   0.2000 
  3 C        2.8650    -1.4340     0.4980 C.3   1 <1>  -0.0800 
  4 C        2.5910     0.9140     0.1600 C.3   1 <1>   0.3430 
  5 C        3.9090    -0.9700    -0.5280 C.3   1 <1>   0.3430 
  6 C        3.3700    -2.5970     1.3740 C.3   1 <1>   0.0210 
  7 N        3.7850     0.5110    -0.6360 N.4   1 <1>  -0.9590 
  8 C        3.7210    -3.8060     0.5280 C.2   1 <1>   0.1080 
  9 C        5.0120     1.1990    -0.1330 C.3   1 <1>   0.4860 
 10 N        4.6450    -3.7830    -0.3840 N.2   1 <1>  -0.7070 
 11 C        3.1130    -5.0520     0.6300 C.2   1 <1>  -0.1500 
 12 C        4.9490     2.6790    -0.5030 C.ar  1 <1>   0.1670 
 13 N        4.6570    -5.0360    -0.8870 N.pl3 1 <1>   0.3000 
 14 C        3.7340    -5.8180    -0.2910 C.2   1 <1>  -0.3320 
 15 N        4.6020     2.9260    -1.7640 N.ar  1 <1>  -0.6200 
 16 C        5.2250     3.6640     0.4440 C.ar  1 <1>  -0.1440 
 17 C        3.5030    -7.2780    -0.6390 C.3   1 <1>  -0.0600 
 18 C        4.5430     4.2040    -2.1040 C.ar  1 <1>   0.1600 
 19 C        5.1500     4.9880     0.0610 C.ar  1 <1>  -0.1500 
 20 C        5.6070     3.3340     1.8830 C.3   1 <1>  -0.0970 
 21 C        4.8020     5.2550    -1.2440 C.ar  1 <1>  -0.1500 
 22 H        3.1670    -0.4200     3.0600 H     1 <1>   0.4000 
 23 H        1.4570    -0.2010     1.6560 H     1 <1>   0.0800 
 24 H        2.0150    -1.7870    -0.0590 H     1 <1>   0.0800 
 25 H        2.6950     1.8970     0.5890 H     1 <1>   0.0800 
 26 H        1.7190     0.8940    -0.4720 H     1 <1>   0.0800 
 27 H        3.7330    -1.4500    -1.4780 H     1 <1>   0.0800 
 28 H        4.8960    -1.2420    -0.1900 H     1 <1>   0.0800 
 29 H        2.6140    -2.8740     2.0860 H     1 <1>   0.0800 
 30 H        4.2530    -2.3090     1.9170 H     1 <1>   0.0800 
 31 H        3.6930     0.8500    -1.6090 H     1 <1>   0.4500 
 32 H        5.0990     1.0750     0.9320 H     1 <1>   0.0800 
 33 H        5.8830     0.7720    -0.6000 H     1 <1>   0.0800 
 34 H        2.3230    -5.3280     1.3060 H     1 <1>   0.1500 
 35 H        5.3050    -5.3300    -1.6290 H     1 <1>   0.2700 
 36 H        2.7180    -7.6850    -0.0260 H     1 <1>   0.0800 
 37 H        4.3990    -7.8480    -0.4690 H     1 <1>   0.0800 
 38 H        3.2150    -7.3750    -1.6710 H     1 <1>   0.0800 
 39 H        4.2750     4.4300    -3.1230 H     1 <1>   0.1500 
 40 H        5.3540     5.7930     0.7480 H     1 <1>   0.1500 
 41 H        5.7790     4.2330     2.4490 H     1 <1>   0.0800 
 42 H        6.5110     2.7510     1.9070 H     1 <1>   0.0800 
 43 H        4.8180     2.7850     2.3660 H     1 <1>   0.0800 
 44 H        4.7330     6.2690    -1.5940 H     1 <1>   0.1500 
@<TRIPOS>BOND
  1   1   2  1   
  2   1  22  1   
  3   2   3  1   
  4   2   4  1   
  5   2  23  1   
  6   3   5  1   
  7   3   6  1   
  8   3  24  1   
  9   4   7  1   
 10   4  25  1   
 11   4  26  1   
 12   5   7  1   
 13   5  27  1   
 14   5  28  1   
 15   6   8  1   
 16   6  29  1   
 17   6  30  1   
 18   7   9  1   
 19   7  31  1   
 20   8  10  2   
 21   8  11  1   
 22   9  12  1   
 23   9  32  1   
 24   9  33  1   
 25  10  13  1   
 26  11  14  2   
 27  11  34  1   
 28  12  15  ar  
 29  12  16  ar  
 30  13  14  1   
 31  13  35  1   
 32  14  17  1   
 33  15  18  ar  
 34  16  19  ar  
 35  16  20  1   
 36  17  36  1   
 37  17  37  1   
 38  17  38  1   
 39  18  21  ar  
 40  18  39  1   
 41  19  21  ar  
 42  19  40  1   
 43  20  41  1   
 44  20  42  1   
 45  20  43  1   
 46  21  44  1   
@<TRIPOS>SUBSTRUCTURE
  1 ****   5 GROUP 4 **** **** 0

# MOE 2024.06 (io_trps.svl 2023.06)
