@<TRIPOS>MOLECULE
NONAME
47 50 1 0 0 
SMALL
USER_CHARGES


@<TRIPOS>ATOM
  1 O        0.8310    -0.0750     0.3890 O.3   1 <1>  -0.5600 
  2 C        1.8640    -0.9540    -0.0040 C.3   1 <1>   0.4240 
  3 C       -0.4310    -0.2620    -0.1600 C.3   1 <1>   0.1200 
  4 C        1.3450    -2.4150    -0.1460 C.ar  1 <1>  -0.1440 
  5 C        2.9010    -0.8290     1.1260 C.3   1 <1>  -0.1600 
  6 C        2.4420    -0.4000    -1.3220 C.3   1 <1>  -0.1600 
  7 C       -0.9810    -1.5770     0.3680 C.3   1 <1>  -0.0160 
  8 C        2.1950    -3.4830    -0.4690 C.ar  1 <1>   0.0820 
  9 C       -0.0080    -2.6930     0.0470 C.ar  1 <1>  -0.1440 
 10 C        3.4500     0.5940     1.2440 C.3   1 <1>   0.2090 
 11 C        2.9860     1.0170    -1.1480 C.3   1 <1>   0.2090 
 12 O        3.5130    -3.2340    -0.6870 O.3   1 <1>  -0.3630 
 13 C        1.6890    -4.7780    -0.5700 C.ar  1 <1>  -0.1500 
 14 C       -0.4990    -3.9840    -0.0530 C.ar  1 <1>  -0.1500 
 15 N        4.0050     1.0130    -0.0710 N.pl3 1 <1>  -0.8380 
 16 C        4.4620    -4.2560    -0.8980 C.3   1 <1>   0.0400 
 17 C        0.3490    -5.0270    -0.3600 C.ar  1 <1>  -0.1500 
 18 C        4.9900     1.9890    -0.1030 C.ar  1 <1>   0.4100 
 19 N        5.0100     2.9220     0.8590 N.ar  1 <1>  -0.3100 
 20 C        5.9220     1.9830    -1.1240 C.ar  1 <1>  -0.1500 
 21 N        5.9220     3.8660     0.8540 N.ar  1 <1>  -0.3100 
 22 C        6.8770     2.9690    -1.1330 C.ar  1 <1>  -0.1500 
 23 C        6.8320     3.8950    -0.1130 C.ar  1 <1>   0.1670 
 24 C        7.8480     5.0170    -0.0460 C.3   1 <1>  -0.0970 
 25 H       -0.3580    -0.2710    -1.2330 H     1 <1>   0.0800 
 26 H       -1.0510     0.5600     0.1490 H     1 <1>   0.0800 
 27 H        3.7340    -1.4790     0.9560 H     1 <1>   0.0800 
 28 H        2.4480    -1.1230     2.0530 H     1 <1>   0.0800 
 29 H        1.6940    -0.4190    -2.0900 H     1 <1>   0.0800 
 30 H        3.2520    -1.0150    -1.6600 H     1 <1>   0.0800 
 31 H       -1.9350    -1.7680    -0.0880 H     1 <1>   0.0800 
 32 H       -1.1190    -1.5070     1.4320 H     1 <1>   0.0800 
 33 H        4.2240     0.6220     1.9930 H     1 <1>   0.0800 
 34 H        2.6700     1.2760     1.5380 H     1 <1>   0.0800 
 35 H        2.1900     1.6930    -0.8820 H     1 <1>   0.0800 
 36 H        3.4220     1.3570    -2.0710 H     1 <1>   0.0800 
 37 H        2.3200    -5.6100    -0.8140 H     1 <1>   0.1500 
 38 H       -1.5440    -4.1820     0.1070 H     1 <1>   0.1500 
 39 H        5.4300    -3.7970    -0.9860 H     1 <1>   0.0800 
 40 H        4.2200    -4.7750    -1.8080 H     1 <1>   0.0800 
 41 H        4.4500    -4.9230    -0.0540 H     1 <1>   0.0800 
 42 H       -0.0350    -6.0290    -0.4370 H     1 <1>   0.1500 
 43 H        5.8880     1.2160    -1.8740 H     1 <1>   0.1500 
 44 H        7.6250     3.0110    -1.9030 H     1 <1>   0.1500 
 45 H        8.3930     4.9520     0.8790 H     1 <1>   0.0800 
 46 H        7.3400     5.9630    -0.0820 H     1 <1>   0.0800 
 47 H        8.5420     4.9610    -0.8640 H     1 <1>   0.0800 
@<TRIPOS>BOND
  1   1   2  1   
  2   1   3  1   
  3   2   4  1   
  4   2   5  1   
  5   2   6  1   
  6   3   7  1   
  7   3  25  1   
  8   3  26  1   
  9   4   8  ar  
 10   4   9  ar  
 11   5  10  1   
 12   5  27  1   
 13   5  28  1   
 14   6  11  1   
 15   6  29  1   
 16   6  30  1   
 17   7   9  1   
 18   7  31  1   
 19   7  32  1   
 20   8  12  1   
 21   8  13  ar  
 22   9  14  ar  
 23  10  15  1   
 24  10  33  1   
 25  10  34  1   
 26  11  15  1   
 27  11  35  1   
 28  11  36  1   
 29  12  16  1   
 30  13  17  ar  
 31  13  37  1   
 32  14  17  ar  
 33  14  38  1   
 34  15  18  1   
 35  16  39  1   
 36  16  40  1   
 37  16  41  1   
 38  17  42  1   
 39  18  19  ar  
 40  18  20  ar  
 41  19  21  ar  
 42  20  22  ar  
 43  20  43  1   
 44  21  23  ar  
 45  22  23  ar  
 46  22  44  1   
 47  23  24  1   
 48  24  45  1   
 49  24  46  1   
 50  24  47  1   
@<TRIPOS>SUBSTRUCTURE
  1 ****   6 GROUP 4 **** **** 0

# MOE 2024.06 (io_trps.svl 2023.06)
