@<TRIPOS>MOLECULE
NONAME
44 46 1 0 0 
SMALL
USER_CHARGES


@<TRIPOS>ATOM
  1 O       -0.2090     1.8240     1.4810 O.3   1 <1>  -0.3630 
  2 C       -0.4120     2.4230     0.2830 C.ar  1 <1>   0.0830 
  3 C        0.7900     0.8410     1.6480 C.3   1 <1>   0.0400 
  4 C       -1.4930     3.2830     0.2020 C.ar  1 <1>  -0.1500 
  5 C        0.3920     2.2240    -0.8340 C.ar  1 <1>  -0.1500 
  6 C       -1.7780     3.9620    -0.9750 C.ar  1 <1>  -0.1430 
  7 C        0.1070     2.8880    -2.0130 C.ar  1 <1>  -0.1500 
  8 C       -0.9710     3.7530    -2.0850 C.ar  1 <1>  -0.1500 
  9 C       -2.9370     4.9470    -1.0620 C.3   1 <1>   0.5660 
 10 N       -2.7710     5.9880    -0.0030 N.4   1 <1>  -0.9590 
 11 C       -4.2790     4.2220    -0.8940 C.3   1 <1>  -0.1600 
 12 C       -3.8840     6.9860    -0.0290 C.3   1 <1>   0.3430 
 13 C       -1.4330     6.6670    -0.1250 C.3   1 <1>   0.3430 
 14 C       -5.4630     5.1960    -0.8740 C.3   1 <1>  -0.1600 
 15 C       -5.2290     6.2870     0.1750 C.3   1 <1>  -0.1600 
 16 C       -0.9840     7.3390     1.1780 C.3   1 <1>   0.0960 
 17 N        0.1770     8.1860     0.8790 N.pl3 1 <1>   0.3140 
 18 N        0.1970     8.9810    -0.1800 N.2   1 <1>  -0.7070 
 19 C        1.3310     8.3150     1.5370 C.2   1 <1>   0.0360 
 20 C        1.3620     9.5380    -0.0850 C.2   1 <1>   0.3660 
 21 N        2.1070     9.1570     0.9600 N.2   1 <1>  -0.5650 
 22 H        0.7370     0.4780     2.6590 H     1 <1>   0.0800 
 23 H        1.7530     1.2840     1.4700 H     1 <1>   0.0800 
 24 H        0.6040     0.0330     0.9610 H     1 <1>   0.0800 
 25 H       -2.0970     3.3960     1.0830 H     1 <1>   0.1500 
 26 H        1.2370     1.5610    -0.8040 H     1 <1>   0.1500 
 27 H        0.7300     2.7290    -2.8780 H     1 <1>   0.1500 
 28 H       -1.1660     4.2570    -3.0180 H     1 <1>   0.1500 
 29 H       -2.9210     5.4220    -2.0300 H     1 <1>   0.0800 
 30 H       -2.8110     5.4650     0.8780 H     1 <1>   0.4500 
 31 H       -4.2740     3.6460     0.0150 H     1 <1>   0.0800 
 32 H       -4.4030     3.5280    -1.7070 H     1 <1>   0.0800 
 33 H       -3.8900     7.4990    -0.9780 H     1 <1>   0.0800 
 34 H       -3.7460     7.7210     0.7470 H     1 <1>   0.0800 
 35 H       -1.4850     7.4080    -0.9070 H     1 <1>   0.0800 
 36 H       -0.6740     5.9530    -0.4010 H     1 <1>   0.0800 
 37 H       -6.3730     4.6620    -0.6530 H     1 <1>   0.0800 
 38 H       -5.5780     5.6470    -1.8470 H     1 <1>   0.0800 
 39 H       -6.0170     7.0180     0.1080 H     1 <1>   0.0800 
 40 H       -5.2690     5.8640     1.1640 H     1 <1>   0.0800 
 41 H       -0.7030     6.6030     1.9080 H     1 <1>   0.0800 
 42 H       -1.7550     7.9740     1.5700 H     1 <1>   0.0800 
 43 H        1.5690     7.7750     2.4370 H     1 <1>   0.1500 
 44 H        1.7360    10.2650    -0.7900 H     1 <1>   0.1500 
@<TRIPOS>BOND
  1   1   2  1   
  2   1   3  1   
  3   2   4  ar  
  4   2   5  ar  
  5   3  22  1   
  6   3  23  1   
  7   3  24  1   
  8   4   6  ar  
  9   4  25  1   
 10   5   7  ar  
 11   5  26  1   
 12   6   8  ar  
 13   6   9  1   
 14   7   8  ar  
 15   7  27  1   
 16   8  28  1   
 17   9  10  1   
 18   9  11  1   
 19   9  29  1   
 20  10  12  1   
 21  10  13  1   
 22  10  30  1   
 23  11  14  1   
 24  11  31  1   
 25  11  32  1   
 26  12  15  1   
 27  12  33  1   
 28  12  34  1   
 29  13  16  1   
 30  13  35  1   
 31  13  36  1   
 32  14  15  1   
 33  14  37  1   
 34  14  38  1   
 35  15  39  1   
 36  15  40  1   
 37  16  17  1   
 38  16  41  1   
 39  16  42  1   
 40  17  18  1   
 41  17  19  1   
 42  18  20  2   
 43  19  21  2   
 44  19  43  1   
 45  20  21  1   
 46  20  44  1   
@<TRIPOS>SUBSTRUCTURE
  1 ****  13 GROUP 4 **** **** 0

# MOE 2024.06 (io_trps.svl 2023.06)
