@<TRIPOS>MOLECULE
NONAME
54 56 1 0 0 
SMALL
USER_CHARGES


@<TRIPOS>ATOM
  1 F       -2.3500    -0.6310     3.0640 F     1 <1>  -0.1900 
  2 C       -3.5220    -0.8530     2.5320 C.ar  1 <1>   0.1900 
  3 C       -4.5310     0.0690     2.7350 C.ar  1 <1>  -0.1500 
  4 C       -3.7090    -2.0020     1.7870 C.ar  1 <1>  -0.1500 
  5 C       -5.7710    -0.1740     2.1670 C.ar  1 <1>  -0.1500 
  6 C       -4.9520    -2.2370     1.2230 C.ar  1 <1>  -0.1500 
  7 C       -5.9880    -1.3200     1.4120 C.ar  1 <1>   0.0830 
  8 O       -7.2320    -1.4730     0.8950 O.3   1 <1>  -0.3630 
  9 C       -7.5720    -2.5940     0.1170 C.3   1 <1>   0.1200 
 10 C       -9.0350    -2.4350    -0.2950 C.3   1 <1>  -0.1600 
 11 C       -9.4660    -3.5780    -1.2100 C.3   1 <1>   0.3430 
 12 N      -10.9130    -3.4620    -1.5220 N.4   1 <1>  -0.9590 
 13 C      -11.4940    -4.7590    -2.0050 C.3   1 <1>   0.3430 
 14 C      -11.2780    -2.3100    -2.3940 C.3   1 <1>   0.3430 
 15 C      -13.0380    -4.7660    -1.9220 C.3   1 <1>   0.1400 
 16 C      -12.4670    -1.5630    -1.7830 C.3   1 <1>  -0.1600 
 17 N      -13.5440    -3.6750    -1.0280 N.am  1 <1>  -0.6600 
 18 C      -13.7720    -2.3690    -1.7090 C.3   1 <1>   0.1400 
 19 C      -13.6050    -3.7910     0.3540 C.2   1 <1>   0.5440 
 20 O      -13.8180    -2.7740     0.9880 O.2   1 <1>  -0.5700 
 21 C      -13.3540    -5.0520     1.0580 C.ar  1 <1>   0.3960 
 22 N      -12.1430    -5.6270     0.8990 N.ar  1 <1>  -0.6200 
 23 C      -14.3490    -5.6240     1.8660 C.ar  1 <1>  -0.1430 
 24 C      -11.9290    -6.7500     1.5610 C.ar  1 <1>   0.1600 
 25 C      -14.0960    -6.8030     2.5360 C.ar  1 <1>  -0.1500 
 26 C      -15.7190    -4.9720     2.0330 C.3   1 <1>  -0.0970 
 27 C      -12.8540    -7.3710     2.3760 C.ar  1 <1>  -0.1500 
 28 H       -4.3480     0.9520     3.3210 H     1 <1>   0.1500 
 29 H       -2.8950    -2.6920     1.6550 H     1 <1>   0.1500 
 30 H       -6.5770     0.5240     2.3070 H     1 <1>   0.1500 
 31 H       -5.0890    -3.1310     0.6460 H     1 <1>   0.1500 
 32 H       -7.4290    -3.4770     0.7170 H     1 <1>   0.0800 
 33 H       -6.9240    -2.6130    -0.7430 H     1 <1>   0.0800 
 34 H       -9.1420    -1.4920    -0.7990 H     1 <1>   0.0800 
 35 H       -9.6410    -2.4370     0.5950 H     1 <1>   0.0800 
 36 H       -9.2860    -4.5130    -0.7030 H     1 <1>   0.0800 
 37 H       -8.8880    -3.5670    -2.1200 H     1 <1>   0.0800 
 38 H      -11.4150    -3.2930    -0.6320 H     1 <1>   0.4500 
 39 H      -11.1310    -5.5590    -1.3800 H     1 <1>   0.0800 
 40 H      -11.1790    -4.9660    -3.0140 H     1 <1>   0.0800 
 41 H      -11.5240    -2.6530    -3.3860 H     1 <1>   0.0800 
 42 H      -10.4460    -1.6300    -2.4720 H     1 <1>   0.0800 
 43 H      -13.3720    -5.7250    -1.5640 H     1 <1>   0.0800 
 44 H      -13.4480    -4.6430    -2.9090 H     1 <1>   0.0800 
 45 H      -12.6560    -0.6860    -2.3760 H     1 <1>   0.0800 
 46 H      -12.2100    -1.2160    -0.7970 H     1 <1>   0.0800 
 47 H      -14.1640    -2.5380    -2.6980 H     1 <1>   0.0800 
 48 H      -14.5120    -1.8030    -1.1660 H     1 <1>   0.0800 
 49 H      -10.9610    -7.2110     1.4540 H     1 <1>   0.1500 
 50 H      -14.8350    -7.2690     3.1670 H     1 <1>   0.1500 
 51 H      -16.1550    -4.7580     1.0730 H     1 <1>   0.0800 
 52 H      -15.6230    -4.0510     2.5810 H     1 <1>   0.0800 
 53 H      -16.3930    -5.6150     2.5700 H     1 <1>   0.0800 
 54 H      -12.6050    -8.2880     2.8820 H     1 <1>   0.1500 
@<TRIPOS>BOND
  1   1   2  1   
  2   2   3  ar  
  3   2   4  ar  
  4   3   5  ar  
  5   3  28  1   
  6   4   6  ar  
  7   4  29  1   
  8   5   7  ar  
  9   5  30  1   
 10   6   7  ar  
 11   6  31  1   
 12   7   8  1   
 13   8   9  1   
 14   9  10  1   
 15   9  32  1   
 16   9  33  1   
 17  10  11  1   
 18  10  34  1   
 19  10  35  1   
 20  11  12  1   
 21  11  36  1   
 22  11  37  1   
 23  12  13  1   
 24  12  14  1   
 25  12  38  1   
 26  13  15  1   
 27  13  39  1   
 28  13  40  1   
 29  14  16  1   
 30  14  41  1   
 31  14  42  1   
 32  15  17  1   
 33  15  43  1   
 34  15  44  1   
 35  16  18  1   
 36  16  45  1   
 37  16  46  1   
 38  17  18  1   
 39  17  19  am  
 40  18  47  1   
 41  18  48  1   
 42  19  20  2   
 43  19  21  1   
 44  21  22  ar  
 45  21  23  ar  
 46  22  24  ar  
 47  23  25  ar  
 48  23  26  1   
 49  24  27  ar  
 50  24  49  1   
 51  25  27  ar  
 52  25  50  1   
 53  26  51  1   
 54  26  52  1   
 55  26  53  1   
 56  27  54  1   
@<TRIPOS>SUBSTRUCTURE
  1 ****  10 GROUP 4 **** **** 0

# MOE 2024.06 (io_trps.svl 2023.06)
