@<TRIPOS>MOLECULE
NONAME
47 49 1 0 0 
SMALL
USER_CHARGES


@<TRIPOS>ATOM
  1 S       -0.0650    -0.0320     0.0700 S.o2  1 <1>   1.3330 
  2 O       -0.0850    -0.7940     1.2980 O.2   1 <1>  -0.6500 
  3 O       -0.7640     1.2310     0.0020 O.2   1 <1>  -0.6500 
  4 N       -0.6500    -1.0330    -1.1700 N.am  1 <1>  -0.8490 
  5 C        1.6330     0.2560    -0.4320 C.3   1 <1>  -0.0550 
  6 C       -2.0850    -0.8470    -1.4070 C.3   1 <1>   0.1160 
  7 C       -0.3590    -2.4560    -0.9580 C.3   1 <1>   0.1160 
  8 C        2.3890     1.2350     0.4880 C.3   1 <1>  -0.0800 
  9 C        3.7410     1.6030    -0.1020 C.3   1 <1>   0.2200 
 10 C        2.7710     0.5940     1.8310 C.3   1 <1>   0.1200 
 11 N        4.1470     2.9270     0.4180 N.am  1 <1>  -0.7300 
 12 C        4.6410     0.5320     0.4950 C.3   1 <1>   0.1200 
 13 O        4.1350     0.2930     1.7720 O.3   1 <1>  -0.5600 
 14 C        4.4310     4.0250    -0.3400 C.2   1 <1>   0.5440 
 15 O        4.3500     3.9310    -1.5480 O.2   1 <1>  -0.5700 
 16 C        4.8330     5.2660     0.3000 C.ar  1 <1>   0.0860 
 17 C        5.8430     6.0810    -0.2100 C.ar  1 <1>  -0.1440 
 18 C        4.2160     5.6960     1.4790 C.ar  1 <1>  -0.1500 
 19 C        6.2350     7.2470     0.4170 C.ar  1 <1>   0.0860 
 20 C        6.6650     5.8600    -1.4730 C.3   1 <1>  -0.0170 
 21 C        4.5960     6.8650     2.1180 C.ar  1 <1>  -0.1500 
 22 C        7.2950     7.8820    -0.3010 C.2   1 <1>   0.4230 
 23 C        5.6090     7.6450     1.5900 C.ar  1 <1>  -0.1500 
 24 C        7.6390     7.0550    -1.5190 C.3   1 <1>  -0.0990 
 25 O        7.8670     8.9050    -0.0300 O.2   1 <1>  -0.5700 
 26 H        2.1570    -0.6780    -0.4770 H     1 <1>   0.0800 
 27 H        1.6140     0.6680    -1.4230 H     1 <1>   0.0800 
 28 H       -2.4170    -1.4850    -2.2080 H     1 <1>   0.0800 
 29 H       -2.2830     0.1740    -1.6870 H     1 <1>   0.0800 
 30 H       -2.6440    -1.0760    -0.5150 H     1 <1>   0.0800 
 31 H       -0.6680    -3.0280    -1.8160 H     1 <1>   0.0800 
 32 H       -0.8800    -2.8210    -0.0870 H     1 <1>   0.0800 
 33 H        0.6970    -2.6020    -0.8140 H     1 <1>   0.0800 
 34 H        1.7800     2.1110     0.6320 H     1 <1>   0.0800 
 35 H        3.7560     1.5940    -1.1790 H     1 <1>   0.0800 
 36 H        2.2330    -0.3150     2.0380 H     1 <1>   0.0800 
 37 H        2.6240     1.2840     2.6440 H     1 <1>   0.0800 
 38 H        4.3390     2.9360     1.4220 H     1 <1>   0.3700 
 39 H        5.6690     0.8430     0.5640 H     1 <1>   0.0800 
 40 H        4.5720    -0.3840    -0.0640 H     1 <1>   0.0800 
 41 H        3.4190     5.1070     1.9000 H     1 <1>   0.1500 
 42 H        7.1980     4.9270    -1.4210 H     1 <1>   0.0800 
 43 H        6.0260     5.8590    -2.3400 H     1 <1>   0.0800 
 44 H        4.1020     7.1710     3.0250 H     1 <1>   0.1500 
 45 H        5.9200     8.5570     2.0720 H     1 <1>   0.1500 
 46 H        7.4970     7.6390    -2.4100 H     1 <1>   0.0800 
 47 H        8.6610     6.7260    -1.4580 H     1 <1>   0.0800 
@<TRIPOS>BOND
  1   1   2  2   
  2   1   3  2   
  3   1   4  am  
  4   1   5  1   
  5   4   6  1   
  6   4   7  1   
  7   5   8  1   
  8   5  26  1   
  9   5  27  1   
 10   6  28  1   
 11   6  29  1   
 12   6  30  1   
 13   7  31  1   
 14   7  32  1   
 15   7  33  1   
 16   8   9  1   
 17   8  10  1   
 18   8  34  1   
 19   9  11  1   
 20   9  12  1   
 21   9  35  1   
 22  10  13  1   
 23  10  36  1   
 24  10  37  1   
 25  11  14  am  
 26  11  38  1   
 27  12  13  1   
 28  12  39  1   
 29  12  40  1   
 30  14  15  2   
 31  14  16  1   
 32  16  17  ar  
 33  16  18  ar  
 34  17  19  ar  
 35  17  20  1   
 36  18  21  ar  
 37  18  41  1   
 38  19  22  1   
 39  19  23  ar  
 40  20  24  1   
 41  20  42  1   
 42  20  43  1   
 43  21  23  ar  
 44  21  44  1   
 45  22  24  1   
 46  22  25  2   
 47  23  45  1   
 48  24  46  1   
 49  24  47  1   
@<TRIPOS>SUBSTRUCTURE
  1 ****  11 GROUP 4 **** **** 0

# MOE 2024.06 (io_trps.svl 2023.06)
