@<TRIPOS>MOLECULE
NONAME
58 60 1 0 0 
SMALL
USER_CHARGES


@<TRIPOS>ATOM
  1 O       -0.4830    -2.9280    -0.4960 O.3   1 <1>  -0.5600 
  2 C       -0.5650    -3.8700     0.5340 C.3   1 <1>   0.1200 
  3 C       -1.0460    -3.3290    -1.7110 C.3   1 <1>   0.1200 
  4 C       -2.0380    -4.2050     0.8350 C.3   1 <1>   0.3430 
  5 C       -2.5460    -3.6320    -1.5270 C.3   1 <1>   0.3430 
  6 N       -2.7770    -4.6180    -0.4130 N.4   1 <1>  -0.9590 
  7 C       -4.2070    -5.0260    -0.1740 C.3   1 <1>   0.3430 
  8 C       -5.3270    -3.9520    -0.0120 C.3   1 <1>   0.0000 
  9 C       -6.5270    -4.6160     0.7200 C.3   1 <1>   0.3430 
 10 C       -4.8930    -2.7690     0.8790 C.3   1 <1>  -0.2400 
 11 C       -5.7880    -3.3810    -1.3740 C.3   1 <1>  -0.2400 
 12 N       -7.4820    -5.4230    -0.1250 N.4   1 <1>  -0.9590 
 13 C       -8.6400    -5.8470     0.7240 C.3   1 <1>   0.3430 
 14 C       -6.9570    -6.7280    -0.6220 C.3   1 <1>   0.3430 
 15 C       -8.1690    -7.1070     1.4670 C.3   1 <1>   0.2000 
 16 C       -7.1450    -7.7510     0.5090 C.3   1 <1>  -0.0800 
 17 O       -7.5540    -6.7030     2.6490 O.3   1 <1>  -0.6800 
 18 C       -5.7960    -8.1760     1.1340 C.3   1 <1>   0.0210 
 19 C       -4.8510    -8.7320     0.0860 C.2   1 <1>   0.1080 
 20 N       -4.0980    -7.9970    -0.6830 N.2   1 <1>  -0.7070 
 21 C       -4.7040   -10.0900    -0.1670 C.2   1 <1>  -0.1500 
 22 N       -3.4420    -8.9000    -1.4570 N.pl3 1 <1>   0.3000 
 23 C       -3.7970   -10.1640    -1.1600 C.2   1 <1>  -0.3320 
 24 C       -3.2370   -11.3940    -1.8530 C.3   1 <1>  -0.0600 
 25 H       -0.0130    -4.7480     0.2460 H     1 <1>   0.0800 
 26 H       -0.0960    -3.4430     1.4040 H     1 <1>   0.0800 
 27 H       -0.9150    -2.5240    -2.4130 H     1 <1>   0.0800 
 28 H       -0.5130    -4.1900    -2.0740 H     1 <1>   0.0800 
 29 H       -2.4920    -3.3310     1.2670 H     1 <1>   0.0800 
 30 H       -2.0780    -4.9960     1.5670 H     1 <1>   0.0800 
 31 H       -2.9480    -4.0140    -2.4510 H     1 <1>   0.0800 
 32 H       -3.0420    -2.7040    -1.3050 H     1 <1>   0.0800 
 33 H       -2.3080    -5.4860    -0.7120 H     1 <1>   0.4500 
 34 H       -4.4970    -5.6560    -0.9970 H     1 <1>   0.0800 
 35 H       -4.2200    -5.6540     0.7020 H     1 <1>   0.0800 
 36 H       -7.0970    -3.8240     1.1800 H     1 <1>   0.0800 
 37 H       -6.1520    -5.2250     1.5260 H     1 <1>   0.0800 
 38 H       -4.0910    -2.2080     0.4350 H     1 <1>   0.0800 
 39 H       -4.5810    -3.1090     1.8510 H     1 <1>   0.0800 
 40 H       -5.7120    -2.0830     1.0210 H     1 <1>   0.0800 
 41 H       -5.0480    -2.7330    -1.8060 H     1 <1>   0.0800 
 42 H       -6.6810    -2.7910    -1.2530 H     1 <1>   0.0800 
 43 H       -5.9920    -4.1660    -2.0820 H     1 <1>   0.0800 
 44 H       -7.8200    -4.8400    -0.9040 H     1 <1>   0.4500 
 45 H       -8.9480    -5.0780     1.4140 H     1 <1>   0.0800 
 46 H       -9.4730    -6.1050     0.0890 H     1 <1>   0.0800 
 47 H       -7.5460    -7.0460    -1.4680 H     1 <1>   0.0800 
 48 H       -5.9370    -6.6560    -0.9430 H     1 <1>   0.0800 
 49 H       -8.9940    -7.7550     1.7140 H     1 <1>   0.0800 
 50 H       -7.5890    -8.6260     0.0670 H     1 <1>   0.0800 
 51 H       -7.6100    -7.4050     3.3340 H     1 <1>   0.4000 
 52 H       -5.9680    -8.9320     1.8800 H     1 <1>   0.0800 
 53 H       -5.3110    -7.3490     1.6190 H     1 <1>   0.0800 
 54 H       -5.2120   -10.8970     0.3330 H     1 <1>   0.1500 
 55 H       -2.7590    -8.6440    -2.1820 H     1 <1>   0.2700 
 56 H       -3.6720   -12.2860    -1.4360 H     1 <1>   0.0800 
 57 H       -2.1700   -11.4450    -1.7220 H     1 <1>   0.0800 
 58 H       -3.4600   -11.3680    -2.9050 H     1 <1>   0.0800 
@<TRIPOS>BOND
  1   1   2  1   
  2   1   3  1   
  3   2   4  1   
  4   2  25  1   
  5   2  26  1   
  6   3   5  1   
  7   3  27  1   
  8   3  28  1   
  9   4   6  1   
 10   4  29  1   
 11   4  30  1   
 12   5   6  1   
 13   5  31  1   
 14   5  32  1   
 15   6   7  1   
 16   6  33  1   
 17   7   8  1   
 18   7  34  1   
 19   7  35  1   
 20   8   9  1   
 21   8  10  1   
 22   8  11  1   
 23   9  12  1   
 24   9  36  1   
 25   9  37  1   
 26  10  38  1   
 27  10  39  1   
 28  10  40  1   
 29  11  41  1   
 30  11  42  1   
 31  11  43  1   
 32  12  13  1   
 33  12  14  1   
 34  12  44  1   
 35  13  15  1   
 36  13  45  1   
 37  13  46  1   
 38  14  16  1   
 39  14  47  1   
 40  14  48  1   
 41  15  16  1   
 42  15  17  1   
 43  15  49  1   
 44  16  18  1   
 45  16  50  1   
 46  17  51  1   
 47  18  19  1   
 48  18  52  1   
 49  18  53  1   
 50  19  20  2   
 51  19  21  1   
 52  20  22  1   
 53  21  23  2   
 54  21  54  1   
 55  22  23  1   
 56  22  55  1   
 57  23  24  1   
 58  24  56  1   
 59  24  57  1   
 60  24  58  1   
@<TRIPOS>SUBSTRUCTURE
  1 ****   7 GROUP 4 **** **** 0

# MOE 2024.06 (io_trps.svl 2023.06)
