@<TRIPOS>MOLECULE
NONAME
51 54 1 0 0 
SMALL
USER_CHARGES


@<TRIPOS>ATOM
  1 F       -0.3700    -0.8560    -1.3530 F     1 <1>  -0.1900 
  2 C        0.8980    -1.1370    -1.4920 C.ar  1 <1>   0.1900 
  3 C        1.4190    -2.2880    -0.8990 C.ar  1 <1>   0.0530 
  4 C        1.6560    -0.2670    -2.2520 C.ar  1 <1>  -0.1500 
  5 C        0.6300    -3.1940    -0.0980 C.2   1 <1>   0.4250 
  6 C        2.7750    -2.5370    -1.1270 C.ar  1 <1>  -0.1500 
  7 C        2.9970    -0.5410    -2.4500 C.ar  1 <1>  -0.1500 
  8 O       -0.3200    -2.7400     0.6980 O.3   1 <1>  -0.2800 
  9 N        0.7490    -4.4880    -0.0430 N.2   1 <1>  -0.5650 
 10 C        3.5520    -1.6790    -1.8870 C.ar  1 <1>  -0.1500 
 11 C       -0.8460    -3.7710     1.2890 C.2   1 <1>  -0.0400 
 12 C       -0.1970    -4.8570     0.8450 C.2   1 <1>   0.0460 
 13 C       -1.9860    -3.5520     2.2630 C.3   1 <1>  -0.0600 
 14 C       -0.4130    -6.3230     1.1770 C.3   1 <1>   0.5240 
 15 N       -0.4890    -7.0750    -0.1060 N.4   1 <1>  -0.9590 
 16 C       -1.7700    -6.7850    -0.8160 C.3   1 <1>   0.3430 
 17 C       -0.4440    -8.5460     0.1290 C.3   1 <1>   0.3430 
 18 C       -2.7290    -7.8950    -0.3800 C.3   1 <1>   0.2000 
 19 C       -1.8060    -9.1140    -0.2940 C.3   1 <1>  -0.0800 
 20 O       -3.2250    -7.5760     0.8840 O.3   1 <1>  -0.6800 
 21 C       -2.2790   -10.2620     0.6190 C.3   1 <1>   0.0210 
 22 C       -1.2880   -11.4100     0.6100 C.2   1 <1>   0.1080 
 23 N       -0.0600   -11.2830     1.0120 N.2   1 <1>  -0.7070 
 24 C       -1.5720   -12.7030     0.1860 C.2   1 <1>  -0.1500 
 25 N        0.4750   -12.5140     0.8620 N.pl3 1 <1>   0.3000 
 26 C       -0.4220   -13.3860     0.3580 C.2   1 <1>  -0.3320 
 27 C       -0.1210   -14.8470     0.0740 C.3   1 <1>  -0.0600 
 28 H        1.2010     0.6070    -2.6830 H     1 <1>   0.1500 
 29 H        3.2250    -3.4150    -0.6970 H     1 <1>   0.1500 
 30 H        3.6050     0.1240    -3.0400 H     1 <1>   0.1500 
 31 H        4.5960    -1.8940    -2.0430 H     1 <1>   0.1500 
 32 H       -2.3380    -4.4850     2.6630 H     1 <1>   0.0800 
 33 H       -2.8000    -3.0590     1.7620 H     1 <1>   0.0800 
 34 H       -1.6550    -2.9270     3.0730 H     1 <1>   0.0800 
 35 H       -1.3140    -6.4520     1.7530 H     1 <1>   0.0800 
 36 H        0.4250    -6.6730     1.7570 H     1 <1>   0.0800 
 37 H        0.3100    -6.7260    -0.6590 H     1 <1>   0.4500 
 38 H       -2.1590    -5.8080    -0.5800 H     1 <1>   0.0800 
 39 H       -1.6110    -6.8530    -1.8790 H     1 <1>   0.0800 
 40 H        0.3440    -9.0120    -0.4430 H     1 <1>   0.0800 
 41 H       -0.2720    -8.7560     1.1730 H     1 <1>   0.0800 
 42 H       -3.5550    -8.0180    -1.0610 H     1 <1>   0.0800 
 43 H       -1.6850    -9.5110    -1.2860 H     1 <1>   0.0800 
 44 H       -3.9950    -8.1380     1.1130 H     1 <1>   0.4000 
 45 H       -3.2370   -10.6210     0.2890 H     1 <1>   0.0800 
 46 H       -2.3800    -9.9250     1.6350 H     1 <1>   0.0800 
 47 H       -2.5130   -13.0630    -0.1920 H     1 <1>   0.1500 
 48 H        1.4470   -12.7310     1.1160 H     1 <1>   0.2700 
 49 H       -0.9950   -15.3350    -0.3200 H     1 <1>   0.0800 
 50 H        0.1720   -15.3500     0.9790 H     1 <1>   0.0800 
 51 H        0.6720   -14.9320    -0.6470 H     1 <1>   0.0800 
@<TRIPOS>BOND
  1   1   2  1   
  2   2   3  ar  
  3   2   4  ar  
  4   3   5  1   
  5   3   6  ar  
  6   4   7  ar  
  7   4  28  1   
  8   5   8  1   
  9   5   9  2   
 10   6  10  ar  
 11   6  29  1   
 12   7  10  ar  
 13   7  30  1   
 14   8  11  1   
 15   9  12  1   
 16  10  31  1   
 17  11  12  2   
 18  11  13  1   
 19  12  14  1   
 20  13  32  1   
 21  13  33  1   
 22  13  34  1   
 23  14  15  1   
 24  14  35  1   
 25  14  36  1   
 26  15  16  1   
 27  15  17  1   
 28  15  37  1   
 29  16  18  1   
 30  16  38  1   
 31  16  39  1   
 32  17  19  1   
 33  17  40  1   
 34  17  41  1   
 35  18  19  1   
 36  18  20  1   
 37  18  42  1   
 38  19  21  1   
 39  19  43  1   
 40  20  44  1   
 41  21  22  1   
 42  21  45  1   
 43  21  46  1   
 44  22  23  2   
 45  22  24  1   
 46  23  25  1   
 47  24  26  2   
 48  24  47  1   
 49  25  26  1   
 50  25  48  1   
 51  26  27  1   
 52  27  49  1   
 53  27  50  1   
 54  27  51  1   
@<TRIPOS>SUBSTRUCTURE
  1 ****  15 GROUP 4 **** **** 0

# MOE 2024.06 (io_trps.svl 2023.06)
