@<TRIPOS>MOLECULE
NONAME
56 58 1 0 0 
SMALL
USER_CHARGES


@<TRIPOS>ATOM
  1 O       -0.3790    -0.1630     0.6000 O.3   1 <1>  -0.3630 
  2 C        0.7350    -0.8650     0.2650 C.ar  1 <1>   0.0830 
  3 C       -1.6620    -0.6890     0.3760 C.3   1 <1>   0.1200 
  4 C        1.9530    -0.2560     0.5200 C.ar  1 <1>  -0.1500 
  5 C        0.7100    -2.1350    -0.3080 C.ar  1 <1>  -0.1500 
  6 C       -2.6670     0.3570     0.8580 C.3   1 <1>  -0.1600 
  7 C        3.1410    -0.8960     0.2110 C.ar  1 <1>  -0.1500 
  8 C        1.8980    -2.7740    -0.6170 C.ar  1 <1>  -0.1500 
  9 C       -4.0970    -0.1320     0.6440 C.3   1 <1>   0.3430 
 10 C        3.1170    -2.1650    -0.3620 C.ar  1 <1>   0.0830 
 11 N       -5.0680     0.8730     1.1580 N.4   1 <1>  -0.9590 
 12 O        4.2310    -2.8660    -0.6970 O.3   1 <1>  -0.3620 
 13 C       -6.4130     0.2560     1.4340 C.3   1 <1>   0.3430 
 14 C       -5.1720     2.0770     0.2580 C.3   1 <1>   0.3430 
 15 C        5.5180    -2.3340    -0.4780 C.3   1 <1>   0.0400 
 16 C       -7.1370    -0.2540     0.1670 C.3   1 <1>   0.0000 
 17 C       -6.4200     2.0670    -0.6360 C.3   1 <1>  -0.1600 
 18 C       -8.6390    -0.3370     0.4900 C.3   1 <1>   0.2000 
 19 C       -6.8360     0.6530    -1.0650 C.3   1 <1>  -0.1600 
 20 C       -6.8380    -1.7230    -0.1830 C.3   1 <1>  -0.1600 
 21 O       -9.2160     0.9300     0.4550 O.3   1 <1>  -0.5600 
 22 C       -9.2290    -1.2970    -0.5450 C.3   1 <1>  -0.1600 
 23 C       -8.0660    -2.2080    -0.9640 C.3   1 <1>  -0.1600 
 24 C      -10.5440     0.9940     0.8780 C.3   1 <1>   0.0400 
 25 H       -1.7690    -0.8770    -0.6790 H     1 <1>   0.0800 
 26 H       -1.7520    -1.6060     0.9340 H     1 <1>   0.0800 
 27 H        1.9670     0.7230     0.9620 H     1 <1>   0.1500 
 28 H       -0.2100    -2.6420    -0.5220 H     1 <1>   0.1500 
 29 H       -2.4970     0.5330     1.9060 H     1 <1>   0.0800 
 30 H       -2.4940     1.2640     0.3090 H     1 <1>   0.0800 
 31 H        4.0660    -0.3950     0.4220 H     1 <1>   0.1500 
 32 H        1.8910    -3.7540    -1.0590 H     1 <1>   0.1500 
 33 H       -4.2290    -1.0630     1.1720 H     1 <1>   0.0800 
 34 H       -4.2740    -0.3110    -0.4040 H     1 <1>   0.0800 
 35 H       -4.7020     1.2060     2.0600 H     1 <1>   0.4500 
 36 H       -6.3170    -0.5500     2.1420 H     1 <1>   0.0800 
 37 H       -7.0420     1.0090     1.8830 H     1 <1>   0.0800 
 38 H       -5.1900     2.9750     0.8540 H     1 <1>   0.0800 
 39 H       -4.2990     2.1270    -0.3730 H     1 <1>   0.0800 
 40 H        6.2390    -3.0550    -0.8160 H     1 <1>   0.0800 
 41 H        5.6460    -2.1540     0.5750 H     1 <1>   0.0800 
 42 H        5.6200    -1.4230    -1.0410 H     1 <1>   0.0800 
 43 H       -7.2330     2.5350    -0.1070 H     1 <1>   0.0800 
 44 H       -6.2320     2.6700    -1.5060 H     1 <1>   0.0800 
 45 H       -8.7780    -0.7490     1.4770 H     1 <1>   0.0800 
 46 H       -6.0390     0.2360    -1.6540 H     1 <1>   0.0800 
 47 H       -7.6960     0.7170    -1.7100 H     1 <1>   0.0800 
 48 H       -5.9370    -1.8580    -0.7550 H     1 <1>   0.0800 
 49 H       -6.7590    -2.3050     0.7200 H     1 <1>   0.0800 
 50 H      -10.0330    -1.8720    -0.1190 H     1 <1>   0.0800 
 51 H       -9.5910    -0.7540    -1.4010 H     1 <1>   0.0800 
 52 H       -8.2780    -3.2420    -0.7490 H     1 <1>   0.0800 
 53 H       -7.8960    -2.1060    -2.0230 H     1 <1>   0.0800 
 54 H      -10.8520     2.0240     0.8600 H     1 <1>   0.0800 
 55 H      -10.6220     0.6110     1.8810 H     1 <1>   0.0800 
 56 H      -11.1640     0.4250     0.2070 H     1 <1>   0.0800 
@<TRIPOS>BOND
  1   1   2  1   
  2   1   3  1   
  3   2   4  ar  
  4   2   5  ar  
  5   3   6  1   
  6   3  25  1   
  7   3  26  1   
  8   4   7  ar  
  9   4  27  1   
 10   5   8  ar  
 11   5  28  1   
 12   6   9  1   
 13   6  29  1   
 14   6  30  1   
 15   7  10  ar  
 16   7  31  1   
 17   8  10  ar  
 18   8  32  1   
 19   9  11  1   
 20   9  33  1   
 21   9  34  1   
 22  10  12  1   
 23  11  13  1   
 24  11  14  1   
 25  11  35  1   
 26  12  15  1   
 27  13  16  1   
 28  13  36  1   
 29  13  37  1   
 30  14  17  1   
 31  14  38  1   
 32  14  39  1   
 33  15  40  1   
 34  15  41  1   
 35  15  42  1   
 36  16  18  1   
 37  16  19  1   
 38  16  20  1   
 39  17  19  1   
 40  17  43  1   
 41  17  44  1   
 42  18  21  1   
 43  18  22  1   
 44  18  45  1   
 45  19  46  1   
 46  19  47  1   
 47  20  23  1   
 48  20  48  1   
 49  20  49  1   
 50  21  24  1   
 51  22  23  1   
 52  22  50  1   
 53  22  51  1   
 54  23  52  1   
 55  23  53  1   
 56  24  54  1   
 57  24  55  1   
 58  24  56  1   
@<TRIPOS>SUBSTRUCTURE
  1 ****   9 GROUP 4 **** **** 0

# MOE 2024.06 (io_trps.svl 2023.06)
