@<TRIPOS>MOLECULE
NONAME
46 48 1 0 0 
SMALL
USER_CHARGES


@<TRIPOS>ATOM
  1 F       -2.3510    -0.3450    -1.2490 F     1 <1>  -0.1900 
  2 C       -2.4500     0.6280    -0.3750 C.ar  1 <1>   0.1900 
  3 C       -2.1610     1.9250    -0.7850 C.ar  1 <1>   0.0820 
  4 C       -2.8490     0.3170     0.9170 C.ar  1 <1>  -0.1440 
  5 O       -1.7990     2.1310    -2.0800 O.3   1 <1>  -0.3630 
  6 C       -2.2640     2.9460     0.1550 C.ar  1 <1>  -0.1500 
  7 C       -2.9330     1.3540     1.8370 C.ar  1 <1>  -0.1500 
  8 C       -3.1720    -1.1100     1.3310 C.3   1 <1>   0.4870 
  9 C       -1.4050     3.4050    -2.5430 C.3   1 <1>   0.0400 
 10 C       -2.6450     2.6550     1.4550 C.ar  1 <1>  -0.1500 
 11 N       -4.1640    -1.7090     0.3870 N.4   1 <1>  -0.9590 
 12 C       -5.5980    -1.6690     0.8150 C.3   1 <1>   0.4230 
 13 C       -3.7180    -3.0910     0.0220 C.3   1 <1>   0.2630 
 14 C       -6.4890    -1.8950    -0.4090 C.3   1 <1>  -0.1600 
 15 C       -6.0530    -0.2760     1.2530 C.3   1 <1>  -0.1600 
 16 C       -6.5520    -0.5360    -1.1260 C.3   1 <1>  -0.0800 
 17 C       -6.2680     0.5170    -0.0450 C.3   1 <1>  -0.0800 
 18 C       -7.9270    -0.1980    -1.7210 C.3   1 <1>  -0.1600 
 19 C       -7.4810     1.4590    -0.0170 C.3   1 <1>  -0.1600 
 20 C       -8.6170     0.7210    -0.7180 C.3   1 <1>   0.2000 
 21 O       -9.2680    -0.0590     0.2110 O.3   1 <1>  -0.6800 
 22 H       -2.0530     3.9670    -0.1030 H     1 <1>   0.1500 
 23 H       -3.2220     1.1680     2.8590 H     1 <1>   0.1500 
 24 H       -3.5560    -1.1310     2.3380 H     1 <1>   0.0800 
 25 H       -2.2560    -1.6780     1.3100 H     1 <1>   0.0800 
 26 H       -1.1300     3.3130    -3.5790 H     1 <1>   0.0800 
 27 H       -0.5580     3.7400    -1.9710 H     1 <1>   0.0800 
 28 H       -2.2320     4.0860    -2.4460 H     1 <1>   0.0800 
 29 H       -2.7170     3.4520     2.1770 H     1 <1>   0.1500 
 30 H       -4.0990    -1.1270    -0.4630 H     1 <1>   0.4500 
 31 H       -5.7830    -2.4010     1.5850 H     1 <1>   0.0800 
 32 H       -3.7770    -3.7440     0.8780 H     1 <1>   0.0800 
 33 H       -2.6990    -3.0710    -0.3300 H     1 <1>   0.0800 
 34 H       -4.3340    -3.4960    -0.7630 H     1 <1>   0.0800 
 35 H       -6.1580    -2.6790    -1.0640 H     1 <1>   0.0800 
 36 H       -7.4710    -2.1640    -0.0600 H     1 <1>   0.0800 
 37 H       -6.9970    -0.3880     1.7590 H     1 <1>   0.0800 
 38 H       -5.3970     0.2190     1.9410 H     1 <1>   0.0800 
 39 H       -5.7970    -0.4900    -1.8950 H     1 <1>   0.0800 
 40 H       -5.3790     1.0750    -0.2910 H     1 <1>   0.0800 
 41 H       -8.5220    -1.0630    -1.9630 H     1 <1>   0.0800 
 42 H       -7.7750     0.3630    -2.6270 H     1 <1>   0.0800 
 43 H       -7.2460     2.3300    -0.6030 H     1 <1>   0.0800 
 44 H       -7.7540     1.7890     0.9710 H     1 <1>   0.0800 
 45 H       -9.3390     1.3820    -1.1720 H     1 <1>   0.0800 
 46 H       -8.6350    -0.6630     0.6280 H     1 <1>   0.4000 
@<TRIPOS>BOND
  1   1   2  1   
  2   2   3  ar  
  3   2   4  ar  
  4   3   5  1   
  5   3   6  ar  
  6   4   7  ar  
  7   4   8  1   
  8   5   9  1   
  9   6  10  ar  
 10   6  22  1   
 11   7  10  ar  
 12   7  23  1   
 13   8  11  1   
 14   8  24  1   
 15   8  25  1   
 16   9  26  1   
 17   9  27  1   
 18   9  28  1   
 19  10  29  1   
 20  11  12  1   
 21  11  13  1   
 22  11  30  1   
 23  12  14  1   
 24  12  15  1   
 25  12  31  1   
 26  13  32  1   
 27  13  33  1   
 28  13  34  1   
 29  14  16  1   
 30  14  35  1   
 31  14  36  1   
 32  15  17  1   
 33  15  37  1   
 34  15  38  1   
 35  16  17  1   
 36  16  18  1   
 37  16  39  1   
 38  17  19  1   
 39  17  40  1   
 40  18  20  1   
 41  18  41  1   
 42  18  42  1   
 43  19  20  1   
 44  19  43  1   
 45  19  44  1   
 46  20  21  1   
 47  20  45  1   
 48  21  46  1   
@<TRIPOS>SUBSTRUCTURE
  1 ****  17 GROUP 4 **** **** 0

# MOE 2024.06 (io_trps.svl 2023.06)
