@<TRIPOS>MOLECULE
NONAME
50 53 1 0 0 
SMALL
USER_CHARGES


@<TRIPOS>ATOM
  1 O        1.1810     0.4500    -0.0510 O.3   1 <1>  -0.6800 
  2 C        2.2390     0.0330    -0.8540 C.3   1 <1>   0.2000 
  3 C        2.9320    -1.1380    -0.1600 C.3   1 <1>  -0.0800 
  4 C        3.3100     1.1250    -0.8530 C.3   1 <1>   0.3430 
  5 C        3.8770    -0.4710     0.8540 C.3   1 <1>   0.3430 
  6 C        3.7100    -2.0150    -1.1600 C.3   1 <1>   0.0210 
  7 N        4.0420     0.9510     0.4320 N.4   1 <1>  -0.9590 
  8 C        4.2820    -3.2460    -0.4830 C.2   1 <1>   0.1080 
  9 C        3.5440     1.8980     1.4530 C.3   1 <1>   0.5240 
 10 N        5.1360    -3.1850     0.4910 N.2   1 <1>  -0.7070 
 11 C        3.9630    -4.5560    -0.8220 C.2   1 <1>  -0.1500 
 12 C        4.0930     3.2650     1.1170 C.2   1 <1>  -0.1810 
 13 N        5.3950    -4.4740     0.7980 N.pl3 1 <1>   0.3000 
 14 C        4.6910    -5.3200     0.0180 C.2   1 <1>  -0.3320 
 15 C        5.2920     3.5650     0.5500 C.2   1 <1>  -0.0260 
 16 C        3.4770     4.4850     1.3320 C.2   1 <1>   0.1390 
 17 C        4.7630    -6.8330     0.1220 C.3   1 <1>  -0.0600 
 18 N        6.3080     2.7350     0.1190 N.2   1 <1>  -0.5760 
 19 N        5.3380     4.9400     0.4620 N.pl3 1 <1>   0.6010 
 20 N        4.2020     5.4940     0.9420 N.2   1 <1>  -0.7070 
 21 C        7.3530     3.3200    -0.3730 C.2   1 <1>   0.3750 
 22 C        6.4640     5.5500    -0.0750 C.2   1 <1>  -0.1690 
 23 C        7.4710     4.7360    -0.4900 C.2   1 <1>  -0.1360 
 24 C        8.5080     2.4700    -0.8530 C.3   1 <1>  -0.1790 
 25 C        6.4980     7.0700    -0.1600 C.3   1 <1>  -0.1020 
 26 H        0.4190    -0.1630    -0.1260 H     1 <1>   0.4000 
 27 H        1.8650    -0.1860    -1.8400 H     1 <1>   0.0800 
 28 H        2.2220    -1.7660     0.3490 H     1 <1>   0.0800 
 29 H        2.8760     2.1070    -0.9490 H     1 <1>   0.0800 
 30 H        3.9890     0.9580    -1.6730 H     1 <1>   0.0800 
 31 H        4.8340    -0.9640     0.8780 H     1 <1>   0.0800 
 32 H        3.4410    -0.5210     1.8380 H     1 <1>   0.0800 
 33 H        4.5200    -1.4640    -1.6060 H     1 <1>   0.0800 
 34 H        3.0530    -2.3360    -1.9490 H     1 <1>   0.0800 
 35 H        5.0390     1.2160     0.2970 H     1 <1>   0.4500 
 36 H        2.4660     1.9090     1.4610 H     1 <1>   0.0800 
 37 H        3.8990     1.6080     2.4290 H     1 <1>   0.0800 
 38 H        3.2820    -4.8710    -1.5930 H     1 <1>   0.1500 
 39 H        6.0540    -4.7460     1.5380 H     1 <1>   0.2700 
 40 H        2.5010     4.6190     1.7730 H     1 <1>   0.1500 
 41 H        4.1130    -7.2850    -0.6070 H     1 <1>   0.0800 
 42 H        4.4550    -7.1550     1.1010 H     1 <1>   0.0800 
 43 H        5.7680    -7.1720    -0.0600 H     1 <1>   0.0800 
 44 H        8.3770     5.1300    -0.9140 H     1 <1>   0.1500 
 45 H        9.4000     2.7290    -0.3140 H     1 <1>   0.0800 
 46 H        8.6700     2.6310    -1.9030 H     1 <1>   0.0800 
 47 H        8.3010     1.4270    -0.6920 H     1 <1>   0.0800 
 48 H        5.6830     7.4230    -0.7670 H     1 <1>   0.0800 
 49 H        7.4220     7.4120    -0.5910 H     1 <1>   0.0800 
 50 H        6.3980     7.4960     0.8230 H     1 <1>   0.0800 
@<TRIPOS>BOND
  1   1   2  1   
  2   1  26  1   
  3   2   3  1   
  4   2   4  1   
  5   2  27  1   
  6   3   5  1   
  7   3   6  1   
  8   3  28  1   
  9   4   7  1   
 10   4  29  1   
 11   4  30  1   
 12   5   7  1   
 13   5  31  1   
 14   5  32  1   
 15   6   8  1   
 16   6  33  1   
 17   6  34  1   
 18   7   9  1   
 19   7  35  1   
 20   8  10  2   
 21   8  11  1   
 22   9  12  1   
 23   9  36  1   
 24   9  37  1   
 25  10  13  1   
 26  11  14  2   
 27  11  38  1   
 28  12  15  2   
 29  12  16  1   
 30  13  14  1   
 31  13  39  1   
 32  14  17  1   
 33  15  18  1   
 34  15  19  1   
 35  16  20  2   
 36  16  40  1   
 37  17  41  1   
 38  17  42  1   
 39  17  43  1   
 40  18  21  2   
 41  19  20  1   
 42  19  22  1   
 43  21  23  1   
 44  21  24  1   
 45  22  23  2   
 46  22  25  1   
 47  23  44  1   
 48  24  45  1   
 49  24  46  1   
 50  24  47  1   
 51  25  48  1   
 52  25  49  1   
 53  25  50  1   
@<TRIPOS>SUBSTRUCTURE
  1 ****   7 GROUP 4 **** **** 0

# MOE 2024.06 (io_trps.svl 2023.06)
