@<TRIPOS>MOLECULE
NONAME
43 46 1 0 0 
SMALL
USER_CHARGES


@<TRIPOS>ATOM
  1 O       -0.4510     0.3030     1.2480 O.2   1 <1>  -0.5700 
  2 C       -1.4330     0.9700     0.9630 C.2   1 <1>   0.7160 
  3 N       -2.6220     0.3070     0.7230 N.am  1 <1>  -0.6600 
  4 C       -1.3450     2.3920     0.8700 C.2   1 <1>  -0.0860 
  5 C       -3.6270     0.7930    -0.2630 C.3   1 <1>   0.1400 
  6 C       -2.7450    -1.1700     0.8750 C.3   1 <1>   0.1400 
  7 C       -0.3230     3.1840     0.4080 C.2   1 <1>  -0.0680 
  8 C       -2.3130     3.3350     1.2480 C.2   1 <1>   0.1390 
  9 C       -4.6170    -0.3600    -0.4150 C.3   1 <1>   0.2000 
 10 C       -3.7600    -1.6080    -0.1860 C.3   1 <1>  -0.0800 
 11 N       -0.7240     4.4600     0.5130 N.pl3 1 <1>   0.6010 
 12 N        0.9520     3.1410    -0.1190 N.pl3 1 <1>  -0.5530 
 13 N       -1.9710     4.5700     1.0330 N.2   1 <1>  -0.7070 
 14 O       -5.5620    -0.2530     0.5950 O.3   1 <1>  -0.6800 
 15 C       -4.5470    -2.8780     0.1870 C.3   1 <1>   0.0200 
 16 C        0.3020     5.2630     0.0520 C.2   1 <1>  -0.1810 
 17 C        1.3210     4.4620    -0.3270 C.2   1 <1>  -0.0500 
 18 C        1.7960     1.9350    -0.2580 C.3   1 <1>   0.1290 
 19 C       -3.6730    -4.1180     0.2730 C.2   1 <1>  -0.0400 
 20 O       -4.1980    -5.2220     0.7350 O.3   1 <1>  -0.0190 
 21 C       -2.3920    -4.3760    -0.0380 C.2   1 <1>  -0.1500 
 22 N       -3.3400    -6.2000     0.7540 N.2   1 <1>  -0.4100 
 23 C       -2.2420    -5.7200     0.2940 C.2   1 <1>   0.1080 
 24 C       -0.9660    -6.5160     0.1380 C.3   1 <1>  -0.0590 
 25 H       -4.1240     1.6890     0.0650 H     1 <1>   0.0800 
 26 H       -3.1350     0.9800    -1.2030 H     1 <1>   0.0800 
 27 H       -1.7970    -1.6620     0.7330 H     1 <1>   0.0800 
 28 H       -3.1060    -1.3890     1.8660 H     1 <1>   0.0800 
 29 H       -3.2610     3.0660     1.6850 H     1 <1>   0.1500 
 30 H       -5.1280    -0.3570    -1.3630 H     1 <1>   0.0800 
 31 H       -3.2200    -1.7980    -1.0970 H     1 <1>   0.0800 
 32 H       -5.1060    -0.1140     1.4490 H     1 <1>   0.4000 
 33 H       -5.3130    -3.0540    -0.5480 H     1 <1>   0.0800 
 34 H       -5.0360    -2.7440     1.1360 H     1 <1>   0.0800 
 35 H        0.1950     6.3290     0.0490 H     1 <1>   0.1500 
 36 H        2.2860     4.7270    -0.7270 H     1 <1>   0.1500 
 37 H        2.7140     2.1840    -0.7590 H     1 <1>   0.0800 
 38 H        1.2690     1.1910    -0.8260 H     1 <1>   0.0800 
 39 H        2.0160     1.5400     0.7180 H     1 <1>   0.0800 
 40 H       -1.6290    -3.7410    -0.4460 H     1 <1>   0.1500 
 41 H       -0.1780    -6.0580     0.7060 H     1 <1>   0.0800 
 42 H       -0.6830    -6.5530    -0.8980 H     1 <1>   0.0800 
 43 H       -1.1130    -7.5190     0.4940 H     1 <1>   0.0800 
@<TRIPOS>BOND
  1   1   2  2   
  2   2   3  am  
  3   2   4  1   
  4   3   5  1   
  5   3   6  1   
  6   4   7  2   
  7   4   8  1   
  8   5   9  1   
  9   5  25  1   
 10   5  26  1   
 11   6  10  1   
 12   6  27  1   
 13   6  28  1   
 14   7  11  1   
 15   7  12  1   
 16   8  13  2   
 17   8  29  1   
 18   9  10  1   
 19   9  14  1   
 20   9  30  1   
 21  10  15  1   
 22  10  31  1   
 23  11  13  1   
 24  11  16  1   
 25  12  17  1   
 26  12  18  1   
 27  14  32  1   
 28  15  19  1   
 29  15  33  1   
 30  15  34  1   
 31  16  17  2   
 32  16  35  1   
 33  17  36  1   
 34  18  37  1   
 35  18  38  1   
 36  18  39  1   
 37  19  20  1   
 38  19  21  2   
 39  20  22  1   
 40  21  23  1   
 41  21  40  1   
 42  22  23  2   
 43  23  24  1   
 44  24  41  1   
 45  24  42  1   
 46  24  43  1   
@<TRIPOS>SUBSTRUCTURE
  1 ****   3 GROUP 4 **** **** 0

# MOE 2024.06 (io_trps.svl 2023.06)
