@<TRIPOS>MOLECULE
NONAME
50 52 1 0 0 
SMALL
USER_CHARGES


@<TRIPOS>ATOM
  1 O       -1.3720    -2.7010    -1.9070 O.co2 1 <1>  -0.9000 
  2 C       -2.4970    -2.2250    -1.7360 C.2   1 <1>   0.9060 
  3 O       -2.7220    -1.0200    -1.5950 O.co2 1 <1>  -0.9000 
  4 C       -3.6420    -3.1890    -1.4340 C.3   1 <1>   0.2370 
  5 N       -3.7040    -3.6610     0.0150 N.4   1 <1>  -0.9590 
  6 C       -3.8050    -2.4790     0.9560 C.3   1 <1>   0.4230 
  7 C       -2.5720    -4.5960     0.2890 C.3   1 <1>   0.3430 
  8 C       -2.4650    -1.8530     1.4270 C.3   1 <1>   0.1200 
  9 C       -4.6610    -2.9110     2.1790 C.3   1 <1>   0.2090 
 10 C       -2.2130    -4.7940     1.7760 C.3   1 <1>  -0.0800 
 11 O       -1.9360    -2.5300     2.5340 O.3   1 <1>  -0.5600 
 12 N       -4.6870    -4.4170     2.4200 N.pl3 1 <1>  -0.8380 
 13 C       -1.2460    -3.6930     2.2360 C.3   1 <1>   0.1200 
 14 C       -3.3660    -5.0360     2.7880 C.3   1 <1>   0.2090 
 15 C       -5.7590    -5.1430     2.0340 C.ar  1 <1>   0.7710 
 16 N       -6.3300    -4.8160     0.8910 N.ar  1 <1>  -0.6200 
 17 N       -6.1800    -6.1660     2.7940 N.ar  1 <1>  -0.1790 
 18 C       -7.3380    -5.5540     0.4700 C.ar  1 <1>   0.4100 
 19 C       -7.2470    -6.9140     2.4230 C.ar  1 <1>   0.2110 
 20 N       -7.8330    -5.2240    -0.7480 N.pl3 1 <1>  -0.8380 
 21 C       -7.8580    -6.6240     1.2470 C.ar  1 <1>  -0.1440 
 22 C       -7.9840    -6.1970    -1.8690 C.3   1 <1>   0.1290 
 23 C       -8.1070    -3.8090    -1.1340 C.3   1 <1>   0.1290 
 24 C       -9.0970    -7.4090     0.8170 C.3   1 <1>  -0.0970 
 25 H       -3.5330    -4.0320    -2.0910 H     1 <1>   0.0800 
 26 H       -4.5520    -2.6780    -1.6880 H     1 <1>   0.0800 
 27 H       -4.5900    -4.1760     0.1510 H     1 <1>   0.4500 
 28 H       -4.3340    -1.6930     0.4420 H     1 <1>   0.0800 
 29 H       -2.8110    -5.5520    -0.1450 H     1 <1>   0.0800 
 30 H       -1.6900    -4.2350    -0.2190 H     1 <1>   0.0800 
 31 H       -2.6590    -0.8460     1.7520 H     1 <1>   0.0800 
 32 H       -1.7270    -1.7970     0.6470 H     1 <1>   0.0800 
 33 H       -5.6650    -2.5610     2.0080 H     1 <1>   0.0800 
 34 H       -4.3220    -2.4070     3.0680 H     1 <1>   0.0800 
 35 H       -1.6090    -5.6830     1.7960 H     1 <1>   0.0800 
 36 H       -0.4960    -3.4750     1.4910 H     1 <1>   0.0800 
 37 H       -0.7420    -3.9950     3.1380 H     1 <1>   0.0800 
 38 H       -3.0670    -4.6680     3.7580 H     1 <1>   0.0800 
 39 H       -3.4910    -6.1020     2.8830 H     1 <1>   0.0800 
 40 H       -5.7040    -6.2850     3.6840 H     1 <1>   0.4570 
 41 H       -7.5820    -7.7050     3.0770 H     1 <1>   0.1500 
 42 H       -7.5020    -5.8160    -2.7530 H     1 <1>   0.0800 
 43 H       -9.0280    -6.3520    -2.0810 H     1 <1>   0.0800 
 44 H       -7.5290    -7.1380    -1.6160 H     1 <1>   0.0800 
 45 H       -9.0890    -3.7320    -1.5690 H     1 <1>   0.0800 
 46 H       -7.3770    -3.4750    -1.8510 H     1 <1>   0.0800 
 47 H       -8.0670    -3.1680    -0.2700 H     1 <1>   0.0800 
 48 H       -9.5200    -7.9560     1.6410 H     1 <1>   0.0800 
 49 H       -8.8510    -8.1110     0.0410 H     1 <1>   0.0800 
 50 H       -9.8520    -6.7370     0.4460 H     1 <1>   0.0800 
@<TRIPOS>BOND
  1   1   2  ar  
  2   2   3  ar  
  3   2   4  1   
  4   4   5  1   
  5   4  25  1   
  6   4  26  1   
  7   5   6  1   
  8   5   7  1   
  9   5  27  1   
 10   6   8  1   
 11   6   9  1   
 12   6  28  1   
 13   7  10  1   
 14   7  29  1   
 15   7  30  1   
 16   8  11  1   
 17   8  31  1   
 18   8  32  1   
 19   9  12  1   
 20   9  33  1   
 21   9  34  1   
 22  10  13  1   
 23  10  14  1   
 24  10  35  1   
 25  11  13  1   
 26  12  14  1   
 27  12  15  1   
 28  13  36  1   
 29  13  37  1   
 30  14  38  1   
 31  14  39  1   
 32  15  16  ar  
 33  15  17  ar  
 34  16  18  ar  
 35  17  19  ar  
 36  17  40  1   
 37  18  20  1   
 38  18  21  ar  
 39  19  21  ar  
 40  19  41  1   
 41  20  22  1   
 42  20  23  1   
 43  21  24  1   
 44  22  42  1   
 45  22  43  1   
 46  22  44  1   
 47  23  45  1   
 48  23  46  1   
 49  23  47  1   
 50  24  48  1   
 51  24  49  1   
 52  24  50  1   
@<TRIPOS>SUBSTRUCTURE
  1 ****   5 GROUP 4 **** **** 0

# MOE 2024.06 (io_trps.svl 2023.06)
