@<TRIPOS>MOLECULE
NONAME
45 47 1 0 0 
SMALL
USER_CHARGES


@<TRIPOS>ATOM
  1 CL      -0.8860    -0.5440    -1.2360 Cl    1 <1>  -0.1770 
  2 C       -2.0350     0.5580    -0.5020 C.ar  1 <1>   0.1770 
  3 C       -1.8670     1.9260    -0.6710 C.ar  1 <1>   0.0830 
  4 C       -3.1020     0.0520     0.2240 C.ar  1 <1>  -0.1440 
  5 O       -0.8330     2.4250    -1.3740 O.3   1 <1>  -0.5320 
  6 C       -2.7780     2.8010    -0.1060 C.ar  1 <1>  -0.1500 
  7 C       -4.0080     0.9390     0.7900 C.ar  1 <1>  -0.1500 
  8 C       -3.2820    -1.4430     0.4020 C.3   1 <1>   0.4860 
  9 C       -3.8460     2.3060     0.6240 C.ar  1 <1>  -0.1500 
 10 N       -3.6920    -2.0590    -0.8930 N.4   1 <1>  -0.9590 
 11 C       -5.0150    -1.5260    -1.3570 C.3   1 <1>   0.3430 
 12 C       -3.8670    -3.5360    -0.7260 C.3   1 <1>   0.3430 
 13 C       -6.0580    -2.5110    -0.8300 C.3   1 <1>   0.2000 
 14 C       -5.3420    -3.8480    -1.0080 C.3   1 <1>  -0.0800 
 15 O       -6.2330    -2.2580     0.5370 O.3   1 <1>  -0.5600 
 16 C       -5.8800    -5.0230    -0.1700 C.3   1 <1>   0.0200 
 17 C       -7.5620    -2.1750     0.9570 C.3   1 <1>   0.0400 
 18 C       -4.9540    -6.2180    -0.2830 C.2   1 <1>  -0.0400 
 19 O       -4.5310    -6.6030    -1.4570 O.3   1 <1>  -0.0190 
 20 C       -4.4080    -7.0260     0.6380 C.2   1 <1>  -0.1500 
 21 N       -3.7190    -7.6130    -1.3710 N.2   1 <1>  -0.4100 
 22 C       -3.6330    -7.8990    -0.1210 C.2   1 <1>   0.1080 
 23 C       -2.7980    -9.0310     0.4370 C.3   1 <1>  -0.0590 
 24 H       -0.2110     1.7430    -1.6960 H     1 <1>   0.4500 
 25 H       -2.6460     3.8610    -0.2370 H     1 <1>   0.1500 
 26 H       -4.8460     0.5800     1.3670 H     1 <1>   0.1500 
 27 H       -4.0340    -1.6300     1.1520 H     1 <1>   0.0800 
 28 H       -2.3540    -1.8750     0.7370 H     1 <1>   0.0800 
 29 H       -4.5500     2.9920     1.0660 H     1 <1>   0.1500 
 30 H       -2.9570    -1.8500    -1.5830 H     1 <1>   0.4500 
 31 H       -5.2080    -0.5270    -1.0050 H     1 <1>   0.0800 
 32 H       -5.0440    -1.5310    -2.4340 H     1 <1>   0.0800 
 33 H       -3.2330    -4.0870    -1.4040 H     1 <1>   0.0800 
 34 H       -3.6270    -3.8270     0.2840 H     1 <1>   0.0800 
 35 H       -6.9950    -2.4450    -1.3590 H     1 <1>   0.0800 
 36 H       -5.4110    -4.1250    -2.0470 H     1 <1>   0.0800 
 37 H       -6.8580    -5.3010    -0.5210 H     1 <1>   0.0800 
 38 H       -5.9620    -4.7530     0.8690 H     1 <1>   0.0800 
 39 H       -7.5710    -2.0080     2.0210 H     1 <1>   0.0800 
 40 H       -8.0700    -3.0990     0.7350 H     1 <1>   0.0800 
 41 H       -8.0450    -1.3510     0.4610 H     1 <1>   0.0800 
 42 H       -4.5140    -7.0360     1.7080 H     1 <1>   0.1500 
 43 H       -2.0770    -8.6480     1.1350 H     1 <1>   0.0800 
 44 H       -2.2790    -9.5320    -0.3600 H     1 <1>   0.0800 
 45 H       -3.4330    -9.7400     0.9360 H     1 <1>   0.0800 
@<TRIPOS>BOND
  1   1   2  1   
  2   2   3  ar  
  3   2   4  ar  
  4   3   5  1   
  5   3   6  ar  
  6   4   7  ar  
  7   4   8  1   
  8   5  24  1   
  9   6   9  ar  
 10   6  25  1   
 11   7   9  ar  
 12   7  26  1   
 13   8  10  1   
 14   8  27  1   
 15   8  28  1   
 16   9  29  1   
 17  10  11  1   
 18  10  12  1   
 19  10  30  1   
 20  11  13  1   
 21  11  31  1   
 22  11  32  1   
 23  12  14  1   
 24  12  33  1   
 25  12  34  1   
 26  13  14  1   
 27  13  15  1   
 28  13  35  1   
 29  14  16  1   
 30  14  36  1   
 31  15  17  1   
 32  16  18  1   
 33  16  37  1   
 34  16  38  1   
 35  17  39  1   
 36  17  40  1   
 37  17  41  1   
 38  18  19  1   
 39  18  20  2   
 40  19  21  1   
 41  20  22  1   
 42  20  42  1   
 43  21  22  2   
 44  22  23  1   
 45  23  43  1   
 46  23  44  1   
 47  23  45  1   
@<TRIPOS>SUBSTRUCTURE
  1 ****  10 GROUP 4 **** **** 0

# MOE 2024.06 (io_trps.svl 2023.06)
