@<TRIPOS>MOLECULE
NONAME
40 42 1 0 0 
SMALL
USER_CHARGES


@<TRIPOS>ATOM
  1 O       -0.3430     0.1950     0.1510 O.2   1 <1>  -0.5700 
  2 C       -1.4060     0.7440    -0.0120 C.2   1 <1>   0.5690 
  3 N       -2.5560     0.0390    -0.2210 N.am  1 <1>  -0.6600 
  4 C       -1.4550     2.2600     0.0180 C.3   1 <1>  -0.0990 
  5 C       -3.9210     0.5960    -0.3910 C.3   1 <1>   0.1400 
  6 C       -2.5880    -1.4440    -0.2580 C.3   1 <1>   0.1400 
  7 C       -0.0630     2.8820     0.1940 C.3   1 <1>   0.0960 
  8 C       -4.8300    -0.6220    -0.5650 C.3   1 <1>   0.2000 
  9 C       -4.0510    -1.8130    -0.0080 C.3   1 <1>  -0.0800 
 10 N       -0.1620     4.3520     0.2130 N.pl3 1 <1>   0.0480 
 11 O       -6.0210    -0.4700     0.1280 O.3   1 <1>  -0.6800 
 12 C       -4.4850    -3.1480    -0.6380 C.3   1 <1>  -0.0170 
 13 C       -0.3480     5.1620     1.2570 C.2   1 <1>   0.0370 
 14 C       -0.1190     5.2040    -0.8120 C.2   1 <1>   0.0360 
 15 C       -3.7290    -4.3270    -0.0470 C.ar  1 <1>   0.1660 
 16 N       -0.4170     6.3970     0.8990 N.2   1 <1>  -0.3380 
 17 N       -0.2700     6.4240    -0.4280 N.2   1 <1>  -0.3380 
 18 N       -2.5210    -4.5590    -0.5350 N.ar  1 <1>  -0.6200 
 19 C       -4.3130    -5.0980     0.9570 C.ar  1 <1>   0.1600 
 20 C       -1.9410    -5.5980     0.0430 C.ar  1 <1>   0.1600 
 21 N       -3.7360    -6.1370     1.5370 N.ar  1 <1>  -0.6200 
 22 C       -2.5290    -6.3600     1.0450 C.ar  1 <1>   0.1600 
 23 H       -1.8830     2.6040    -0.9060 H     1 <1>   0.0800 
 24 H       -2.0860     2.5620     0.8330 H     1 <1>   0.0800 
 25 H       -4.1930     1.1560     0.4870 H     1 <1>   0.0800 
 26 H       -3.9640     1.2240    -1.2630 H     1 <1>   0.0800 
 27 H       -2.2670    -1.7780    -1.2310 H     1 <1>   0.0800 
 28 H       -1.9380    -1.8680     0.4910 H     1 <1>   0.0800 
 29 H        0.5820     2.5850    -0.6150 H     1 <1>   0.0800 
 30 H        0.3790     2.5500     1.1180 H     1 <1>   0.0800 
 31 H       -5.0600    -0.7570    -1.6090 H     1 <1>   0.0800 
 32 H       -4.1850    -1.8620     1.0590 H     1 <1>   0.0800 
 33 H       -5.8530    -0.3880     1.0870 H     1 <1>   0.4000 
 34 H       -4.3170    -3.1250    -1.7010 H     1 <1>   0.0800 
 35 H       -5.5400    -3.2850    -0.4830 H     1 <1>   0.0800 
 36 H       -0.4310     4.8120     2.2690 H     1 <1>   0.1500 
 37 H        0.0230     4.8960    -1.8320 H     1 <1>   0.1500 
 38 H       -5.3010    -4.8430     1.2970 H     1 <1>   0.1500 
 39 H       -0.9530    -5.8580    -0.2920 H     1 <1>   0.1500 
 40 H       -1.9770    -7.1870     1.4550 H     1 <1>   0.1500 
@<TRIPOS>BOND
  1   1   2  2   
  2   2   3  am  
  3   2   4  1   
  4   3   5  1   
  5   3   6  1   
  6   4   7  1   
  7   4  23  1   
  8   4  24  1   
  9   5   8  1   
 10   5  25  1   
 11   5  26  1   
 12   6   9  1   
 13   6  27  1   
 14   6  28  1   
 15   7  10  1   
 16   7  29  1   
 17   7  30  1   
 18   8   9  1   
 19   8  11  1   
 20   8  31  1   
 21   9  12  1   
 22   9  32  1   
 23  10  13  1   
 24  10  14  1   
 25  11  33  1   
 26  12  15  1   
 27  12  34  1   
 28  12  35  1   
 29  13  16  2   
 30  13  36  1   
 31  14  17  2   
 32  14  37  1   
 33  15  18  ar  
 34  15  19  ar  
 35  16  17  1   
 36  18  20  ar  
 37  19  21  ar  
 38  19  38  1   
 39  20  22  ar  
 40  20  39  1   
 41  21  22  ar  
 42  22  40  1   
@<TRIPOS>SUBSTRUCTURE
  1 ****   3 GROUP 4 **** **** 0

# MOE 2024.06 (io_trps.svl 2023.06)
