@<TRIPOS>MOLECULE
NONAME
42 43 1 0 0 
SMALL
USER_CHARGES


@<TRIPOS>ATOM
  1 S        0.1170     0.0880    -0.3300 S.o2  1 <1>   1.3330 
  2 O        0.1040    -1.3330    -0.0680 O.2   1 <1>  -0.6500 
  3 O       -0.2200     0.5710    -1.6500 O.2   1 <1>  -0.6500 
  4 N       -0.9300     0.8260     0.7830 N.am  1 <1>  -0.8490 
  5 C        1.7080     0.7940     0.0980 C.3   1 <1>  -0.0550 
  6 C       -2.3050     0.8980     0.2810 C.3   1 <1>   0.1160 
  7 C       -0.9170     0.1840     2.1030 C.3   1 <1>   0.1160 
  8 C        2.8620     0.3340    -0.8280 C.3   1 <1>  -0.0800 
  9 C        4.1710     1.0940    -0.6260 C.3   1 <1>   0.2200 
 10 C        3.3130    -1.0740    -0.4470 C.3   1 <1>   0.1200 
 11 N        3.9800     2.5330    -0.3210 N.am  1 <1>  -0.7300 
 12 C        4.8520     0.3190     0.5080 C.3   1 <1>   0.1200 
 13 O        4.1600    -0.8900     0.6390 O.3   1 <1>  -0.5600 
 14 C        4.9710     3.4390    -0.0520 C.2   1 <1>   0.5440 
 15 O        6.1150     3.0300     0.0260 O.2   1 <1>  -0.5700 
 16 C        4.6480     4.8520     0.1250 C.ar  1 <1>   0.3960 
 17 N        3.3710     5.2560    -0.0040 N.ar  1 <1>  -0.6200 
 18 C        5.6690     5.7600     0.4260 C.ar  1 <1>   0.1600 
 19 C        3.2180     6.5550     0.1820 C.ar  1 <1>   0.1600 
 20 N        5.5110     7.0610     0.6110 N.ar  1 <1>  -0.6200 
 21 C        4.2530     7.4370     0.4810 C.ar  1 <1>   0.1670 
 22 C        3.9800     8.9150     0.6770 C.3   1 <1>  -0.0970 
 23 H        1.5990     1.8570     0.0350 H     1 <1>   0.0800 
 24 H        1.9520     0.5560     1.1150 H     1 <1>   0.0800 
 25 H       -2.9410     1.3840     1.0010 H     1 <1>   0.0800 
 26 H       -2.6840    -0.0910     0.0820 H     1 <1>   0.0800 
 27 H       -2.3350     1.4700    -0.6320 H     1 <1>   0.0800 
 28 H       -1.5300     0.7410     2.7900 H     1 <1>   0.0800 
 29 H        0.0860     0.1530     2.4920 H     1 <1>   0.0800 
 30 H       -1.2920    -0.8240     2.0360 H     1 <1>   0.0800 
 31 H        2.5540     0.3710    -1.8580 H     1 <1>   0.0800 
 32 H        4.7830     1.0060    -1.5080 H     1 <1>   0.0800 
 33 H        3.8850    -1.5260    -1.2400 H     1 <1>   0.0800 
 34 H        2.5150    -1.7360    -0.1610 H     1 <1>   0.0800 
 35 H        3.0510     2.9260    -0.4980 H     1 <1>   0.3700 
 36 H        4.7870     0.8430     1.4450 H     1 <1>   0.0800 
 37 H        5.8800     0.1070     0.2720 H     1 <1>   0.0800 
 38 H        6.6720     5.3790     0.5170 H     1 <1>   0.1500 
 39 H        2.2190     6.9450     0.0920 H     1 <1>   0.1500 
 40 H        2.9370     9.1390     0.5570 H     1 <1>   0.0800 
 41 H        4.5430     9.4820    -0.0420 H     1 <1>   0.0800 
 42 H        4.2890     9.2090     1.6630 H     1 <1>   0.0800 
@<TRIPOS>BOND
  1   1   2  2   
  2   1   3  2   
  3   1   4  am  
  4   1   5  1   
  5   4   6  1   
  6   4   7  1   
  7   5   8  1   
  8   5  23  1   
  9   5  24  1   
 10   6  25  1   
 11   6  26  1   
 12   6  27  1   
 13   7  28  1   
 14   7  29  1   
 15   7  30  1   
 16   8   9  1   
 17   8  10  1   
 18   8  31  1   
 19   9  11  1   
 20   9  12  1   
 21   9  32  1   
 22  10  13  1   
 23  10  33  1   
 24  10  34  1   
 25  11  14  am  
 26  11  35  1   
 27  12  13  1   
 28  12  36  1   
 29  12  37  1   
 30  14  15  2   
 31  14  16  1   
 32  16  17  ar  
 33  16  18  ar  
 34  17  19  ar  
 35  18  20  ar  
 36  18  38  1   
 37  19  21  ar  
 38  19  39  1   
 39  20  21  ar  
 40  21  22  1   
 41  22  40  1   
 42  22  41  1   
 43  22  42  1   
@<TRIPOS>SUBSTRUCTURE
  1 ****  11 GROUP 4 **** **** 0

# MOE 2024.06 (io_trps.svl 2023.06)
