@<TRIPOS>MOLECULE
NONAME
54 58 1 0 0 
SMALL
USER_CHARGES


@<TRIPOS>ATOM
  1 O       -0.7090     0.5090     0.6920 O.2   1 <1>  -0.5700 
  2 C       -1.7650     1.0340     0.3630 C.2   1 <1>   0.7160 
  3 N       -2.9000     0.2350     0.4120 N.am  1 <1>  -0.6600 
  4 C       -1.7570     2.4370    -0.0590 C.2   1 <1>   0.2030 
  5 C       -4.1700     0.5960    -0.2860 C.3   1 <1>   0.1400 
  6 C       -2.8760    -1.0530     1.1670 C.3   1 <1>   0.1400 
  7 N       -2.7910     3.2480    -0.2330 N.2   1 <1>  -0.7070 
  8 C       -0.5700     3.1330    -0.3310 C.2   1 <1>  -0.1500 
  9 C       -4.8920    -0.6710    -0.7380 C.3   1 <1>  -0.1600 
 10 C       -4.2820    -1.4410     1.6250 C.3   1 <1>  -0.1600 
 11 N       -2.2700     4.4260    -0.6030 N.pl3 1 <1>   0.3000 
 12 C       -0.9270     4.3860    -0.6720 C.2   1 <1>  -0.3320 
 13 C       -5.2740    -1.5630     0.4560 C.3   1 <1>   0.4600 
 14 C       -0.0540     5.5630    -1.0660 C.3   1 <1>   0.0200 
 15 O       -6.5090    -1.1200     0.9740 O.3   1 <1>  -0.5600 
 16 C       -5.4000    -3.0210     0.0210 C.2   1 <1>  -0.3320 
 17 C       -0.1270     6.6710    -0.0100 C.3   1 <1>  -0.1600 
 18 C       -7.6970    -1.5670     0.3640 C.3   1 <1>   0.1200 
 19 N       -4.3900    -3.8240    -0.4340 N.pl3 1 <1>   0.0330 
 20 C       -6.5510    -3.7230     0.0370 C.2   1 <1>  -0.1810 
 21 C        0.7730     7.8570    -0.3740 C.3   1 <1>  -0.2400 
 22 C       -7.8450    -3.0930     0.4830 C.3   1 <1>   0.0210 
 23 C       -4.9200    -5.0620    -0.7040 C.ar  1 <1>  -0.1520 
 24 C       -6.2820    -5.0320    -0.4150 C.ar  1 <1>   0.0000 
 25 C       -4.3170    -6.2270    -1.1850 C.ar  1 <1>  -0.1500 
 26 C       -7.0560    -6.1810    -0.6040 C.ar  1 <1>  -0.1500 
 27 C       -5.0900    -7.3500    -1.3690 C.ar  1 <1>  -0.1500 
 28 C       -6.4600    -7.3280    -1.0780 C.ar  1 <1>  -0.1500 
 29 H       -3.9570     1.1990    -1.1510 H     1 <1>   0.0800 
 30 H       -4.7960     1.1640     0.3820 H     1 <1>   0.0800 
 31 H       -2.2380    -0.9520     2.0290 H     1 <1>   0.0800 
 32 H       -2.4640    -1.8190     0.5350 H     1 <1>   0.0800 
 33 H        0.4170     2.7080    -0.2620 H     1 <1>   0.1500 
 34 H       -4.2320    -1.2050    -1.3960 H     1 <1>   0.0800 
 35 H       -5.7620    -0.4130    -1.3090 H     1 <1>   0.0800 
 36 H       -4.6200    -0.6840     2.3090 H     1 <1>   0.0800 
 37 H       -4.2420    -2.3690     2.1640 H     1 <1>   0.0800 
 38 H       -2.8520     5.2490    -0.8000 H     1 <1>   0.2700 
 39 H       -0.3680     5.9420    -2.0240 H     1 <1>   0.0800 
 40 H        0.9650     5.2280    -1.1610 H     1 <1>   0.0800 
 41 H        0.1810     6.2700     0.9420 H     1 <1>   0.0800 
 42 H       -1.1410     7.0150     0.0890 H     1 <1>   0.0800 
 43 H       -7.6830    -1.2770    -0.6710 H     1 <1>   0.0800 
 44 H       -8.5200    -1.0750     0.8500 H     1 <1>   0.0800 
 45 H       -3.4080    -3.5640    -0.5620 H     1 <1>   0.2700 
 46 H        1.7990     7.5420    -0.4490 H     1 <1>   0.0800 
 47 H        0.7050     8.6160     0.3860 H     1 <1>   0.0800 
 48 H        0.4720     8.2860    -1.3130 H     1 <1>   0.0800 
 49 H       -8.6550    -3.4280    -0.1380 H     1 <1>   0.0800 
 50 H       -8.0510    -3.3640     1.5020 H     1 <1>   0.0800 
 51 H       -3.2640    -6.2370    -1.4060 H     1 <1>   0.1500 
 52 H       -8.1050    -6.1490    -0.3760 H     1 <1>   0.1500 
 53 H       -4.6490    -8.2590    -1.7380 H     1 <1>   0.1500 
 54 H       -7.0420    -8.2190    -1.2290 H     1 <1>   0.1500 
@<TRIPOS>BOND
  1   1   2  2   
  2   2   3  am  
  3   2   4  1   
  4   3   5  1   
  5   3   6  1   
  6   4   7  2   
  7   4   8  1   
  8   5   9  1   
  9   5  29  1   
 10   5  30  1   
 11   6  10  1   
 12   6  31  1   
 13   6  32  1   
 14   7  11  1   
 15   8  12  2   
 16   8  33  1   
 17   9  13  1   
 18   9  34  1   
 19   9  35  1   
 20  10  13  1   
 21  10  36  1   
 22  10  37  1   
 23  11  12  1   
 24  11  38  1   
 25  12  14  1   
 26  13  15  1   
 27  13  16  1   
 28  14  17  1   
 29  14  39  1   
 30  14  40  1   
 31  15  18  1   
 32  16  19  1   
 33  16  20  2   
 34  17  21  1   
 35  17  41  1   
 36  17  42  1   
 37  18  22  1   
 38  18  43  1   
 39  18  44  1   
 40  19  23  1   
 41  19  45  1   
 42  20  22  1   
 43  20  24  1   
 44  21  46  1   
 45  21  47  1   
 46  21  48  1   
 47  22  49  1   
 48  22  50  1   
 49  23  24  ar  
 50  23  25  ar  
 51  24  26  ar  
 52  25  27  ar  
 53  25  51  1   
 54  26  28  ar  
 55  26  52  1   
 56  27  28  ar  
 57  27  53  1   
 58  28  54  1   
@<TRIPOS>SUBSTRUCTURE
  1 ****   9 GROUP 4 **** **** 0

# MOE 2024.06 (io_trps.svl 2023.06)
