@<TRIPOS>MOLECULE
NONAME
48 50 1 0 0 
SMALL
USER_CHARGES


@<TRIPOS>ATOM
  1 CL      -1.7140    -1.2750     1.8040 Cl    1 <1>  -0.1770 
  2 C       -2.2720     0.1270     0.9110 C.ar  1 <1>   0.1770 
  3 C       -2.1820     1.3830     1.4970 C.ar  1 <1>   0.0830 
  4 C       -2.8090    -0.0370    -0.3570 C.ar  1 <1>  -0.1440 
  5 O       -1.6640     1.5500     2.7280 O.3   1 <1>  -0.5320 
  6 C       -2.6360     2.4910     0.8050 C.ar  1 <1>  -0.1500 
  7 C       -3.2550     1.0850    -1.0450 C.ar  1 <1>  -0.1500 
  8 C       -2.9110    -1.4150    -0.9800 C.3   1 <1>   0.4860 
  9 C       -3.1690     2.3410    -0.4630 C.ar  1 <1>  -0.1500 
 10 N       -3.9390    -2.2080    -0.2530 N.4   1 <1>  -0.9590 
 11 C       -5.3010    -1.5650    -0.3010 C.3   1 <1>   0.3430 
 12 C       -4.0030    -3.6240    -0.7450 C.3   1 <1>   0.3430 
 13 C       -6.3620    -2.4090     0.4340 C.3   1 <1>   0.1900 
 14 C       -5.0950    -4.4390    -0.0200 C.3   1 <1>   0.1100 
 15 N       -6.4230    -3.7890    -0.1200 N.3   1 <1>  -0.8100 
 16 C       -7.7310    -1.7180     0.3390 C.3   1 <1>   0.1200 
 17 C       -7.5220    -4.5620     0.5370 C.3   1 <1>   0.1900 
 18 O       -8.6650    -2.4610     1.0480 O.3   1 <1>  -0.5600 
 19 C       -8.8450    -3.7510     0.5380 C.3   1 <1>   0.1200 
 20 C       -7.7260    -5.9180    -0.1730 C.3   1 <1>  -0.1600 
 21 C       -8.8970    -6.7500     0.3790 C.3   1 <1>  -0.1600 
 22 C       -8.9320    -8.1400    -0.2620 C.3   1 <1>  -0.2400 
 23 H       -1.3180     0.7270     3.1270 H     1 <1>   0.4500 
 24 H       -2.5670     3.4650     1.2610 H     1 <1>   0.1500 
 25 H       -3.6690     1.0020    -2.0370 H     1 <1>   0.1500 
 26 H       -1.9530    -1.9060    -0.9150 H     1 <1>   0.0800 
 27 H       -3.1780    -1.3280    -2.0210 H     1 <1>   0.0800 
 28 H       -3.5150     3.2100    -0.9990 H     1 <1>   0.1500 
 29 H       -3.6490    -2.2340     0.7350 H     1 <1>   0.4500 
 30 H       -5.2610    -0.5870     0.1490 H     1 <1>   0.0800 
 31 H       -5.6130    -1.4490    -1.3260 H     1 <1>   0.0800 
 32 H       -4.2260    -3.6330    -1.7990 H     1 <1>   0.0800 
 33 H       -3.0510    -4.1080    -0.6020 H     1 <1>   0.0800 
 34 H       -6.0980    -2.4530     1.4770 H     1 <1>   0.0800 
 35 H       -4.8270    -4.5750     1.0150 H     1 <1>   0.0800 
 36 H       -5.1230    -5.4070    -0.4840 H     1 <1>   0.0800 
 37 H       -8.0590    -1.6310    -0.6830 H     1 <1>   0.0800 
 38 H       -7.6970    -0.7380     0.7830 H     1 <1>   0.0800 
 39 H       -7.2580    -4.7500     1.5650 H     1 <1>   0.0800 
 40 H       -9.5790    -4.2320     1.1590 H     1 <1>   0.0800 
 41 H       -9.2400    -3.6720    -0.4600 H     1 <1>   0.0800 
 42 H       -7.8850    -5.7440    -1.2240 H     1 <1>   0.0800 
 43 H       -6.8430    -6.5170    -0.0600 H     1 <1>   0.0800 
 44 H       -8.7970    -6.8580     1.4460 H     1 <1>   0.0800 
 45 H       -9.8350    -6.2620     0.1760 H     1 <1>   0.0800 
 46 H       -8.0260    -8.6810    -0.0490 H     1 <1>   0.0800 
 47 H       -9.0460    -8.0610    -1.3290 H     1 <1>   0.0800 
 48 H       -9.7620    -8.7030     0.1270 H     1 <1>   0.0800 
@<TRIPOS>BOND
  1   1   2  1   
  2   2   3  ar  
  3   2   4  ar  
  4   3   5  1   
  5   3   6  ar  
  6   4   7  ar  
  7   4   8  1   
  8   5  23  1   
  9   6   9  ar  
 10   6  24  1   
 11   7   9  ar  
 12   7  25  1   
 13   8  10  1   
 14   8  26  1   
 15   8  27  1   
 16   9  28  1   
 17  10  11  1   
 18  10  12  1   
 19  10  29  1   
 20  11  13  1   
 21  11  30  1   
 22  11  31  1   
 23  12  14  1   
 24  12  32  1   
 25  12  33  1   
 26  13  15  1   
 27  13  16  1   
 28  13  34  1   
 29  14  15  1   
 30  14  35  1   
 31  14  36  1   
 32  15  17  1   
 33  16  18  1   
 34  16  37  1   
 35  16  38  1   
 36  17  19  1   
 37  17  20  1   
 38  17  39  1   
 39  18  19  1   
 40  19  40  1   
 41  19  41  1   
 42  20  21  1   
 43  20  42  1   
 44  20  43  1   
 45  21  22  1   
 46  21  44  1   
 47  21  45  1   
 48  22  46  1   
 49  22  47  1   
 50  22  48  1   
@<TRIPOS>SUBSTRUCTURE
  1 ****  11 GROUP 4 **** **** 0

# MOE 2024.06 (io_trps.svl 2023.06)
