@<TRIPOS>MOLECULE
NONAME
42 43 1 0 0 
SMALL
USER_CHARGES


@<TRIPOS>ATOM
  1 O        0.9980    -0.2560    -2.1730 O.2   1 <1>  -0.5700 
  2 C        0.8040    -0.9780    -1.2250 C.2   1 <1>   0.5690 
  3 N        1.7550    -1.4610    -0.3940 N.am  1 <1>  -0.6600 
  4 C       -0.5610    -1.4380    -0.7980 C.3   1 <1>  -0.0990 
  5 C        1.2050    -2.2720     0.7030 C.3   1 <1>   0.1400 
  6 C        3.2010    -1.1980    -0.5190 C.3   1 <1>   0.1400 
  7 C       -0.2740    -2.4490     0.3270 C.3   1 <1>  -0.1600 
  8 C        3.5230     0.1480     0.1300 C.3   1 <1>  -0.1600 
  9 C        4.9850     0.5560    -0.1170 C.3   1 <1>  -0.0990 
 10 C        5.2860     1.9330     0.4410 C.2   1 <1>   0.5690 
 11 O        5.9660     2.0170     1.4330 O.2   1 <1>  -0.5700 
 12 N        4.7570     3.0070    -0.2170 N.am  1 <1>  -0.4940 
 13 C        4.7790     4.3890     0.0950 C.2   1 <1>  -0.0880 
 14 N        5.8110     5.1160     0.6180 N.pl3 1 <1>   0.3140 
 15 C        3.7560     5.2560    -0.0930 C.2   1 <1>  -0.1810 
 16 N        5.4550     6.4180     0.7740 N.2   1 <1>  -0.7070 
 17 C        7.1800     4.6380     0.9440 C.3   1 <1>   0.0960 
 18 C        4.2350     6.4830     0.3470 C.2   1 <1>   0.1390 
 19 C        2.3640     5.0020    -0.6450 C.3   1 <1>  -0.0590 
 20 C        8.2680     5.6970     0.7020 C.3   1 <1>  -0.2400 
 21 H       -1.0800    -1.8910    -1.6220 H     1 <1>   0.0800 
 22 H       -1.1150    -0.5930    -0.4320 H     1 <1>   0.0800 
 23 H        1.3070    -1.7380     1.6320 H     1 <1>   0.0800 
 24 H        1.7100    -3.2220     0.7650 H     1 <1>   0.0800 
 25 H        3.4550    -1.1680    -1.5660 H     1 <1>   0.0800 
 26 H        3.7610    -1.9910    -0.0540 H     1 <1>   0.0800 
 27 H       -0.4240    -3.4500    -0.0380 H     1 <1>   0.0800 
 28 H       -0.9130    -2.2940     1.1780 H     1 <1>   0.0800 
 29 H        3.3420     0.0910     1.1890 H     1 <1>   0.0800 
 30 H        2.8700     0.8960    -0.2870 H     1 <1>   0.0800 
 31 H        5.1950     0.5590    -1.1710 H     1 <1>   0.0800 
 32 H        5.6420    -0.1570     0.3500 H     1 <1>   0.0800 
 33 H        4.1210     2.7660    -0.9770 H     1 <1>   0.3700 
 34 H        7.3920     3.7810     0.3340 H     1 <1>   0.0800 
 35 H        7.1860     4.3320     1.9740 H     1 <1>   0.0800 
 36 H        3.6640     7.3970     0.3410 H     1 <1>   0.1500 
 37 H        2.1900     3.9500    -0.7770 H     1 <1>   0.0800 
 38 H        2.2520     5.4950    -1.5930 H     1 <1>   0.0800 
 39 H        1.6270     5.3870     0.0370 H     1 <1>   0.0800 
 40 H        8.2440     6.0260    -0.3220 H     1 <1>   0.0800 
 41 H        9.2360     5.2790     0.9090 H     1 <1>   0.0800 
 42 H        8.1150     6.5420     1.3500 H     1 <1>   0.0800 
@<TRIPOS>BOND
  1   1   2  2   
  2   2   3  am  
  3   2   4  1   
  4   3   5  1   
  5   3   6  1   
  6   4   7  1   
  7   4  21  1   
  8   4  22  1   
  9   5   7  1   
 10   5  23  1   
 11   5  24  1   
 12   6   8  1   
 13   6  25  1   
 14   6  26  1   
 15   7  27  1   
 16   7  28  1   
 17   8   9  1   
 18   8  29  1   
 19   8  30  1   
 20   9  10  1   
 21   9  31  1   
 22   9  32  1   
 23  10  11  2   
 24  10  12  am  
 25  12  13  1   
 26  12  33  1   
 27  13  14  1   
 28  13  15  2   
 29  14  16  1   
 30  14  17  1   
 31  15  18  1   
 32  15  19  1   
 33  16  18  2   
 34  17  20  1   
 35  17  34  1   
 36  17  35  1   
 37  18  36  1   
 38  19  37  1   
 39  19  38  1   
 40  19  39  1   
 41  20  40  1   
 42  20  41  1   
 43  20  42  1   
@<TRIPOS>SUBSTRUCTURE
  1 ****  12 GROUP 4 **** **** 0

# MOE 2024.06 (io_trps.svl 2023.06)
