@<TRIPOS>MOLECULE
NONAME
55 58 1 0 0 
SMALL
USER_CHARGES


@<TRIPOS>ATOM
  1 O       -1.0480     0.7370     1.0010 O.2   1 <1>  -0.5700 
  2 C       -1.3100     1.4730     0.0670 C.2   1 <1>   0.5440 
  3 N       -1.6630     0.9120    -1.1480 N.am  1 <1>  -0.6600 
  4 C       -1.2330     2.9090     0.2570 C.ar  1 <1>   0.0860 
  5 C       -1.9550    -0.5420    -1.2750 C.3   1 <1>   0.0600 
  6 C       -1.6070     1.6490    -2.4400 C.3   1 <1>   0.0600 
  7 C       -0.1000     3.4900     0.8230 C.ar  1 <1>  -0.1500 
  8 C       -2.2840     3.7520    -0.1030 C.ar  1 <1>  -0.1500 
  9 C        0.0150     4.8590     1.0300 C.ar  1 <1>   0.1000 
 10 C       -2.1910     5.1210     0.0670 C.ar  1 <1>  -0.1500 
 11 N        1.1590     5.3900     1.6580 N.pl3 1 <1>  -0.8380 
 12 C       -1.0480     5.6740     0.6130 C.ar  1 <1>   0.0830 
 13 C        1.2350     6.8860     1.7560 C.3   1 <1>   0.2890 
 14 C        1.5650     4.6900     2.9160 C.3   1 <1>   0.1290 
 15 O       -0.9840     7.0210     0.7270 O.3   1 <1>  -0.3630 
 16 C        0.3120     7.5840     0.7320 C.3   1 <1>   0.1200 
 17 C        2.6980     7.2920     1.5420 C.3   1 <1>  -0.0990 
 18 C        2.8770     8.7900     1.6280 C.2   1 <1>   0.5690 
 19 O        2.3560     9.3760     2.5470 O.2   1 <1>  -0.5700 
 20 N        3.6090     9.4090     0.6660 N.am  1 <1>  -0.4930 
 21 C        3.8560    10.7970     0.4920 C.2   1 <1>   0.0630 
 22 C        4.7370    11.3280    -0.3900 C.2   1 <1>  -0.0680 
 23 C        3.2620    11.8960     1.1180 C.2   1 <1>   0.1390 
 24 N        4.6120    12.6760    -0.2740 N.pl3 1 <1>   0.3140 
 25 N        5.6390    10.6940    -1.2800 N.pl3 1 <1>  -0.8530 
 26 N        3.7080    13.0330     0.6680 N.2   1 <1>  -0.7070 
 27 C        5.4010    13.6330    -1.0650 C.3   1 <1>   0.0960 
 28 C        6.6230    11.5820    -1.9620 C.3   1 <1>   0.2090 
 29 C        5.9840    12.9360    -2.3080 C.3   1 <1>  -0.1600 
 30 H       -2.1760    -0.9700    -0.3120 H     1 <1>   0.0800 
 31 H       -1.1000    -1.0470    -1.6890 H     1 <1>   0.0800 
 32 H       -2.8040    -0.6910    -1.9180 H     1 <1>   0.0800 
 33 H       -1.0860     2.5840    -2.3280 H     1 <1>   0.0800 
 34 H       -2.6060     1.8410    -2.7910 H     1 <1>   0.0800 
 35 H       -1.0840     1.0590    -3.1720 H     1 <1>   0.0800 
 36 H        0.7090     2.8450     1.1090 H     1 <1>   0.1500 
 37 H       -3.1790     3.3240    -0.5200 H     1 <1>   0.1500 
 38 H       -3.0010     5.7670    -0.2210 H     1 <1>   0.1500 
 39 H        0.9210     7.1920     2.7410 H     1 <1>   0.0800 
 40 H        2.2660     3.9090     2.6810 H     1 <1>   0.0800 
 41 H        0.7030     4.2530     3.3920 H     1 <1>   0.0800 
 42 H        2.0270     5.3710     3.6100 H     1 <1>   0.0800 
 43 H        0.7120     7.4800    -0.2600 H     1 <1>   0.0800 
 44 H        0.2110     8.6300     0.9620 H     1 <1>   0.0800 
 45 H        3.0230     6.9350     0.5830 H     1 <1>   0.0800 
 46 H        3.3110     6.8450     2.3000 H     1 <1>   0.0800 
 47 H        4.0140     8.8420    -0.0770 H     1 <1>   0.3700 
 48 H        2.5140    11.8150     1.8890 H     1 <1>   0.1500 
 49 H        6.1130     9.8890    -0.8540 H     1 <1>   0.4000 
 50 H        6.1900    14.0030    -0.4370 H     1 <1>   0.0800 
 51 H        4.7670    14.4530    -1.3480 H     1 <1>   0.0800 
 52 H        6.9630    11.1020    -2.8650 H     1 <1>   0.0800 
 53 H        7.4710    11.7320    -1.3160 H     1 <1>   0.0800 
 54 H        6.7160    13.5750    -2.7670 H     1 <1>   0.0800 
 55 H        5.1980    12.7750    -3.0260 H     1 <1>   0.0800 
@<TRIPOS>BOND
  1   1   2  2   
  2   2   3  am  
  3   2   4  1   
  4   3   5  1   
  5   3   6  1   
  6   4   7  ar  
  7   4   8  ar  
  8   5  30  1   
  9   5  31  1   
 10   5  32  1   
 11   6  33  1   
 12   6  34  1   
 13   6  35  1   
 14   7   9  ar  
 15   7  36  1   
 16   8  10  ar  
 17   8  37  1   
 18   9  11  1   
 19   9  12  ar  
 20  10  12  ar  
 21  10  38  1   
 22  11  13  1   
 23  11  14  1   
 24  12  15  1   
 25  13  16  1   
 26  13  17  1   
 27  13  39  1   
 28  14  40  1   
 29  14  41  1   
 30  14  42  1   
 31  15  16  1   
 32  16  43  1   
 33  16  44  1   
 34  17  18  1   
 35  17  45  1   
 36  17  46  1   
 37  18  19  2   
 38  18  20  am  
 39  20  21  1   
 40  20  47  1   
 41  21  22  2   
 42  21  23  1   
 43  22  24  1   
 44  22  25  1   
 45  23  26  2   
 46  23  48  1   
 47  24  26  1   
 48  24  27  1   
 49  25  28  1   
 50  25  49  1   
 51  27  29  1   
 52  27  50  1   
 53  27  51  1   
 54  28  29  1   
 55  28  52  1   
 56  28  53  1   
 57  29  54  1   
 58  29  55  1   
@<TRIPOS>SUBSTRUCTURE
  1 ****  16 GROUP 4 **** **** 0

# MOE 2024.06 (io_trps.svl 2023.06)
