@<TRIPOS>MOLECULE
NONAME
45 47 1 0 0 
SMALL
USER_CHARGES


@<TRIPOS>ATOM
  1 F        1.5210    -5.0300     0.3680 F     1 <1>  -0.1900 
  2 C        0.4480    -4.3020     0.2040 C.ar  1 <1>   0.1900 
  3 C        0.4340    -3.3230    -0.7790 C.ar  1 <1>  -0.1440 
  4 C       -0.6360    -4.5490     1.0250 C.ar  1 <1>  -0.1500 
  5 C       -0.7220    -2.5720    -0.9240 C.ar  1 <1>  -0.1500 
  6 C        1.6440    -3.0740    -1.6660 C.3   1 <1>  -0.0960 
  7 C       -1.7900    -3.7960     0.8640 C.ar  1 <1>  -0.1430 
  8 C       -1.8210    -2.8060    -0.1100 C.ar  1 <1>  -0.1500 
  9 C       -3.0090    -4.0590     1.7450 C.3   1 <1>   0.0450 
 10 C       -3.4070    -5.5280     1.8110 C.2   1 <1>   0.5690 
 11 O       -3.4720    -6.0480     2.8990 O.2   1 <1>  -0.5700 
 12 N       -3.6950    -6.2360     0.6750 N.am  1 <1>  -0.6600 
 13 C       -3.6510    -5.7390    -0.7250 C.3   1 <1>   0.1400 
 14 C       -4.0010    -7.6880     0.6940 C.3   1 <1>   0.1400 
 15 C       -4.4080    -6.7990    -1.5230 C.3   1 <1>   0.2000 
 16 C       -4.0880    -8.1010    -0.7800 C.3   1 <1>  -0.0800 
 17 O       -5.7640    -6.5260    -1.4180 O.3   1 <1>  -0.6800 
 18 C       -5.0560    -9.2680    -1.0460 C.3   1 <1>  -0.0170 
 19 C       -4.6000   -10.5260    -0.3220 C.ar  1 <1>  -0.1430 
 20 C       -3.6160   -11.3440    -0.8390 C.ar  1 <1>  -0.1500 
 21 C       -5.1410   -10.9130     0.8870 C.ar  1 <1>  -0.1500 
 22 C       -3.2290   -12.4750    -0.1400 C.ar  1 <1>   0.1600 
 23 C       -4.6820   -12.0650     1.5050 C.ar  1 <1>   0.1600 
 24 N       -3.7380   -12.8550     1.0210 N.ar  1 <1>  -0.6200 
 25 H       -0.5710    -5.3200     1.7720 H     1 <1>   0.1500 
 26 H       -0.7730    -1.7990    -1.6710 H     1 <1>   0.1500 
 27 H        1.4480    -2.2930    -2.3790 H     1 <1>   0.0800 
 28 H        1.8980    -3.9720    -2.2010 H     1 <1>   0.0800 
 29 H        2.4860    -2.7830    -1.0620 H     1 <1>   0.0800 
 30 H       -2.7040    -2.2060    -0.2440 H     1 <1>   0.1500 
 31 H       -3.8550    -3.5000     1.3910 H     1 <1>   0.0800 
 32 H       -2.7920    -3.7180     2.7400 H     1 <1>   0.0800 
 33 H       -4.1000    -4.7670    -0.8270 H     1 <1>   0.0800 
 34 H       -2.6260    -5.7010    -1.0510 H     1 <1>   0.0800 
 35 H       -3.2300    -8.2340     1.2120 H     1 <1>   0.0800 
 36 H       -4.9410    -7.8390     1.1960 H     1 <1>   0.0800 
 37 H       -4.1400    -6.8190    -2.5650 H     1 <1>   0.0800 
 38 H       -3.1010    -8.4080    -1.0810 H     1 <1>   0.0800 
 39 H       -5.9790    -6.3760    -0.4760 H     1 <1>   0.4000 
 40 H       -5.1000    -9.4620    -2.1030 H     1 <1>   0.0800 
 41 H       -6.0510    -9.0120    -0.7260 H     1 <1>   0.0800 
 42 H       -3.1470   -11.1130    -1.7780 H     1 <1>   0.1500 
 43 H       -5.9140   -10.3330     1.3570 H     1 <1>   0.1500 
 44 H       -2.4600   -13.1020    -0.5590 H     1 <1>   0.1500 
 45 H       -5.1140   -12.3510     2.4490 H     1 <1>   0.1500 
@<TRIPOS>BOND
  1   1   2  1   
  2   2   3  ar  
  3   2   4  ar  
  4   3   5  ar  
  5   3   6  1   
  6   4   7  ar  
  7   4  25  1   
  8   5   8  ar  
  9   5  26  1   
 10   6  27  1   
 11   6  28  1   
 12   6  29  1   
 13   7   8  ar  
 14   7   9  1   
 15   8  30  1   
 16   9  10  1   
 17   9  31  1   
 18   9  32  1   
 19  10  11  2   
 20  10  12  am  
 21  12  13  1   
 22  12  14  1   
 23  13  15  1   
 24  13  33  1   
 25  13  34  1   
 26  14  16  1   
 27  14  35  1   
 28  14  36  1   
 29  15  16  1   
 30  15  17  1   
 31  15  37  1   
 32  16  18  1   
 33  16  38  1   
 34  17  39  1   
 35  18  19  1   
 36  18  40  1   
 37  18  41  1   
 38  19  20  ar  
 39  19  21  ar  
 40  20  22  ar  
 41  20  42  1   
 42  21  23  ar  
 43  21  43  1   
 44  22  24  ar  
 45  22  44  1   
 46  23  24  ar  
 47  23  45  1   
@<TRIPOS>SUBSTRUCTURE
  1 ****  12 GROUP 4 **** **** 0

# MOE 2024.06 (io_trps.svl 2023.06)
