@<TRIPOS>MOLECULE
NONAME
57 59 1 0 0 
SMALL
USER_CHARGES


@<TRIPOS>ATOM
  1 O       -1.6940    -0.6160     2.2940 O.2   1 <1>  -0.5700 
  2 C       -1.3310    -0.3320     1.1760 C.2   1 <1>   0.5690 
  3 N       -2.1650    -0.5420     0.1000 N.am  1 <1>  -0.6600 
  4 C        0.0620     0.2830     1.0340 C.3   1 <1>   0.0820 
  5 C       -3.4660    -1.2390     0.3090 C.3   1 <1>   0.3200 
  6 C       -2.0110     0.1200    -1.2300 C.3   1 <1>   0.1400 
  7 C        0.0770     1.7120     0.4850 C.2   1 <1>  -0.1810 
  8 C       -4.4810    -0.1750     0.6570 C.2   1 <1>  -0.3320 
  9 C       -2.7210     1.4910    -1.2310 C.3   1 <1>   0.3430 
 10 C        0.7380     2.1400    -0.6630 C.2   1 <1>   0.1080 
 11 C       -0.5210     2.8270     0.9710 C.2   1 <1>  -0.3320 
 12 N       -4.4300     0.4990     1.8200 N.pl3 1 <1>   0.0330 
 13 C       -5.5340     0.3220    -0.0300 C.2   1 <1>   0.0770 
 14 N       -2.1180     2.5090    -2.1530 N.4   1 <1>  -0.9590 
 15 N        0.5030     3.3820    -0.9160 N.2   1 <1>  -0.7070 
 16 C        1.6490     1.3160    -1.5530 C.3   1 <1>  -0.0590 
 17 N       -0.2000     3.8700     0.1430 N.pl3 1 <1>   0.5930 
 18 C       -1.3940     2.9370     2.2180 C.3   1 <1>  -0.0600 
 19 C       -5.4360     1.3940     1.7500 C.2   1 <1>   0.0360 
 20 N       -6.1110     1.3300     0.6470 N.2   1 <1>  -0.5650 
 21 C       -2.9300     3.7610    -2.0790 C.3   1 <1>   0.2630 
 22 C       -1.9910     2.0530    -3.5690 C.3   1 <1>   0.2630 
 23 C       -0.5760     5.2530     0.2000 C.ar  1 <1>  -0.0230 
 24 C       -0.7830     5.9730    -0.9780 C.ar  1 <1>  -0.1500 
 25 C       -0.7310     5.9350     1.4070 C.ar  1 <1>  -0.1500 
 26 C       -1.1830     7.2970    -0.9530 C.ar  1 <1>  -0.1500 
 27 C       -1.1330     7.2580     1.4360 C.ar  1 <1>  -0.1500 
 28 C       -1.3680     7.9390     0.2570 C.ar  1 <1>  -0.1500 
 29 H        0.6460    -0.3670     0.4130 H     1 <1>   0.0800 
 30 H        0.5290     0.2920     2.0030 H     1 <1>   0.0800 
 31 H       -3.3890    -1.9580     1.1090 H     1 <1>   0.0800 
 32 H       -3.7560    -1.7650    -0.5850 H     1 <1>   0.0800 
 33 H       -2.4350    -0.5070    -1.9940 H     1 <1>   0.0800 
 34 H       -0.9690     0.2390    -1.4460 H     1 <1>   0.0800 
 35 H       -2.6880     1.8800    -0.2260 H     1 <1>   0.0800 
 36 H       -3.7560     1.3440    -1.4870 H     1 <1>   0.0800 
 37 H       -3.7520     0.3450     2.5800 H     1 <1>   0.2700 
 38 H       -5.9100     0.0170    -0.9930 H     1 <1>   0.1500 
 39 H       -1.1600     2.7360    -1.7910 H     1 <1>   0.4500 
 40 H        2.3190     0.7290    -0.9510 H     1 <1>   0.0800 
 41 H        2.2430     1.9710    -2.1660 H     1 <1>   0.0800 
 42 H        1.0840     0.6670    -2.1930 H     1 <1>   0.0800 
 43 H       -1.7220     1.9730     2.5530 H     1 <1>   0.0800 
 44 H       -2.2660     3.5360     2.0220 H     1 <1>   0.0800 
 45 H       -0.8360     3.3790     3.0240 H     1 <1>   0.0800 
 46 H       -5.6420     2.0870     2.5490 H     1 <1>   0.1500 
 47 H       -3.9410     3.5740    -2.4020 H     1 <1>   0.0800 
 48 H       -2.5010     4.5230    -2.7090 H     1 <1>   0.0800 
 49 H       -2.9550     4.1310    -1.0660 H     1 <1>   0.0800 
 50 H       -2.9600     1.8080    -3.9720 H     1 <1>   0.0800 
 51 H       -1.3580     1.1830    -3.6290 H     1 <1>   0.0800 
 52 H       -1.5530     2.8330    -4.1710 H     1 <1>   0.0800 
 53 H       -0.6130     5.5050    -1.9310 H     1 <1>   0.1500 
 54 H       -0.5240     5.4510     2.3420 H     1 <1>   0.1500 
 55 H       -1.3410     7.8350    -1.8720 H     1 <1>   0.1500 
 56 H       -1.2570     7.7640     2.3790 H     1 <1>   0.1500 
 57 H       -1.6800     8.9700     0.2810 H     1 <1>   0.1500 
@<TRIPOS>BOND
  1   1   2  2   
  2   2   3  am  
  3   2   4  1   
  4   3   5  1   
  5   3   6  1   
  6   4   7  1   
  7   4  29  1   
  8   4  30  1   
  9   5   8  1   
 10   5  31  1   
 11   5  32  1   
 12   6   9  1   
 13   6  33  1   
 14   6  34  1   
 15   7  10  1   
 16   7  11  2   
 17   8  12  1   
 18   8  13  2   
 19   9  14  1   
 20   9  35  1   
 21   9  36  1   
 22  10  15  2   
 23  10  16  1   
 24  11  17  1   
 25  11  18  1   
 26  12  19  1   
 27  12  37  1   
 28  13  20  1   
 29  13  38  1   
 30  14  21  1   
 31  14  22  1   
 32  14  39  1   
 33  15  17  1   
 34  16  40  1   
 35  16  41  1   
 36  16  42  1   
 37  17  23  1   
 38  18  43  1   
 39  18  44  1   
 40  18  45  1   
 41  19  20  2   
 42  19  46  1   
 43  21  47  1   
 44  21  48  1   
 45  21  49  1   
 46  22  50  1   
 47  22  51  1   
 48  22  52  1   
 49  23  24  ar  
 50  23  25  ar  
 51  24  26  ar  
 52  24  53  1   
 53  25  27  ar  
 54  25  54  1   
 55  26  28  ar  
 56  26  55  1   
 57  27  28  ar  
 58  27  56  1   
 59  28  57  1   
@<TRIPOS>SUBSTRUCTURE
  1 ****  11 GROUP 4 **** **** 0

# MOE 2024.06 (io_trps.svl 2023.06)
