@<TRIPOS>MOLECULE
NONAME
55 59 1 0 0 
SMALL
USER_CHARGES


@<TRIPOS>ATOM
  1 O       -3.2040     2.4350     2.3680 O.2   1 <1>  -0.5700 
  2 C       -3.3640     2.1550     1.2020 C.2   1 <1>   0.5690 
  3 N       -4.3870     1.3240     0.8070 N.am  1 <1>  -0.6600 
  4 C       -2.3950     2.7530     0.1810 C.3   1 <1>  -0.0190 
  5 C       -4.6790     0.8820    -0.5870 C.3   1 <1>   0.1400 
  6 C       -5.3350     0.7450     1.8010 C.3   1 <1>   0.1400 
  7 C       -1.0620     3.2890     0.7490 C.3   1 <1>  -0.0160 
  8 C       -2.9980     3.9320    -0.6070 C.3   1 <1>  -0.0160 
  9 C       -4.5610    -0.6420    -0.6610 C.3   1 <1>  -0.1600 
 10 C       -5.2340    -0.7810     1.7620 C.3   1 <1>  -0.1600 
 11 C       -0.6930     4.3670    -0.2400 C.ar  1 <1>  -0.1440 
 12 C       -1.7790     4.7300    -0.9980 C.ar  1 <1>  -0.1430 
 13 C       -5.4870    -1.3360     0.3490 C.3   1 <1>   0.4240 
 14 C        0.5360     4.9700    -0.4320 C.ar  1 <1>  -0.1500 
 15 C       -1.6700     5.7070    -1.9700 C.ar  1 <1>  -0.1500 
 16 O       -6.7900    -0.9680    -0.0390 O.3   1 <1>  -0.5600 
 17 C       -5.2840    -2.8660     0.3010 C.ar  1 <1>  -0.1430 
 18 C        0.6570     5.9510    -1.4050 C.ar  1 <1>  -0.1500 
 19 C       -0.4410     6.3170    -2.1700 C.ar  1 <1>  -0.1500 
 20 C       -7.8410    -1.7810     0.3820 C.3   1 <1>   0.1200 
 21 C       -6.3360    -3.7230    -0.0080 C.ar  1 <1>  -0.1430 
 22 C       -4.0380    -3.4200     0.5750 C.ar  1 <1>  -0.1500 
 23 C       -7.7080    -3.1440    -0.2910 C.3   1 <1>  -0.0170 
 24 C       -6.1430    -5.0940    -0.0560 C.ar  1 <1>  -0.1500 
 25 C       -3.8440    -4.7890     0.5310 C.ar  1 <1>  -0.1500 
 26 C       -4.8900    -5.6360     0.2140 C.ar  1 <1>   0.0830 
 27 O       -4.6170    -6.9640     0.1900 O.3   1 <1>  -0.3630 
 28 C       -5.6070    -7.9110    -0.1420 C.3   1 <1>   0.0400 
 29 H       -2.1230     1.9890    -0.5210 H     1 <1>   0.0800 
 30 H       -4.0100     1.3270    -1.2980 H     1 <1>   0.0800 
 31 H       -5.6810     1.1830    -0.8460 H     1 <1>   0.0800 
 32 H       -6.3370     1.0560     1.5550 H     1 <1>   0.0800 
 33 H       -5.1150     1.0950     2.7950 H     1 <1>   0.0800 
 34 H       -0.3160     2.5170     0.8050 H     1 <1>   0.0800 
 35 H       -1.1920     3.7410     1.7170 H     1 <1>   0.0800 
 36 H       -3.6270     4.5310     0.0280 H     1 <1>   0.0800 
 37 H       -3.5520     3.6030    -1.4680 H     1 <1>   0.0800 
 38 H       -3.5390    -0.9100    -0.4730 H     1 <1>   0.0800 
 39 H       -4.8080    -0.9810    -1.6500 H     1 <1>   0.0800 
 40 H       -5.9250    -1.2140     2.4590 H     1 <1>   0.0800 
 41 H       -4.2480    -1.0550     2.0870 H     1 <1>   0.0800 
 42 H        1.3830     4.6850     0.1660 H     1 <1>   0.1500 
 43 H       -2.5230     5.9890    -2.5600 H     1 <1>   0.1500 
 44 H        1.6060     6.4300    -1.5660 H     1 <1>   0.1500 
 45 H       -0.3390     7.0790    -2.9220 H     1 <1>   0.1500 
 46 H       -8.7620    -1.3070     0.0930 H     1 <1>   0.0800 
 47 H       -7.8130    -1.8740     1.4530 H     1 <1>   0.0800 
 48 H       -3.2020    -2.7920     0.8260 H     1 <1>   0.1500 
 49 H       -7.8430    -3.0340    -1.3520 H     1 <1>   0.0800 
 50 H       -8.4730    -3.7990     0.0830 H     1 <1>   0.0800 
 51 H       -6.9720    -5.7280    -0.3030 H     1 <1>   0.1500 
 52 H       -2.8780    -5.2100     0.7420 H     1 <1>   0.1500 
 53 H       -5.1610    -8.8880    -0.1060 H     1 <1>   0.0800 
 54 H       -5.9640    -7.7090    -1.1370 H     1 <1>   0.0800 
 55 H       -6.4060    -7.8470     0.5750 H     1 <1>   0.0800 
@<TRIPOS>BOND
  1   1   2  2   
  2   2   3  am  
  3   2   4  1   
  4   3   5  1   
  5   3   6  1   
  6   4   7  1   
  7   4   8  1   
  8   4  29  1   
  9   5   9  1   
 10   5  30  1   
 11   5  31  1   
 12   6  10  1   
 13   6  32  1   
 14   6  33  1   
 15   7  11  1   
 16   7  34  1   
 17   7  35  1   
 18   8  12  1   
 19   8  36  1   
 20   8  37  1   
 21   9  13  1   
 22   9  38  1   
 23   9  39  1   
 24  10  13  1   
 25  10  40  1   
 26  10  41  1   
 27  11  12  ar  
 28  11  14  ar  
 29  12  15  ar  
 30  13  16  1   
 31  13  17  1   
 32  14  18  ar  
 33  14  42  1   
 34  15  19  ar  
 35  15  43  1   
 36  16  20  1   
 37  17  21  ar  
 38  17  22  ar  
 39  18  19  ar  
 40  18  44  1   
 41  19  45  1   
 42  20  23  1   
 43  20  46  1   
 44  20  47  1   
 45  21  23  1   
 46  21  24  ar  
 47  22  25  ar  
 48  22  48  1   
 49  23  49  1   
 50  23  50  1   
 51  24  26  ar  
 52  24  51  1   
 53  25  26  ar  
 54  25  52  1   
 55  26  27  1   
 56  27  28  1   
 57  28  53  1   
 58  28  54  1   
 59  28  55  1   
@<TRIPOS>SUBSTRUCTURE
  1 ****   9 GROUP 4 **** **** 0

# MOE 2024.06 (io_trps.svl 2023.06)
