@<TRIPOS>MOLECULE
NONAME
56 60 1 0 0 
SMALL
USER_CHARGES


@<TRIPOS>ATOM
  1 O       -3.2990    -1.5400     0.6320 O.co2 1 <1>  -0.9000 
  2 C       -3.6020    -0.3500     0.8210 C.2   1 <1>   1.0330 
  3 O       -4.4640    -0.1340     1.7020 O.co2 1 <1>  -0.9000 
  4 C       -3.4140     0.6400    -0.2430 C.2   1 <1>   0.0560 
  5 N       -2.5640     1.6470    -0.3680 N.2   1 <1>  -0.7070 
  6 C       -4.2770     0.6010    -1.3460 C.2   1 <1>  -0.1810 
  7 N       -2.8750     2.2340    -1.5310 N.pl3 1 <1>   0.3000 
  8 C       -3.9110     1.6260    -2.1430 C.2   1 <1>  -0.3020 
  9 C       -5.3570    -0.4620    -1.4740 C.3   1 <1>   0.5240 
 10 N       -6.2820    -0.3480    -0.3190 N.4   1 <1>  -0.9590 
 11 C       -7.2480    -1.4610    -0.1380 C.3   1 <1>   0.3430 
 12 C       -6.9990     0.9360    -0.1720 C.3   1 <1>   0.3430 
 13 C       -8.5060    -0.8030     0.4380 C.3   1 <1>   0.2800 
 14 C       -8.1350     0.6290     0.8060 C.3   1 <1>  -0.0800 
 15 O       -9.4670    -0.5700    -0.5290 O.3   1 <1>  -0.5600 
 16 C       -9.3240    -1.4900     1.5320 C.3   1 <1>  -0.1600 
 17 C       -9.4890     1.3520     0.6340 C.3   1 <1>  -0.0800 
 18 C      -10.3750     0.1760     0.1950 C.3   1 <1>   0.2000 
 19 C      -10.6670    -0.7690     1.3690 C.3   1 <1>  -0.1600 
 20 C       -9.4970     2.4890    -0.3990 C.3   1 <1>   0.1400 
 21 N      -10.8180     3.1580    -0.4100 N.am  1 <1>  -0.7300 
 22 C      -11.1960     4.1460     0.4540 C.2   1 <1>   0.7160 
 23 O      -10.4170     4.4630     1.3320 O.2   1 <1>  -0.5700 
 24 C      -12.4900     4.7740     0.3110 C.2   1 <1>  -0.0860 
 25 C      -12.9990     5.8980     0.8950 C.2   1 <1>  -0.0400 
 26 C      -13.5460     4.3150    -0.5090 C.2   1 <1>  -0.1500 
 27 O      -14.2250     6.1260     0.4930 O.3   1 <1>  -0.2800 
 28 C      -12.4030     6.8820     1.8830 C.3   1 <1>  -0.0600 
 29 C      -14.5650     5.1810    -0.3520 C.2   1 <1>  -0.0400 
 30 C      -15.9490     5.2190    -0.9610 C.3   1 <1>  -0.0600 
 31 H       -2.3570     3.0510    -1.8800 H     1 <1>   0.2700 
 32 H       -4.3030     1.9550    -3.0880 H     1 <1>   0.1500 
 33 H       -4.8850    -1.4330    -1.4630 H     1 <1>   0.0800 
 34 H       -5.8930    -0.3420    -2.3990 H     1 <1>   0.0800 
 35 H       -5.6600    -0.3920     0.5300 H     1 <1>   0.4500 
 36 H       -7.4830    -1.9440    -1.0700 H     1 <1>   0.0800 
 37 H       -6.8420    -2.1770     0.5590 H     1 <1>   0.0800 
 38 H       -6.3430     1.7060     0.2050 H     1 <1>   0.0800 
 39 H       -7.3990     1.2300    -1.1270 H     1 <1>   0.0800 
 40 H       -7.7650     0.6910     1.8160 H     1 <1>   0.0800 
 41 H       -9.4220    -2.5410     1.3260 H     1 <1>   0.0800 
 42 H       -8.8900    -1.3500     2.5070 H     1 <1>   0.0800 
 43 H       -9.8200     1.7440     1.5810 H     1 <1>   0.0800 
 44 H      -11.2370     0.4370    -0.3960 H     1 <1>   0.0800 
 45 H      -10.9620    -0.2310     2.2530 H     1 <1>   0.0800 
 46 H      -11.4450    -1.4610     1.0990 H     1 <1>   0.0800 
 47 H       -9.2870     2.1090    -1.3850 H     1 <1>   0.0800 
 48 H       -8.7430     3.2160    -0.1420 H     1 <1>   0.0800 
 49 H      -11.4380     2.9500    -1.1920 H     1 <1>   0.3700 
 50 H      -13.5260     3.4380    -1.1290 H     1 <1>   0.1500 
 51 H      -11.3870     6.6310     2.1230 H     1 <1>   0.0800 
 52 H      -12.9830     6.8780     2.7880 H     1 <1>   0.0800 
 53 H      -12.4230     7.8700     1.4630 H     1 <1>   0.0800 
 54 H      -16.0870     4.3880    -1.6270 H     1 <1>   0.0800 
 55 H      -16.0770     6.1350    -1.5090 H     1 <1>   0.0800 
 56 H      -16.6880     5.1730    -0.1820 H     1 <1>   0.0800 
@<TRIPOS>BOND
  1   1   2  ar  
  2   2   3  ar  
  3   2   4  1   
  4   4   5  2   
  5   4   6  1   
  6   5   7  1   
  7   6   8  2   
  8   6   9  1   
  9   7   8  1   
 10   7  31  1   
 11   8  32  1   
 12   9  10  1   
 13   9  33  1   
 14   9  34  1   
 15  10  11  1   
 16  10  12  1   
 17  10  35  1   
 18  11  13  1   
 19  11  36  1   
 20  11  37  1   
 21  12  14  1   
 22  12  38  1   
 23  12  39  1   
 24  13  14  1   
 25  13  15  1   
 26  13  16  1   
 27  14  17  1   
 28  14  40  1   
 29  15  18  1   
 30  16  19  1   
 31  16  41  1   
 32  16  42  1   
 33  17  18  1   
 34  17  20  1   
 35  17  43  1   
 36  18  19  1   
 37  18  44  1   
 38  19  45  1   
 39  19  46  1   
 40  20  21  1   
 41  20  47  1   
 42  20  48  1   
 43  21  22  am  
 44  21  49  1   
 45  22  23  2   
 46  22  24  1   
 47  24  25  2   
 48  24  26  1   
 49  25  27  1   
 50  25  28  1   
 51  26  29  2   
 52  26  50  1   
 53  27  29  1   
 54  28  51  1   
 55  28  52  1   
 56  28  53  1   
 57  29  30  1   
 58  30  54  1   
 59  30  55  1   
 60  30  56  1   
@<TRIPOS>SUBSTRUCTURE
  1 ****  17 GROUP 4 **** **** 0

# MOE 2024.06 (io_trps.svl 2023.06)
