@<TRIPOS>MOLECULE
NONAME
49 50 1 0 0 
SMALL
USER_CHARGES


@<TRIPOS>ATOM
  1 S       -0.2810    -0.0140     1.7080 S.3   1 <1>  -0.4600 
  2 C        0.9680     0.3680     0.4600 C.3   1 <1>   0.0700 
  3 C       -0.3680    -1.8240     1.6750 C.3   1 <1>  -0.0100 
  4 C        1.0860     1.8930     0.3940 C.3   1 <1>  -0.1600 
  5 C        2.1690     2.3580    -0.5860 C.3   1 <1>   0.2810 
  6 N        3.4940     1.8380    -0.1210 N.am  1 <1>  -0.7300 
  7 C        2.1670     3.8920    -0.7240 C.2   1 <1>   0.5690 
  8 C        4.6840     2.0050    -0.7370 C.2   1 <1>   0.5690 
  9 O        1.4360     4.3960    -1.5430 O.2   1 <1>  -0.5700 
 10 N        3.0380     4.5990     0.0630 N.am  1 <1>  -0.4940 
 11 O        5.6940     1.9520    -0.0900 O.2   1 <1>  -0.5700 
 12 C        4.7610     2.3160    -2.2120 C.3   1 <1>  -0.1790 
 13 C        3.3860     5.9700     0.0450 C.2   1 <1>  -0.0880 
 14 N        4.6630     6.4320     0.1620 N.pl3 1 <1>   0.3140 
 15 C        2.5940     7.0620    -0.0860 C.2   1 <1>  -0.1810 
 16 N        4.7010     7.7860     0.1000 N.2   1 <1>  -0.7070 
 17 C        5.8940     5.5930     0.2700 C.3   1 <1>   0.1760 
 18 C        3.4650     8.1450    -0.0490 C.2   1 <1>   0.1390 
 19 C        1.0880     7.1520    -0.2380 C.3   1 <1>  -0.0590 
 20 C        6.8600     6.0360     1.3720 C.3   1 <1>  -0.1600 
 21 C        6.7450     5.6220    -0.9960 C.3   1 <1>  -0.1600 
 22 C        8.2300     5.4940     0.9460 C.3   1 <1>  -0.1600 
 23 C        8.1150     5.1200    -0.5380 C.3   1 <1>  -0.1600 
 24 H        1.8840    -0.1020     0.7740 H     1 <1>   0.0800 
 25 H        0.6340    -0.0490    -0.4740 H     1 <1>   0.0800 
 26 H       -1.0970    -2.1290     2.4030 H     1 <1>   0.0800 
 27 H        0.6050    -2.2100     1.9230 H     1 <1>   0.0800 
 28 H       -0.6660    -2.1260     0.6860 H     1 <1>   0.0800 
 29 H        0.1390     2.2930     0.0730 H     1 <1>   0.0800 
 30 H        1.2900     2.2890     1.3730 H     1 <1>   0.0800 
 31 H        1.9570     1.9460    -1.5570 H     1 <1>   0.0800 
 32 H        3.5390     1.5430     0.8580 H     1 <1>   0.3700 
 33 H        3.6380     4.0030     0.6380 H     1 <1>   0.3700 
 34 H        4.1360     1.6400    -2.7650 H     1 <1>   0.0800 
 35 H        5.7740     2.2010    -2.5500 H     1 <1>   0.0800 
 36 H        4.4490     3.3270    -2.3950 H     1 <1>   0.0800 
 37 H        5.6130     4.5750     0.4650 H     1 <1>   0.0800 
 38 H        3.1580     9.1730    -0.1320 H     1 <1>   0.1500 
 39 H        0.7160     8.0390     0.2400 H     1 <1>   0.0800 
 40 H        0.6170     6.2970     0.2110 H     1 <1>   0.0800 
 41 H        0.8300     7.1790    -1.2820 H     1 <1>   0.0800 
 42 H        6.9090     7.1110     1.4070 H     1 <1>   0.0800 
 43 H        6.5640     5.6590     2.3340 H     1 <1>   0.0800 
 44 H        6.3330     5.0070    -1.7750 H     1 <1>   0.0800 
 45 H        6.8370     6.6380    -1.3450 H     1 <1>   0.0800 
 46 H        8.9900     6.2420     1.0960 H     1 <1>   0.0800 
 47 H        8.4850     4.6200     1.5230 H     1 <1>   0.0800 
 48 H        8.1550     4.0480    -0.6390 H     1 <1>   0.0800 
 49 H        8.9080     5.5550    -1.1220 H     1 <1>   0.0800 
@<TRIPOS>BOND
  1   1   2  1   
  2   1   3  1   
  3   2   4  1   
  4   2  24  1   
  5   2  25  1   
  6   3  26  1   
  7   3  27  1   
  8   3  28  1   
  9   4   5  1   
 10   4  29  1   
 11   4  30  1   
 12   5   6  1   
 13   5   7  1   
 14   5  31  1   
 15   6   8  am  
 16   6  32  1   
 17   7   9  2   
 18   7  10  am  
 19   8  11  2   
 20   8  12  1   
 21  10  13  1   
 22  10  33  1   
 23  12  34  1   
 24  12  35  1   
 25  12  36  1   
 26  13  14  1   
 27  13  15  2   
 28  14  16  1   
 29  14  17  1   
 30  15  18  1   
 31  15  19  1   
 32  16  18  2   
 33  17  20  1   
 34  17  21  1   
 35  17  37  1   
 36  18  38  1   
 37  19  39  1   
 38  19  40  1   
 39  19  41  1   
 40  20  22  1   
 41  20  42  1   
 42  20  43  1   
 43  21  23  1   
 44  21  44  1   
 45  21  45  1   
 46  22  23  1   
 47  22  46  1   
 48  22  47  1   
 49  23  48  1   
 50  23  49  1   
@<TRIPOS>SUBSTRUCTURE
  1 ****  10 GROUP 4 **** **** 0

# MOE 2024.06 (io_trps.svl 2023.06)
