@<TRIPOS>MOLECULE
F6660-0238
53 55 1 0 0 
SMALL
USER_CHARGES


@<TRIPOS>ATOM
  1 O       -0.5920     2.1170    -0.3460 O.2   1 <1>  -0.5700 
  2 C        0.4450     2.1360     0.2690 C.2   1 <1>   0.5690 
  3 N        0.8850     1.1820     1.1140 N.am  1 <1>  -0.6600 
  4 C        1.4490     3.2470     0.1540 C.3   1 <1>  -0.0990 
  5 C        2.2250     1.4780     1.6520 C.3   1 <1>   0.1400 
  6 C        0.2080    -0.1060     1.3790 C.3   1 <1>   0.2840 
  7 C        2.7230     2.6160     0.7470 C.3   1 <1>  -0.0190 
  8 C        1.0580    -1.2450     0.8380 C.ar  1 <1>  -0.1440 
  9 C        3.6200     3.6220     1.4560 C.2   1 <1>   0.5690 
 10 C        1.1570    -1.4420    -0.5300 C.ar  1 <1>  -0.1500 
 11 C        1.7460    -2.0900     1.6960 C.ar  1 <1>  -0.1500 
 12 O        3.4550     3.8480     2.6270 O.2   1 <1>  -0.5700 
 13 N        4.5960     4.2740     0.7860 N.am  1 <1>  -0.7300 
 14 C        1.9330    -2.4700    -1.0360 C.ar  1 <1>  -0.1500 
 15 C        2.5240    -3.1170     1.1890 C.ar  1 <1>  -0.1500 
 16 C        4.9260     4.2420    -0.6480 C.3   1 <1>   0.2840 
 17 C        2.6200    -3.3140    -0.1790 C.ar  1 <1>  -0.1440 
 18 C        5.8490     5.4070    -0.9480 C.ar  1 <1>  -0.1440 
 19 C        3.4720    -4.4410    -0.7320 C.3   1 <1>  -0.0970 
 20 C        7.2080     5.1970    -1.1240 C.ar  1 <1>  -0.1500 
 21 C        5.3440     6.6950    -1.0450 C.ar  1 <1>  -0.1500 
 22 C        8.0620     6.2520    -1.3990 C.ar  1 <1>   0.0820 
 23 C        6.1890     7.7570    -1.3190 C.ar  1 <1>  -0.1500 
 24 O        9.3740     5.9400    -1.5580 O.3   1 <1>  -0.3630 
 25 C        7.5440     7.5410    -1.4970 C.ar  1 <1>  -0.1500 
 26 C       10.3780     6.9110    -1.7640 C.3   1 <1>   0.1200 
 27 C       10.7520     7.5490    -0.4250 C.3   1 <1>  -0.2400 
 28 H        1.1110     4.0770     0.7470 H     1 <1>   0.0800 
 29 H        1.5800     3.5460    -0.8690 H     1 <1>   0.0800 
 30 H        2.8740     0.6210     1.5890 H     1 <1>   0.0800 
 31 H        2.1290     1.7900     2.6790 H     1 <1>   0.0800 
 32 H       -0.7560    -0.1150     0.8980 H     1 <1>   0.0800 
 33 H        0.0560    -0.2160     2.4380 H     1 <1>   0.0800 
 34 H        3.2760     2.1500    -0.0480 H     1 <1>   0.0800 
 35 H        0.6270    -0.7890    -1.2030 H     1 <1>   0.1500 
 36 H        1.6830    -1.9520     2.7600 H     1 <1>   0.1500 
 37 H        5.1610     4.9310     1.3300 H     1 <1>   0.3700 
 38 H        1.9980    -2.6080    -2.1010 H     1 <1>   0.1500 
 39 H        3.0530    -3.7650     1.8650 H     1 <1>   0.1500 
 40 H        4.0280     4.3270    -1.2360 H     1 <1>   0.0800 
 41 H        5.4120     3.3120    -0.8860 H     1 <1>   0.0800 
 42 H        3.0910    -4.7710    -1.6820 H     1 <1>   0.0800 
 43 H        3.4700    -5.2790    -0.0580 H     1 <1>   0.0800 
 44 H        4.4840    -4.1020    -0.8630 H     1 <1>   0.0800 
 45 H        7.6260     4.2090    -1.0490 H     1 <1>   0.1500 
 46 H        4.2930     6.8780    -0.9040 H     1 <1>   0.1500 
 47 H        5.7920     8.7550    -1.3920 H     1 <1>   0.1500 
 48 H        8.1750     8.3820    -1.7080 H     1 <1>   0.1500 
 49 H       10.0380     7.6320    -2.4850 H     1 <1>   0.0800 
 50 H       11.2310     6.3990    -2.1740 H     1 <1>   0.0800 
 51 H        9.9090     8.0570     0.0070 H     1 <1>   0.0800 
 52 H       11.5420     8.2620    -0.5710 H     1 <1>   0.0800 
 53 H       11.0970     6.7920     0.2570 H     1 <1>   0.0800 
@<TRIPOS>BOND
  1   1   2  2   
  2   2   3  am  
  3   2   4  1   
  4   3   5  1   
  5   3   6  1   
  6   4   7  1   
  7   4  28  1   
  8   4  29  1   
  9   5   7  1   
 10   5  30  1   
 11   5  31  1   
 12   6   8  1   
 13   6  32  1   
 14   6  33  1   
 15   7   9  1   
 16   7  34  1   
 17   8  10  ar  
 18   8  11  ar  
 19   9  12  2   
 20   9  13  am  
 21  10  14  ar  
 22  10  35  1   
 23  11  15  ar  
 24  11  36  1   
 25  13  16  1   
 26  13  37  1   
 27  14  17  ar  
 28  14  38  1   
 29  15  17  ar  
 30  15  39  1   
 31  16  18  1   
 32  16  40  1   
 33  16  41  1   
 34  17  19  1   
 35  18  20  ar  
 36  18  21  ar  
 37  19  42  1   
 38  19  43  1   
 39  19  44  1   
 40  20  22  ar  
 41  20  45  1   
 42  21  23  ar  
 43  21  46  1   
 44  22  24  1   
 45  22  25  ar  
 46  23  25  ar  
 47  23  47  1   
 48  24  26  1   
 49  25  48  1   
 50  26  27  1   
 51  26  49  1   
 52  26  50  1   
 53  27  51  1   
 54  27  52  1   
 55  27  53  1   
@<TRIPOS>SUBSTRUCTURE
  1 ****   7 GROUP 4 **** **** 0

# MOE 2024.06 (io_trps.svl 2023.06)
