@<TRIPOS>MOLECULE
NONAME
58 62 1 0 0 
SMALL
USER_CHARGES


@<TRIPOS>ATOM
  1 S        0.0020    -0.1990     0.3200 S.o2  1 <1>   1.4470 
  2 O        0.9350     0.1050     1.3820 O.2   1 <1>  -0.6500 
  3 O       -1.0110    -1.2120     0.5120 O.2   1 <1>  -0.6500 
  4 N        0.9060    -0.8000    -0.9610 N.am  1 <1>  -0.9140 
  5 C       -0.7220     1.3250    -0.3460 C.ar  1 <1>  -0.0090 
  6 C        2.0610    -1.6190    -0.5990 C.3   1 <1>   0.1960 
  7 C       -2.0980     1.4680    -0.4920 C.ar  1 <1>  -0.1500 
  8 C        0.0860     2.3880    -0.7330 C.ar  1 <1>  -0.1500 
  9 C        1.6830    -2.9110     0.1520 C.3   1 <1>  -0.0800 
 10 C       -2.6490     2.6300    -1.0050 C.ar  1 <1>  -0.1500 
 11 C       -0.4560     3.5540    -1.2470 C.ar  1 <1>  -0.1500 
 12 C        0.8660    -3.8740    -0.7250 C.3   1 <1>   0.2000 
 13 C        2.8700    -3.8260     0.5350 C.3   1 <1>  -0.0800 
 14 C       -1.8270     3.6750    -1.3840 C.ar  1 <1>  -0.1500 
 15 O        1.8750    -4.6020    -1.3170 O.3   1 <1>  -0.5600 
 16 C        0.1770    -4.9520     0.1230 C.3   1 <1>  -0.1600 
 17 C        2.5050    -5.1140    -0.1970 C.3   1 <1>   0.2800 
 18 C        4.2890    -3.5110     0.0330 C.3   1 <1>   0.1400 
 19 C        1.3570    -5.8600     0.4850 C.3   1 <1>  -0.1600 
 20 C        3.8130    -5.8400    -0.5110 C.3   1 <1>   0.1400 
 21 N        4.8820    -4.8280    -0.3000 N.am  1 <1>  -0.6600 
 22 C        6.2090    -5.1480    -0.3550 C.2   1 <1>   0.5690 
 23 O        6.5720    -6.2850    -0.5420 O.2   1 <1>  -0.5700 
 24 C        7.2510    -4.0560    -0.1680 C.3   1 <1>  -0.0990 
 25 C        8.6640    -4.4760    -0.5980 C.3   1 <1>  -0.0170 
 26 C        9.6380    -3.3240    -0.4130 C.ar  1 <1>  -0.1430 
 27 C        9.8920    -2.4140    -1.4180 C.ar  1 <1>  -0.1500 
 28 C       10.3160    -3.1280     0.7730 C.ar  1 <1>  -0.1500 
 29 C       10.7850    -1.3790    -1.1950 C.ar  1 <1>   0.1600 
 30 C       11.1890    -2.0590     0.8930 C.ar  1 <1>   0.1600 
 31 N       11.4380    -1.1780    -0.0620 N.ar  1 <1>  -0.6200 
 32 H        0.2490    -1.3780    -1.4800 H     1 <1>   0.4200 
 33 H        2.5720    -1.8790    -1.5120 H     1 <1>   0.0800 
 34 H        2.7360    -1.0330     0.0030 H     1 <1>   0.0800 
 35 H       -2.7500     0.6620    -0.1990 H     1 <1>   0.1500 
 36 H        1.1540     2.3000    -0.6290 H     1 <1>   0.1500 
 37 H        1.1390    -2.6630     1.0460 H     1 <1>   0.0800 
 38 H       -3.7170     2.7220    -1.1090 H     1 <1>   0.1500 
 39 H        0.1880     4.3650    -1.5400 H     1 <1>   0.1500 
 40 H        0.2290    -3.4150    -1.4610 H     1 <1>   0.0800 
 41 H        2.9070    -3.9980     1.5970 H     1 <1>   0.0800 
 42 H       -2.2520     4.5800    -1.7830 H     1 <1>   0.1500 
 43 H       -0.3100    -4.5310     0.9850 H     1 <1>   0.0800 
 44 H       -0.5460    -5.4800    -0.4730 H     1 <1>   0.0800 
 45 H        4.8610    -3.0010     0.7880 H     1 <1>   0.0800 
 46 H        4.2760    -2.9270    -0.8690 H     1 <1>   0.0800 
 47 H        1.2390    -6.8370     0.0510 H     1 <1>   0.0800 
 48 H        1.5070    -5.9490     1.5460 H     1 <1>   0.0800 
 49 H        3.8200    -6.2060    -1.5220 H     1 <1>   0.0800 
 50 H        3.9640    -6.6560     0.1740 H     1 <1>   0.0800 
 51 H        6.9590    -3.1980    -0.7450 H     1 <1>   0.0800 
 52 H        7.2660    -3.7780     0.8690 H     1 <1>   0.0800 
 53 H        8.6510    -4.7810    -1.6300 H     1 <1>   0.0800 
 54 H        8.9860    -5.3210    -0.0140 H     1 <1>   0.0800 
 55 H        9.4040    -2.5010    -2.3720 H     1 <1>   0.1500 
 56 H       10.1740    -3.7960     1.6030 H     1 <1>   0.1500 
 57 H       10.9720    -0.6800    -1.9920 H     1 <1>   0.1500 
 58 H       11.7090    -1.9220     1.8260 H     1 <1>   0.1500 
@<TRIPOS>BOND
  1   1   2  2   
  2   1   3  2   
  3   1   4  am  
  4   1   5  1   
  5   4   6  1   
  6   4  32  1   
  7   5   7  ar  
  8   5   8  ar  
  9   6   9  1   
 10   6  33  1   
 11   6  34  1   
 12   7  10  ar  
 13   7  35  1   
 14   8  11  ar  
 15   8  36  1   
 16   9  12  1   
 17   9  13  1   
 18   9  37  1   
 19  10  14  ar  
 20  10  38  1   
 21  11  14  ar  
 22  11  39  1   
 23  12  15  1   
 24  12  16  1   
 25  12  40  1   
 26  13  17  1   
 27  13  18  1   
 28  13  41  1   
 29  14  42  1   
 30  15  17  1   
 31  16  19  1   
 32  16  43  1   
 33  16  44  1   
 34  17  19  1   
 35  17  20  1   
 36  18  21  1   
 37  18  45  1   
 38  18  46  1   
 39  19  47  1   
 40  19  48  1   
 41  20  21  1   
 42  20  49  1   
 43  20  50  1   
 44  21  22  am  
 45  22  23  2   
 46  22  24  1   
 47  24  25  1   
 48  24  51  1   
 49  24  52  1   
 50  25  26  1   
 51  25  53  1   
 52  25  54  1   
 53  26  27  ar  
 54  26  28  ar  
 55  27  29  ar  
 56  27  55  1   
 57  28  30  ar  
 58  28  56  1   
 59  29  31  ar  
 60  29  57  1   
 61  30  31  ar  
 62  30  58  1   
@<TRIPOS>SUBSTRUCTURE
  1 ****  18 GROUP 4 **** **** 0

# MOE 2024.06 (io_trps.svl 2023.06)
