@<TRIPOS>MOLECULE
NONAME
46 48 1 0 0 
SMALL
USER_CHARGES


@<TRIPOS>ATOM
  1 O        1.4400    -0.2310     1.6690 O.3   1 <1>  -0.6800 
  2 C        1.5110    -0.2130     0.2770 C.3   1 <1>   0.2000 
  3 C        2.2990    -1.4130    -0.2420 C.3   1 <1>  -0.0800 
  4 C        2.3520     0.9870    -0.1710 C.3   1 <1>   0.2090 
  5 C        3.7600    -0.9760    -0.1480 C.3   1 <1>   0.2090 
  6 C        2.0250    -2.7600     0.4500 C.3   1 <1>   0.0210 
  7 N        3.7680     0.5150    -0.2670 N.pl3 1 <1>  -0.8380 
  8 C        2.8570    -3.8620    -0.1740 C.2   1 <1>   0.1080 
  9 C        4.9030     1.2510    -0.1510 C.ar  1 <1>   0.4100 
 10 N        2.7100    -4.2360    -1.4070 N.2   1 <1>  -0.7070 
 11 C        3.8560    -4.5770     0.4780 C.2   1 <1>  -0.1500 
 12 N        5.9760     0.5570     0.2610 N.ar  1 <1>  -0.6200 
 13 C        5.0230     2.6420    -0.4070 C.ar  1 <1>  -0.1430 
 14 N        3.6230    -5.2110    -1.5770 N.pl3 1 <1>   0.3000 
 15 C        4.3300    -5.4350    -0.4500 C.2   1 <1>  -0.3320 
 16 C        7.0760     1.1800     0.5180 C.ar  1 <1>   0.5280 
 17 C        6.2070     3.2640    -0.0910 C.ar  1 <1>   0.2180 
 18 C        3.8870     3.4320    -1.0670 C.3   1 <1>  -0.0970 
 19 C        5.4320    -6.4720    -0.3260 C.3   1 <1>  -0.0600 
 20 N        7.2180     2.5070     0.3750 N.ar  1 <1>  -0.1790 
 21 C        8.2610     0.3730     1.0060 C.3   1 <1>  -0.0970 
 22 C        6.4840     4.7560    -0.2370 C.3   1 <1>  -0.0970 
 23 H        0.8680    -0.9590     1.9750 H     1 <1>   0.4000 
 24 H        0.5090    -0.1680    -0.1120 H     1 <1>   0.0800 
 25 H        2.0740    -1.5240    -1.2890 H     1 <1>   0.0800 
 26 H        2.2500     1.7990     0.5280 H     1 <1>   0.0800 
 27 H        2.0170     1.2920    -1.1460 H     1 <1>   0.0800 
 28 H        4.3510    -1.4280    -0.9280 H     1 <1>   0.0800 
 29 H        4.1640    -1.2540     0.8110 H     1 <1>   0.0800 
 30 H        0.9870    -3.0170     0.3460 H     1 <1>   0.0800 
 31 H        2.2580    -2.7010     1.4980 H     1 <1>   0.0800 
 32 H        4.1640    -4.4510     1.5000 H     1 <1>   0.1500 
 33 H        3.7370    -5.7020    -2.4720 H     1 <1>   0.2700 
 34 H        4.2350     4.3250    -1.5510 H     1 <1>   0.0800 
 35 H        3.1450     3.7070    -0.3400 H     1 <1>   0.0800 
 36 H        3.4300     2.8390    -1.8380 H     1 <1>   0.0800 
 37 H        5.8420    -6.4580     0.6680 H     1 <1>   0.0800 
 38 H        6.2210    -6.2610    -1.0260 H     1 <1>   0.0800 
 39 H        5.0410    -7.4550    -0.5220 H     1 <1>   0.0800 
 40 H        8.1140     2.9310     0.6110 H     1 <1>   0.4570 
 41 H        7.9990    -0.6700     1.0520 H     1 <1>   0.0800 
 42 H        8.5490     0.6890     1.9920 H     1 <1>   0.0800 
 43 H        9.0920     0.4810     0.3340 H     1 <1>   0.0800 
 44 H        5.5930     5.3330    -0.0620 H     1 <1>   0.0800 
 45 H        6.8440     4.9700    -1.2280 H     1 <1>   0.0800 
 46 H        7.2170     5.0870     0.4770 H     1 <1>   0.0800 
@<TRIPOS>BOND
  1   1   2  1   
  2   1  23  1   
  3   2   3  1   
  4   2   4  1   
  5   2  24  1   
  6   3   5  1   
  7   3   6  1   
  8   3  25  1   
  9   4   7  1   
 10   4  26  1   
 11   4  27  1   
 12   5   7  1   
 13   5  28  1   
 14   5  29  1   
 15   6   8  1   
 16   6  30  1   
 17   6  31  1   
 18   7   9  1   
 19   8  10  2   
 20   8  11  1   
 21   9  12  ar  
 22   9  13  ar  
 23  10  14  1   
 24  11  15  2   
 25  11  32  1   
 26  12  16  ar  
 27  13  17  ar  
 28  13  18  1   
 29  14  15  1   
 30  14  33  1   
 31  15  19  1   
 32  16  20  ar  
 33  16  21  1   
 34  17  20  ar  
 35  17  22  1   
 36  18  34  1   
 37  18  35  1   
 38  18  36  1   
 39  19  37  1   
 40  19  38  1   
 41  19  39  1   
 42  20  40  1   
 43  21  41  1   
 44  21  42  1   
 45  21  43  1   
 46  22  44  1   
 47  22  45  1   
 48  22  46  1   
@<TRIPOS>SUBSTRUCTURE
  1 ****   5 GROUP 4 **** **** 0

# MOE 2024.06 (io_trps.svl 2023.06)
