@<TRIPOS>MOLECULE
NONAME
58 60 1 0 0 
SMALL
USER_CHARGES


@<TRIPOS>ATOM
  1 O       -1.2510     0.5130    -0.9190 O.2   1 <1>  -0.5700 
  2 C       -1.5010     1.4530    -0.1770 C.2   1 <1>   0.7160 
  3 N       -2.5650     1.2830     0.6990 N.am  1 <1>  -0.6600 
  4 C       -0.6910     2.6690    -0.2620 C.2   1 <1>   0.2030 
  5 C       -3.0350    -0.0890     1.0380 C.3   1 <1>   0.1400 
  6 C       -3.2810     2.4320     1.3240 C.3   1 <1>   0.1400 
  7 N       -0.6330     3.6680     0.6060 N.2   1 <1>  -0.7070 
  8 C        0.1810     2.9260    -1.3270 C.2   1 <1>  -0.1500 
  9 C       -4.1110    -0.5590     0.0470 C.3   1 <1>   0.1400 
 10 C       -4.7990     2.2280     1.4170 C.3   1 <1>  -0.1600 
 11 N        0.2530     4.5370     0.1070 N.pl3 1 <1>   0.3140 
 12 C        0.7610     4.1130    -1.0680 C.2   1 <1>  -0.3320 
 13 N       -5.4360     0.1130     0.2700 N.am  1 <1>  -0.6600 
 14 C       -5.4160     1.6060     0.1600 C.3   1 <1>   0.1400 
 15 C        0.5860     5.7810     0.8130 C.3   1 <1>   0.0160 
 16 C        1.7910     4.8620    -1.8960 C.3   1 <1>  -0.0600 
 17 C       -6.6130    -0.5420     0.5410 C.2   1 <1>   0.5690 
 18 O       -7.6380     0.0490     0.7970 O.2   1 <1>  -0.5700 
 19 C       -6.7150    -2.0790     0.5200 C.3   1 <1>   0.4040 
 20 N       -8.1250    -2.5730     0.2900 N.4   1 <1>  -0.9590 
 21 C       -8.3080    -3.9690     0.7680 C.3   1 <1>   0.3430 
 22 C       -8.5540    -2.3170    -1.1150 C.3   1 <1>   0.3430 
 23 C       -9.7800    -4.3840     0.7980 C.3   1 <1>  -0.1600 
 24 C      -10.0610    -2.0700    -1.1560 C.3   1 <1>  -0.1600 
 25 C      -10.3770    -4.6040    -0.5990 C.3   1 <1>  -0.1600 
 26 C      -10.9310    -3.3340    -1.2590 C.3   1 <1>  -0.1600 
 27 H       -3.4050    -0.1200     2.0480 H     1 <1>   0.0800 
 28 H       -2.1960    -0.7630     0.9830 H     1 <1>   0.0800 
 29 H       -3.1110     3.3120     0.7280 H     1 <1>   0.0800 
 30 H       -2.8700     2.6170     2.3020 H     1 <1>   0.0800 
 31 H        0.3300     2.2710    -2.1680 H     1 <1>   0.1500 
 32 H       -4.2050    -1.6220     0.1510 H     1 <1>   0.0800 
 33 H       -3.7720    -0.3620    -0.9560 H     1 <1>   0.0800 
 34 H       -5.2380     3.1990     1.5630 H     1 <1>   0.0800 
 35 H       -5.0510     1.6450     2.2850 H     1 <1>   0.0800 
 36 H       -4.8660     1.9040    -0.7170 H     1 <1>   0.0800 
 37 H       -6.4210     1.9770     0.0480 H     1 <1>   0.0800 
 38 H        0.0330     5.8230     1.7330 H     1 <1>   0.0800 
 39 H        0.3230     6.6180     0.1960 H     1 <1>   0.0800 
 40 H        1.6380     5.7940     1.0250 H     1 <1>   0.0800 
 41 H        2.0250     4.3050    -2.7860 H     1 <1>   0.0800 
 42 H        2.6960     4.9990    -1.3320 H     1 <1>   0.0800 
 43 H        1.4070     5.8240    -2.1870 H     1 <1>   0.0800 
 44 H       -6.3610    -2.4350     1.4720 H     1 <1>   0.0800 
 45 H       -6.0670    -2.4640    -0.2480 H     1 <1>   0.0800 
 46 H       -8.7100    -1.9450     0.8670 H     1 <1>   0.4500 
 47 H       -7.9140    -4.0540     1.7680 H     1 <1>   0.0800 
 48 H       -7.7580    -4.6490     0.1370 H     1 <1>   0.0800 
 49 H       -8.2850    -3.1370    -1.7600 H     1 <1>   0.0800 
 50 H       -8.0670    -1.4250    -1.4770 H     1 <1>   0.0800 
 51 H      -10.3680    -3.6830     1.3660 H     1 <1>   0.0800 
 52 H       -9.8280    -5.3240     1.3200 H     1 <1>   0.0800 
 53 H      -10.2740    -1.4610    -2.0180 H     1 <1>   0.0800 
 54 H      -10.3540    -1.4890    -0.2980 H     1 <1>   0.0800 
 55 H      -11.1910    -5.3070    -0.5170 H     1 <1>   0.0800 
 56 H       -9.6430    -5.0610    -1.2420 H     1 <1>   0.0800 
 57 H      -11.1030    -3.5540    -2.3000 H     1 <1>   0.0800 
 58 H      -11.8960    -3.1120    -0.8320 H     1 <1>   0.0800 
@<TRIPOS>BOND
  1   1   2  2   
  2   2   3  am  
  3   2   4  1   
  4   3   5  1   
  5   3   6  1   
  6   4   7  2   
  7   4   8  1   
  8   5   9  1   
  9   5  27  1   
 10   5  28  1   
 11   6  10  1   
 12   6  29  1   
 13   6  30  1   
 14   7  11  1   
 15   8  12  2   
 16   8  31  1   
 17   9  13  1   
 18   9  32  1   
 19   9  33  1   
 20  10  14  1   
 21  10  34  1   
 22  10  35  1   
 23  11  12  1   
 24  11  15  1   
 25  12  16  1   
 26  13  14  1   
 27  13  17  am  
 28  14  36  1   
 29  14  37  1   
 30  15  38  1   
 31  15  39  1   
 32  15  40  1   
 33  16  41  1   
 34  16  42  1   
 35  16  43  1   
 36  17  18  2   
 37  17  19  1   
 38  19  20  1   
 39  19  44  1   
 40  19  45  1   
 41  20  21  1   
 42  20  22  1   
 43  20  46  1   
 44  21  23  1   
 45  21  47  1   
 46  21  48  1   
 47  22  24  1   
 48  22  49  1   
 49  22  50  1   
 50  23  25  1   
 51  23  51  1   
 52  23  52  1   
 53  24  26  1   
 54  24  53  1   
 55  24  54  1   
 56  25  26  1   
 57  25  55  1   
 58  25  56  1   
 59  26  57  1   
 60  26  58  1   
@<TRIPOS>SUBSTRUCTURE
  1 ****  13 GROUP 4 **** **** 0

# MOE 2024.06 (io_trps.svl 2023.06)
