@<TRIPOS>MOLECULE
NONAME
47 49 1 0 0 
SMALL
USER_CHARGES


@<TRIPOS>ATOM
  1 F        0.4860     1.9580    -0.0210 F     1 <1>  -0.1900 
  2 C       -0.6460     2.5920    -0.1650 C.ar  1 <1>   0.1900 
  3 C       -0.6440     3.9730    -0.1680 C.ar  1 <1>  -0.1500 
  4 C       -1.8080     1.8610    -0.3130 C.ar  1 <1>  -0.1500 
  5 C       -1.8490     4.6360    -0.3220 C.ar  1 <1>  -0.1500 
  6 C       -3.0030     2.5430    -0.4620 C.ar  1 <1>  -0.1500 
  7 C       -3.0520     3.9390    -0.4590 C.ar  1 <1>   0.0540 
  8 C       -4.3240     4.6190    -0.6030 C.2   1 <1>   0.2350 
  9 N       -5.2140     4.2760    -1.5020 N.2   1 <1>  -0.7070 
 10 C       -4.7990     5.6870     0.1730 C.2   1 <1>  -0.1810 
 11 N       -6.2480     5.1100    -1.3230 N.pl3 1 <1>   0.3000 
 12 C       -6.0240     5.9730    -0.3160 C.2   1 <1>  -0.3020 
 13 C       -4.0900     6.3670     1.3250 C.3   1 <1>   0.3210 
 14 N       -3.4990     7.6110     0.8090 N.am  1 <1>  -0.7300 
 15 C       -2.2680     8.0770     1.1280 C.2   1 <1>   0.5690 
 16 O       -1.5750     7.5240     1.9450 O.2   1 <1>  -0.5700 
 17 C       -1.7380     9.3220     0.4230 C.3   1 <1>  -0.0190 
 18 C       -2.6650    10.5390     0.6150 C.3   1 <1>  -0.1600 
 19 C       -1.4590     9.0540    -1.0760 C.3   1 <1>  -0.1600 
 20 C       -2.0540    11.8310     0.0330 C.3   1 <1>   0.2000 
 21 C       -1.4470    10.3300    -1.9420 C.3   1 <1>  -0.1600 
 22 O       -3.1100    12.6300    -0.4420 O.3   1 <1>  -0.5600 
 23 C       -1.0550    11.5620    -1.1240 C.3   1 <1>   0.2000 
 24 C       -3.7460    13.4050     0.5260 C.3   1 <1>   0.0400 
 25 O       -1.0390    12.6500    -1.9720 O.3   1 <1>  -0.6800 
 26 H        0.2780     4.5130    -0.0520 H     1 <1>   0.1500 
 27 H       -1.7750     0.7870    -0.3130 H     1 <1>   0.1500 
 28 H       -1.8550     5.7100    -0.3390 H     1 <1>   0.1500 
 29 H       -3.9220     1.9960    -0.5850 H     1 <1>   0.1500 
 30 H       -7.0960     5.0620    -1.9030 H     1 <1>   0.2700 
 31 H       -6.7360     6.7180    -0.0120 H     1 <1>   0.1500 
 32 H       -3.3310     5.7260     1.7440 H     1 <1>   0.0800 
 33 H       -4.7980     6.6060     2.0990 H     1 <1>   0.0800 
 34 H       -4.0450     8.0600     0.0740 H     1 <1>   0.3700 
 35 H       -0.7990     9.5630     0.8930 H     1 <1>   0.0800 
 36 H       -2.8570    10.6800     1.6640 H     1 <1>   0.0800 
 37 H       -3.6020    10.3390     0.1230 H     1 <1>   0.0800 
 38 H       -0.5050     8.5610    -1.1560 H     1 <1>   0.0800 
 39 H       -2.1950     8.3820    -1.4820 H     1 <1>   0.0800 
 40 H       -1.5260    12.3710     0.8010 H     1 <1>   0.0800 
 41 H       -2.4330    10.4890    -2.3450 H     1 <1>   0.0800 
 42 H       -0.7630    10.2020    -2.7630 H     1 <1>   0.0800 
 43 H       -0.0600    11.4310    -0.7360 H     1 <1>   0.0800 
 44 H       -4.5290    13.9650     0.0440 H     1 <1>   0.0800 
 45 H       -3.0340    14.0850     0.9620 H     1 <1>   0.0800 
 46 H       -4.1710    12.7660     1.2790 H     1 <1>   0.0800 
 47 H       -1.9410    13.0410    -1.9230 H     1 <1>   0.4000 
@<TRIPOS>BOND
  1   1   2  1   
  2   2   3  ar  
  3   2   4  ar  
  4   3   5  ar  
  5   3  26  1   
  6   4   6  ar  
  7   4  27  1   
  8   5   7  ar  
  9   5  28  1   
 10   6   7  ar  
 11   6  29  1   
 12   7   8  1   
 13   8   9  2   
 14   8  10  1   
 15   9  11  1   
 16  10  12  2   
 17  10  13  1   
 18  11  12  1   
 19  11  30  1   
 20  12  31  1   
 21  13  14  1   
 22  13  32  1   
 23  13  33  1   
 24  14  15  am  
 25  14  34  1   
 26  15  16  2   
 27  15  17  1   
 28  17  18  1   
 29  17  19  1   
 30  17  35  1   
 31  18  20  1   
 32  18  36  1   
 33  18  37  1   
 34  19  21  1   
 35  19  38  1   
 36  19  39  1   
 37  20  22  1   
 38  20  23  1   
 39  20  40  1   
 40  21  23  1   
 41  21  41  1   
 42  21  42  1   
 43  22  24  1   
 44  23  25  1   
 45  23  43  1   
 46  24  44  1   
 47  24  45  1   
 48  24  46  1   
 49  25  47  1   
@<TRIPOS>SUBSTRUCTURE
  1 ****  14 GROUP 4 **** **** 0

# MOE 2024.06 (io_trps.svl 2023.06)
