@<TRIPOS>MOLECULE
NONAME
49 51 1 0 0 
SMALL
USER_CHARGES


@<TRIPOS>ATOM
  1 O       -1.1700     1.2590    -2.6140 O.2   1 <1>  -0.5700 
  2 C       -2.0490     0.7910    -1.9150 C.2   1 <1>   0.7800 
  3 O       -2.4420    -0.4810    -1.9970 O.3   1 <1>  -0.2330 
  4 N       -2.7460     1.4540    -0.9440 N.am  1 <1>  -0.4770 
  5 C       -3.4000    -0.6520    -1.0630 C.ar  1 <1>   0.0830 
  6 C       -3.6090     0.5310    -0.3910 C.ar  1 <1>   0.1170 
  7 C       -2.5940     2.8760    -0.5850 C.3   1 <1>   0.1400 
  8 C       -4.1080    -1.7990    -0.7600 C.ar  1 <1>  -0.1500 
  9 C       -4.5490     0.6020     0.6260 C.ar  1 <1>  -0.1500 
 10 C       -1.4670     3.0320     0.4320 C.3   1 <1>  -0.0990 
 11 C       -5.0490    -1.7300     0.2560 C.ar  1 <1>  -0.1500 
 12 C       -5.2720    -0.5390     0.9470 C.ar  1 <1>  -0.1440 
 13 C       -1.2710     4.4940     0.7380 C.2   1 <1>   0.5690 
 14 C       -6.3110    -0.5070     2.0540 C.3   1 <1>  -0.0960 
 15 O       -1.9040     4.9990     1.6320 O.2   1 <1>  -0.5700 
 16 N       -0.4230     5.2080    -0.0310 N.am  1 <1>  -0.7300 
 17 C       -0.2640     6.6700     0.0560 C.3   1 <1>   0.4000 
 18 C       -1.1890     7.2840    -0.9920 C.2   1 <1>   0.0060 
 19 C        1.2220     7.0630    -0.1310 C.3   1 <1>  -0.0800 
 20 N       -0.9340     7.3860    -2.2520 N.2   1 <1>  -0.5650 
 21 N       -2.4070     7.7660    -0.7060 N.pl3 1 <1>   0.3140 
 22 C        2.1470     6.3670     0.8870 C.3   1 <1>  -0.2400 
 23 C        1.4200     8.5850    -0.0110 C.3   1 <1>  -0.2400 
 24 C       -2.0530     7.9610    -2.7070 C.2   1 <1>   0.3660 
 25 N       -2.9620     8.2070    -1.8250 N.2   1 <1>  -0.7070 
 26 C       -3.1290     7.8190     0.5760 C.3   1 <1>   0.0160 
 27 H       -3.5190     3.2470    -0.1780 H     1 <1>   0.0800 
 28 H       -2.3660     3.4390    -1.4760 H     1 <1>   0.0800 
 29 H       -3.9260    -2.7110    -1.3000 H     1 <1>   0.1500 
 30 H       -4.7050     1.5280     1.1490 H     1 <1>   0.1500 
 31 H       -0.5530     2.6250     0.0400 H     1 <1>   0.0800 
 32 H       -1.7190     2.5160     1.3410 H     1 <1>   0.0800 
 33 H       -5.6150    -2.6090     0.5120 H     1 <1>   0.1500 
 34 H       -6.3990     0.4790     2.4740 H     1 <1>   0.0800 
 35 H       -6.0320    -1.1890     2.8370 H     1 <1>   0.0800 
 36 H       -7.2700    -0.7990     1.6650 H     1 <1>   0.0800 
 37 H       -0.0150     4.8050    -0.8770 H     1 <1>   0.3700 
 38 H       -0.5660     6.9960     1.0360 H     1 <1>   0.0800 
 39 H        1.5250     6.7710    -1.1230 H     1 <1>   0.0800 
 40 H        1.8540     6.6110     1.8930 H     1 <1>   0.0800 
 41 H        3.1660     6.6790     0.7410 H     1 <1>   0.0800 
 42 H        2.1100     5.2990     0.7700 H     1 <1>   0.0800 
 43 H        1.1170     8.9350     0.9600 H     1 <1>   0.0800 
 44 H        0.8450     9.1030    -0.7590 H     1 <1>   0.0800 
 45 H        2.4540     8.8390    -0.1600 H     1 <1>   0.0800 
 46 H       -2.1660     8.1950    -3.7540 H     1 <1>   0.1500 
 47 H       -2.4690     8.1540     1.3530 H     1 <1>   0.0800 
 48 H       -3.5030     6.8400     0.8100 H     1 <1>   0.0800 
 49 H       -3.9520     8.5030     0.4880 H     1 <1>   0.0800 
@<TRIPOS>BOND
  1   1   2  2   
  2   2   3  1   
  3   2   4  am  
  4   3   5  1   
  5   4   6  1   
  6   4   7  1   
  7   5   6  ar  
  8   5   8  ar  
  9   6   9  ar  
 10   7  10  1   
 11   7  27  1   
 12   7  28  1   
 13   8  11  ar  
 14   8  29  1   
 15   9  12  ar  
 16   9  30  1   
 17  10  13  1   
 18  10  31  1   
 19  10  32  1   
 20  11  12  ar  
 21  11  33  1   
 22  12  14  1   
 23  13  15  2   
 24  13  16  am  
 25  14  34  1   
 26  14  35  1   
 27  14  36  1   
 28  16  17  1   
 29  16  37  1   
 30  17  18  1   
 31  17  19  1   
 32  17  38  1   
 33  18  20  2   
 34  18  21  1   
 35  19  22  1   
 36  19  23  1   
 37  19  39  1   
 38  20  24  1   
 39  21  25  1   
 40  21  26  1   
 41  22  40  1   
 42  22  41  1   
 43  22  42  1   
 44  23  43  1   
 45  23  44  1   
 46  23  45  1   
 47  24  25  2   
 48  24  46  1   
 49  26  47  1   
 50  26  48  1   
 51  26  49  1   
@<TRIPOS>SUBSTRUCTURE
  1 ****   7 GROUP 4 **** **** 0

# MOE 2024.06 (io_trps.svl 2023.06)
