@<TRIPOS>MOLECULE
NONAME
51 54 1 0 0 
SMALL
USER_CHARGES


@<TRIPOS>ATOM
  1 O       -0.8360     0.2370     1.7140 O.2   1 <1>  -0.5700 
  2 C       -1.6570     0.8540     1.0630 C.2   1 <1>   0.7150 
  3 N       -2.6590     0.1570     0.4360 N.am  1 <1>  -0.6600 
  4 C       -1.5810     2.2780     0.9430 C.2   1 <1>  -0.2370 
  5 C       -3.5810     0.7200    -0.5810 C.3   1 <1>   0.1400 
  6 C       -2.7770    -1.3210     0.4850 C.3   1 <1>   0.1400 
  7 N       -0.5540     2.9750     0.3780 N.pl3 1 <1>   0.3140 
  8 C       -2.4860     3.2140     1.3390 C.2   1 <1>  -0.1500 
  9 C       -4.5730    -0.4090    -0.8530 C.3   1 <1>   0.2000 
 10 C       -3.7410    -1.6830    -0.6540 C.3   1 <1>  -0.0800 
 11 N       -0.7980     4.3000     0.3900 N.2   1 <1>  -0.7070 
 12 C        0.7160     2.4880    -0.2490 C.3   1 <1>   0.1760 
 13 C       -1.9490     4.4310     0.9730 C.2   1 <1>   0.1390 
 14 O       -5.5690    -0.3440     0.1110 O.3   1 <1>  -0.6800 
 15 C       -4.5730    -2.9570    -0.3940 C.3   1 <1>  -0.0170 
 16 C        0.4870     1.3630    -1.2720 C.3   1 <1>  -0.2400 
 17 C        1.7550     2.0920     0.8090 C.3   1 <1>  -0.2400 
 18 C       -3.8040    -4.2830    -0.3250 C.ar  1 <1>  -0.1440 
 19 C       -4.4700    -5.4560     0.1130 C.ar  1 <1>   0.0000 
 20 C       -2.4900    -4.4160    -0.6790 C.ar  1 <1>  -0.1500 
 21 C       -3.7250    -6.6590     0.1800 C.ar  1 <1>   0.3100 
 22 C       -5.8350    -5.5080     0.4840 C.ar  1 <1>  -0.1500 
 23 C       -1.8480    -5.6560    -0.5800 C.ar  1 <1>   0.1600 
 24 N       -2.4180    -6.7420    -0.1680 N.ar  1 <1>  -0.6200 
 25 C       -4.3590    -7.8320     0.6220 C.ar  1 <1>  -0.1500 
 26 C       -6.4240    -6.6680     0.9080 C.ar  1 <1>  -0.1500 
 27 C       -5.6790    -7.8470     0.9820 C.ar  1 <1>  -0.1500 
 28 H       -4.0780     1.6090    -0.2320 H     1 <1>   0.0800 
 29 H       -3.0240     0.9460    -1.4730 H     1 <1>   0.0800 
 30 H       -1.8130    -1.7840     0.3600 H     1 <1>   0.0800 
 31 H       -3.1830    -1.6080     1.4410 H     1 <1>   0.0800 
 32 H       -3.4270     3.0600     1.8360 H     1 <1>   0.1500 
 33 H       -5.0330    -0.3440    -1.8250 H     1 <1>   0.0800 
 34 H       -3.1650    -1.8210    -1.5510 H     1 <1>   0.0800 
 35 H        1.1180     3.3270    -0.7890 H     1 <1>   0.0800 
 36 H       -2.4170     5.3870     1.1430 H     1 <1>   0.1500 
 37 H       -5.1500    -0.2490     0.9900 H     1 <1>   0.4000 
 38 H       -5.3150    -3.0420    -1.1690 H     1 <1>   0.0800 
 39 H       -5.0950    -2.8280     0.5370 H     1 <1>   0.0800 
 40 H        0.2250     0.4400    -0.7880 H     1 <1>   0.0800 
 41 H        1.3920     1.1960    -1.8280 H     1 <1>   0.0800 
 42 H       -0.2870     1.6430    -1.9640 H     1 <1>   0.0800 
 43 H        1.4430     1.2240     1.3590 H     1 <1>   0.0800 
 44 H        1.9050     2.9070     1.4950 H     1 <1>   0.0800 
 45 H        2.6940     1.8710     0.3350 H     1 <1>   0.0800 
 46 H       -1.8980    -3.5990    -1.0420 H     1 <1>   0.1500 
 47 H       -6.4350    -4.6190     0.4320 H     1 <1>   0.1500 
 48 H       -0.8110    -5.7090    -0.8650 H     1 <1>   0.1500 
 49 H       -3.7650    -8.7260     0.6670 H     1 <1>   0.1500 
 50 H       -7.4630    -6.6890     1.1880 H     1 <1>   0.1500 
 51 H       -6.1520    -8.7530     1.3180 H     1 <1>   0.1500 
@<TRIPOS>BOND
  1   1   2  2   
  2   2   3  am  
  3   2   4  1   
  4   3   5  1   
  5   3   6  1   
  6   4   7  1   
  7   4   8  2   
  8   5   9  1   
  9   5  28  1   
 10   5  29  1   
 11   6  10  1   
 12   6  30  1   
 13   6  31  1   
 14   7  11  1   
 15   7  12  1   
 16   8  13  1   
 17   8  32  1   
 18   9  10  1   
 19   9  14  1   
 20   9  33  1   
 21  10  15  1   
 22  10  34  1   
 23  11  13  2   
 24  12  16  1   
 25  12  17  1   
 26  12  35  1   
 27  13  36  1   
 28  14  37  1   
 29  15  18  1   
 30  15  38  1   
 31  15  39  1   
 32  16  40  1   
 33  16  41  1   
 34  16  42  1   
 35  17  43  1   
 36  17  44  1   
 37  17  45  1   
 38  18  19  ar  
 39  18  20  ar  
 40  19  21  ar  
 41  19  22  ar  
 42  20  23  ar  
 43  20  46  1   
 44  21  24  ar  
 45  21  25  ar  
 46  22  26  ar  
 47  22  47  1   
 48  23  24  ar  
 49  23  48  1   
 50  25  27  ar  
 51  25  49  1   
 52  26  27  ar  
 53  26  50  1   
 54  27  51  1   
@<TRIPOS>SUBSTRUCTURE
  1 ****   6 GROUP 4 **** **** 0

# MOE 2024.06 (io_trps.svl 2023.06)
