@<TRIPOS>MOLECULE
NONAME
37 36 1 0 0 
SMALL
USER_CHARGES


@<TRIPOS>ATOM
  1 SI       0.4210     0.2330     0.4770 Si    1 <1>   0.5390 
  2 O        0.0260     1.6400    -0.2750 O.3   1 <1>  -0.5770 
  3 C        0.7010    -1.0640    -0.7990 C.3   1 <1>  -0.0810 
  4 C       -0.9400    -0.2200     1.5750 C.3   1 <1>  -0.3200 
  5 C        1.9080     0.5150     1.4610 C.3   1 <1>  -0.3200 
  6 C       -0.2550     2.8180     0.3970 C.3   1 <1>   0.1200 
  7 C        1.0760    -2.4280    -0.1910 C.3   1 <1>  -0.2400 
  8 C       -0.5510    -1.2900    -1.6670 C.3   1 <1>  -0.2400 
  9 C        1.8390    -0.6780    -1.7640 C.3   1 <1>  -0.2400 
 10 C       -0.6370     3.8990    -0.6240 C.3   1 <1>  -0.0800 
 11 C       -0.7860     5.2430     0.1050 C.3   1 <1>   0.1200 
 12 C       -1.9210     3.5110    -1.3840 C.3   1 <1>  -0.2400 
 13 O       -1.0630     6.2510    -0.8040 O.3   1 <1>  -0.6800 
 14 H       -0.7630    -1.1530     2.0760 H     1 <1>   0.0800 
 15 H       -1.8660    -0.3240     1.0410 H     1 <1>   0.0800 
 16 H       -1.1060     0.5140     2.3400 H     1 <1>   0.0800 
 17 H        2.2390    -0.3760     1.9610 H     1 <1>   0.0800 
 18 H        1.7570     1.2560     2.2220 H     1 <1>   0.0800 
 19 H        2.7290     0.8550     0.8580 H     1 <1>   0.0800 
 20 H       -1.0680     2.6400     1.0810 H     1 <1>   0.0800 
 21 H        0.6240     3.1080     0.9470 H     1 <1>   0.0800 
 22 H        1.2330    -3.1620    -0.9610 H     1 <1>   0.0800 
 23 H        0.2920    -2.7840     0.4540 H     1 <1>   0.0800 
 24 H        1.9800    -2.3510     0.3860 H     1 <1>   0.0800 
 25 H       -0.3680    -2.0260    -2.4290 H     1 <1>   0.0800 
 26 H       -0.8420    -0.3720    -2.1470 H     1 <1>   0.0800 
 27 H       -1.3750    -1.6280    -1.0640 H     1 <1>   0.0800 
 28 H        1.9740    -1.4270    -2.5240 H     1 <1>   0.0800 
 29 H        2.7670    -0.5670    -1.2330 H     1 <1>   0.0800 
 30 H        1.6150     0.2570    -2.2480 H     1 <1>   0.0800 
 31 H        0.1780     3.9830    -1.3210 H     1 <1>   0.0800 
 32 H        0.1240     5.5030     0.6180 H     1 <1>   0.0800 
 33 H       -1.5950     5.2100     0.8150 H     1 <1>   0.0800 
 34 H       -2.7490     3.4190    -0.7030 H     1 <1>   0.0800 
 35 H       -1.7870     2.5710    -1.8890 H     1 <1>   0.0800 
 36 H       -2.1660     4.2540    -2.1220 H     1 <1>   0.0800 
 37 H       -0.4260     6.2250    -1.5440 H     1 <1>   0.4000 
@<TRIPOS>BOND
  1   1   2  1   
  2   1   3  1   
  3   1   4  1   
  4   1   5  1   
  5   2   6  1   
  6   3   7  1   
  7   3   8  1   
  8   3   9  1   
  9   4  14  1   
 10   4  15  1   
 11   4  16  1   
 12   5  17  1   
 13   5  18  1   
 14   5  19  1   
 15   6  10  1   
 16   6  20  1   
 17   6  21  1   
 18   7  22  1   
 19   7  23  1   
 20   7  24  1   
 21   8  25  1   
 22   8  26  1   
 23   8  27  1   
 24   9  28  1   
 25   9  29  1   
 26   9  30  1   
 27  10  11  1   
 28  10  12  1   
 29  10  31  1   
 30  11  13  1   
 31  11  32  1   
 32  11  33  1   
 33  12  34  1   
 34  12  35  1   
 35  12  36  1   
 36  13  37  1   
@<TRIPOS>SUBSTRUCTURE
  1 ****   2 GROUP 4 **** **** 0

# MOE 2024.06 (io_trps.svl 2023.06)
