@<TRIPOS>MOLECULE
NONAME
58 61 1 0 0 
SMALL
USER_CHARGES


@<TRIPOS>ATOM
  1 O        0.0040     0.2830    -1.2680 O.2   1 <1>  -0.5700 
  2 C       -0.5450     1.3590    -1.2280 C.2   1 <1>   0.5690 
  3 N       -1.8840     1.4720    -0.9580 N.am  1 <1>  -0.6600 
  4 C        0.2940     2.5980    -1.4820 C.3   1 <1>  -0.0990 
  5 C       -2.6570     2.7540    -0.9180 C.3   1 <1>   0.1400 
  6 C       -2.6930     0.2450    -0.6790 C.3   1 <1>   0.1400 
  7 C        1.8000     2.3060    -1.4770 C.3   1 <1>   0.0960 
  8 C       -3.2870     2.9760     0.4750 C.3   1 <1>   0.1440 
  9 C       -4.0390     0.5710    -0.0080 C.3   1 <1>  -0.1600 
 10 N        2.5480     3.5800    -1.4670 N.pl3 1 <1>   0.0480 
 11 C       -4.3210     4.0770     0.3180 C.ar  1 <1>   0.1660 
 12 C       -3.8790     1.6640     1.0610 C.3   1 <1>  -0.1600 
 13 C       -2.2800     3.6230     1.4630 C.3   1 <1>  -0.1600 
 14 C        3.1870     4.1990    -0.4410 C.2   1 <1>   0.0060 
 15 C        2.6750     4.4240    -2.5080 C.2   1 <1>  -0.3020 
 16 N       -5.4990     3.9380    -0.2350 N.ar  1 <1>  -0.6200 
 17 C       -3.8650     5.2650     0.8050 C.ar  1 <1>  -0.1430 
 18 C       -2.4710     5.1460     1.3660 C.3   1 <1>  -0.0170 
 19 N        3.6860     5.3480    -0.7630 N.2   1 <1>  -0.5650 
 20 C        3.3310     3.6210     0.9600 C.3   1 <1>   0.0200 
 21 C        3.3690     5.4910    -2.0620 C.2   1 <1>   0.0770 
 22 C       -6.2430     5.0460    -0.2810 C.ar  1 <1>   0.7200 
 23 C       -4.6970     6.3520     0.7130 C.ar  1 <1>   0.1600 
 24 C        2.0280     3.7120     1.7620 C.3   1 <1>  -0.2400 
 25 N       -5.8880     6.2530     0.1710 N.ar  1 <1>  -0.6200 
 26 N       -7.4950     4.9330    -0.8540 N.pl3 1 <1>  -0.8380 
 27 C       -8.1380     3.6120    -1.0960 C.3   1 <1>   0.1290 
 28 C       -8.3060     6.1260    -1.2220 C.3   1 <1>   0.1290 
 29 H        0.0850     3.3170    -0.7140 H     1 <1>   0.0800 
 30 H        0.0130     3.0100    -2.4330 H     1 <1>   0.0800 
 31 H       -3.4440     2.6900    -1.6510 H     1 <1>   0.0800 
 32 H       -2.0530     3.6000    -1.1870 H     1 <1>   0.0800 
 33 H       -2.1240    -0.3980    -0.0270 H     1 <1>   0.0800 
 34 H       -2.8610    -0.2870    -1.6000 H     1 <1>   0.0800 
 35 H        2.0740     1.7410    -2.3490 H     1 <1>   0.0800 
 36 H        2.0650     1.7340    -0.6070 H     1 <1>   0.0800 
 37 H       -4.4370    -0.3230     0.4380 H     1 <1>   0.0800 
 38 H       -4.7440     0.8960    -0.7540 H     1 <1>   0.0800 
 39 H       -4.8290     1.8640     1.5270 H     1 <1>   0.0800 
 40 H       -3.2230     1.2750     1.8190 H     1 <1>   0.0800 
 41 H       -1.2660     3.3250     1.2720 H     1 <1>   0.0800 
 42 H       -2.5310     3.3330     2.4690 H     1 <1>   0.0800 
 43 H        2.2760     4.2270    -3.4860 H     1 <1>   0.1500 
 44 H       -1.7640     5.5800     0.6800 H     1 <1>   0.0800 
 45 H       -2.3860     5.6190     2.3290 H     1 <1>   0.0800 
 46 H        4.0940     4.1770     1.4760 H     1 <1>   0.0800 
 47 H        3.6630     2.6000     0.9010 H     1 <1>   0.0800 
 48 H        3.6640     6.3670    -2.6140 H     1 <1>   0.1500 
 49 H       -4.3830     7.3120     1.0840 H     1 <1>   0.1500 
 50 H        1.6740     4.7280     1.7650 H     1 <1>   0.0800 
 51 H        2.2030     3.4040     2.7780 H     1 <1>   0.0800 
 52 H        1.2740     3.0760     1.3390 H     1 <1>   0.0800 
 53 H       -7.7830     2.8830    -0.3890 H     1 <1>   0.0800 
 54 H       -7.9030     3.2770    -2.0910 H     1 <1>   0.0800 
 55 H       -9.2050     3.6940    -0.9900 H     1 <1>   0.0800 
 56 H       -7.6670     6.9540    -1.4760 H     1 <1>   0.0800 
 57 H       -8.9290     6.4080    -0.3910 H     1 <1>   0.0800 
 58 H       -8.9250     5.9040    -2.0740 H     1 <1>   0.0800 
@<TRIPOS>BOND
  1   1   2  2   
  2   2   3  am  
  3   2   4  1   
  4   3   5  1   
  5   3   6  1   
  6   4   7  1   
  7   4  29  1   
  8   4  30  1   
  9   5   8  1   
 10   5  31  1   
 11   5  32  1   
 12   6   9  1   
 13   6  33  1   
 14   6  34  1   
 15   7  10  1   
 16   7  35  1   
 17   7  36  1   
 18   8  11  1   
 19   8  12  1   
 20   8  13  1   
 21   9  12  1   
 22   9  37  1   
 23   9  38  1   
 24  10  14  1   
 25  10  15  1   
 26  11  16  ar  
 27  11  17  ar  
 28  12  39  1   
 29  12  40  1   
 30  13  18  1   
 31  13  41  1   
 32  13  42  1   
 33  14  19  2   
 34  14  20  1   
 35  15  21  2   
 36  15  43  1   
 37  16  22  ar  
 38  17  18  1   
 39  17  23  ar  
 40  18  44  1   
 41  18  45  1   
 42  19  21  1   
 43  20  24  1   
 44  20  46  1   
 45  20  47  1   
 46  21  48  1   
 47  22  25  ar  
 48  22  26  1   
 49  23  25  ar  
 50  23  49  1   
 51  24  50  1   
 52  24  51  1   
 53  24  52  1   
 54  26  27  1   
 55  26  28  1   
 56  27  53  1   
 57  27  54  1   
 58  27  55  1   
 59  28  56  1   
 60  28  57  1   
 61  28  58  1   
@<TRIPOS>SUBSTRUCTURE
  1 ****   5 GROUP 4 **** **** 0

# MOE 2024.06 (io_trps.svl 2023.06)
