@<TRIPOS>MOLECULE
NONAME
59 62 1 0 0 
SMALL
USER_CHARGES


@<TRIPOS>ATOM
  1 O        0.1140     0.3300    -0.0350 O.3   1 <1>  -0.5600 
  2 C        0.4300     1.0770    -1.1610 C.3   1 <1>   0.1200 
  3 C       -1.2730     0.3270     0.1320 C.3   1 <1>   0.1200 
  4 C       -0.4980     2.2820    -1.0360 C.3   1 <1>   0.4230 
  5 C       -1.7850     1.5580    -0.6350 C.3   1 <1>  -0.0800 
  6 N       -0.0120     3.1340     0.0860 N.4   1 <1>  -0.9060 
  7 C       -2.8540     2.3730     0.1220 C.3   1 <1>  -0.0170 
  8 C        0.7680     4.3410    -0.2700 C.3   1 <1>   0.4230 
  9 C       -4.1020     1.5350     0.3400 C.ar  1 <1>  -0.1440 
 10 C        2.1140     3.9600    -0.9000 C.3   1 <1>  -0.1600 
 11 C        0.9330     5.1690     1.0070 C.3   1 <1>  -0.1600 
 12 C       -4.3640     0.9060     1.5420 C.ar  1 <1>  -0.1500 
 13 C       -5.0410     1.3580    -0.6570 C.ar  1 <1>  -0.1500 
 14 C        2.9840     5.1970    -1.1060 C.3   1 <1>   0.2090 
 15 C        1.8230     6.3820     0.7530 C.3   1 <1>   0.2090 
 16 C       -5.5140     0.1460     1.6800 C.ar  1 <1>   0.1600 
 17 C       -6.1590     0.5770    -0.4150 C.ar  1 <1>   0.1600 
 18 N        3.0920     5.8830     0.1930 N.pl3 1 <1>  -0.8380 
 19 N       -6.4140    -0.0350     0.7290 N.ar  1 <1>  -0.6200 
 20 C        4.2010     6.7050     0.3580 C.ar  1 <1>   0.1000 
 21 C        4.3020     7.9270    -0.2980 C.ar  1 <1>  -0.1500 
 22 C        5.2360     6.3040     1.1900 C.ar  1 <1>  -0.1500 
 23 C        5.4130     8.7340    -0.1270 C.ar  1 <1>  -0.1440 
 24 C        6.3530     7.1010     1.3710 C.ar  1 <1>  -0.1440 
 25 C        6.4360     8.3160     0.7100 C.ar  1 <1>  -0.1500 
 26 C        5.5260    10.0690    -0.8410 C.3   1 <1>  -0.0970 
 27 C        7.4840     6.6610     2.2830 C.3   1 <1>  -0.0970 
 28 H        1.4770     1.3160    -1.1520 H     1 <1>   0.0800 
 29 H        0.1990     0.4880    -2.0340 H     1 <1>   0.0800 
 30 H       -1.6720    -0.5890    -0.2740 H     1 <1>   0.0800 
 31 H       -1.4820     0.3730     1.1880 H     1 <1>   0.0800 
 32 H       -0.6010     2.8400    -1.9530 H     1 <1>   0.0800 
 33 H       -2.2410     1.1910    -1.5390 H     1 <1>   0.0800 
 34 H       -0.8040     3.4160     0.6650 H     1 <1>   0.4500 
 35 H        0.5620     2.5150     0.6810 H     1 <1>   0.4500 
 36 H       -3.1220     3.2470    -0.4480 H     1 <1>   0.0800 
 37 H       -2.4910     2.6980     1.0810 H     1 <1>   0.0800 
 38 H        0.2130     4.9320    -0.9820 H     1 <1>   0.0800 
 39 H        2.6520     3.2850    -0.2580 H     1 <1>   0.0800 
 40 H        1.9700     3.4970    -1.8580 H     1 <1>   0.0800 
 41 H       -0.0210     5.5160     1.3580 H     1 <1>   0.0800 
 42 H        1.3960     4.5820     1.7800 H     1 <1>   0.0800 
 43 H       -3.6940     0.9920     2.3770 H     1 <1>   0.1500 
 44 H       -4.9250     1.8160    -1.6220 H     1 <1>   0.1500 
 45 H        2.5500     5.8620    -1.8340 H     1 <1>   0.0800 
 46 H        3.9670     4.9110    -1.4460 H     1 <1>   0.0800 
 47 H        2.0170     6.9050     1.6770 H     1 <1>   0.0800 
 48 H        1.3620     7.0680     0.0620 H     1 <1>   0.0800 
 49 H       -5.7050    -0.3390     2.6230 H     1 <1>   0.1500 
 50 H       -6.8830     0.4490    -1.2020 H     1 <1>   0.1500 
 51 H        3.5040     8.2380    -0.9430 H     1 <1>   0.1500 
 52 H        5.1500     5.3600     1.6920 H     1 <1>   0.1500 
 53 H        7.3010     8.9390     0.8470 H     1 <1>   0.1500 
 54 H        6.4110    10.0830    -1.4500 H     1 <1>   0.0800 
 55 H        5.5860    10.8640    -0.1190 H     1 <1>   0.0800 
 56 H        4.6720    10.2420    -1.4710 H     1 <1>   0.0800 
 57 H        7.5790     7.3490     3.1040 H     1 <1>   0.0800 
 58 H        8.4090     6.6430     1.7350 H     1 <1>   0.0800 
 59 H        7.3000     5.6780     2.6760 H     1 <1>   0.0800 
@<TRIPOS>BOND
  1   1   2  1   
  2   1   3  1   
  3   2   4  1   
  4   2  28  1   
  5   2  29  1   
  6   3   5  1   
  7   3  30  1   
  8   3  31  1   
  9   4   5  1   
 10   4   6  1   
 11   4  32  1   
 12   5   7  1   
 13   5  33  1   
 14   6   8  1   
 15   6  34  1   
 16   6  35  1   
 17   7   9  1   
 18   7  36  1   
 19   7  37  1   
 20   8  10  1   
 21   8  11  1   
 22   8  38  1   
 23   9  12  ar  
 24   9  13  ar  
 25  10  14  1   
 26  10  39  1   
 27  10  40  1   
 28  11  15  1   
 29  11  41  1   
 30  11  42  1   
 31  12  16  ar  
 32  12  43  1   
 33  13  17  ar  
 34  13  44  1   
 35  14  18  1   
 36  14  45  1   
 37  14  46  1   
 38  15  18  1   
 39  15  47  1   
 40  15  48  1   
 41  16  19  ar  
 42  16  49  1   
 43  17  19  ar  
 44  17  50  1   
 45  18  20  1   
 46  20  21  ar  
 47  20  22  ar  
 48  21  23  ar  
 49  21  51  1   
 50  22  24  ar  
 51  22  52  1   
 52  23  25  ar  
 53  23  26  1   
 54  24  25  ar  
 55  24  27  1   
 56  25  53  1   
 57  26  54  1   
 58  26  55  1   
 59  26  56  1   
 60  27  57  1   
 61  27  58  1   
 62  27  59  1   
@<TRIPOS>SUBSTRUCTURE
  1 ****   8 GROUP 4 **** **** 0

# MOE 2024.06 (io_trps.svl 2023.06)
