@<TRIPOS>MOLECULE
NONAME
54 56 1 0 0 
SMALL
USER_CHARGES


@<TRIPOS>ATOM
  1 O        0.7150     1.3700    -1.6490 O.2   1 <1>  -0.5700 
  2 C        0.3050     2.5080    -1.6510 C.2   1 <1>   0.5690 
  3 N       -0.3460     3.0560    -0.5780 N.am  1 <1>  -0.6600 
  4 C        0.5130     3.3470    -2.9110 C.3   1 <1>   0.1810 
  5 C       -0.8750     4.4620    -0.6170 C.3   1 <1>   0.3640 
  6 C       -0.5110     2.3230     0.7110 C.3   1 <1>   0.0600 
  7 O        0.4840     4.7270    -2.6470 O.3   1 <1>  -0.5600 
  8 C       -2.3520     4.4600    -0.1990 C.ar  1 <1>  -0.1430 
  9 C       -0.6980     5.1580    -1.9930 C.3   1 <1>   0.2610 
 10 C       -2.8450     5.2710     0.8240 C.ar  1 <1>  -0.1430 
 11 C       -3.2290     3.6130    -0.8670 C.ar  1 <1>  -0.1500 
 12 C       -0.6690     6.6730    -1.7870 C.2   1 <1>   0.5690 
 13 C       -4.1930     5.2180     1.1500 C.ar  1 <1>  -0.1500 
 14 C       -1.9600     6.2320     1.6080 C.3   1 <1>  -0.0960 
 15 C       -4.5700     3.5660    -0.5350 C.ar  1 <1>  -0.1500 
 16 O       -1.7040     7.2950    -1.7630 O.2   1 <1>  -0.5700 
 17 N        0.5280     7.2910    -1.6100 N.am  1 <1>  -0.7300 
 18 C       -5.0530     4.3720     0.4760 C.ar  1 <1>  -0.1500 
 19 C        0.7500     8.7300    -1.3150 C.3   1 <1>   0.1400 
 20 C        1.7640     8.9390    -0.1650 C.3   1 <1>   0.2800 
 21 O        2.9150     8.2350    -0.4720 O.3   1 <1>  -0.6800 
 22 C        2.1520    10.4280    -0.0270 C.3   1 <1>  -0.1600 
 23 C        1.2540     8.3820     1.1760 C.3   1 <1>  -0.1600 
 24 C        2.5650    10.8640     1.3950 C.3   1 <1>  -0.1600 
 25 C        2.2690     8.5160     2.3320 C.3   1 <1>  -0.1600 
 26 C        3.2100     9.7280     2.1960 C.3   1 <1>  -0.1600 
 27 H       -0.2520     3.1180    -3.6310 H     1 <1>   0.0800 
 28 H        1.4720     3.1160    -3.3370 H     1 <1>   0.0800 
 29 H       -0.2980     5.0230     0.0940 H     1 <1>   0.0800 
 30 H       -0.1700     2.9350     1.5270 H     1 <1>   0.0800 
 31 H        0.0580     1.4090     0.7050 H     1 <1>   0.0800 
 32 H       -1.5480     2.0790     0.8640 H     1 <1>   0.0800 
 33 H       -1.5300     4.9250    -2.6320 H     1 <1>   0.0800 
 34 H       -2.8700     2.9720    -1.6540 H     1 <1>   0.1500 
 35 H       -4.5870     5.8410     1.9330 H     1 <1>   0.1500 
 36 H       -2.5210     6.7340     2.3750 H     1 <1>   0.0800 
 37 H       -1.5600     6.9820     0.9500 H     1 <1>   0.0800 
 38 H       -1.1540     5.7010     2.0800 H     1 <1>   0.0800 
 39 H       -5.2350     2.9050    -1.0620 H     1 <1>   0.1500 
 40 H        1.3940     6.7490    -1.7150 H     1 <1>   0.3700 
 41 H       -6.0960     4.3420     0.7390 H     1 <1>   0.1500 
 42 H        1.1220     9.2110    -2.2030 H     1 <1>   0.0800 
 43 H       -0.1860     9.1950    -1.0580 H     1 <1>   0.0800 
 44 H        3.5330     8.3390     0.2740 H     1 <1>   0.4000 
 45 H        2.9420    10.6520    -0.7230 H     1 <1>   0.0800 
 46 H        1.3110    11.0370    -0.3090 H     1 <1>   0.0800 
 47 H        0.3630     8.9250     1.4380 H     1 <1>   0.0800 
 48 H        0.9710     7.3510     1.0650 H     1 <1>   0.0800 
 49 H        3.2410    11.7010     1.3340 H     1 <1>   0.0800 
 50 H        1.6900    11.1970     1.9280 H     1 <1>   0.0800 
 51 H        1.7210     8.5940     3.2560 H     1 <1>   0.0800 
 52 H        2.8660     7.6220     2.3920 H     1 <1>   0.0800 
 53 H        3.4810    10.0820     3.1770 H     1 <1>   0.0800 
 54 H        4.1210     9.4320     1.7060 H     1 <1>   0.0800 
@<TRIPOS>BOND
  1   1   2  2   
  2   2   3  am  
  3   2   4  1   
  4   3   5  1   
  5   3   6  1   
  6   4   7  1   
  7   4  27  1   
  8   4  28  1   
  9   5   8  1   
 10   5   9  1   
 11   5  29  1   
 12   6  30  1   
 13   6  31  1   
 14   6  32  1   
 15   7   9  1   
 16   8  10  ar  
 17   8  11  ar  
 18   9  12  1   
 19   9  33  1   
 20  10  13  ar  
 21  10  14  1   
 22  11  15  ar  
 23  11  34  1   
 24  12  16  2   
 25  12  17  am  
 26  13  18  ar  
 27  13  35  1   
 28  14  36  1   
 29  14  37  1   
 30  14  38  1   
 31  15  18  ar  
 32  15  39  1   
 33  17  19  1   
 34  17  40  1   
 35  18  41  1   
 36  19  20  1   
 37  19  42  1   
 38  19  43  1   
 39  20  21  1   
 40  20  22  1   
 41  20  23  1   
 42  21  44  1   
 43  22  24  1   
 44  22  45  1   
 45  22  46  1   
 46  23  25  1   
 47  23  47  1   
 48  23  48  1   
 49  24  26  1   
 50  24  49  1   
 51  24  50  1   
 52  25  26  1   
 53  25  51  1   
 54  25  52  1   
 55  26  53  1   
 56  26  54  1   
@<TRIPOS>SUBSTRUCTURE
  1 ****   5 GROUP 4 **** **** 0

# MOE 2024.06 (io_trps.svl 2023.06)
