@<TRIPOS>MOLECULE
NONAME
54 58 1 0 0 
SMALL
USER_CHARGES


@<TRIPOS>ATOM
  1 S       -0.2320     0.2220    -0.9090 S.3   1 <1>  -0.0800 
  2 C        0.0830    -0.9740     0.2980 C.2   1 <1>   0.4620 
  3 C        0.9650     1.2340    -0.1480 C.2   1 <1>   0.3250 
  4 N        0.9850    -0.5930     1.1330 N.2   1 <1>  -0.3380 
  5 N       -0.6050    -2.1590     0.2710 N.pl3 1 <1>  -0.8220 
  6 N        1.4770     0.6490     0.8780 N.2   1 <1>  -0.3380 
  7 C        1.2590     2.5440    -0.6850 C.ar  1 <1>   0.0530 
  8 C       -0.6280    -3.1700     1.3240 C.3   1 <1>   0.2890 
  9 C       -1.8100    -2.5200    -0.4400 C.3   1 <1>   0.2890 
 10 C        2.2080     3.3560    -0.0580 C.ar  1 <1>  -0.1500 
 11 C        0.6380     3.0660    -1.8260 C.ar  1 <1>  -0.1500 
 12 C       -0.6640    -4.4810     0.4840 C.3   1 <1>   0.0610 
 13 C       -2.0020    -2.8120     1.9300 C.3   1 <1>  -0.1600 
 14 C       -1.5310    -4.0020    -0.7260 C.3   1 <1>  -0.1600 
 15 C       -2.8320    -2.4120     0.6960 C.3   1 <1>  -0.1600 
 16 C        2.5210     4.6150    -0.5350 C.ar  1 <1>  -0.1500 
 17 C        0.9470     4.3250    -2.3080 C.ar  1 <1>  -0.1500 
 18 C       -1.2720    -5.6440     1.3020 C.2   1 <1>   0.5690 
 19 C        0.7700    -4.9420     0.0630 C.3   1 <1>  -0.1600 
 20 C        1.8900     5.1040    -1.6630 C.ar  1 <1>  -0.1500 
 21 O       -1.0570    -5.6530     2.4940 O.2   1 <1>  -0.5700 
 22 N       -1.9890    -6.6780     0.7350 N.am  1 <1>  -0.6600 
 23 C        1.6800    -3.9420    -0.6700 C.3   1 <1>  -0.2400 
 24 C       -1.9000    -7.1510    -0.6820 C.3   1 <1>   0.1400 
 25 C       -2.7410    -7.6480     1.5930 C.3   1 <1>   0.1400 
 26 C       -1.3870    -8.6000    -0.7350 C.3   1 <1>   0.1200 
 27 C       -2.1790    -9.0670     1.4230 C.3   1 <1>   0.1200 
 28 O       -2.1710    -9.4320     0.0710 O.3   1 <1>  -0.5600 
 29 H        0.1930    -3.1030     2.0190 H     1 <1>   0.0800 
 30 H       -2.0260    -1.9200    -1.3080 H     1 <1>   0.0800 
 31 H        2.7100     2.9910     0.8220 H     1 <1>   0.1500 
 32 H       -0.1000     2.4910    -2.3540 H     1 <1>   0.1500 
 33 H       -2.4570    -3.6060     2.4910 H     1 <1>   0.0800 
 34 H       -1.8800    -1.9670     2.5860 H     1 <1>   0.0800 
 35 H       -2.4640    -4.5260    -0.8120 H     1 <1>   0.0800 
 36 H       -1.0020    -4.0940    -1.6560 H     1 <1>   0.0800 
 37 H       -3.1750    -1.3960     0.7850 H     1 <1>   0.0800 
 38 H       -3.6760    -3.0590     0.5410 H     1 <1>   0.0800 
 39 H        3.2570     5.2150    -0.0280 H     1 <1>   0.1500 
 40 H        0.4530     4.7020    -3.1870 H     1 <1>   0.1500 
 41 H        1.2910    -5.2480     0.9560 H     1 <1>   0.0800 
 42 H        0.6880    -5.8180    -0.5530 H     1 <1>   0.0800 
 43 H        2.1310     6.0840    -2.0380 H     1 <1>   0.1500 
 44 H        1.9400    -3.1240    -0.0220 H     1 <1>   0.0800 
 45 H        1.2070    -3.5460    -1.5500 H     1 <1>   0.0800 
 46 H        2.5930    -4.4280    -0.9660 H     1 <1>   0.0800 
 47 H       -2.8770    -7.1080    -1.1310 H     1 <1>   0.0800 
 48 H       -1.2420    -6.5350    -1.2610 H     1 <1>   0.0800 
 49 H       -2.6890    -7.3680     2.6300 H     1 <1>   0.0800 
 50 H       -3.7780    -7.6430     1.3070 H     1 <1>   0.0800 
 51 H       -0.3660    -8.6540    -0.3960 H     1 <1>   0.0800 
 52 H       -1.4380    -8.9770    -1.7410 H     1 <1>   0.0800 
 53 H       -2.7910    -9.7760     1.9510 H     1 <1>   0.0800 
 54 H       -1.1740    -9.1240     1.8050 H     1 <1>   0.0800 
@<TRIPOS>BOND
  1   1   2  1   
  2   1   3  1   
  3   2   4  2   
  4   2   5  1   
  5   3   6  2   
  6   3   7  1   
  7   4   6  1   
  8   5   8  1   
  9   5   9  1   
 10   7  10  ar  
 11   7  11  ar  
 12   8  12  1   
 13   8  13  1   
 14   8  29  1   
 15   9  14  1   
 16   9  15  1   
 17   9  30  1   
 18  10  16  ar  
 19  10  31  1   
 20  11  17  ar  
 21  11  32  1   
 22  12  14  1   
 23  12  18  1   
 24  12  19  1   
 25  13  15  1   
 26  13  33  1   
 27  13  34  1   
 28  14  35  1   
 29  14  36  1   
 30  15  37  1   
 31  15  38  1   
 32  16  20  ar  
 33  16  39  1   
 34  17  20  ar  
 35  17  40  1   
 36  18  21  2   
 37  18  22  am  
 38  19  23  1   
 39  19  41  1   
 40  19  42  1   
 41  20  43  1   
 42  22  24  1   
 43  22  25  1   
 44  23  44  1   
 45  23  45  1   
 46  23  46  1   
 47  24  26  1   
 48  24  47  1   
 49  24  48  1   
 50  25  27  1   
 51  25  49  1   
 52  25  50  1   
 53  26  28  1   
 54  26  51  1   
 55  26  52  1   
 56  27  28  1   
 57  27  53  1   
 58  27  54  1   
@<TRIPOS>SUBSTRUCTURE
  1 ****   5 GROUP 4 **** **** 0

# MOE 2024.06 (io_trps.svl 2023.06)
