@<TRIPOS>MOLECULE
NONAME
39 40 1 0 0 
SMALL
USER_CHARGES


@<TRIPOS>ATOM
  1 F        2.0730    -0.5280     3.0960 F     1 <1>  -0.1900 
  2 C        2.3570    -1.1150     1.9660 C.ar  1 <1>   0.1900 
  3 C        2.2900    -2.4940     1.9030 C.ar  1 <1>  -0.1500 
  4 C        2.7130    -0.3400     0.8810 C.ar  1 <1>  -0.1500 
  5 C        2.5870    -3.1220     0.7020 C.ar  1 <1>  -0.1440 
  6 C        3.0180    -0.9680    -0.3160 C.ar  1 <1>  -0.1440 
  7 C        2.9540    -2.3530    -0.3980 C.ar  1 <1>  -0.1500 
  8 C        2.5120    -4.6320     0.5870 C.3   1 <1>   0.4870 
  9 C        3.4190    -0.1490    -1.5310 C.3   1 <1>  -0.0970 
 10 N        1.0850    -5.0430     0.5230 N.4   1 <1>  -0.9590 
 11 C        0.9480    -6.5430     0.6710 C.3   1 <1>   0.3430 
 12 C        0.4210    -4.5280    -0.7110 C.3   1 <1>   0.3430 
 13 C       -0.2720    -7.1510    -0.0650 C.3   1 <1>   0.2000 
 14 C       -1.0860    -4.8090    -0.6540 C.3   1 <1>  -0.1600 
 15 O        0.0900    -7.3810    -1.3890 O.3   1 <1>  -0.6800 
 16 C       -1.4590    -6.1740    -0.0180 C.3   1 <1>  -0.0800 
 17 C       -2.7390    -6.7690    -0.6250 C.3   1 <1>   0.1200 
 18 O       -3.7690    -5.8710    -0.4210 O.3   1 <1>  -0.6800 
 19 H        2.0130    -3.0400     2.7870 H     1 <1>   0.1500 
 20 H        2.7510     0.7300     0.9800 H     1 <1>   0.1500 
 21 H        3.1980    -2.8250    -1.3350 H     1 <1>   0.1500 
 22 H        2.9880    -5.0750     1.4470 H     1 <1>   0.0800 
 23 H        3.0320    -4.9620    -0.2980 H     1 <1>   0.0800 
 24 H        4.2430    -0.6150    -2.0420 H     1 <1>   0.0800 
 25 H        3.7220     0.8410    -1.2400 H     1 <1>   0.0800 
 26 H        2.5890    -0.0680    -2.2100 H     1 <1>   0.0800 
 27 H        0.6040    -4.5850     1.3060 H     1 <1>   0.4500 
 28 H        1.8310    -7.0350     0.2970 H     1 <1>   0.0800 
 29 H        0.8640    -6.7770     1.7190 H     1 <1>   0.0800 
 30 H        0.5840    -3.4670    -0.8210 H     1 <1>   0.0800 
 31 H        0.8390    -5.0260    -1.5720 H     1 <1>   0.0800 
 32 H       -0.5250    -8.1010     0.3750 H     1 <1>   0.0800 
 33 H       -1.5820    -4.0190    -0.1160 H     1 <1>   0.0800 
 34 H       -1.4540    -4.7670    -1.6650 H     1 <1>   0.0800 
 35 H       -0.5900    -7.9050    -1.8610 H     1 <1>   0.4000 
 36 H       -1.6690    -6.0040     1.0250 H     1 <1>   0.0800 
 37 H       -3.0030    -7.6960    -0.1440 H     1 <1>   0.0800 
 38 H       -2.6360    -6.9270    -1.6860 H     1 <1>   0.0800 
 39 H       -4.6140    -6.2080    -0.7830 H     1 <1>   0.4000 
@<TRIPOS>BOND
  1   1   2  1   
  2   2   3  ar  
  3   2   4  ar  
  4   3   5  ar  
  5   3  19  1   
  6   4   6  ar  
  7   4  20  1   
  8   5   7  ar  
  9   5   8  1   
 10   6   7  ar  
 11   6   9  1   
 12   7  21  1   
 13   8  10  1   
 14   8  22  1   
 15   8  23  1   
 16   9  24  1   
 17   9  25  1   
 18   9  26  1   
 19  10  11  1   
 20  10  12  1   
 21  10  27  1   
 22  11  13  1   
 23  11  28  1   
 24  11  29  1   
 25  12  14  1   
 26  12  30  1   
 27  12  31  1   
 28  13  15  1   
 29  13  16  1   
 30  13  32  1   
 31  14  16  1   
 32  14  33  1   
 33  14  34  1   
 34  15  35  1   
 35  16  17  1   
 36  16  36  1   
 37  17  18  1   
 38  17  37  1   
 39  17  38  1   
 40  18  39  1   
@<TRIPOS>SUBSTRUCTURE
  1 ****  10 GROUP 4 **** **** 0

# MOE 2024.06 (io_trps.svl 2023.06)
