@<TRIPOS>MOLECULE
NONAME
54 57 1 0 0 
SMALL
USER_CHARGES


@<TRIPOS>ATOM
  1 F        0.7460     0.6560    -2.2400 F     1 <1>  -0.1900 
  2 C        1.7880     0.0260    -1.7630 C.ar  1 <1>   0.1900 
  3 C        1.8030    -0.3430    -0.4270 C.ar  1 <1>  -0.1440 
  4 C        2.8470    -0.2220    -2.6160 C.ar  1 <1>  -0.1500 
  5 C        2.9360    -0.9800     0.0580 C.ar  1 <1>  -0.1500 
  6 C        0.6360    -0.0290     0.4940 C.3   1 <1>   0.2840 
  7 C        3.9680    -0.8600    -2.1150 C.ar  1 <1>  -0.1500 
  8 C        4.0100    -1.2360    -0.7810 C.ar  1 <1>  -0.1500 
  9 N        0.7180     1.4120     0.8030 N.am  1 <1>  -0.7300 
 10 C        1.6090     1.9050     1.7020 C.2   1 <1>   0.5690 
 11 O        2.1170     1.2120     2.5500 O.2   1 <1>  -0.5700 
 12 C        2.1290     3.3420     1.5730 C.3   1 <1>   0.4040 
 13 N        3.5990     3.3720     1.2190 N.4   1 <1>  -0.9590 
 14 C        4.1890     4.7480     1.2870 C.3   1 <1>   0.3430 
 15 C        3.8870     2.6820    -0.0750 C.3   1 <1>   0.3430 
 16 C        5.5300     4.8530     0.5350 C.3   1 <1>  -0.0800 
 17 C        5.3920     2.4190    -0.1810 C.3   1 <1>  -0.1600 
 18 C        6.2670     3.5000     0.4840 C.3   1 <1>  -0.1600 
 19 C        6.4120     5.9660     1.1380 C.3   1 <1>   0.0200 
 20 C        7.6090     6.2740     0.2540 C.2   1 <1>   0.0060 
 21 N        7.5200     6.4620    -1.0160 N.2   1 <1>  -0.5650 
 22 N        8.8760     6.3810     0.7350 N.pl3 1 <1>   0.0330 
 23 C        8.7990     6.7050    -1.4170 C.ar  1 <1>   0.2270 
 24 C        9.6590     6.6560    -0.3360 C.ar  1 <1>  -0.1520 
 25 C        9.2970     6.9740    -2.6900 C.ar  1 <1>  -0.1500 
 26 C       11.0310     6.8700    -0.4900 C.ar  1 <1>  -0.1500 
 27 C       10.6490     7.1860    -2.8530 C.ar  1 <1>  -0.1500 
 28 C       11.5150     7.1340    -1.7520 C.ar  1 <1>  -0.1500 
 29 H        2.7920     0.0750    -3.6490 H     1 <1>   0.1500 
 30 H        2.9880    -1.2790     1.0930 H     1 <1>   0.1500 
 31 H        0.7010    -0.6070     1.4010 H     1 <1>   0.0800 
 32 H       -0.3020    -0.2530     0.0130 H     1 <1>   0.0800 
 33 H        4.8050    -1.0700    -2.7610 H     1 <1>   0.1500 
 34 H        4.8820    -1.7390    -0.3950 H     1 <1>   0.1500 
 35 H        0.2950     1.9970     0.0770 H     1 <1>   0.3700 
 36 H        1.9730     3.8350     2.5170 H     1 <1>   0.0800 
 37 H        1.5580     3.8580     0.8210 H     1 <1>   0.0800 
 38 H        4.0640     2.7880     1.9330 H     1 <1>   0.4500 
 39 H        4.3420     5.0100     2.3220 H     1 <1>   0.0800 
 40 H        3.5050     5.4650     0.8630 H     1 <1>   0.0800 
 41 H        3.5720     3.3080    -0.8950 H     1 <1>   0.0800 
 42 H        3.3600     1.7430    -0.1400 H     1 <1>   0.0800 
 43 H        5.2980     5.1420    -0.4770 H     1 <1>   0.0800 
 44 H        5.6400     2.3560    -1.2270 H     1 <1>   0.0800 
 45 H        5.6190     1.4590     0.2490 H     1 <1>   0.0800 
 46 H        6.5180     3.1910     1.4850 H     1 <1>   0.0800 
 47 H        7.1890     3.5930    -0.0670 H     1 <1>   0.0800 
 48 H        6.7450     5.6820     2.1200 H     1 <1>   0.0800 
 49 H        5.8390     6.8730     1.2290 H     1 <1>   0.0800 
 50 H        9.1960     6.2880     1.7020 H     1 <1>   0.2700 
 51 H        8.6120     7.0090    -3.5160 H     1 <1>   0.1500 
 52 H       11.6890     6.8290     0.3610 H     1 <1>   0.1500 
 53 H       11.0510     7.3950    -3.8290 H     1 <1>   0.1500 
 54 H       12.5660     7.3040    -1.9060 H     1 <1>   0.1500 
@<TRIPOS>BOND
  1   1   2  1   
  2   2   3  ar  
  3   2   4  ar  
  4   3   5  ar  
  5   3   6  1   
  6   4   7  ar  
  7   4  29  1   
  8   5   8  ar  
  9   5  30  1   
 10   6   9  1   
 11   6  31  1   
 12   6  32  1   
 13   7   8  ar  
 14   7  33  1   
 15   8  34  1   
 16   9  10  am  
 17   9  35  1   
 18  10  11  2   
 19  10  12  1   
 20  12  13  1   
 21  12  36  1   
 22  12  37  1   
 23  13  14  1   
 24  13  15  1   
 25  13  38  1   
 26  14  16  1   
 27  14  39  1   
 28  14  40  1   
 29  15  17  1   
 30  15  41  1   
 31  15  42  1   
 32  16  18  1   
 33  16  19  1   
 34  16  43  1   
 35  17  18  1   
 36  17  44  1   
 37  17  45  1   
 38  18  46  1   
 39  18  47  1   
 40  19  20  1   
 41  19  48  1   
 42  19  49  1   
 43  20  21  2   
 44  20  22  1   
 45  21  23  1   
 46  22  24  1   
 47  22  50  1   
 48  23  24  ar  
 49  23  25  ar  
 50  24  26  ar  
 51  25  27  ar  
 52  25  51  1   
 53  26  28  ar  
 54  26  52  1   
 55  27  28  ar  
 56  27  53  1   
 57  28  54  1   
@<TRIPOS>SUBSTRUCTURE
  1 ****  17 GROUP 4 **** **** 0

# MOE 2024.06 (io_trps.svl 2023.06)
