@<TRIPOS>MOLECULE
NONAME
23 22 1 0 0 
SMALL
USER_CHARGES


@<TRIPOS>ATOM
  1 O        9.4410     0.4570     1.5160 O.2   1 <1>  -0.5700 
  2 C        9.1740     0.1140     0.3900 C.2   1 <1>   0.6590 
  3 O       10.0740     0.1580    -0.5880 O.3   1 <1>  -0.4300 
  4 C        7.7760    -0.4090     0.0130 C.3   1 <1>   0.2510 
  5 C       11.3920     0.6150    -0.3660 C.3   1 <1>   0.0400 
  6 N        7.3070    -1.4780     0.9470 N.3   1 <1>  -0.9900 
  7 C        6.7700     0.7730    -0.0750 C.3   1 <1>   0.2000 
  8 O        5.6190     0.4000    -0.7800 O.3   1 <1>  -0.5600 
  9 C        7.3070     1.9940    -0.8310 C.3   1 <1>  -0.2400 
 10 C        4.5920    -0.1610    -0.0230 C.3   1 <1>   0.0400 
 11 H        7.8520    -0.8320    -0.9730 H     1 <1>   0.0800 
 12 H       11.9330     0.5610    -1.2940 H     1 <1>   0.0800 
 13 H       11.8590    -0.0120     0.3740 H     1 <1>   0.0800 
 14 H       11.3530     1.6330    -0.0170 H     1 <1>   0.0800 
 15 H        7.4210    -1.1170     1.9030 H     1 <1>   0.3600 
 16 H        7.9420    -2.2800     0.8710 H     1 <1>   0.3600 
 17 H        6.4920     1.0860     0.9180 H     1 <1>   0.0800 
 18 H        7.6520     1.7060    -1.8080 H     1 <1>   0.0800 
 19 H        8.1170     2.4540    -0.2950 H     1 <1>   0.0800 
 20 H        6.5260     2.7260    -0.9370 H     1 <1>   0.0800 
 21 H        3.7410    -0.2940    -0.6660 H     1 <1>   0.0800 
 22 H        4.3350     0.5020     0.7840 H     1 <1>   0.0800 
 23 H        4.9020    -1.1180     0.3560 H     1 <1>   0.0800 
@<TRIPOS>BOND
  1   1   2  2   
  2   2   3  1   
  3   2   4  1   
  4   3   5  1   
  5   4   6  1   
  6   4   7  1   
  7   4  11  1   
  8   5  12  1   
  9   5  13  1   
 10   5  14  1   
 11   6  15  1   
 12   6  16  1   
 13   7   8  1   
 14   7   9  1   
 15   7  17  1   
 16   8  10  1   
 17   9  18  1   
 18   9  19  1   
 19   9  20  1   
 20  10  21  1   
 21  10  22  1   
 22  10  23  1   
@<TRIPOS>SUBSTRUCTURE
  1 ****   4 GROUP 4 **** **** 0

# MOE 2024.06 (io_trps.svl 2023.06)
