@<TRIPOS>MOLECULE
NONAME
48 50 1 0 0 
SMALL
USER_CHARGES


@<TRIPOS>ATOM
  1 O        1.5460    -0.0380     2.2900 O.2   1 <1>  -0.5700 
  2 C        1.8830    -0.4080     1.1820 C.2   1 <1>   0.5440 
  3 N        2.3390     0.5160     0.2620 N.am  1 <1>  -0.6600 
  4 C        1.8240    -1.8180     0.8760 C.ar  1 <1>   0.0860 
  5 C        2.9840     0.1200    -1.0270 C.3   1 <1>   0.1400 
  6 C        2.3560     1.9760     0.5710 C.3   1 <1>   0.1400 
  7 C        2.6840    -2.7050     1.5140 C.ar  1 <1>   0.1600 
  8 C        0.9350    -2.3470    -0.0490 C.ar  1 <1>  -0.1500 
  9 C        4.4740    -0.1980    -0.8260 C.3   1 <1>   0.1100 
 10 C        3.6980     2.6490     0.2500 C.3   1 <1>  -0.1600 
 11 N        2.7570    -4.0080     1.2900 N.ar  1 <1>  -0.6200 
 12 C        0.9770    -3.7030    -0.2940 C.ar  1 <1>  -0.1430 
 13 N        5.3160     0.9990    -0.6180 N.3   1 <1>  -0.8100 
 14 C        4.9280     1.7930     0.5660 C.3   1 <1>   0.1100 
 15 C        1.9020    -4.4760     0.3950 C.ar  1 <1>   0.1600 
 16 C        0.0290    -4.3350    -1.2990 C.3   1 <1>  -0.0970 
 17 C        6.7480     0.6150    -0.5540 C.3   1 <1>   0.2900 
 18 C        7.6950     1.8050    -0.6760 C.2   1 <1>   0.2980 
 19 O        7.6990     2.4910    -1.7890 O.3   1 <1>  -0.0190 
 20 N        8.5060     2.2090     0.2140 N.2   1 <1>  -0.5650 
 21 N        8.5840     3.4140    -1.5930 N.2   1 <1>  -0.4100 
 22 C        9.0680     3.2630    -0.4030 C.2   1 <1>   0.4300 
 23 C       10.0920     4.1280     0.1910 C.2   1 <1>   0.7160 
 24 O       10.5250     3.9520     1.3190 O.2   1 <1>  -0.5700 
 25 N       10.6000     5.1860    -0.5280 N.am  1 <1>  -0.7300 
 26 C       11.6320     6.1530    -0.0740 C.3   1 <1>   0.0600 
 27 H        2.8760     0.9050    -1.7550 H     1 <1>   0.0800 
 28 H        2.4950    -0.7490    -1.4250 H     1 <1>   0.0800 
 29 H        2.1490     2.1280     1.6170 H     1 <1>   0.0800 
 30 H        1.5700     2.4600     0.0170 H     1 <1>   0.0800 
 31 H        3.3540    -2.3000     2.2540 H     1 <1>   0.1500 
 32 H        0.2360    -1.7020    -0.5540 H     1 <1>   0.1500 
 33 H        4.8170    -0.7000    -1.7150 H     1 <1>   0.0800 
 34 H        4.5880    -0.8800     0.0000 H     1 <1>   0.0800 
 35 H        3.7500     3.5460     0.8390 H     1 <1>   0.0800 
 36 H        3.7250     2.9560    -0.7800 H     1 <1>   0.0800 
 37 H        4.7490     1.1550     1.4170 H     1 <1>   0.0800 
 38 H        5.7260     2.4670     0.8260 H     1 <1>   0.0800 
 39 H        1.9400    -5.5350     0.2020 H     1 <1>   0.1500 
 40 H       -0.8930    -3.7830    -1.3460 H     1 <1>   0.0800 
 41 H       -0.1990    -5.3470    -1.0170 H     1 <1>   0.0800 
 42 H        0.4800    -4.3400    -2.2750 H     1 <1>   0.0800 
 43 H        6.9730    -0.0600    -1.3600 H     1 <1>   0.0800 
 44 H        6.9440     0.1040     0.3730 H     1 <1>   0.0800 
 45 H       10.2280     5.3210    -1.4730 H     1 <1>   0.3700 
 46 H       11.9540     5.9210     0.9280 H     1 <1>   0.0800 
 47 H       11.2260     7.1500    -0.0840 H     1 <1>   0.0800 
 48 H       12.4840     6.1110    -0.7300 H     1 <1>   0.0800 
@<TRIPOS>BOND
  1   1   2  2   
  2   2   3  am  
  3   2   4  1   
  4   3   5  1   
  5   3   6  1   
  6   4   7  ar  
  7   4   8  ar  
  8   5   9  1   
  9   5  27  1   
 10   5  28  1   
 11   6  10  1   
 12   6  29  1   
 13   6  30  1   
 14   7  11  ar  
 15   7  31  1   
 16   8  12  ar  
 17   8  32  1   
 18   9  13  1   
 19   9  33  1   
 20   9  34  1   
 21  10  14  1   
 22  10  35  1   
 23  10  36  1   
 24  11  15  ar  
 25  12  15  ar  
 26  12  16  1   
 27  13  14  1   
 28  13  17  1   
 29  14  37  1   
 30  14  38  1   
 31  15  39  1   
 32  16  40  1   
 33  16  41  1   
 34  16  42  1   
 35  17  18  1   
 36  17  43  1   
 37  17  44  1   
 38  18  19  1   
 39  18  20  2   
 40  19  21  1   
 41  20  22  1   
 42  21  22  2   
 43  22  23  1   
 44  23  24  2   
 45  23  25  am  
 46  25  26  1   
 47  25  45  1   
 48  26  46  1   
 49  26  47  1   
 50  26  48  1   
@<TRIPOS>SUBSTRUCTURE
  1 ****  13 GROUP 4 **** **** 0

# MOE 2024.06 (io_trps.svl 2023.06)
