@<TRIPOS>MOLECULE
NONAME
43 45 1 0 0 
SMALL
USER_CHARGES


@<TRIPOS>ATOM
  1 O        4.0890    -1.6810    -1.8230 O.2   1 <1>  -0.5700 
  2 C        3.1000    -1.5350    -1.1240 C.2   1 <1>   0.5440 
  3 N        3.0000    -0.3040    -0.5320 N.am  1 <1>  -0.6600 
  4 C        2.1930    -2.6430    -0.8700 C.ar  1 <1>   0.0860 
  5 C        3.3700    -0.2000     0.9200 C.3   1 <1>   0.2200 
  6 C        3.0470     0.9170    -1.3920 C.3   1 <1>   0.1400 
  7 C        0.9070    -2.5040    -0.3150 C.ar  1 <1>   0.3920 
  8 C        2.5980    -3.9380    -1.1840 C.ar  1 <1>  -0.1500 
  9 C        2.7290     1.0110     1.6160 C.3   1 <1>   0.1200 
 10 C        4.9120    -0.1850     1.0840 C.3   1 <1>   0.3430 
 11 C        4.0070     2.0150    -0.8980 C.3   1 <1>  -0.0800 
 12 O        0.4470    -1.2690    -0.0200 O.3   1 <1>  -0.3630 
 13 N        0.0810    -3.5160    -0.0490 N.ar  1 <1>  -0.6200 
 14 C        1.7450    -4.9850    -0.9220 C.ar  1 <1>  -0.1500 
 15 O        3.5340     2.1430     1.4720 O.3   1 <1>  -0.5600 
 16 N        5.6270     0.1460    -0.2000 N.4   1 <1>  -0.9590 
 17 C        3.4120     2.8220     0.2680 C.3   1 <1>   0.1200 
 18 C        5.4620     1.5710    -0.6300 C.3   1 <1>   0.3430 
 19 C       -0.8660    -1.0440     0.4620 C.3   1 <1>   0.0400 
 20 C        0.5120    -4.7230    -0.3570 C.ar  1 <1>   0.1600 
 21 C        7.0570    -0.2640    -0.1650 C.3   1 <1>   0.2630 
 22 H        2.9890    -1.0730     1.4210 H     1 <1>   0.0800 
 23 H        3.3320     0.6320    -2.3910 H     1 <1>   0.0800 
 24 H        2.0490     1.3190    -1.4590 H     1 <1>   0.0800 
 25 H        3.5620    -4.1230    -1.6270 H     1 <1>   0.1500 
 26 H        2.6630     0.8160     2.6720 H     1 <1>   0.0800 
 27 H        1.7350     1.2050     1.2480 H     1 <1>   0.0800 
 28 H        5.2150    -1.1650     1.4100 H     1 <1>   0.0800 
 29 H        5.1890     0.5130     1.8570 H     1 <1>   0.0800 
 30 H        4.0650     2.7250    -1.7040 H     1 <1>   0.0800 
 31 H        2.0280    -5.9970    -1.1530 H     1 <1>   0.1500 
 32 H        5.1320    -0.4320    -0.9190 H     1 <1>   0.4500 
 33 H        2.3730     3.0570     0.1020 H     1 <1>   0.0800 
 34 H        3.9470     3.7490     0.3800 H     1 <1>   0.0800 
 35 H        5.8940     2.2230     0.1130 H     1 <1>   0.0800 
 36 H        6.0180     1.7090    -1.5430 H     1 <1>   0.0800 
 37 H       -1.0040     0.0130     0.5980 H     1 <1>   0.0800 
 38 H       -0.9880    -1.5580     1.4000 H     1 <1>   0.0800 
 39 H       -1.5710    -1.4170    -0.2610 H     1 <1>   0.0800 
 40 H       -0.1510    -5.5480    -0.1520 H     1 <1>   0.1500 
 41 H        7.5910     0.3000     0.5810 H     1 <1>   0.0800 
 42 H        7.5150    -0.0930    -1.1260 H     1 <1>   0.0800 
 43 H        7.1360    -1.3140     0.0670 H     1 <1>   0.0800 
@<TRIPOS>BOND
  1   1   2  2   
  2   2   3  am  
  3   2   4  1   
  4   3   5  1   
  5   3   6  1   
  6   4   7  ar  
  7   4   8  ar  
  8   5   9  1   
  9   5  10  1   
 10   5  22  1   
 11   6  11  1   
 12   6  23  1   
 13   6  24  1   
 14   7  12  1   
 15   7  13  ar  
 16   8  14  ar  
 17   8  25  1   
 18   9  15  1   
 19   9  26  1   
 20   9  27  1   
 21  10  16  1   
 22  10  28  1   
 23  10  29  1   
 24  11  17  1   
 25  11  18  1   
 26  11  30  1   
 27  12  19  1   
 28  13  20  ar  
 29  14  20  ar  
 30  14  31  1   
 31  15  17  1   
 32  16  18  1   
 33  16  21  1   
 34  16  32  1   
 35  17  33  1   
 36  17  34  1   
 37  18  35  1   
 38  18  36  1   
 39  19  37  1   
 40  19  38  1   
 41  19  39  1   
 42  20  40  1   
 43  21  41  1   
 44  21  42  1   
 45  21  43  1   
@<TRIPOS>SUBSTRUCTURE
  1 ****   3 GROUP 4 **** **** 0

# MOE 2024.06 (io_trps.svl 2023.06)
