@<TRIPOS>MOLECULE
NONAME
56 58 1 0 0 
SMALL
USER_CHARGES


@<TRIPOS>ATOM
  1 O        0.3040     0.8440    -1.1160 O.2   1 <1>  -0.5700 
  2 C        0.2490     1.9860    -0.7220 C.2   1 <1>   0.5690 
  3 N       -0.9410     2.6100    -0.4490 N.am  1 <1>  -0.6600 
  4 C        1.5650     2.7510    -0.5540 C.3   1 <1>   0.1810 
  5 C       -0.9800     4.0230     0.0570 C.3   1 <1>   0.3640 
  6 C       -2.2460     1.8900    -0.5030 C.3   1 <1>   0.0600 
  7 O        1.4550     3.8700     0.2910 O.3   1 <1>  -0.5600 
  8 C       -2.0410     4.8170    -0.7220 C.ar  1 <1>  -0.1430 
  9 C        0.3910     4.7380    -0.0440 C.3   1 <1>   0.2610 
 10 C       -3.1100     5.4620    -0.0990 C.ar  1 <1>  -0.1430 
 11 C       -1.9270     4.8910    -2.1060 C.ar  1 <1>  -0.1500 
 12 C        0.4120     5.9910     0.8380 C.2   1 <1>   0.5690 
 13 C       -4.0200     6.1760    -0.8660 C.ar  1 <1>  -0.1500 
 14 C       -3.3330     5.4170     1.4080 C.3   1 <1>  -0.0960 
 15 C       -2.8390     5.6030    -2.8620 C.ar  1 <1>  -0.1500 
 16 O       -0.0020     5.9460     1.9750 O.2   1 <1>  -0.5700 
 17 N        0.8960     7.1520     0.3290 N.am  1 <1>  -0.7300 
 18 C       -3.8880     6.2500    -2.2390 C.ar  1 <1>  -0.1500 
 19 C        1.0450     8.4120     1.0750 C.3   1 <1>   0.3210 
 20 C        2.0720     9.2860     0.3620 C.2   1 <1>   0.1080 
 21 N        2.3220     9.2200    -0.9160 N.2   1 <1>  -0.7070 
 22 C        2.8540    10.2460     0.9950 C.2   1 <1>  -0.1500 
 23 N        3.2740    10.1500    -1.1210 N.pl3 1 <1>   0.3000 
 24 C        3.6180    10.7870     0.0190 C.2   1 <1>  -0.3320 
 25 C        4.6750    11.8850     0.0710 C.3   1 <1>   0.1800 
 26 C        4.8380    12.4000     1.5060 C.3   1 <1>  -0.2400 
 27 C        4.2460    13.0480    -0.8290 C.3   1 <1>  -0.2400 
 28 C        6.0170    11.3230    -0.4100 C.3   1 <1>  -0.2400 
 29 H        1.9110     3.0820    -1.5160 H     1 <1>   0.0800 
 30 H        2.3020     2.0950    -0.1290 H     1 <1>   0.0800 
 31 H       -1.2430     3.9740     1.0970 H     1 <1>   0.0800 
 32 H       -2.7720     2.0160     0.4270 H     1 <1>   0.0800 
 33 H       -2.0950     0.8380    -0.6720 H     1 <1>   0.0800 
 34 H       -2.8480     2.2830    -1.3040 H     1 <1>   0.0800 
 35 H        0.5500     5.0530    -1.0580 H     1 <1>   0.0800 
 36 H       -1.1230     4.3840    -2.6120 H     1 <1>   0.1500 
 37 H       -4.8450     6.6830    -0.3970 H     1 <1>   0.1500 
 38 H       -4.2760     5.8620     1.6720 H     1 <1>   0.0800 
 39 H       -2.5580     5.9600     1.9160 H     1 <1>   0.0800 
 40 H       -3.3420     4.4010     1.7580 H     1 <1>   0.0800 
 41 H       -2.7350     5.6520    -3.9320 H     1 <1>   0.1500 
 42 H        1.3190     7.2310    -0.6020 H     1 <1>   0.3700 
 43 H       -4.6010     6.8080    -2.8210 H     1 <1>   0.1500 
 44 H        0.0990     8.9210     1.1050 H     1 <1>   0.0800 
 45 H        1.3660     8.2050     2.0810 H     1 <1>   0.0800 
 46 H        2.8300    10.4820     2.0440 H     1 <1>   0.1500 
 47 H        3.6740    10.3320    -2.0490 H     1 <1>   0.2700 
 48 H        5.5830    13.1730     1.5490 H     1 <1>   0.0800 
 49 H        5.1400    11.6000     2.1580 H     1 <1>   0.0800 
 50 H        3.9080    12.8040     1.8660 H     1 <1>   0.0800 
 51 H        4.9590    13.8500    -0.7750 H     1 <1>   0.0800 
 52 H        3.2870    13.4210    -0.5150 H     1 <1>   0.0800 
 53 H        4.1680    12.7340    -1.8540 H     1 <1>   0.0800 
 54 H        6.7850    12.0730    -0.3440 H     1 <1>   0.0800 
 55 H        5.9540    10.9940    -1.4310 H     1 <1>   0.0800 
 56 H        6.3050    10.4850     0.2000 H     1 <1>   0.0800 
@<TRIPOS>BOND
  1   1   2  2   
  2   2   3  am  
  3   2   4  1   
  4   3   5  1   
  5   3   6  1   
  6   4   7  1   
  7   4  29  1   
  8   4  30  1   
  9   5   8  1   
 10   5   9  1   
 11   5  31  1   
 12   6  32  1   
 13   6  33  1   
 14   6  34  1   
 15   7   9  1   
 16   8  10  ar  
 17   8  11  ar  
 18   9  12  1   
 19   9  35  1   
 20  10  13  ar  
 21  10  14  1   
 22  11  15  ar  
 23  11  36  1   
 24  12  16  2   
 25  12  17  am  
 26  13  18  ar  
 27  13  37  1   
 28  14  38  1   
 29  14  39  1   
 30  14  40  1   
 31  15  18  ar  
 32  15  41  1   
 33  17  19  1   
 34  17  42  1   
 35  18  43  1   
 36  19  20  1   
 37  19  44  1   
 38  19  45  1   
 39  20  21  2   
 40  20  22  1   
 41  21  23  1   
 42  22  24  2   
 43  22  46  1   
 44  23  24  1   
 45  23  47  1   
 46  24  25  1   
 47  25  26  1   
 48  25  27  1   
 49  25  28  1   
 50  26  48  1   
 51  26  49  1   
 52  26  50  1   
 53  27  51  1   
 54  27  52  1   
 55  27  53  1   
 56  28  54  1   
 57  28  55  1   
 58  28  56  1   
@<TRIPOS>SUBSTRUCTURE
  1 ****  17 GROUP 4 **** **** 0

# MOE 2024.06 (io_trps.svl 2023.06)
