@<TRIPOS>MOLECULE
NONAME
42 43 1 0 0 
SMALL
USER_CHARGES


@<TRIPOS>ATOM
  1 S        0.3150     1.3710    -0.9440 S.o2  1 <1>   1.3330 
  2 O       -0.2150     2.2060    -1.9990 O.2   1 <1>  -0.6500 
  3 O        0.6140    -0.0110    -1.2300 O.2   1 <1>  -0.6500 
  4 N        1.7740     2.0810    -0.4430 N.am  1 <1>  -0.8490 
  5 C       -0.8180     1.4160     0.4600 C.3   1 <1>  -0.0550 
  6 C        2.4950     1.2670     0.5470 C.3   1 <1>   0.1160 
  7 C        2.6550     2.3000    -1.5950 C.3   1 <1>   0.1160 
  8 C       -1.2760     2.7690     1.0660 C.3   1 <1>  -0.0800 
  9 C       -1.8060     3.7780     0.0450 C.3   1 <1>   0.2000 
 10 C       -0.1760     3.5270     1.8120 C.3   1 <1>   0.1400 
 11 O       -2.8070     4.5140     0.6600 O.3   1 <1>  -0.6800 
 12 C       -0.6370     4.7210    -0.2550 C.3   1 <1>   0.1400 
 13 N        0.3170     4.5800     0.8830 N.am  1 <1>  -0.6600 
 14 C        1.6460     4.9670     0.9110 C.2   1 <1>   0.7030 
 15 O        2.3050     4.6280     1.8800 O.2   1 <1>  -0.5700 
 16 C        2.2990     5.7570    -0.1380 C.2   1 <1>   0.2770 
 17 N        3.6780     5.8410    -0.3900 N.pl3 1 <1>  -0.7640 
 18 C        1.7290     6.5820    -1.0580 C.2   1 <1>   0.2000 
 19 C        3.8720     6.6650    -1.4080 C.cat 1 <1>   0.6500 
 20 C        4.7310     5.1500     0.4110 C.3   1 <1>   0.2740 
 21 N        2.7110     7.1240    -1.8400 N.pl3 1 <1>  -0.7000 
 22 H       -1.7100     0.9040     0.1500 H     1 <1>   0.0800 
 23 H       -0.4020     0.8220     1.2500 H     1 <1>   0.0800 
 24 H        3.3800     1.7840     0.8770 H     1 <1>   0.0800 
 25 H        2.7810     0.3180     0.1230 H     1 <1>   0.0800 
 26 H        1.8770     1.0850     1.4080 H     1 <1>   0.0800 
 27 H        3.5810     2.7490    -1.2810 H     1 <1>   0.0800 
 28 H        2.1810     2.9580    -2.3040 H     1 <1>   0.0800 
 29 H        2.8670     1.3640    -2.0880 H     1 <1>   0.0800 
 30 H       -2.0540     2.5230     1.7680 H     1 <1>   0.0800 
 31 H       -2.2250     3.3300    -0.8410 H     1 <1>   0.0800 
 32 H        0.6170     2.8690     2.1240 H     1 <1>   0.0800 
 33 H       -0.5850     4.0070     2.6860 H     1 <1>   0.0800 
 34 H       -2.4620     4.9620     1.4560 H     1 <1>   0.4000 
 35 H       -0.9950     5.7320    -0.3410 H     1 <1>   0.0800 
 36 H       -0.1520     4.4350    -1.1700 H     1 <1>   0.0800 
 37 H        0.6890     6.8240    -1.1960 H     1 <1>   0.1500 
 38 H        4.8360     6.9300    -1.8230 H     1 <1>   0.1500 
 39 H        4.5230     4.0940     0.4610 H     1 <1>   0.0800 
 40 H        4.7440     5.5440     1.4140 H     1 <1>   0.0800 
 41 H        5.7020     5.2930    -0.0320 H     1 <1>   0.0800 
 42 H        2.5720     7.7830    -2.6150 H     1 <1>   0.4500 
@<TRIPOS>BOND
  1   1   2  2   
  2   1   3  2   
  3   1   4  am  
  4   1   5  1   
  5   4   6  1   
  6   4   7  1   
  7   5   8  1   
  8   5  22  1   
  9   5  23  1   
 10   6  24  1   
 11   6  25  1   
 12   6  26  1   
 13   7  27  1   
 14   7  28  1   
 15   7  29  1   
 16   8   9  1   
 17   8  10  1   
 18   8  30  1   
 19   9  11  1   
 20   9  12  1   
 21   9  31  1   
 22  10  13  1   
 23  10  32  1   
 24  10  33  1   
 25  11  34  1   
 26  12  13  1   
 27  12  35  1   
 28  12  36  1   
 29  13  14  am  
 30  14  15  2   
 31  14  16  1   
 32  16  17  1   
 33  16  18  2   
 34  17  19  ar  
 35  17  20  1   
 36  18  21  1   
 37  18  37  1   
 38  19  21  ar  
 39  19  38  1   
 40  20  39  1   
 41  20  40  1   
 42  20  41  1   
 43  21  42  1   
@<TRIPOS>SUBSTRUCTURE
  1 ****  13 GROUP 4 **** **** 0

# MOE 2024.06 (io_trps.svl 2023.06)
