@<TRIPOS>MOLECULE
NONAME
63 66 1 0 0 
SMALL
USER_CHARGES


@<TRIPOS>ATOM
  1 O       -0.7800    -0.6550    -1.5880 O.2   1 <1>  -0.5700 
  2 C        0.0870    -1.2360    -0.9610 C.2   1 <1>   0.5440 
  3 N        1.1230    -0.6040    -0.3240 N.am  1 <1>  -0.6600 
  4 C        0.1810    -2.6560    -0.7880 C.ar  1 <1>   0.0860 
  5 C        2.0210    -1.6330     0.2830 C.3   1 <1>   0.2840 
  6 C        1.6750     0.7240    -0.7530 C.3   1 <1>   0.1400 
  7 C        1.3170    -2.9340    -0.0560 C.ar  1 <1>  -0.1440 
  8 C       -0.6320    -3.6980    -1.2190 C.ar  1 <1>  -0.1500 
  9 C        2.0550     1.7300     0.3810 C.3   1 <1>   0.0000 
 10 C        1.6680    -4.2310     0.2660 C.ar  1 <1>  -0.1500 
 11 C       -0.2920    -5.0020    -0.9020 C.ar  1 <1>  -0.1500 
 12 C        2.4440     3.0810    -0.2800 C.3   1 <1>  -0.1600 
 13 C        3.2990     1.2610     1.1870 C.3   1 <1>  -0.1600 
 14 C        0.8760     1.9380     1.3860 C.3   1 <1>  -0.0990 
 15 C        0.8520    -5.2680    -0.1620 C.ar  1 <1>  -0.1500 
 16 C        3.7250     3.0180    -1.1310 C.3   1 <1>  -0.1600 
 17 C        4.5830     1.1450     0.3490 C.3   1 <1>  -0.1600 
 18 C       -0.0550     3.1250     1.1380 C.2   1 <1>   0.5690 
 19 C        4.9120     2.4830    -0.3210 C.3   1 <1>  -0.1600 
 20 O        0.1010     4.0960     1.8370 O.2   1 <1>  -0.5700 
 21 N       -1.0530     3.1150     0.1960 N.am  1 <1>  -0.6600 
 22 C       -1.8420     4.3510    -0.1090 C.3   1 <1>   0.1400 
 23 C       -1.5520     1.8960    -0.5050 C.3   1 <1>   0.1400 
 24 C       -3.3310     4.1760     0.2650 C.3   1 <1>   0.3430 
 25 C       -3.0840     1.8900    -0.6790 C.3   1 <1>   0.3430 
 26 N       -3.7480     2.7290     0.3820 N.4   1 <1>  -0.9590 
 27 C       -5.2380     2.5920     0.4220 C.3   1 <1>   0.3430 
 28 C       -5.6960     1.1880     0.8400 C.3   1 <1>   0.1200 
 29 O       -7.0770     1.1960     0.8970 O.3   1 <1>  -0.6800 
 30 H        2.0730    -1.5110     1.3500 H     1 <1>   0.0800 
 31 H        3.0020    -1.5970    -0.1580 H     1 <1>   0.0800 
 32 H        0.9560     1.1960    -1.3950 H     1 <1>   0.0800 
 33 H        2.5320     0.5330    -1.3710 H     1 <1>   0.0800 
 34 H       -1.5130    -3.4790    -1.7950 H     1 <1>   0.1500 
 35 H        2.5550    -4.4400     0.8380 H     1 <1>   0.1500 
 36 H       -0.9160    -5.8160    -1.2310 H     1 <1>   0.1500 
 37 H        2.5970     3.8180     0.4910 H     1 <1>   0.0800 
 38 H        1.6440     3.4360    -0.9050 H     1 <1>   0.0800 
 39 H        3.1080     0.3350     1.6890 H     1 <1>   0.0800 
 40 H        3.4980     1.9830     1.9620 H     1 <1>   0.0800 
 41 H        1.2930     2.1160     2.3610 H     1 <1>   0.0800 
 42 H        0.3030     1.0400     1.4990 H     1 <1>   0.0800 
 43 H        1.1080    -6.2860     0.0790 H     1 <1>   0.1500 
 44 H        3.9610     4.0060    -1.4870 H     1 <1>   0.0800 
 45 H        3.5700     2.3980    -1.9960 H     1 <1>   0.0800 
 46 H        4.4840     0.3780    -0.3970 H     1 <1>   0.0800 
 47 H        5.4010     0.8650     0.9910 H     1 <1>   0.0800 
 48 H        5.1700     3.2020     0.4380 H     1 <1>   0.0800 
 49 H        5.7670     2.3670    -0.9650 H     1 <1>   0.0800 
 50 H       -1.7630     4.5570    -1.1620 H     1 <1>   0.0800 
 51 H       -1.4420     5.2080     0.4070 H     1 <1>   0.0800 
 52 H       -1.2850     1.0250     0.0630 H     1 <1>   0.0800 
 53 H       -1.0920     1.8220    -1.4740 H     1 <1>   0.0800 
 54 H       -3.9300     4.6760    -0.4780 H     1 <1>   0.0800 
 55 H       -3.5060     4.6730     1.2060 H     1 <1>   0.0800 
 56 H       -3.4300     0.8700    -0.6400 H     1 <1>   0.0800 
 57 H       -3.3260     2.2800    -1.6540 H     1 <1>   0.0800 
 58 H       -3.3500     2.4130     1.2790 H     1 <1>   0.4500 
 59 H       -5.6500     2.8180    -0.5480 H     1 <1>   0.0800 
 60 H       -5.6410     3.2960     1.1320 H     1 <1>   0.0800 
 61 H       -5.3240     0.9350     1.8190 H     1 <1>   0.0800 
 62 H       -5.4000     0.4450     0.1200 H     1 <1>   0.0800 
 63 H       -7.4360     0.3250     1.1740 H     1 <1>   0.4000 
@<TRIPOS>BOND
  1   1   2  2   
  2   2   3  am  
  3   2   4  1   
  4   3   5  1   
  5   3   6  1   
  6   4   7  ar  
  7   4   8  ar  
  8   5   7  1   
  9   5  30  1   
 10   5  31  1   
 11   6   9  1   
 12   6  32  1   
 13   6  33  1   
 14   7  10  ar  
 15   8  11  ar  
 16   8  34  1   
 17   9  12  1   
 18   9  13  1   
 19   9  14  1   
 20  10  15  ar  
 21  10  35  1   
 22  11  15  ar  
 23  11  36  1   
 24  12  16  1   
 25  12  37  1   
 26  12  38  1   
 27  13  17  1   
 28  13  39  1   
 29  13  40  1   
 30  14  18  1   
 31  14  41  1   
 32  14  42  1   
 33  15  43  1   
 34  16  19  1   
 35  16  44  1   
 36  16  45  1   
 37  17  19  1   
 38  17  46  1   
 39  17  47  1   
 40  18  20  2   
 41  18  21  am  
 42  19  48  1   
 43  19  49  1   
 44  21  22  1   
 45  21  23  1   
 46  22  24  1   
 47  22  50  1   
 48  22  51  1   
 49  23  25  1   
 50  23  52  1   
 51  23  53  1   
 52  24  26  1   
 53  24  54  1   
 54  24  55  1   
 55  25  26  1   
 56  25  56  1   
 57  25  57  1   
 58  26  27  1   
 59  26  58  1   
 60  27  28  1   
 61  27  59  1   
 62  27  60  1   
 63  28  29  1   
 64  28  61  1   
 65  28  62  1   
 66  29  63  1   
@<TRIPOS>SUBSTRUCTURE
  1 ****   3 GROUP 4 **** **** 0

# MOE 2024.06 (io_trps.svl 2023.06)
