@<TRIPOS>MOLECULE
NONAME
44 46 1 0 0 
SMALL
USER_CHARGES


@<TRIPOS>ATOM
  1 CL       0.0320     0.8070     1.3510 Cl    1 <1>  -0.1770 
  2 C       -1.6130     1.0210     0.8140 C.ar  1 <1>   0.1770 
  3 C       -2.3100    -0.0580     0.3050 C.ar  1 <1>  -0.1500 
  4 C       -2.2000     2.2680     0.9000 C.ar  1 <1>  -0.1500 
  5 C       -3.6140     0.1190    -0.1220 C.ar  1 <1>  -0.1500 
  6 C       -3.5050     2.4320     0.4720 C.ar  1 <1>  -0.1500 
  7 C       -4.2430     1.3640    -0.0460 C.ar  1 <1>   0.0530 
  8 C       -5.5980     1.5650    -0.4960 C.2   1 <1>   0.0870 
  9 O       -5.9060     2.6760    -1.1190 O.3   1 <1>  -0.0190 
 10 C       -6.7350     0.8160    -0.4400 C.2   1 <1>  -0.0860 
 11 N       -7.1570     2.7270    -1.4910 N.2   1 <1>  -0.4100 
 12 C       -7.6750     1.6280    -1.0880 C.2   1 <1>   0.3720 
 13 C       -6.9910    -0.4750     0.1230 C.2   1 <1>   0.7160 
 14 N       -9.0200     1.3630    -1.3100 N.pl3 1 <1>  -0.8520 
 15 O       -6.2430    -0.9730     0.9420 O.2   1 <1>  -0.5700 
 16 N       -8.0990    -1.1640    -0.2540 N.am  1 <1>  -0.6550 
 17 C       -9.8890     1.6050    -0.1240 C.3   1 <1>   0.2090 
 18 C       -8.5880    -2.4160     0.3490 C.3   1 <1>   0.2250 
 19 C      -11.2470     0.9300    -0.3200 C.3   1 <1>   0.1200 
 20 C       -9.7550    -3.0500    -0.4490 C.3   1 <1>   0.0000 
 21 C       -9.5920    -2.1780     1.5070 C.3   1 <1>   0.0000 
 22 O      -11.9790     1.0630     0.8550 O.3   1 <1>  -0.5600 
 23 C      -10.4350    -3.3360     0.9140 C.3   1 <1>   0.0000 
 24 C      -13.2160     0.4280     0.8270 C.3   1 <1>   0.0400 
 25 H       -1.8360    -1.0210     0.2470 H     1 <1>   0.1500 
 26 H       -1.6400     3.0950     1.2990 H     1 <1>   0.1500 
 27 H       -4.1510    -0.7230    -0.5200 H     1 <1>   0.1500 
 28 H       -3.9650     3.4030     0.5390 H     1 <1>   0.1500 
 29 H       -9.3200     2.0050    -2.0560 H     1 <1>   0.4000 
 30 H       -8.7530    -0.6550    -0.8590 H     1 <1>   0.3700 
 31 H      -10.0290     2.6640     0.0100 H     1 <1>   0.0800 
 32 H       -9.4210     1.2030     0.7590 H     1 <1>   0.0800 
 33 H       -7.8060    -3.1140     0.5950 H     1 <1>   0.0000 
 34 H      -11.1150    -0.1180    -0.5230 H     1 <1>   0.0800 
 35 H      -11.7900     1.4010    -1.1200 H     1 <1>   0.0800 
 36 H       -9.4830    -3.9450    -0.9810 H     1 <1>   0.0000 
 37 H      -10.3080    -2.3410    -1.0410 H     1 <1>   0.0000 
 38 H      -10.1010    -1.2320     1.4500 H     1 <1>   0.0000 
 39 H       -9.1940    -2.4010     2.4810 H     1 <1>   0.0000 
 40 H      -10.1620    -4.2950     1.3190 H     1 <1>   0.0000 
 41 H      -11.4940    -3.1490     0.9190 H     1 <1>   0.0000 
 42 H      -13.7010     0.5980     1.7720 H     1 <1>   0.0800 
 43 H      -13.0720    -0.6280     0.6790 H     1 <1>   0.0800 
 44 H      -13.8130     0.8450     0.0340 H     1 <1>   0.0800 
@<TRIPOS>BOND
  1   1   2  1   
  2   2   3  ar  
  3   2   4  ar  
  4   3   5  ar  
  5   3  25  1   
  6   4   6  ar  
  7   4  26  1   
  8   5   7  ar  
  9   5  27  1   
 10   6   7  ar  
 11   6  28  1   
 12   7   8  1   
 13   8   9  1   
 14   8  10  2   
 15   9  11  1   
 16  10  12  1   
 17  10  13  1   
 18  11  12  2   
 19  12  14  1   
 20  13  15  2   
 21  13  16  am  
 22  14  17  1   
 23  14  29  1   
 24  16  18  1   
 25  16  30  1   
 26  17  19  1   
 27  17  31  1   
 28  17  32  1   
 29  18  20  1   
 30  18  21  1   
 31  18  33  1   
 32  19  22  1   
 33  19  34  1   
 34  19  35  1   
 35  20  23  1   
 36  20  36  1   
 37  20  37  1   
 38  21  23  1   
 39  21  38  1   
 40  21  39  1   
 41  22  24  1   
 42  23  40  1   
 43  23  41  1   
 44  24  42  1   
 45  24  43  1   
 46  24  44  1   
@<TRIPOS>SUBSTRUCTURE
  1 ****  10 GROUP 4 **** **** 0

# MOE 2024.06 (io_trps.svl 2023.06)
