@<TRIPOS>MOLECULE
NONAME
58 60 1 0 0 
SMALL
USER_CHARGES


@<TRIPOS>ATOM
  1 O       -1.0280     0.7110    -2.0280 O.2   1 <1>  -0.5700 
  2 C       -1.5490     1.4590    -1.2240 C.2   1 <1>   0.5440 
  3 N       -2.5190     0.9680    -0.3730 N.am  1 <1>  -0.6600 
  4 C       -1.1220     2.8450    -1.1920 C.ar  1 <1>   0.0860 
  5 C       -3.1100    -0.3870    -0.5670 C.3   1 <1>   0.1400 
  6 C       -2.9080     1.6210     0.9090 C.3   1 <1>   0.1400 
  7 C        0.2110     3.2000    -1.1260 C.ar  1 <1>  -0.1500 
  8 C       -2.0070     3.9120    -1.2520 C.ar  1 <1>  -0.1500 
  9 C       -2.7100    -1.2990     0.5970 C.3   1 <1>  -0.1600 
 10 C       -2.5120     0.7250     2.0880 C.3   1 <1>  -0.1600 
 11 C        0.6140     4.5320    -1.1250 C.ar  1 <1>   0.4100 
 12 C       -1.5320     5.2060    -1.2210 C.ar  1 <1>   0.1600 
 13 C       -3.0970    -0.6880     1.9510 C.3   1 <1>  -0.1600 
 14 N       -0.2540     5.5430    -1.1430 N.ar  1 <1>  -0.6200 
 15 N        1.9710     4.8580    -1.1010 N.pl3 1 <1>  -0.8380 
 16 C        2.4000     6.2840    -0.9790 C.3   1 <1>   0.2090 
 17 C        2.9210     3.9970    -1.8750 C.3   1 <1>   0.1290 
 18 C        2.0180     6.8460     0.4040 C.3   1 <1>   0.3430 
 19 N        1.7620     8.3330     0.3950 N.4   1 <1>  -0.9590 
 20 C        1.8370     8.9200     1.7680 C.3   1 <1>   0.4230 
 21 C        0.4340     8.5610    -0.2690 C.3   1 <1>   0.2630 
 22 C        1.5710    10.4270     1.7400 C.3   1 <1>  -0.1600 
 23 C        3.2870     8.8890     2.2600 C.3   1 <1>  -0.1600 
 24 C        2.8670    11.0710     1.2360 C.3   1 <1>  -0.1600 
 25 C        3.9830    10.0850     1.5970 C.3   1 <1>  -0.1600 
 26 H       -2.7790    -0.8200    -1.4960 H     1 <1>   0.0800 
 27 H       -4.1810    -0.2970    -0.6100 H     1 <1>   0.0800 
 28 H       -3.9730     1.7790     0.9110 H     1 <1>   0.0800 
 29 H       -2.4250     2.5750     1.0200 H     1 <1>   0.0800 
 30 H        0.9440     2.4180    -1.0780 H     1 <1>   0.1500 
 31 H       -3.0620     3.7190    -1.3270 H     1 <1>   0.1500 
 32 H       -1.6470    -1.4580     0.5580 H     1 <1>   0.0800 
 33 H       -3.1890    -2.2550     0.4800 H     1 <1>   0.0800 
 34 H       -2.8550     1.1700     3.0050 H     1 <1>   0.0800 
 35 H       -1.4380     0.6670     2.1330 H     1 <1>   0.0800 
 36 H       -2.2470     6.0100    -1.2660 H     1 <1>   0.1500 
 37 H       -2.7330    -1.3110     2.7490 H     1 <1>   0.0800 
 38 H       -4.1700    -0.6400     2.0280 H     1 <1>   0.0800 
 39 H        1.9320     6.8450    -1.7690 H     1 <1>   0.0800 
 40 H        3.4670     6.3590    -1.0970 H     1 <1>   0.0800 
 41 H        2.3940     3.4320    -2.6260 H     1 <1>   0.0800 
 42 H        3.4150     3.3120    -1.2070 H     1 <1>   0.0800 
 43 H        3.6650     4.5910    -2.3760 H     1 <1>   0.0800 
 44 H        2.8060     6.5970     1.0910 H     1 <1>   0.0800 
 45 H        1.1250     6.3430     0.7380 H     1 <1>   0.0800 
 46 H        2.4980     8.8040    -0.1470 H     1 <1>   0.4500 
 47 H        1.1680     8.4070     2.4410 H     1 <1>   0.0800 
 48 H       -0.3610     8.1670     0.3440 H     1 <1>   0.0800 
 49 H        0.3960     8.0600    -1.2230 H     1 <1>   0.0800 
 50 H        0.2620     9.6110    -0.4340 H     1 <1>   0.0800 
 51 H        1.4120    10.7500     2.7550 H     1 <1>   0.0800 
 52 H        0.7090    10.7310     1.1760 H     1 <1>   0.0800 
 53 H        3.8090     7.9680     2.0860 H     1 <1>   0.0800 
 54 H        3.2760     9.0560     3.3240 H     1 <1>   0.0800 
 55 H        3.0260    12.0310     1.6990 H     1 <1>   0.0800 
 56 H        2.8280    11.2090     0.1680 H     1 <1>   0.0800 
 57 H        4.5050     9.7750     0.7070 H     1 <1>   0.0800 
 58 H        4.6960    10.5320     2.2710 H     1 <1>   0.0800 
@<TRIPOS>BOND
  1   1   2  2   
  2   2   3  am  
  3   2   4  1   
  4   3   5  1   
  5   3   6  1   
  6   4   7  ar  
  7   4   8  ar  
  8   5   9  1   
  9   5  26  1   
 10   5  27  1   
 11   6  10  1   
 12   6  28  1   
 13   6  29  1   
 14   7  11  ar  
 15   7  30  1   
 16   8  12  ar  
 17   8  31  1   
 18   9  13  1   
 19   9  32  1   
 20   9  33  1   
 21  10  13  1   
 22  10  34  1   
 23  10  35  1   
 24  11  14  ar  
 25  11  15  1   
 26  12  14  ar  
 27  12  36  1   
 28  13  37  1   
 29  13  38  1   
 30  15  16  1   
 31  15  17  1   
 32  16  18  1   
 33  16  39  1   
 34  16  40  1   
 35  17  41  1   
 36  17  42  1   
 37  17  43  1   
 38  18  19  1   
 39  18  44  1   
 40  18  45  1   
 41  19  20  1   
 42  19  21  1   
 43  19  46  1   
 44  20  22  1   
 45  20  23  1   
 46  20  47  1   
 47  21  48  1   
 48  21  49  1   
 49  21  50  1   
 50  22  24  1   
 51  22  51  1   
 52  22  52  1   
 53  23  25  1   
 54  23  53  1   
 55  23  54  1   
 56  24  25  1   
 57  24  55  1   
 58  24  56  1   
 59  25  57  1   
 60  25  58  1   
@<TRIPOS>SUBSTRUCTURE
  1 ****  11 GROUP 4 **** **** 0

# MOE 2024.06 (io_trps.svl 2023.06)
