@<TRIPOS>MOLECULE
NONAME
51 53 1 0 0 
SMALL
USER_CHARGES


@<TRIPOS>ATOM
  1 O       -2.2700     0.6960     2.2520 O.2   1 <1>  -0.5700 
  2 C       -2.1680     1.2280     1.1740 C.2   1 <1>   0.5690 
  3 N       -2.1800     0.5160     0.0050 N.am  1 <1>  -0.6600 
  4 C       -1.9960     2.7360     1.1660 C.3   1 <1>  -0.0990 
  5 C       -2.2300    -0.9880     0.0460 C.3   1 <1>   0.3640 
  6 C       -2.1970     1.1460    -1.3550 C.3   1 <1>   0.1400 
  7 C       -0.5110     3.1120     1.1660 C.3   1 <1>  -0.0170 
  8 C       -0.8250    -1.6110     0.0080 C.ar  1 <1>  -0.1440 
  9 C       -3.1310    -1.5970    -1.0760 C.3   1 <1>   0.2000 
 10 C       -2.2790     0.1090    -2.4840 C.3   1 <1>   0.1200 
 11 C       -0.3460     4.6150     1.0140 C.ar  1 <1>  -0.1440 
 12 C       -0.6920    -2.9300     0.4220 C.ar  1 <1>  -0.1500 
 13 C        0.3160    -0.9330    -0.4100 C.ar  1 <1>  -0.1500 
 14 O       -3.3160    -0.7770    -2.2100 O.3   1 <1>  -0.5600 
 15 C       -4.5300    -1.9330    -0.5470 C.3   1 <1>   0.1200 
 16 C       -0.1420     5.1730    -0.2380 C.ar  1 <1>  -0.1500 
 17 C       -0.4040     5.4410     2.1250 C.ar  1 <1>  -0.1500 
 18 C        0.5390    -3.5630     0.4050 C.ar  1 <1>  -0.1500 
 19 C        1.5490    -1.5630    -0.4290 C.ar  1 <1>  -0.1500 
 20 O       -4.4690    -3.0330     0.3050 O.3   1 <1>  -0.6800 
 21 C        0.0040     6.5430    -0.3890 C.ar  1 <1>   0.0820 
 22 C       -0.2590     6.8110     1.9840 C.ar  1 <1>  -0.1500 
 23 C        1.6610    -2.8800    -0.0240 C.ar  1 <1>  -0.1500 
 24 O        0.2000     7.0000    -1.6520 O.3   1 <1>  -0.3620 
 25 C       -0.0560     7.3650     0.7330 C.ar  1 <1>  -0.1500 
 26 C        0.3880     8.3730    -1.9110 C.3   1 <1>   0.0400 
 27 H       -2.4930     3.1720     0.3220 H     1 <1>   0.0800 
 28 H       -2.4590     3.1370     2.0490 H     1 <1>   0.0800 
 29 H       -2.6540    -1.2880     0.9900 H     1 <1>   0.0800 
 30 H       -3.0560     1.7900    -1.4300 H     1 <1>   0.0800 
 31 H       -1.3150     1.7460    -1.4890 H     1 <1>   0.0800 
 32 H       -0.0030     2.6110     0.3610 H     1 <1>   0.0800 
 33 H       -0.0570     2.7840     2.0860 H     1 <1>   0.0800 
 34 H       -2.6830    -2.5060    -1.4350 H     1 <1>   0.0800 
 35 H       -1.3610    -0.4430    -2.5860 H     1 <1>   0.0800 
 36 H       -2.4970     0.5940    -3.4190 H     1 <1>   0.0800 
 37 H       -1.5540    -3.4760     0.7690 H     1 <1>   0.1500 
 38 H        0.2660     0.0930    -0.7190 H     1 <1>   0.1500 
 39 H       -5.1960    -2.1760    -1.3570 H     1 <1>   0.0800 
 40 H       -4.9260    -1.1010     0.0100 H     1 <1>   0.0800 
 41 H       -0.0920     4.5540    -1.1140 H     1 <1>   0.1500 
 42 H       -0.5620     5.0210     3.1030 H     1 <1>   0.1500 
 43 H        0.6230    -4.5860     0.7290 H     1 <1>   0.1500 
 44 H        2.4220    -1.0260    -0.7550 H     1 <1>   0.1500 
 45 H       -4.4210    -3.8640    -0.2070 H     1 <1>   0.4000 
 46 H       -0.3050     7.4450     2.8520 H     1 <1>   0.1500 
 47 H        2.6190    -3.3700    -0.0380 H     1 <1>   0.1500 
 48 H        0.0520     8.4290     0.6520 H     1 <1>   0.1500 
 49 H        0.5340     8.4970    -2.9690 H     1 <1>   0.0800 
 50 H        1.2600     8.7130    -1.3800 H     1 <1>   0.0800 
 51 H       -0.4890     8.9110    -1.5980 H     1 <1>   0.0800 
@<TRIPOS>BOND
  1   1   2  2   
  2   2   3  am  
  3   2   4  1   
  4   3   5  1   
  5   3   6  1   
  6   4   7  1   
  7   4  27  1   
  8   4  28  1   
  9   5   8  1   
 10   5   9  1   
 11   5  29  1   
 12   6  10  1   
 13   6  30  1   
 14   6  31  1   
 15   7  11  1   
 16   7  32  1   
 17   7  33  1   
 18   8  12  ar  
 19   8  13  ar  
 20   9  14  1   
 21   9  15  1   
 22   9  34  1   
 23  10  14  1   
 24  10  35  1   
 25  10  36  1   
 26  11  16  ar  
 27  11  17  ar  
 28  12  18  ar  
 29  12  37  1   
 30  13  19  ar  
 31  13  38  1   
 32  15  20  1   
 33  15  39  1   
 34  15  40  1   
 35  16  21  ar  
 36  16  41  1   
 37  17  22  ar  
 38  17  42  1   
 39  18  23  ar  
 40  18  43  1   
 41  19  23  ar  
 42  19  44  1   
 43  20  45  1   
 44  21  24  1   
 45  21  25  ar  
 46  22  25  ar  
 47  22  46  1   
 48  23  47  1   
 49  24  26  1   
 50  25  48  1   
 51  26  49  1   
 52  26  50  1   
 53  26  51  1   
@<TRIPOS>SUBSTRUCTURE
  1 ****   3 GROUP 4 **** **** 0

# MOE 2024.06 (io_trps.svl 2023.06)
