@<TRIPOS>MOLECULE
NONAME
46 46 1 0 0 
SMALL
USER_CHARGES


@<TRIPOS>ATOM
  1 O        4.1140    -0.6850     0.5490 O.2   1 <1>  -0.5700 
  2 C        2.9440    -1.0180     0.7120 C.2   1 <1>   0.5690 
  3 N        1.9740    -0.0800     0.8990 N.am  1 <1>  -0.7300 
  4 C        2.5500    -2.5190     0.6840 C.3   1 <1>   0.2810 
  5 C        2.2180     1.3780     0.9780 C.3   1 <1>   0.1400 
  6 N        1.1530    -2.7500     0.2910 N.am  1 <1>  -0.7300 
  7 C        2.7830    -3.1560     2.0640 C.3   1 <1>  -0.1600 
  8 C        2.2870     1.9800    -0.4260 C.3   1 <1>   0.0200 
  9 C        0.6120    -2.5660    -0.9050 C.2   1 <1>   0.5690 
 10 C        2.5550    -4.6780     2.0860 C.3   1 <1>  -0.1600 
 11 C        2.9480     3.3430    -0.3680 C.2   1 <1>   0.0070 
 12 O       -0.5840    -2.7480    -1.0400 O.2   1 <1>  -0.5700 
 13 C        1.4660    -2.1290    -2.0830 C.3   1 <1>  -0.1790 
 14 C        2.8720    -5.2580     3.4670 C.3   1 <1>  -0.2400 
 15 N        2.2930     4.4520    -0.3810 N.2   1 <1>  -0.3380 
 16 N        4.2700     3.5480    -0.2870 N.pl3 1 <1>   0.0480 
 17 N        3.1890     5.4360    -0.3070 N.2   1 <1>  -0.3380 
 18 C        4.3490     4.8810    -0.2530 C.2   1 <1>   0.0360 
 19 C        5.3860     2.5650    -0.2360 C.3   1 <1>   0.1760 
 20 C        6.1340     2.6770     1.0970 C.3   1 <1>  -0.2400 
 21 C        6.3370     2.7760    -1.4190 C.3   1 <1>  -0.2400 
 22 H        0.9960    -0.3880     0.9430 H     1 <1>   0.3700 
 23 H        3.2110    -3.0130    -0.0290 H     1 <1>   0.0800 
 24 H        3.1520     1.5430     1.4900 H     1 <1>   0.0800 
 25 H        1.4390     1.8560     1.5480 H     1 <1>   0.0800 
 26 H        0.5180    -3.0990     0.9900 H     1 <1>   0.3700 
 27 H        2.1500    -2.6770     2.7900 H     1 <1>   0.0800 
 28 H        3.8020    -2.9600     2.3510 H     1 <1>   0.0800 
 29 H        1.2920     2.0830    -0.8200 H     1 <1>   0.0800 
 30 H        2.8480     1.3430    -1.0850 H     1 <1>   0.0800 
 31 H        3.1880    -5.1500     1.3530 H     1 <1>   0.0800 
 32 H        1.5330    -4.9100     1.8390 H     1 <1>   0.0800 
 33 H        2.2780    -2.8400    -2.2310 H     1 <1>   0.0800 
 34 H        1.8700    -1.1360    -1.8990 H     1 <1>   0.0800 
 35 H        0.8470    -2.1030    -2.9790 H     1 <1>   0.0800 
 36 H        3.8990    -5.0720     3.7290 H     1 <1>   0.0800 
 37 H        2.7100    -6.3220     3.4650 H     1 <1>   0.0800 
 38 H        2.2380    -4.8190     4.2170 H     1 <1>   0.0800 
 39 H        5.2790     5.4130    -0.1860 H     1 <1>   0.1500 
 40 H        4.9740     1.5750    -0.3080 H     1 <1>   0.0800 
 41 H        6.5950     3.6430     1.2020 H     1 <1>   0.0800 
 42 H        6.9010     1.9250     1.1490 H     1 <1>   0.0800 
 43 H        5.4560     2.5170     1.9170 H     1 <1>   0.0800 
 44 H        6.8080     3.7420    -1.3690 H     1 <1>   0.0800 
 45 H        5.7980     2.6920    -2.3470 H     1 <1>   0.0800 
 46 H        7.1060     2.0240    -1.4080 H     1 <1>   0.0800 
@<TRIPOS>BOND
  1   1   2  2   
  2   2   3  am  
  3   2   4  1   
  4   3   5  1   
  5   3  22  1   
  6   4   6  1   
  7   4   7  1   
  8   4  23  1   
  9   5   8  1   
 10   5  24  1   
 11   5  25  1   
 12   6   9  am  
 13   6  26  1   
 14   7  10  1   
 15   7  27  1   
 16   7  28  1   
 17   8  11  1   
 18   8  29  1   
 19   8  30  1   
 20   9  12  2   
 21   9  13  1   
 22  10  14  1   
 23  10  31  1   
 24  10  32  1   
 25  11  15  2   
 26  11  16  1   
 27  13  33  1   
 28  13  34  1   
 29  13  35  1   
 30  14  36  1   
 31  14  37  1   
 32  14  38  1   
 33  15  17  1   
 34  16  18  1   
 35  16  19  1   
 36  17  18  2   
 37  18  39  1   
 38  19  20  1   
 39  19  21  1   
 40  19  40  1   
 41  20  41  1   
 42  20  42  1   
 43  20  43  1   
 44  21  44  1   
 45  21  45  1   
 46  21  46  1   
@<TRIPOS>SUBSTRUCTURE
  1 ****   3 GROUP 4 **** **** 0

# MOE 2024.06 (io_trps.svl 2023.06)
