@<TRIPOS>MOLECULE
NONAME
53 57 1 0 0 
SMALL
USER_CHARGES


@<TRIPOS>ATOM
  1 O       -0.8630    -0.9390     2.6300 O.2   1 <1>  -0.5700 
  2 C       -1.4020    -0.7820     1.5530 C.2   1 <1>   0.5440 
  3 N       -1.5990    -1.7800     0.6470 N.am  1 <1>  -0.6600 
  4 C       -1.9130     0.4530     1.0430 C.ar  1 <1>   0.0860 
  5 C       -1.1940    -3.1960     0.8340 C.3   1 <1>   0.2200 
  6 C       -2.2800    -1.2420    -0.5650 C.3   1 <1>   0.2840 
  7 C       -2.4400     0.2290    -0.2100 C.ar  1 <1>   0.1660 
  8 C       -1.9550     1.7320     1.5600 C.ar  1 <1>  -0.1500 
  9 C       -0.2470    -3.6500    -0.2740 C.3   1 <1>  -0.1600 
 10 C       -2.3930    -4.1340     0.7150 C.3   1 <1>  -0.1600 
 11 N       -2.9960     1.1350    -0.9890 N.ar  1 <1>  -0.6200 
 12 C       -2.5260     2.7400     0.7880 C.ar  1 <1>   0.0860 
 13 C       -1.1160    -4.2570    -1.3830 C.3   1 <1>  -0.1600 
 14 C       -2.4810    -4.5610    -0.7550 C.3   1 <1>  -0.1600 
 15 C       -3.0320     2.3700    -0.4790 C.ar  1 <1>   0.3930 
 16 C       -2.5650     4.0940     1.3120 C.2   1 <1>   0.5440 
 17 O       -3.6000     3.3150    -1.2530 O.3   1 <1>  -0.3630 
 18 O       -2.4680     4.2750     2.5130 O.2   1 <1>  -0.5700 
 19 N       -2.6760     5.1810     0.4920 N.am  1 <1>  -0.4930 
 20 C       -4.1870     3.0360    -2.5110 C.3   1 <1>   0.0400 
 21 C       -2.6940     6.5670     0.7950 C.2   1 <1>   0.0630 
 22 C       -2.6390     7.5590    -0.1260 C.2   1 <1>  -0.0680 
 23 C       -2.7920     7.2220     2.0260 C.2   1 <1>   0.1390 
 24 N       -2.7310     8.7220     0.5710 N.pl3 1 <1>   0.3140 
 25 N       -2.5060     7.4940    -1.5350 N.pl3 1 <1>  -0.8530 
 26 N       -2.8130     8.5190     1.9070 N.2   1 <1>  -0.7070 
 27 C       -2.6810    10.0490    -0.0600 C.3   1 <1>   0.0960 
 28 C       -2.2020     8.7790    -2.2220 C.3   1 <1>   0.2090 
 29 C       -2.9790     9.9320    -1.5680 C.3   1 <1>  -0.1600 
 30 H       -0.7250    -3.3030     1.7990 H     1 <1>   0.0800 
 31 H       -3.2390    -1.7060    -0.7060 H     1 <1>   0.0800 
 32 H       -1.6630    -1.3580    -1.4370 H     1 <1>   0.0800 
 33 H       -1.5510     1.9290     2.5390 H     1 <1>   0.1500 
 34 H        0.3830    -4.4260     0.1250 H     1 <1>   0.0800 
 35 H        0.3820    -2.8510    -0.6250 H     1 <1>   0.0800 
 36 H       -3.3010    -3.6820     1.0740 H     1 <1>   0.0800 
 37 H       -2.1920    -5.0070     1.3110 H     1 <1>   0.0800 
 38 H       -0.6610    -5.1520    -1.7720 H     1 <1>   0.0800 
 39 H       -1.2320    -3.5560    -2.1910 H     1 <1>   0.0800 
 40 H       -3.2500    -4.0040    -1.2600 H     1 <1>   0.0800 
 41 H       -2.7160    -5.6090    -0.8300 H     1 <1>   0.0800 
 42 H       -2.8980     4.9840    -0.4870 H     1 <1>   0.3700 
 43 H       -4.5800     3.9520    -2.9140 H     1 <1>   0.0800 
 44 H       -4.9820     2.3230    -2.3740 H     1 <1>   0.0800 
 45 H       -3.4340     2.6360    -3.1670 H     1 <1>   0.0800 
 46 H       -2.8490     6.7100     2.9710 H     1 <1>   0.1500 
 47 H       -1.8620     6.7510    -1.8330 H     1 <1>   0.4000 
 48 H       -1.6970    10.4490     0.0970 H     1 <1>   0.0800 
 49 H       -3.3990    10.6870     0.4220 H     1 <1>   0.0800 
 50 H       -2.4800     8.6970    -3.2590 H     1 <1>   0.0800 
 51 H       -1.1440     8.9690    -2.1650 H     1 <1>   0.0800 
 52 H       -2.7320    10.8580    -2.0540 H     1 <1>   0.0800 
 53 H       -4.0320     9.7620    -1.7080 H     1 <1>   0.0800 
@<TRIPOS>BOND
  1   1   2  2   
  2   2   3  am  
  3   2   4  1   
  4   3   5  1   
  5   3   6  1   
  6   4   7  ar  
  7   4   8  ar  
  8   5   9  1   
  9   5  10  1   
 10   5  30  1   
 11   6   7  1   
 12   6  31  1   
 13   6  32  1   
 14   7  11  ar  
 15   8  12  ar  
 16   8  33  1   
 17   9  13  1   
 18   9  34  1   
 19   9  35  1   
 20  10  14  1   
 21  10  36  1   
 22  10  37  1   
 23  11  15  ar  
 24  12  15  ar  
 25  12  16  1   
 26  13  14  1   
 27  13  38  1   
 28  13  39  1   
 29  14  40  1   
 30  14  41  1   
 31  15  17  1   
 32  16  18  2   
 33  16  19  am  
 34  17  20  1   
 35  19  21  1   
 36  19  42  1   
 37  20  43  1   
 38  20  44  1   
 39  20  45  1   
 40  21  22  2   
 41  21  23  1   
 42  22  24  1   
 43  22  25  1   
 44  23  26  2   
 45  23  46  1   
 46  24  26  1   
 47  24  27  1   
 48  25  28  1   
 49  25  47  1   
 50  27  29  1   
 51  27  48  1   
 52  27  49  1   
 53  28  29  1   
 54  28  50  1   
 55  28  51  1   
 56  29  52  1   
 57  29  53  1   
@<TRIPOS>SUBSTRUCTURE
  1 ****  12 GROUP 4 **** **** 0

# MOE 2024.06 (io_trps.svl 2023.06)
