@<TRIPOS>MOLECULE
NONAME
54 56 1 0 0 
SMALL
USER_CHARGES


@<TRIPOS>ATOM
  1 O       -2.8300     0.2680     0.7370 O.2   1 <1>  -0.5700 
  2 C       -2.9770     1.1940    -0.0270 C.2   1 <1>   0.5690 
  3 N       -3.6880     1.0150    -1.1750 N.am  1 <1>  -0.6600 
  4 C       -2.4450     2.5650     0.3310 C.3   1 <1>  -0.0990 
  5 C       -5.1340     1.3950    -1.1410 C.3   1 <1>   0.1400 
  6 C       -3.4690    -0.2580    -1.9420 C.3   1 <1>   0.1400 
  7 C       -0.9320     2.5270     0.5670 C.3   1 <1>   0.0210 
  8 C       -5.9850     0.2870    -0.4530 C.3   1 <1>   0.4230 
  9 C       -4.4670    -1.3690    -1.5320 C.3   1 <1>   0.3430 
 10 C       -0.2870     3.8760     0.8760 C.2   1 <1>  -0.1810 
 11 N       -5.2040    -1.0000    -0.2720 N.4   1 <1>  -0.9590 
 12 C       -7.3010     0.0300    -1.2210 C.3   1 <1>   0.1200 
 13 C       -0.7360     5.1380     1.0430 C.2   1 <1>  -0.0400 
 14 C        1.0920     4.0130     1.0610 C.2   1 <1>   0.1080 
 15 C       -6.0740    -2.0640     0.3240 C.3   1 <1>   0.4230 
 16 O       -8.0410    -0.9850    -0.6060 O.3   1 <1>  -0.5600 
 17 O        0.2970     5.8980     1.2920 O.3   1 <1>  -0.0190 
 18 C       -2.0840     5.8350     1.0120 C.3   1 <1>  -0.0600 
 19 N        1.4090     5.2310     1.3060 N.2   1 <1>  -0.4100 
 20 C        2.1150     2.8980     0.9920 C.3   1 <1>  -0.0590 
 21 C       -7.3860    -2.2200    -0.4830 C.3   1 <1>   0.1200 
 22 C       -5.2970    -3.3820     0.4720 C.3   1 <1>  -0.1600 
 23 C       -6.0110    -4.3850     1.3920 C.3   1 <1>  -0.1600 
 24 C       -5.1670    -5.6490     1.5780 C.3   1 <1>  -0.2400 
 25 H       -2.6620     3.2480    -0.4700 H     1 <1>   0.0800 
 26 H       -2.9370     2.8970     1.2260 H     1 <1>   0.0800 
 27 H       -5.2610     2.3220    -0.6080 H     1 <1>   0.0800 
 28 H       -5.4740     1.5590    -2.1490 H     1 <1>   0.0800 
 29 H       -3.5520    -0.0640    -2.9980 H     1 <1>   0.0800 
 30 H       -2.4660    -0.6100    -1.7630 H     1 <1>   0.0800 
 31 H       -0.4600     2.1220    -0.3110 H     1 <1>   0.0800 
 32 H       -0.7250     1.8590     1.3850 H     1 <1>   0.0800 
 33 H       -6.2610     0.6550     0.5210 H     1 <1>   0.0800 
 34 H       -3.9170    -2.2840    -1.3890 H     1 <1>   0.0800 
 35 H       -5.1690    -1.5300    -2.3320 H     1 <1>   0.0800 
 36 H       -4.4470    -0.7660     0.4040 H     1 <1>   0.4500 
 37 H       -7.1140    -0.2540    -2.2420 H     1 <1>   0.0800 
 38 H       -7.9110     0.9170    -1.2210 H     1 <1>   0.0800 
 39 H       -6.3540    -1.7480     1.3160 H     1 <1>   0.0800 
 40 H       -2.8910     5.1580     0.8310 H     1 <1>   0.0800 
 41 H       -2.0800     6.5820     0.2390 H     1 <1>   0.0800 
 42 H       -2.2520     6.3230     1.9550 H     1 <1>   0.0800 
 43 H        1.8830     2.1420     1.7180 H     1 <1>   0.0800 
 44 H        3.0950     3.2880     1.2010 H     1 <1>   0.0800 
 45 H        2.1190     2.4640     0.0100 H     1 <1>   0.0800 
 46 H       -8.0600    -2.8860     0.0260 H     1 <1>   0.0800 
 47 H       -7.1980    -2.6130    -1.4660 H     1 <1>   0.0800 
 48 H       -5.1550    -3.8420    -0.4900 H     1 <1>   0.0800 
 49 H       -4.3310    -3.1690     0.8990 H     1 <1>   0.0800 
 50 H       -6.1850    -3.9390     2.3580 H     1 <1>   0.0800 
 51 H       -6.9640    -4.6680     0.9790 H     1 <1>   0.0800 
 52 H       -4.2170    -5.4120     2.0250 H     1 <1>   0.0800 
 53 H       -4.9940    -6.1360     0.6340 H     1 <1>   0.0800 
 54 H       -5.6800    -6.3400     2.2240 H     1 <1>   0.0800 
@<TRIPOS>BOND
  1   1   2  2   
  2   2   3  am  
  3   2   4  1   
  4   3   5  1   
  5   3   6  1   
  6   4   7  1   
  7   4  25  1   
  8   4  26  1   
  9   5   8  1   
 10   5  27  1   
 11   5  28  1   
 12   6   9  1   
 13   6  29  1   
 14   6  30  1   
 15   7  10  1   
 16   7  31  1   
 17   7  32  1   
 18   8  11  1   
 19   8  12  1   
 20   8  33  1   
 21   9  11  1   
 22   9  34  1   
 23   9  35  1   
 24  10  13  2   
 25  10  14  1   
 26  11  15  1   
 27  11  36  1   
 28  12  16  1   
 29  12  37  1   
 30  12  38  1   
 31  13  17  1   
 32  13  18  1   
 33  14  19  2   
 34  14  20  1   
 35  15  21  1   
 36  15  22  1   
 37  15  39  1   
 38  16  21  1   
 39  17  19  1   
 40  18  40  1   
 41  18  41  1   
 42  18  42  1   
 43  20  43  1   
 44  20  44  1   
 45  20  45  1   
 46  21  46  1   
 47  21  47  1   
 48  22  23  1   
 49  22  48  1   
 50  22  49  1   
 51  23  24  1   
 52  23  50  1   
 53  23  51  1   
 54  24  52  1   
 55  24  53  1   
 56  24  54  1   
@<TRIPOS>SUBSTRUCTURE
  1 ****   2 GROUP 4 **** **** 0

# MOE 2024.06 (io_trps.svl 2023.06)
