@<TRIPOS>MOLECULE
NONAME
40 43 1 0 0 
SMALL
USER_CHARGES


@<TRIPOS>ATOM
  1 CL      -2.7860    -1.4500     2.0830 Cl    1 <1>  -0.1770 
  2 C       -2.8240     0.0820     1.2450 C.ar  1 <1>   0.1770 
  3 C       -2.8310     0.1300    -0.1390 C.ar  1 <1>   0.0860 
  4 C       -2.8460     1.2470     1.9890 C.ar  1 <1>   0.1600 
  5 C       -2.8260    -1.0500    -0.9680 C.2   1 <1>   0.5440 
  6 C       -2.8390     1.4090    -0.6790 C.ar  1 <1>  -0.1500 
  7 N       -2.8720     2.4670     1.4710 N.ar  1 <1>  -0.6200 
  8 O       -1.8070    -1.3330    -1.5670 O.2   1 <1>  -0.5700 
  9 N       -3.9490    -1.8360    -1.1230 N.am  1 <1>  -0.6600 
 10 C       -2.8600     2.5180     0.1470 C.ar  1 <1>   0.1600 
 11 C       -5.3090    -1.4620    -0.6420 C.3   1 <1>   0.1400 
 12 C       -3.9050    -3.1330    -1.8540 C.3   1 <1>   0.1400 
 13 C       -5.8430    -2.5600     0.2800 C.3   1 <1>  -0.1600 
 14 C       -4.4260    -4.2450    -0.9410 C.3   1 <1>  -0.1600 
 15 C       -5.8280    -3.9310    -0.4080 C.3   1 <1>   0.4600 
 16 O       -6.6820    -3.8880    -1.5370 O.3   1 <1>  -0.5600 
 17 C       -6.3140    -5.0310     0.5280 C.2   1 <1>  -0.1400 
 18 C       -8.0630    -4.0780    -1.3330 C.3   1 <1>   0.1200 
 19 S       -5.4270    -5.5200     1.9640 S.3   1 <1>  -0.0800 
 20 C       -7.4380    -5.7490     0.3980 C.2   1 <1>  -0.1810 
 21 C       -8.3640    -5.4790    -0.7660 C.3   1 <1>   0.0210 
 22 C       -6.6450    -6.7320     2.3410 C.2   1 <1>  -0.1100 
 23 C       -7.6320    -6.7260     1.4250 C.2   1 <1>  -0.1500 
 24 H       -2.8420     1.1680     3.0630 H     1 <1>   0.1500 
 25 H       -2.8260     1.5300    -1.7480 H     1 <1>   0.1500 
 26 H       -2.8680     3.4980    -0.3010 H     1 <1>   0.1500 
 27 H       -5.9600    -1.3560    -1.4930 H     1 <1>   0.0800 
 28 H       -5.2930    -0.5240    -0.1170 H     1 <1>   0.0800 
 29 H       -2.9000    -3.3660    -2.1630 H     1 <1>   0.0800 
 30 H       -4.5180    -3.0620    -2.7370 H     1 <1>   0.0800 
 31 H       -6.8370    -2.3200     0.6050 H     1 <1>   0.0800 
 32 H       -5.2260    -2.6040     1.1580 H     1 <1>   0.0800 
 33 H       -3.7410    -4.3560    -0.1200 H     1 <1>   0.0800 
 34 H       -4.4500    -5.1770    -1.4750 H     1 <1>   0.0800 
 35 H       -8.5540    -3.9490    -2.2810 H     1 <1>   0.0800 
 36 H       -8.4160    -3.3180    -0.6580 H     1 <1>   0.0800 
 37 H       -8.2150    -6.2220    -1.5290 H     1 <1>   0.0800 
 38 H       -9.3880    -5.5200    -0.4430 H     1 <1>   0.0800 
 39 H       -6.4890    -7.3300     3.2220 H     1 <1>   0.1500 
 40 H       -8.4920    -7.3710     1.4270 H     1 <1>   0.1500 
@<TRIPOS>BOND
  1   1   2  1   
  2   2   3  ar  
  3   2   4  ar  
  4   3   5  1   
  5   3   6  ar  
  6   4   7  ar  
  7   4  24  1   
  8   5   8  2   
  9   5   9  am  
 10   6  10  ar  
 11   6  25  1   
 12   7  10  ar  
 13   9  11  1   
 14   9  12  1   
 15  10  26  1   
 16  11  13  1   
 17  11  27  1   
 18  11  28  1   
 19  12  14  1   
 20  12  29  1   
 21  12  30  1   
 22  13  15  1   
 23  13  31  1   
 24  13  32  1   
 25  14  15  1   
 26  14  33  1   
 27  14  34  1   
 28  15  16  1   
 29  15  17  1   
 30  16  18  1   
 31  17  19  1   
 32  17  20  2   
 33  18  21  1   
 34  18  35  1   
 35  18  36  1   
 36  19  22  1   
 37  20  21  1   
 38  20  23  1   
 39  21  37  1   
 40  21  38  1   
 41  22  23  2   
 42  22  39  1   
 43  23  40  1   
@<TRIPOS>SUBSTRUCTURE
  1 ****  13 GROUP 4 **** **** 0

# MOE 2024.06 (io_trps.svl 2023.06)
