@<TRIPOS>MOLECULE
NONAME
36 36 1 0 0 
SMALL
USER_CHARGES


@<TRIPOS>ATOM
  1 O       -1.4660     3.8450     1.3710 O.co2 1 <1>  -0.9000 
  2 C       -1.2380     2.6850     1.0150 C.2   1 <1>   0.9060 
  3 O       -1.3020     1.7250     1.7790 O.co2 1 <1>  -0.9000 
  4 C       -0.7980     2.4550    -0.4070 C.3   1 <1>  -0.2660 
  5 C        0.7090     2.7320    -0.6070 C.3   1 <1>  -0.0990 
  6 C        1.1000     4.1980    -0.7550 C.2   1 <1>   0.5690 
  7 O        1.8480     4.4850    -1.6620 O.2   1 <1>  -0.5700 
  8 N        0.6140     5.1180     0.1280 N.am  1 <1>  -0.4940 
  9 C        0.7720     6.5240     0.2130 C.2   1 <1>  -0.0880 
 10 N        1.8670     7.2800    -0.0880 N.pl3 1 <1>   0.3140 
 11 C       -0.1780     7.3830     0.6470 C.2   1 <1>  -0.1810 
 12 N        1.6200     8.6020     0.1240 N.2   1 <1>  -0.7070 
 13 C        3.2020     6.7860    -0.5070 C.3   1 <1>   0.0960 
 14 C        0.4010     8.6430     0.5640 C.2   1 <1>   0.1390 
 15 C       -1.5770     7.0410     1.1240 C.3   1 <1>  -0.0590 
 16 C        4.3610     7.6680    -0.0100 C.3   1 <1>  -0.1600 
 17 C        5.7190     7.0640    -0.3900 C.3   1 <1>  -0.1600 
 18 C        6.8700     7.9410     0.1090 C.3   1 <1>  -0.2400 
 19 H       -1.3850     3.0740    -1.0580 H     1 <1>   0.0800 
 20 H       -1.0060     1.4280    -0.6400 H     1 <1>   0.0800 
 21 H        1.0280     2.2190    -1.4960 H     1 <1>   0.0800 
 22 H        1.2580     2.3140     0.2180 H     1 <1>   0.0800 
 23 H       -0.1480     4.7450     0.7350 H     1 <1>   0.3700 
 24 H        3.2110     6.7310    -1.5800 H     1 <1>   0.0800 
 25 H        3.3260     5.7950    -0.1130 H     1 <1>   0.0800 
 26 H       -0.0970     9.5570     0.8330 H     1 <1>   0.1500 
 27 H       -2.0360     6.3460     0.4430 H     1 <1>   0.0800 
 28 H       -2.1860     7.9230     1.1860 H     1 <1>   0.0800 
 29 H       -1.5270     6.5750     2.0920 H     1 <1>   0.0800 
 30 H        4.2940     7.7620     1.0610 H     1 <1>   0.0800 
 31 H        4.2710     8.6490    -0.4450 H     1 <1>   0.0800 
 32 H        5.7840     6.9690    -1.4610 H     1 <1>   0.0800 
 33 H        5.8100     6.0800     0.0390 H     1 <1>   0.0800 
 34 H        6.8080     8.9240    -0.3240 H     1 <1>   0.0800 
 35 H        7.8130     7.5040    -0.1670 H     1 <1>   0.0800 
 36 H        6.8350     8.0320     1.1810 H     1 <1>   0.0800 
@<TRIPOS>BOND
  1   1   2  ar  
  2   2   3  ar  
  3   2   4  1   
  4   4   5  1   
  5   4  19  1   
  6   4  20  1   
  7   5   6  1   
  8   5  21  1   
  9   5  22  1   
 10   6   7  2   
 11   6   8  am  
 12   8   9  1   
 13   8  23  1   
 14   9  10  1   
 15   9  11  2   
 16  10  12  1   
 17  10  13  1   
 18  11  14  1   
 19  11  15  1   
 20  12  14  2   
 21  13  16  1   
 22  13  24  1   
 23  13  25  1   
 24  14  26  1   
 25  15  27  1   
 26  15  28  1   
 27  15  29  1   
 28  16  17  1   
 29  16  30  1   
 30  16  31  1   
 31  17  18  1   
 32  17  32  1   
 33  17  33  1   
 34  18  34  1   
 35  18  35  1   
 36  18  36  1   
@<TRIPOS>SUBSTRUCTURE
  1 ****   8 GROUP 4 **** **** 0

# MOE 2024.06 (io_trps.svl 2023.06)
