@<TRIPOS>MOLECULE
NONAME
58 60 1 0 0 
SMALL
USER_CHARGES


@<TRIPOS>ATOM
  1 S       -1.9820     2.7280     0.8710 S.3   1 <1>  -0.4600 
  2 C       -1.6750     2.0790    -0.8130 C.3   1 <1>   0.1310 
  3 C       -0.5640     3.8170     1.1650 C.3   1 <1>  -0.0100 
  4 C       -2.6080     0.9230    -1.1680 C.2   1 <1>   0.5690 
  5 O       -2.0930    -0.1630    -1.3130 O.2   1 <1>  -0.5700 
  6 N       -3.9600     1.1090    -1.3510 N.am  1 <1>  -0.6600 
  7 C       -4.8650    -0.0320    -1.6530 C.3   1 <1>   0.1400 
  8 C       -4.6840     2.3970    -1.1820 C.3   1 <1>   0.1400 
  9 C       -5.8650    -0.1900    -0.5030 C.3   1 <1>  -0.1600 
 10 C       -5.6860     2.2600    -0.0320 C.3   1 <1>  -0.1600 
 11 C       -6.6800     1.1010    -0.2580 C.3   1 <1>   0.2800 
 12 O       -7.3800     1.3350    -1.4590 O.3   1 <1>  -0.5600 
 13 C       -7.6910     0.9900     0.9330 C.3   1 <1>   0.2000 
 14 C       -8.4380     2.2470    -1.4350 C.3   1 <1>   0.1200 
 15 O       -7.2650     0.1050     1.9360 O.3   1 <1>  -0.6800 
 16 C       -9.1440     0.6680     0.4830 C.3   1 <1>   0.3000 
 17 C       -9.5760     1.7560    -0.5240 C.3   1 <1>  -0.1600 
 18 N       -9.9870     0.6430     1.7040 N.am  1 <1>  -0.7300 
 19 C       -9.2850    -0.7290    -0.1460 C.3   1 <1>  -0.2400 
 20 C      -11.0440     1.4270     2.0410 C.2   1 <1>   0.7160 
 21 O      -10.9640     2.0010     3.1060 O.2   1 <1>  -0.5700 
 22 C      -12.1940     1.6050     1.1910 C.2   1 <1>  -0.0860 
 23 C      -12.7380     0.6670     0.3120 C.2   1 <1>   0.1390 
 24 C      -13.0120     2.6810     1.0320 C.2   1 <1>  -0.3020 
 25 N      -13.7630     1.1150    -0.3400 N.2   1 <1>  -0.7070 
 26 N      -13.9390     2.3670     0.1150 N.pl3 1 <1>   0.3140 
 27 C      -15.0380     3.2270    -0.3680 C.3   1 <1>   0.0960 
 28 C      -16.2250     3.2050     0.6020 C.3   1 <1>  -0.2400 
 29 H       -1.7970     2.8900    -1.5040 H     1 <1>   0.0800 
 30 H       -0.6560     1.7380    -0.8340 H     1 <1>   0.0800 
 31 H       -0.6780     4.2450     2.1450 H     1 <1>   0.0800 
 32 H       -0.5670     4.5830     0.4100 H     1 <1>   0.0800 
 33 H        0.3300     3.2220     1.1110 H     1 <1>   0.0800 
 34 H       -5.3850     0.1610    -2.5750 H     1 <1>   0.0800 
 35 H       -4.3050    -0.9440    -1.7720 H     1 <1>   0.0800 
 36 H       -4.0060     3.2050    -0.9760 H     1 <1>   0.0800 
 37 H       -5.2050     2.6270    -2.0960 H     1 <1>   0.0800 
 38 H       -5.3010    -0.4420     0.3770 H     1 <1>   0.0800 
 39 H       -6.5170    -1.0130    -0.7190 H     1 <1>   0.0800 
 40 H       -6.2070     3.1890     0.1010 H     1 <1>   0.0800 
 41 H       -5.1360     2.0800     0.8760 H     1 <1>   0.0800 
 42 H       -7.7270     1.9560     1.4080 H     1 <1>   0.0800 
 43 H       -8.0640     3.2000    -1.1030 H     1 <1>   0.0800 
 44 H       -8.7930     2.3590    -2.4450 H     1 <1>   0.0800 
 45 H       -7.1290    -0.7860     1.5600 H     1 <1>   0.4000 
 46 H       -9.9370     2.6270    -0.0080 H     1 <1>   0.0800 
 47 H      -10.3790     1.3940    -1.1410 H     1 <1>   0.0800 
 48 H       -9.3840     0.4560     2.5120 H     1 <1>   0.3700 
 49 H       -8.7470    -0.7920    -1.0730 H     1 <1>   0.0800 
 50 H      -10.3130    -0.9420    -0.3650 H     1 <1>   0.0800 
 51 H       -8.9150    -1.4890     0.5190 H     1 <1>   0.0800 
 52 H      -12.3560    -0.3310     0.1890 H     1 <1>   0.1500 
 53 H      -12.9680     3.6310     1.5330 H     1 <1>   0.1500 
 54 H      -14.6650     4.2280    -0.4790 H     1 <1>   0.0800 
 55 H      -15.3460     2.8660    -1.3330 H     1 <1>   0.0800 
 56 H      -15.9290     3.5740     1.5680 H     1 <1>   0.0800 
 57 H      -16.5970     2.2000     0.7050 H     1 <1>   0.0800 
 58 H      -17.0170     3.8250     0.2250 H     1 <1>   0.0800 
@<TRIPOS>BOND
  1   1   2  1   
  2   1   3  1   
  3   2   4  1   
  4   2  29  1   
  5   2  30  1   
  6   3  31  1   
  7   3  32  1   
  8   3  33  1   
  9   4   5  2   
 10   4   6  am  
 11   6   7  1   
 12   6   8  1   
 13   7   9  1   
 14   7  34  1   
 15   7  35  1   
 16   8  10  1   
 17   8  36  1   
 18   8  37  1   
 19   9  11  1   
 20   9  38  1   
 21   9  39  1   
 22  10  11  1   
 23  10  40  1   
 24  10  41  1   
 25  11  12  1   
 26  11  13  1   
 27  12  14  1   
 28  13  15  1   
 29  13  16  1   
 30  13  42  1   
 31  14  17  1   
 32  14  43  1   
 33  14  44  1   
 34  15  45  1   
 35  16  17  1   
 36  16  18  1   
 37  16  19  1   
 38  17  46  1   
 39  17  47  1   
 40  18  20  am  
 41  18  48  1   
 42  19  49  1   
 43  19  50  1   
 44  19  51  1   
 45  20  21  2   
 46  20  22  1   
 47  22  23  1   
 48  22  24  2   
 49  23  25  2   
 50  23  52  1   
 51  24  26  1   
 52  24  53  1   
 53  25  26  1   
 54  26  27  1   
 55  27  28  1   
 56  27  54  1   
 57  27  55  1   
 58  28  56  1   
 59  28  57  1   
 60  28  58  1   
@<TRIPOS>SUBSTRUCTURE
  1 ****  13 GROUP 4 **** **** 0

# MOE 2024.06 (io_trps.svl 2023.06)
