@<TRIPOS>MOLECULE
NONAME
38 39 1 0 0 
SMALL
USER_CHARGES


@<TRIPOS>ATOM
  1 N        1.2490     0.6960    -2.1300 N.1   1 <1>  -0.5570 
  2 C        1.8690     1.1250    -1.2800 C.1   1 <1>   0.3570 
  3 C        2.6980     1.6770    -0.1660 C.3   1 <1>   0.1200 
  4 C        2.8380     3.2030    -0.2940 C.3   1 <1>  -0.1600 
  5 C        4.0830     1.0050    -0.1360 C.3   1 <1>  -0.1600 
  6 C        3.7670     3.7740     0.7790 C.3   1 <1>   0.2090 
  7 C        4.9820     1.6220     0.9370 C.3   1 <1>   0.2090 
  8 N        5.1010     3.0910     0.6820 N.pl3 1 <1>  -0.8380 
  9 C        6.2360     3.7910     0.3870 C.ar  1 <1>   0.7710 
 10 N        6.1690     5.1040     0.2290 N.ar  1 <1>  -0.6200 
 11 N        7.4040     3.1340     0.2570 N.ar  1 <1>  -0.1790 
 12 C        7.2650     5.7810    -0.0620 C.ar  1 <1>   0.4100 
 13 C        8.5590     3.7810    -0.0280 C.ar  1 <1>   0.2110 
 14 N        7.1530     7.1280    -0.2310 N.pl3 1 <1>  -0.8380 
 15 C        8.5040     5.1220    -0.1910 C.ar  1 <1>  -0.1500 
 16 C        8.1400     7.9730    -0.9580 C.3   1 <1>   0.2090 
 17 C        5.9230     7.8770     0.1780 C.3   1 <1>   0.1290 
 18 C        9.0740     8.6390     0.0470 C.3   1 <1>  -0.2400 
 19 H        2.1870     1.4560     0.7540 H     1 <1>   0.0800 
 20 H        1.8700     3.6640    -0.2030 H     1 <1>   0.0800 
 21 H        3.2300     3.4620    -1.2630 H     1 <1>   0.0800 
 22 H        4.5570     1.1040    -1.0970 H     1 <1>   0.0800 
 23 H        3.9630    -0.0470     0.0630 H     1 <1>   0.0800 
 24 H        3.3480     3.6010     1.7570 H     1 <1>   0.0800 
 25 H        3.8380     4.8400     0.6480 H     1 <1>   0.0800 
 26 H        5.9370     1.1300     0.9320 H     1 <1>   0.0800 
 27 H        4.5420     1.4680     1.9100 H     1 <1>   0.0800 
 28 H        7.3640     2.1310     0.3830 H     1 <1>   0.4570 
 29 H        9.4750     3.2180    -0.1140 H     1 <1>   0.1500 
 30 H        9.3870     5.6910    -0.4060 H     1 <1>   0.1500 
 31 H        7.6210     8.7250    -1.5290 H     1 <1>   0.0800 
 32 H        8.7040     7.3770    -1.6550 H     1 <1>   0.0800 
 33 H        5.4320     7.3850     1.0000 H     1 <1>   0.0800 
 34 H        5.2410     7.9340    -0.6520 H     1 <1>   0.0800 
 35 H        6.1770     8.8740     0.4930 H     1 <1>   0.0800 
 36 H        8.5190     9.2850     0.7030 H     1 <1>   0.0800 
 37 H        9.8030     9.2330    -0.4740 H     1 <1>   0.0800 
 38 H        9.5900     7.9010     0.6340 H     1 <1>   0.0800 
@<TRIPOS>BOND
  1   1   2  3   
  2   2   3  1   
  3   3   4  1   
  4   3   5  1   
  5   3  19  1   
  6   4   6  1   
  7   4  20  1   
  8   4  21  1   
  9   5   7  1   
 10   5  22  1   
 11   5  23  1   
 12   6   8  1   
 13   6  24  1   
 14   6  25  1   
 15   7   8  1   
 16   7  26  1   
 17   7  27  1   
 18   8   9  1   
 19   9  10  ar  
 20   9  11  ar  
 21  10  12  ar  
 22  11  13  ar  
 23  11  28  1   
 24  12  14  1   
 25  12  15  ar  
 26  13  15  ar  
 27  13  29  1   
 28  14  16  1   
 29  14  17  1   
 30  15  30  1   
 31  16  18  1   
 32  16  31  1   
 33  16  32  1   
 34  17  33  1   
 35  17  34  1   
 36  17  35  1   
 37  18  36  1   
 38  18  37  1   
 39  18  38  1   
@<TRIPOS>SUBSTRUCTURE
  1 ****   9 GROUP 4 **** **** 0

# MOE 2024.06 (io_trps.svl 2023.06)
