@<TRIPOS>MOLECULE
NONAME
48 49 1 0 0 
SMALL
USER_CHARGES


@<TRIPOS>ATOM
  1 O       -0.4610     0.4160    -0.5170 O.2   1 <1>  -0.5700 
  2 C       -1.5120     0.9740    -0.2610 C.2   1 <1>   0.5440 
  3 N       -2.6370     0.2080    -0.0580 N.am  1 <1>  -0.6600 
  4 C       -1.5540     2.4210    -0.1910 C.ar  1 <1>   0.0860 
  5 C       -2.6250    -1.2670    -0.1850 C.3   1 <1>   0.1400 
  6 C       -4.0230     0.7260    -0.0590 C.3   1 <1>   0.1400 
  7 C       -1.9890     3.0900     0.9530 C.ar  1 <1>  -0.1500 
  8 C       -1.1480     3.2000    -1.2720 C.ar  1 <1>  -0.1500 
  9 C       -4.0740    -1.6530    -0.4820 C.3   1 <1>  -0.0800 
 10 C       -4.8980    -0.5100     0.1110 C.3   1 <1>  -0.1600 
 11 C       -2.0320     4.4720     1.0050 C.ar  1 <1>  -0.1500 
 12 C       -1.1900     4.5810    -1.2210 C.ar  1 <1>  -0.1500 
 13 C       -4.4510    -3.0400     0.0670 C.3   1 <1>  -0.0990 
 14 C       -1.6340     5.2370    -0.0820 C.ar  1 <1>   0.0730 
 15 C       -5.8880    -3.4030    -0.2480 C.2   1 <1>   0.5690 
 16 C       -1.6730     6.6670    -0.0300 C.1   1 <1>  -0.0730 
 17 O       -6.1790    -3.6910    -1.3820 O.2   1 <1>  -0.5700 
 18 N       -6.8010    -3.3920     0.7590 N.am  1 <1>  -0.7300 
 19 C       -1.6910     7.8570     0.0030 C.1   1 <1>  -0.2000 
 20 C       -8.2390    -3.7300     0.6070 C.3   1 <1>   0.0600 
 21 C       -1.6960     9.3450     0.0340 C.3   1 <1>   0.4800 
 22 O       -0.4900     9.7490    -0.4620 O.3   1 <1>  -0.6800 
 23 C       -1.7960     9.8650     1.4630 C.3   1 <1>  -0.2400 
 24 C       -2.7780     9.9250    -0.8670 C.3   1 <1>  -0.2400 
 25 H       -2.2910    -1.6900     0.7470 H     1 <1>   0.0800 
 26 H       -1.9660    -1.5820    -0.9770 H     1 <1>   0.0800 
 27 H       -4.2220     1.1990    -1.0060 H     1 <1>   0.0800 
 28 H       -4.1820     1.4270     0.7410 H     1 <1>   0.0800 
 29 H       -2.2900     2.5120     1.8090 H     1 <1>   0.1500 
 30 H       -0.7920     2.7040    -2.1600 H     1 <1>   0.1500 
 31 H       -4.2020    -1.6540    -1.5520 H     1 <1>   0.0800 
 32 H       -5.8480    -0.3950    -0.3820 H     1 <1>   0.0800 
 33 H       -5.0660    -0.6710     1.1610 H     1 <1>   0.0800 
 34 H       -2.3720     4.9660     1.8990 H     1 <1>   0.1500 
 35 H       -0.8710     5.1590    -2.0710 H     1 <1>   0.1500 
 36 H       -4.2940    -3.0740     1.1290 H     1 <1>   0.0800 
 37 H       -3.8180    -3.7830    -0.3840 H     1 <1>   0.0800 
 38 H       -6.4990    -3.1460     1.7030 H     1 <1>   0.3700 
 39 H       -8.4600    -3.9780    -0.4180 H     1 <1>   0.0800 
 40 H       -8.8440    -2.8890     0.8980 H     1 <1>   0.0800 
 41 H       -8.4810    -4.5750     1.2270 H     1 <1>   0.0800 
 42 H        0.1920     9.1540    -0.1010 H     1 <1>   0.4000 
 43 H       -1.0070     9.4590     2.0700 H     1 <1>   0.0800 
 44 H       -2.7370     9.5720     1.8910 H     1 <1>   0.0800 
 45 H       -1.7370    10.9380     1.4720 H     1 <1>   0.0800 
 46 H       -2.6520     9.5650    -1.8730 H     1 <1>   0.0800 
 47 H       -2.7270    10.9980    -0.8660 H     1 <1>   0.0800 
 48 H       -3.7480     9.6250    -0.5160 H     1 <1>   0.0800 
@<TRIPOS>BOND
  1   1   2  2   
  2   2   3  am  
  3   2   4  1   
  4   3   5  1   
  5   3   6  1   
  6   4   7  ar  
  7   4   8  ar  
  8   5   9  1   
  9   5  25  1   
 10   5  26  1   
 11   6  10  1   
 12   6  27  1   
 13   6  28  1   
 14   7  11  ar  
 15   7  29  1   
 16   8  12  ar  
 17   8  30  1   
 18   9  10  1   
 19   9  13  1   
 20   9  31  1   
 21  10  32  1   
 22  10  33  1   
 23  11  14  ar  
 24  11  34  1   
 25  12  14  ar  
 26  12  35  1   
 27  13  15  1   
 28  13  36  1   
 29  13  37  1   
 30  14  16  1   
 31  15  17  2   
 32  15  18  am  
 33  16  19  3   
 34  18  20  1   
 35  18  38  1   
 36  19  21  1   
 37  20  39  1   
 38  20  40  1   
 39  20  41  1   
 40  21  22  1   
 41  21  23  1   
 42  21  24  1   
 43  22  42  1   
 44  23  43  1   
 45  23  44  1   
 46  23  45  1   
 47  24  46  1   
 48  24  47  1   
 49  24  48  1   
@<TRIPOS>SUBSTRUCTURE
  1 ****   4 GROUP 4 **** **** 0

# MOE 2024.06 (io_trps.svl 2023.06)
