@<TRIPOS>MOLECULE
STOCK7S-74424
34 34 1 0 0 
SMALL
USER_CHARGES


@<TRIPOS>ATOM
  1 O        3.8390     4.2960     0.6800 O.3   1 <1>  -0.6800 
  2 C        2.9740     3.8070    -0.2650 C.3   1 <1>   0.4800 
  3 C        3.8270     3.5610    -1.4660 C.1   1 <1>  -0.2000 
  4 C        2.2470     2.5240     0.3170 C.3   1 <1>   0.0000 
  5 C        2.0290     4.9660    -0.6260 C.3   1 <1>  -0.1600 
  6 C        4.5090     3.3710    -2.4230 C.1   1 <1>  -0.1770 
  7 C        0.8020     2.5590    -0.2210 C.3   1 <1>   0.3430 
  8 C        2.8700     1.1700    -0.1480 C.3   1 <1>  -0.1600 
  9 C        2.1740     2.4760     1.8760 C.3   1 <1>  -0.2400 
 10 C        0.8550     5.0230     0.3380 C.3   1 <1>   0.4230 
 11 N        0.0530     3.7820     0.2290 N.4   1 <1>  -0.9060 
 12 C        4.3090     0.8760     0.3410 C.3   1 <1>   0.0400 
 13 C       -0.0680     6.1990     0.0470 C.3   1 <1>  -0.2400 
 14 C        4.8560    -0.3390    -0.3250 C.1   1 <1>   0.3570 
 15 N        5.2470    -1.2680    -0.8500 N.1   1 <1>  -0.5570 
 16 H        4.6170     4.6700     0.2180 H     1 <1>   0.4000 
 17 H        1.6480     4.8430    -1.6260 H     1 <1>   0.0800 
 18 H        2.5690     5.8980    -0.6110 H     1 <1>   0.0800 
 19 H        5.1320     3.1970    -3.2860 H     1 <1>   0.1770 
 20 H        0.2750     1.6730     0.0980 H     1 <1>   0.0800 
 21 H        0.8440     2.5440    -1.2990 H     1 <1>   0.0800 
 22 H        2.8580     1.1170    -1.2240 H     1 <1>   0.0800 
 23 H        2.2480     0.3590     0.1940 H     1 <1>   0.0800 
 24 H        1.7130     3.3490     2.2980 H     1 <1>   0.0800 
 25 H        3.1570     2.4190     2.3100 H     1 <1>   0.0800 
 26 H        1.6220     1.6140     2.2100 H     1 <1>   0.0800 
 27 H        1.2460     5.1210     1.3400 H     1 <1>   0.0800 
 28 H       -0.3670     3.6010     1.1490 H     1 <1>   0.4500 
 29 H       -0.7310     3.9570    -0.4120 H     1 <1>   0.4500 
 30 H        4.3230     0.7000     1.4000 H     1 <1>   0.0800 
 31 H        4.9720     1.6940     0.1310 H     1 <1>   0.0800 
 32 H       -0.4570     6.1550    -0.9550 H     1 <1>   0.0800 
 33 H        0.4810     7.1190     0.1480 H     1 <1>   0.0800 
 34 H       -0.8810     6.2280     0.7500 H     1 <1>   0.0800 
@<TRIPOS>BOND
  1   1   2  1   
  2   1  16  1   
  3   2   3  1   
  4   2   4  1   
  5   2   5  1   
  6   3   6  3   
  7   4   7  1   
  8   4   8  1   
  9   4   9  1   
 10   5  10  1   
 11   5  17  1   
 12   5  18  1   
 13   6  19  1   
 14   7  11  1   
 15   7  20  1   
 16   7  21  1   
 17   8  12  1   
 18   8  22  1   
 19   8  23  1   
 20   9  24  1   
 21   9  25  1   
 22   9  26  1   
 23  10  11  1   
 24  10  13  1   
 25  10  27  1   
 26  11  28  1   
 27  11  29  1   
 28  12  14  1   
 29  12  30  1   
 30  12  31  1   
 31  13  32  1   
 32  13  33  1   
 33  13  34  1   
 34  14  15  3   
@<TRIPOS>SUBSTRUCTURE
  1 ****   4 GROUP 4 **** **** 0

# MOE 2024.06 (io_trps.svl 2023.06)
