@<TRIPOS>MOLECULE
NONAME
49 50 1 0 0 
SMALL
USER_CHARGES


@<TRIPOS>ATOM
  1 S        1.2470     1.8310    -0.1250 S.o2  1 <1>   1.3330 
  2 O        2.4360     2.5070     0.3500 O.2   1 <1>  -0.6500 
  3 O        0.4620     2.4880    -1.1420 O.2   1 <1>  -0.6500 
  4 N        1.6440     0.2650    -0.6260 N.am  1 <1>  -0.8490 
  5 C        0.1970     1.5810     1.3110 C.3   1 <1>  -0.0550 
  6 C        2.9450     0.1980    -1.3010 C.3   1 <1>   0.1160 
  7 C        0.6180    -0.3580    -1.4720 C.3   1 <1>   0.1160 
  8 C       -0.2750     2.8610     2.0510 C.3   1 <1>  -0.0800 
  9 C       -1.0820     3.8180     1.1630 C.3   1 <1>   0.2000 
 10 C        0.8750     3.7320     2.5670 C.3   1 <1>   0.3430 
 11 O       -2.0530     4.4230     1.9520 O.3   1 <1>  -0.6800 
 12 C       -0.0900     4.8820     0.6670 C.3   1 <1>   0.3430 
 13 N        1.1580     4.7040     1.4820 N.4   1 <1>  -0.9590 
 14 C        1.8010     5.9740     1.9130 C.3   1 <1>   0.4860 
 15 C        2.0150     6.8530     0.6950 C.ar  1 <1>  -0.1440 
 16 C        2.9800     6.5790    -0.2760 C.ar  1 <1>  -0.1440 
 17 C        1.1900     7.9610     0.5600 C.ar  1 <1>  -0.1500 
 18 C        3.0790     7.4120    -1.3890 C.ar  1 <1>  -0.1440 
 19 C        3.9370     5.3900    -0.1590 C.3   1 <1>  -0.0970 
 20 C        1.3030     8.7870    -0.5380 C.ar  1 <1>  -0.1500 
 21 C        2.2410     8.5090    -1.5100 C.ar  1 <1>  -0.1500 
 22 C        4.0900     7.1620    -2.5030 C.3   1 <1>  -0.0970 
 23 H       -0.6720     1.0290     1.0060 H     1 <1>   0.0800 
 24 H        0.7260     0.9610     2.0100 H     1 <1>   0.0800 
 25 H        3.1730    -0.8190    -1.5720 H     1 <1>   0.0800 
 26 H        3.7230     0.5490    -0.6440 H     1 <1>   0.0800 
 27 H        2.9400     0.8070    -2.1900 H     1 <1>   0.0800 
 28 H        0.8870    -1.3780    -1.6900 H     1 <1>   0.0800 
 29 H        0.5150     0.1810    -2.4000 H     1 <1>   0.0800 
 30 H       -0.3330    -0.3610    -0.9670 H     1 <1>   0.0800 
 31 H       -0.8740     2.5320     2.8830 H     1 <1>   0.0800 
 32 H       -1.5880     3.3270     0.3480 H     1 <1>   0.0800 
 33 H        1.7480     3.1430     2.8050 H     1 <1>   0.0800 
 34 H        0.5520     4.2590     3.4500 H     1 <1>   0.0800 
 35 H       -1.6880     4.9100     2.7150 H     1 <1>   0.4000 
 36 H       -0.5100     5.8670     0.7870 H     1 <1>   0.0800 
 37 H        0.1350     4.7250    -0.3760 H     1 <1>   0.0800 
 38 H        1.8490     4.2530     0.8460 H     1 <1>   0.4500 
 39 H        1.1710     6.4860     2.6210 H     1 <1>   0.0800 
 40 H        2.7490     5.7720     2.3840 H     1 <1>   0.0800 
 41 H        0.4500     8.1980     1.3050 H     1 <1>   0.1500 
 42 H        4.9450     5.7080    -0.3560 H     1 <1>   0.0800 
 43 H        3.6730     4.6370    -0.8800 H     1 <1>   0.0800 
 44 H        3.9400     4.9420     0.8150 H     1 <1>   0.0800 
 45 H        0.6630     9.6470    -0.6420 H     1 <1>   0.1500 
 46 H        2.3170     9.1590    -2.3640 H     1 <1>   0.1500 
 47 H        3.9190     7.8200    -3.3360 H     1 <1>   0.0800 
 48 H        4.0140     6.1520    -2.8600 H     1 <1>   0.0800 
 49 H        5.0880     7.3340    -2.1400 H     1 <1>   0.0800 
@<TRIPOS>BOND
  1   1   2  2   
  2   1   3  2   
  3   1   4  am  
  4   1   5  1   
  5   4   6  1   
  6   4   7  1   
  7   5   8  1   
  8   5  23  1   
  9   5  24  1   
 10   6  25  1   
 11   6  26  1   
 12   6  27  1   
 13   7  28  1   
 14   7  29  1   
 15   7  30  1   
 16   8   9  1   
 17   8  10  1   
 18   8  31  1   
 19   9  11  1   
 20   9  12  1   
 21   9  32  1   
 22  10  13  1   
 23  10  33  1   
 24  10  34  1   
 25  11  35  1   
 26  12  13  1   
 27  12  36  1   
 28  12  37  1   
 29  13  14  1   
 30  13  38  1   
 31  14  15  1   
 32  14  39  1   
 33  14  40  1   
 34  15  16  ar  
 35  15  17  ar  
 36  16  18  ar  
 37  16  19  1   
 38  17  20  ar  
 39  17  41  1   
 40  18  21  ar  
 41  18  22  1   
 42  19  42  1   
 43  19  43  1   
 44  19  44  1   
 45  20  21  ar  
 46  20  45  1   
 47  21  46  1   
 48  22  47  1   
 49  22  48  1   
 50  22  49  1   
@<TRIPOS>SUBSTRUCTURE
  1 ****  13 GROUP 4 **** **** 0

# MOE 2024.06 (io_trps.svl 2023.06)
