@<TRIPOS>MOLECULE
NONAME
43 46 1 0 0 
SMALL
USER_CHARGES


@<TRIPOS>ATOM
  1 O       -1.9980     1.0760    -1.3980 O.3   1 <1>  -0.0190 
  2 N       -1.0290     1.8930    -1.6790 N.2   1 <1>  -0.4100 
  3 C       -1.8620     0.8530    -0.1140 C.2   1 <1>   0.2980 
  4 C       -0.3900     2.1080    -0.5960 C.2   1 <1>   0.3350 
  5 N       -0.8910     1.4560     0.4460 N.2   1 <1>  -0.5650 
  6 C       -2.8400    -0.0790     0.5880 C.3   1 <1>   0.1000 
  7 C        0.8320     3.0150    -0.4370 C.3   1 <1>   0.1010 
  8 C       -2.7640    -1.5020     0.0140 C.3   1 <1>  -0.1600 
  9 C       -4.2780     0.4540     0.5080 C.3   1 <1>  -0.1600 
 10 C        0.4080     4.4140     0.0300 C.3   1 <1>  -0.2400 
 11 C        1.6600     3.1190    -1.7280 C.3   1 <1>  -0.2400 
 12 C       -3.7440    -2.4410     0.7180 C.3   1 <1>   0.2090 
 13 C       -5.2540    -0.4860     1.2140 C.3   1 <1>   0.2090 
 14 N       -5.1090    -1.8620     0.6670 N.pl3 1 <1>  -0.8380 
 15 C       -6.0610    -2.3880    -0.1860 C.ar  1 <1>   0.4100 
 16 N       -6.6700    -1.5650    -1.0100 N.ar  1 <1>  -0.6200 
 17 C       -6.3720    -3.7580    -0.1900 C.ar  1 <1>   0.0000 
 18 C       -7.5590    -2.1110    -1.8510 C.ar  1 <1>   0.4700 
 19 C       -7.3050    -4.1830    -1.1100 C.ar  1 <1>   0.1050 
 20 C       -5.9900    -4.9110     0.5380 C.2   1 <1>  -0.1500 
 21 N       -7.9200    -3.3650    -1.9660 N.ar  1 <1>  -0.5670 
 22 N       -7.4840    -5.5260    -0.9820 N.pl3 1 <1>   0.0330 
 23 C       -6.6760    -5.9650     0.0320 C.2   1 <1>  -0.3020 
 24 H       -2.5550    -0.1200     1.6260 H     1 <1>   0.0800 
 25 H        1.4580     2.5800     0.3230 H     1 <1>   0.0800 
 26 H       -1.7650    -1.8840     0.1210 H     1 <1>   0.0800 
 27 H       -3.0010    -1.4860    -1.0360 H     1 <1>   0.0800 
 28 H       -4.5800     0.5490    -0.5210 H     1 <1>   0.0800 
 29 H       -4.3320     1.4280     0.9600 H     1 <1>   0.0800 
 30 H       -0.2310     4.8730    -0.7040 H     1 <1>   0.0800 
 31 H        1.2690     5.0390     0.1840 H     1 <1>   0.0800 
 32 H       -0.1340     4.3420     0.9570 H     1 <1>   0.0800 
 33 H        1.0780     3.5730    -2.5110 H     1 <1>   0.0800 
 34 H        1.9600     2.1380    -2.0500 H     1 <1>   0.0800 
 35 H        2.5410     3.7110    -1.5620 H     1 <1>   0.0800 
 36 H       -3.4570    -2.5780     1.7470 H     1 <1>   0.0800 
 37 H       -3.7250    -3.4000     0.2300 H     1 <1>   0.0800 
 38 H       -6.2640    -0.1370     1.0800 H     1 <1>   0.0800 
 39 H       -5.0490    -0.5070     2.2710 H     1 <1>   0.0800 
 40 H       -8.0360    -1.4140    -2.5190 H     1 <1>   0.1500 
 41 H       -5.2810    -4.9020     1.3480 H     1 <1>   0.1500 
 42 H       -8.1320    -6.0720    -1.5560 H     1 <1>   0.2700 
 43 H       -6.6460    -6.9980     0.3320 H     1 <1>   0.1500 
@<TRIPOS>BOND
  1   1   2  1   
  2   1   3  1   
  3   2   4  2   
  4   3   5  2   
  5   3   6  1   
  6   4   5  1   
  7   4   7  1   
  8   6   8  1   
  9   6   9  1   
 10   6  24  1   
 11   7  10  1   
 12   7  11  1   
 13   7  25  1   
 14   8  12  1   
 15   8  26  1   
 16   8  27  1   
 17   9  13  1   
 18   9  28  1   
 19   9  29  1   
 20  10  30  1   
 21  10  31  1   
 22  10  32  1   
 23  11  33  1   
 24  11  34  1   
 25  11  35  1   
 26  12  14  1   
 27  12  36  1   
 28  12  37  1   
 29  13  14  1   
 30  13  38  1   
 31  13  39  1   
 32  14  15  1   
 33  15  16  ar  
 34  15  17  ar  
 35  16  18  ar  
 36  17  19  ar  
 37  17  20  1   
 38  18  21  ar  
 39  18  40  1   
 40  19  21  ar  
 41  19  22  1   
 42  20  23  2   
 43  20  41  1   
 44  22  23  1   
 45  22  42  1   
 46  23  43  1   
@<TRIPOS>SUBSTRUCTURE
  1 ****   8 GROUP 4 **** **** 0

# MOE 2024.06 (io_trps.svl 2023.06)
