@<TRIPOS>MOLECULE
NONAME
53 55 1 0 0 
SMALL
USER_CHARGES


@<TRIPOS>ATOM
  1 O        0.9770     0.4750     2.2920 O.2   1 <1>  -0.5700 
  2 C        2.0130     0.1110     1.7930 C.2   1 <1>   0.5690 
  3 N        2.9940     0.9550     1.3600 N.am  1 <1>  -0.4940 
  4 C        2.2260    -1.3720     1.6040 C.3   1 <1>  -0.0990 
  5 C        3.0330     2.3710     1.3230 C.2   1 <1>  -0.0880 
  6 C        1.6230    -1.8030     0.2670 C.3   1 <1>   0.1100 
  7 N        4.0780     3.1310     0.8680 N.pl3 1 <1>   0.3140 
  8 C        2.0670     3.2410     1.6980 C.2   1 <1>  -0.1500 
  9 N        1.7540    -3.2580     0.0610 N.3   1 <1>  -0.8100 
 10 N        3.7780     4.4550     0.9390 N.2   1 <1>  -0.7070 
 11 C        5.4250     2.7080     0.3670 C.3   1 <1>   0.3190 
 12 C        2.5820     4.5020     1.4380 C.2   1 <1>   0.1390 
 13 C        0.7680    -4.0180     0.8780 C.3   1 <1>   0.1100 
 14 C        1.5810    -3.5920    -1.3740 C.3   1 <1>   0.1100 
 15 C        5.4190     1.2630    -0.1590 C.ar  1 <1>  -0.1430 
 16 C        6.4940     2.9750     1.4400 C.3   1 <1>  -0.2400 
 17 C        0.7790    -5.5390     0.5860 C.3   1 <1>   0.3430 
 18 C        1.7030    -5.1120    -1.6550 C.3   1 <1>   0.3430 
 19 C        5.9550     0.1920     0.5500 C.ar  1 <1>  -0.1500 
 20 C        4.8150     1.0130    -1.3840 C.ar  1 <1>  -0.1500 
 21 N        1.8630    -5.8950    -0.3860 N.4   1 <1>  -0.9590 
 22 C        5.8800    -1.0940     0.0470 C.ar  1 <1>  -0.1500 
 23 C        4.7400    -0.2720    -1.8890 C.ar  1 <1>  -0.1500 
 24 C        2.0060    -7.3620    -0.6070 C.3   1 <1>   0.2630 
 25 C        5.2710    -1.3290    -1.1720 C.ar  1 <1>  -0.1500 
 26 H        3.7970     0.4930     0.9190 H     1 <1>   0.3700 
 27 H        1.7460    -1.8750     2.4220 H     1 <1>   0.0800 
 28 H        3.2760    -1.5980     1.6250 H     1 <1>   0.0800 
 29 H        2.1490    -1.2800    -0.5160 H     1 <1>   0.0800 
 30 H        0.5860    -1.5090     0.2200 H     1 <1>   0.0800 
 31 H        1.0980     3.0230     2.1090 H     1 <1>   0.1500 
 32 H        5.6490     3.3490    -0.4670 H     1 <1>   0.0800 
 33 H        2.0530     5.4210     1.6240 H     1 <1>   0.1500 
 34 H       -0.2260    -3.6390     0.7030 H     1 <1>   0.0800 
 35 H        0.9810    -3.8770     1.9240 H     1 <1>   0.0800 
 36 H        2.3280    -3.0750    -1.9540 H     1 <1>   0.0800 
 37 H        0.6180    -3.2500    -1.7140 H     1 <1>   0.0800 
 38 H        6.2580     2.4570     2.3510 H     1 <1>   0.0800 
 39 H        6.5400     4.0300     1.6460 H     1 <1>   0.0800 
 40 H        7.4580     2.6580     1.0880 H     1 <1>   0.0800 
 41 H       -0.1790    -5.8290     0.1880 H     1 <1>   0.0800 
 42 H        0.9240    -6.0710     1.5120 H     1 <1>   0.0800 
 43 H        2.5530    -5.2790    -2.2960 H     1 <1>   0.0800 
 44 H        0.8250    -5.4420    -2.1860 H     1 <1>   0.0800 
 45 H        6.4360     0.3360     1.5030 H     1 <1>   0.1500 
 46 H        4.3900     1.8240    -1.9530 H     1 <1>   0.1500 
 47 H        2.7180    -5.5020     0.0430 H     1 <1>   0.4500 
 48 H        6.3030    -1.9140     0.6030 H     1 <1>   0.1500 
 49 H        4.2720    -0.4460    -2.8430 H     1 <1>   0.1500 
 50 H        1.1100    -7.7630    -1.0530 H     1 <1>   0.0800 
 51 H        2.1800    -7.8660     0.3300 H     1 <1>   0.0800 
 52 H        2.8380    -7.5620    -1.2630 H     1 <1>   0.0800 
 53 H        5.2210    -2.3290    -1.5650 H     1 <1>   0.1500 
@<TRIPOS>BOND
  1   1   2  2   
  2   2   3  am  
  3   2   4  1   
  4   3   5  1   
  5   3  26  1   
  6   4   6  1   
  7   4  27  1   
  8   4  28  1   
  9   5   7  1   
 10   5   8  2   
 11   6   9  1   
 12   6  29  1   
 13   6  30  1   
 14   7  10  1   
 15   7  11  1   
 16   8  12  1   
 17   8  31  1   
 18   9  13  1   
 19   9  14  1   
 20  10  12  2   
 21  11  15  1   
 22  11  16  1   
 23  11  32  1   
 24  12  33  1   
 25  13  17  1   
 26  13  34  1   
 27  13  35  1   
 28  14  18  1   
 29  14  36  1   
 30  14  37  1   
 31  15  19  ar  
 32  15  20  ar  
 33  16  38  1   
 34  16  39  1   
 35  16  40  1   
 36  17  21  1   
 37  17  41  1   
 38  17  42  1   
 39  18  21  1   
 40  18  43  1   
 41  18  44  1   
 42  19  22  ar  
 43  19  45  1   
 44  20  23  ar  
 45  20  46  1   
 46  21  24  1   
 47  21  47  1   
 48  22  25  ar  
 49  22  48  1   
 50  23  25  ar  
 51  23  49  1   
 52  24  50  1   
 53  24  51  1   
 54  24  52  1   
 55  25  53  1   
@<TRIPOS>SUBSTRUCTURE
  1 ****   4 GROUP 4 **** **** 0

# MOE 2024.06 (io_trps.svl 2023.06)
