@<TRIPOS>MOLECULE
NONAME
57 60 1 0 0 
SMALL
USER_CHARGES


@<TRIPOS>ATOM
  1 O       -0.3250     1.1320    -0.4780 O.2   1 <1>  -0.5700 
  2 C       -1.4300     1.5970    -0.3270 C.2   1 <1>   0.5690 
  3 N       -2.5520     0.9500    -0.7920 N.am  1 <1>  -0.6600 
  4 C       -1.5500     2.9330     0.4040 C.3   1 <1>  -0.0990 
  5 C       -3.9440     1.4230    -0.5180 C.3   1 <1>   0.2200 
  6 C       -2.3930    -0.2960    -1.6050 C.3   1 <1>   0.0600 
  7 C       -0.2160     3.6820     0.5900 C.3   1 <1>  -0.1600 
  8 C       -4.9360     0.3290    -0.1240 C.3   1 <1>  -0.1600 
  9 C       -4.5820     2.0910    -1.7320 C.3   1 <1>  -0.1600 
 10 C       -0.4120     5.0170     1.3240 C.3   1 <1>   0.0200 
 11 C       -6.3100     0.9560    -0.3910 C.3   1 <1>  -0.0800 
 12 C       -6.0890     2.0640    -1.4380 C.3   1 <1>  -0.0800 
 13 C        0.8890     5.7830     1.4590 C.2   1 <1>   0.2980 
 14 C       -6.9210     1.6400     0.8410 C.3   1 <1>  -0.1600 
 15 C       -6.6110     3.3660    -0.8120 C.3   1 <1>  -0.1600 
 16 O        1.8390     5.2910     2.2100 O.3   1 <1>  -0.0190 
 17 N        1.1520     6.8920     0.9030 N.2   1 <1>  -0.5650 
 18 C       -7.5450     2.9160     0.3000 C.3   1 <1>   0.2000 
 19 N        2.7930     6.1620     2.1220 N.2   1 <1>  -0.4100 
 20 C        2.3940     7.1100     1.3480 C.2   1 <1>   0.4620 
 21 O       -7.6020     3.8730     1.2880 O.3   1 <1>  -0.6800 
 22 C        3.1670     8.2870     0.9820 C.ar  1 <1>   0.0540 
 23 C        2.6530     9.2700     0.1330 C.ar  1 <1>  -0.1500 
 24 C        4.4610     8.4820     1.4680 C.ar  1 <1>  -0.1500 
 25 C        3.3850    10.3920    -0.2170 C.ar  1 <1>  -0.1440 
 26 C        5.2020     9.5970     1.1250 C.ar  1 <1>  -0.1500 
 27 C        4.6650    10.5520     0.2820 C.ar  1 <1>  -0.1500 
 28 C        2.7960    11.4410    -1.1430 C.3   1 <1>  -0.0970 
 29 H       -2.2150     3.5650    -0.1540 H     1 <1>   0.0800 
 30 H       -1.9820     2.7420     1.3690 H     1 <1>   0.0800 
 31 H       -3.9410     2.1350     0.2870 H     1 <1>   0.0800 
 32 H       -3.1120    -0.3230    -2.4040 H     1 <1>   0.0800 
 33 H       -2.5280    -1.1580    -0.9750 H     1 <1>   0.0800 
 34 H       -1.4100    -0.3430    -2.0410 H     1 <1>   0.0800 
 35 H        0.4680     3.0640     1.1480 H     1 <1>   0.0800 
 36 H        0.2250     3.8670    -0.3760 H     1 <1>   0.0800 
 37 H       -4.8390    -0.5300    -0.7620 H     1 <1>   0.0800 
 38 H       -4.8120     0.0260     0.9000 H     1 <1>   0.0800 
 39 H       -4.2080     3.0870    -1.8850 H     1 <1>   0.0800 
 40 H       -4.3930     1.5070    -2.6140 H     1 <1>   0.0800 
 41 H       -0.8100     4.8420     2.3070 H     1 <1>   0.0800 
 42 H       -1.1120     5.6280     0.7820 H     1 <1>   0.0800 
 43 H       -6.9980     0.2190    -0.7720 H     1 <1>   0.0800 
 44 H       -6.6450     1.8440    -2.3350 H     1 <1>   0.0800 
 45 H       -6.1510     1.8840     1.5520 H     1 <1>   0.0800 
 46 H       -7.6590     1.0140     1.3100 H     1 <1>   0.0800 
 47 H       -7.1330     3.9660    -1.5360 H     1 <1>   0.0800 
 48 H       -5.7970     3.9330    -0.3950 H     1 <1>   0.0800 
 49 H       -8.5400     2.7350    -0.0750 H     1 <1>   0.0800 
 50 H       -6.7110     4.0400     1.6440 H     1 <1>   0.4000 
 51 H        1.6590     9.1470    -0.2590 H     1 <1>   0.1500 
 52 H        4.8940     7.7470     2.1250 H     1 <1>   0.1500 
 53 H        6.1980     9.7220     1.5130 H     1 <1>   0.1500 
 54 H        5.2470    11.4180     0.0170 H     1 <1>   0.1500 
 55 H        3.0320    12.4270    -0.7840 H     1 <1>   0.0800 
 56 H        1.7270    11.3470    -1.1970 H     1 <1>   0.0800 
 57 H        3.2040    11.3240    -2.1310 H     1 <1>   0.0800 
@<TRIPOS>BOND
  1   1   2  2   
  2   2   3  am  
  3   2   4  1   
  4   3   5  1   
  5   3   6  1   
  6   4   7  1   
  7   4  29  1   
  8   4  30  1   
  9   5   8  1   
 10   5   9  1   
 11   5  31  1   
 12   6  32  1   
 13   6  33  1   
 14   6  34  1   
 15   7  10  1   
 16   7  35  1   
 17   7  36  1   
 18   8  11  1   
 19   8  37  1   
 20   8  38  1   
 21   9  12  1   
 22   9  39  1   
 23   9  40  1   
 24  10  13  1   
 25  10  41  1   
 26  10  42  1   
 27  11  12  1   
 28  11  14  1   
 29  11  43  1   
 30  12  15  1   
 31  12  44  1   
 32  13  16  1   
 33  13  17  2   
 34  14  18  1   
 35  14  45  1   
 36  14  46  1   
 37  15  18  1   
 38  15  47  1   
 39  15  48  1   
 40  16  19  1   
 41  17  20  1   
 42  18  21  1   
 43  18  49  1   
 44  19  20  2   
 45  20  22  1   
 46  21  50  1   
 47  22  23  ar  
 48  22  24  ar  
 49  23  25  ar  
 50  23  51  1   
 51  24  26  ar  
 52  24  52  1   
 53  25  27  ar  
 54  25  28  1   
 55  26  27  ar  
 56  26  53  1   
 57  27  54  1   
 58  28  55  1   
 59  28  56  1   
 60  28  57  1   
@<TRIPOS>SUBSTRUCTURE
  1 ****  10 GROUP 4 **** **** 0

# MOE 2024.06 (io_trps.svl 2023.06)
