@<TRIPOS>MOLECULE
NONAME
52 55 1 0 0 
SMALL
USER_CHARGES


@<TRIPOS>ATOM
  1 O       -1.5380     0.6980     2.7700 O.2   1 <1>  -0.5700 
  2 C       -1.8520     1.2010     1.7140 C.2   1 <1>   0.6300 
  3 N       -2.3340     0.4420     0.6840 N.am  1 <1>  -0.6600 
  4 C       -1.7040     2.7210     1.5470 C.3   1 <1>   0.0320 
  5 C       -2.6590     0.9190    -0.6810 C.3   1 <1>   0.1400 
  6 C       -2.5470    -1.0170     0.7840 C.3   1 <1>   0.1400 
  7 C       -0.5390     3.1040     0.6400 C.ar  1 <1>  -0.0320 
  8 C       -1.9360     3.6110     2.7380 C.3   1 <1>  -0.2000 
  9 C       -2.9350     3.5860     1.6280 C.3   1 <1>  -0.2000 
 10 C       -3.3090    -0.2750    -1.3920 C.3   1 <1>   0.2000 
 11 C       -2.7360    -1.4920    -0.6580 C.3   1 <1>  -0.0800 
 12 C       -0.7350     3.7670    -0.5620 C.ar  1 <1>  -0.1500 
 13 C        0.7520     2.7740     1.0220 C.ar  1 <1>  -0.1500 
 14 O       -4.6970    -0.2450    -1.2080 O.3   1 <1>  -0.5600 
 15 C       -3.5800    -2.7730    -0.7700 C.3   1 <1>   0.0200 
 16 C        0.3420     4.0920    -1.3690 C.ar  1 <1>  -0.1500 
 17 C        1.8290     3.0980     0.2170 C.ar  1 <1>  -0.1500 
 18 C       -5.4010     0.5320    -2.1250 C.3   1 <1>   0.0400 
 19 C       -2.9070    -3.9330    -0.0630 C.2   1 <1>  -0.0400 
 20 C        1.6300     3.7580    -0.9850 C.ar  1 <1>  -0.1430 
 21 O       -1.7680    -4.3980    -0.5030 O.3   1 <1>  -0.0190 
 22 C       -3.2560    -4.6490     1.0160 C.2   1 <1>  -0.1500 
 23 C        2.8130     4.1160    -1.8660 C.3   1 <1>  -0.0970 
 24 N       -1.3340    -5.3860     0.2250 N.2   1 <1>  -0.4100 
 25 C       -2.2110    -5.5590     1.1490 C.2   1 <1>   0.1080 
 26 C       -2.1110    -6.6120     2.2300 C.3   1 <1>  -0.0590 
 27 H       -3.3120     1.7720    -0.6500 H     1 <1>   0.0800 
 28 H       -1.7420     1.1790    -1.1800 H     1 <1>   0.0800 
 29 H       -1.7070    -1.5000     1.2560 H     1 <1>   0.0800 
 30 H       -3.4360    -1.1960     1.3640 H     1 <1>   0.0800 
 31 H       -2.1850     3.1510     3.6780 H     1 <1>   0.1000 
 32 H       -1.3070     4.4760     2.8560 H     1 <1>   0.1000 
 33 H       -3.0240     4.4680     1.0210 H     1 <1>   0.1000 
 34 H       -3.8840     3.1100     1.8050 H     1 <1>   0.1000 
 35 H       -3.0890    -0.3030    -2.4460 H     1 <1>   0.0800 
 36 H       -1.7570    -1.6880    -1.0610 H     1 <1>   0.0800 
 37 H       -1.7260     4.0340    -0.8780 H     1 <1>   0.1500 
 38 H        0.9160     2.2590     1.9540 H     1 <1>   0.1500 
 39 H       -3.7200    -3.0270    -1.8050 H     1 <1>   0.0800 
 40 H       -4.5500    -2.6150    -0.3320 H     1 <1>   0.0800 
 41 H        0.1740     4.6100    -2.2970 H     1 <1>   0.1500 
 42 H        2.8230     2.8340     0.5320 H     1 <1>   0.1500 
 43 H       -6.4460     0.4790    -1.8730 H     1 <1>   0.0800 
 44 H       -5.2500     0.1370    -3.1150 H     1 <1>   0.0800 
 45 H       -5.0680     1.5530    -2.0680 H     1 <1>   0.0800 
 46 H       -4.1200    -4.5670     1.6480 H     1 <1>   0.1500 
 47 H        2.5180     4.1450    -2.9000 H     1 <1>   0.0800 
 48 H        3.5960     3.3880    -1.7570 H     1 <1>   0.0800 
 49 H        3.1950     5.0810    -1.5870 H     1 <1>   0.0800 
 50 H       -2.9550    -7.2740     2.1730 H     1 <1>   0.0800 
 51 H       -2.0910    -6.1410     3.1950 H     1 <1>   0.0800 
 52 H       -1.2100    -7.1840     2.1020 H     1 <1>   0.0800 
@<TRIPOS>BOND
  1   1   2  2   
  2   2   3  am  
  3   2   4  1   
  4   3   5  1   
  5   3   6  1   
  6   4   7  1   
  7   4   8  1   
  8   4   9  1   
  9   5  10  1   
 10   5  27  1   
 11   5  28  1   
 12   6  11  1   
 13   6  29  1   
 14   6  30  1   
 15   7  12  ar  
 16   7  13  ar  
 17   8   9  1   
 18   8  31  1   
 19   8  32  1   
 20   9  33  1   
 21   9  34  1   
 22  10  11  1   
 23  10  14  1   
 24  10  35  1   
 25  11  15  1   
 26  11  36  1   
 27  12  16  ar  
 28  12  37  1   
 29  13  17  ar  
 30  13  38  1   
 31  14  18  1   
 32  15  19  1   
 33  15  39  1   
 34  15  40  1   
 35  16  20  ar  
 36  16  41  1   
 37  17  20  ar  
 38  17  42  1   
 39  18  43  1   
 40  18  44  1   
 41  18  45  1   
 42  19  21  1   
 43  19  22  2   
 44  20  23  1   
 45  21  24  1   
 46  22  25  1   
 47  22  46  1   
 48  23  47  1   
 49  23  48  1   
 50  23  49  1   
 51  24  25  2   
 52  25  26  1   
 53  26  50  1   
 54  26  51  1   
 55  26  52  1   
@<TRIPOS>SUBSTRUCTURE
  1 ****   3 GROUP 4 **** **** 0

# MOE 2024.06 (io_trps.svl 2023.06)
