@<TRIPOS>MOLECULE
NONAME
50 52 1 0 0 
SMALL
USER_CHARGES


@<TRIPOS>ATOM
  1 S       -1.0800     0.8420     0.9580 S.o2  1 <1>   1.4470 
  2 O       -0.9970    -0.2350     1.9220 O.2   1 <1>  -0.6500 
  3 O       -1.9420     1.9710     1.2370 O.2   1 <1>  -0.6500 
  4 N       -1.5550     0.1990    -0.5380 N.am  1 <1>  -0.8490 
  5 C        0.5900     1.4610     0.6060 C.ar  1 <1>  -0.0090 
  6 C       -0.7590    -0.9570    -1.0100 C.3   1 <1>   0.1960 
  7 C       -2.9940     0.0220    -0.7150 C.3   1 <1>   0.1960 
  8 C        0.8410     2.2450    -0.5140 C.ar  1 <1>  -0.1500 
  9 C        1.6610     1.1620     1.4410 C.ar  1 <1>  -0.1500 
 10 C       -1.4930    -2.3240    -1.0360 C.3   1 <1>  -0.1060 
 11 C       -3.5160    -1.1730     0.0890 C.3   1 <1>  -0.1600 
 12 C        2.1120     2.7130    -0.8010 C.ar  1 <1>  -0.1500 
 13 C        2.9350     1.6250     1.1660 C.ar  1 <1>  -0.1500 
 14 C       -2.1630    -2.4920    -2.4080 C.2   1 <1>   0.9060 
 15 C       -2.5310    -2.3540     0.1150 C.3   1 <1>   0.2000 
 16 C       -0.4650    -3.4850    -0.9070 C.3   1 <1>  -0.0650 
 17 C        3.1720     2.4010     0.0440 C.ar  1 <1>   0.0830 
 18 O       -3.3160    -2.9440    -2.4910 O.co2 1 <1>  -0.9000 
 19 O       -1.5220    -2.2070    -3.4260 O.co2 1 <1>  -0.9000 
 20 O       -3.2700    -3.5180     0.0520 O.3   1 <1>  -0.6800 
 21 C        0.3680    -3.5210     0.3880 C.3   1 <1>  -0.1950 
 22 O        4.4480     2.8100    -0.1590 O.3   1 <1>  -0.3630 
 23 C        1.7020    -2.8500     0.5000 C.3   1 <1>  -0.2000 
 24 C        1.6140    -4.3470     0.4380 C.3   1 <1>  -0.2000 
 25 C        4.8010     3.5900    -1.2770 C.3   1 <1>   0.1200 
 26 C        6.2990     3.8700    -1.2040 C.3   1 <1>  -0.2400 
 27 H       -0.3850    -0.7270    -1.9930 H     1 <1>   0.0800 
 28 H        0.1080    -1.0390    -0.3850 H     1 <1>   0.0800 
 29 H       -3.5210     0.9170    -0.4310 H     1 <1>   0.0800 
 30 H       -3.1920    -0.1440    -1.7620 H     1 <1>   0.0800 
 31 H        0.0230     2.4860    -1.1740 H     1 <1>   0.1500 
 32 H        1.4940     0.5570     2.3170 H     1 <1>   0.1500 
 33 H       -4.4510    -1.4750    -0.3500 H     1 <1>   0.0800 
 34 H       -3.7110    -0.8630     1.0980 H     1 <1>   0.0800 
 35 H        2.2540     3.3120    -1.6800 H     1 <1>   0.1500 
 36 H        3.7560     1.3860     1.8190 H     1 <1>   0.1500 
 37 H       -2.0270    -2.3500     1.0640 H     1 <1>   0.0800 
 38 H       -0.9980    -4.4170    -0.9850 H     1 <1>   0.0800 
 39 H        0.2030    -3.4460    -1.7520 H     1 <1>   0.0800 
 40 H       -3.5590    -3.5790    -0.9050 H     1 <1>   0.4000 
 41 H       -0.2460    -3.5690     1.2720 H     1 <1>   0.1000 
 42 H        2.1060    -2.3300    -0.3520 H     1 <1>   0.1000 
 43 H        1.9520    -2.3740     1.4320 H     1 <1>   0.1000 
 44 H        1.8150    -4.9170     1.3280 H     1 <1>   0.1000 
 45 H        1.9400    -4.8480    -0.4570 H     1 <1>   0.1000 
 46 H        4.5600     3.0370    -2.1680 H     1 <1>   0.0800 
 47 H        4.2410     4.5090    -1.2420 H     1 <1>   0.0800 
 48 H        6.8490     2.9460    -1.2230 H     1 <1>   0.0800 
 49 H        6.5320     4.4080    -0.3030 H     1 <1>   0.0800 
 50 H        6.6010     4.4650    -2.0470 H     1 <1>   0.0800 
@<TRIPOS>BOND
  1   1   2  2   
  2   1   3  2   
  3   1   4  am  
  4   1   5  1   
  5   4   6  1   
  6   4   7  1   
  7   5   8  ar  
  8   5   9  ar  
  9   6  10  1   
 10   6  27  1   
 11   6  28  1   
 12   7  11  1   
 13   7  29  1   
 14   7  30  1   
 15   8  12  ar  
 16   8  31  1   
 17   9  13  ar  
 18   9  32  1   
 19  10  14  1   
 20  10  15  1   
 21  10  16  1   
 22  11  15  1   
 23  11  33  1   
 24  11  34  1   
 25  12  17  ar  
 26  12  35  1   
 27  13  17  ar  
 28  13  36  1   
 29  14  18  ar  
 30  14  19  ar  
 31  15  20  1   
 32  15  37  1   
 33  16  21  1   
 34  16  38  1   
 35  16  39  1   
 36  17  22  1   
 37  20  40  1   
 38  21  23  1   
 39  21  24  1   
 40  21  41  1   
 41  22  25  1   
 42  23  24  1   
 43  23  42  1   
 44  23  43  1   
 45  24  44  1   
 46  24  45  1   
 47  25  26  1   
 48  25  46  1   
 49  25  47  1   
 50  26  48  1   
 51  26  49  1   
 52  26  50  1   
@<TRIPOS>SUBSTRUCTURE
  1 ****   6 GROUP 4 **** **** 0

# MOE 2024.06 (io_trps.svl 2023.06)
