@<TRIPOS>MOLECULE
NONAME
42 43 1 0 0 
SMALL
USER_CHARGES


@<TRIPOS>ATOM
  1 O       -0.2030     0.0920     0.2670 O.2   1 <1>  -0.5700 
  2 C       -0.3220     1.2570    -0.0440 C.2   1 <1>   0.5690 
  3 N       -1.5230     1.9160     0.1020 N.am  1 <1>  -0.6600 
  4 C        0.9130     1.9320    -0.6570 C.3   1 <1>   0.1810 
  5 C       -1.7140     3.3480    -0.2740 C.3   1 <1>   0.1400 
  6 C       -2.6830     1.2360     0.7530 C.3   1 <1>   0.1400 
  7 O        1.2410     3.1590    -0.0490 O.3   1 <1>  -0.5600 
  8 C       -3.1870     3.6110    -0.5900 C.3   1 <1>  -0.1600 
  9 C       -3.5250     2.2450     1.5380 C.3   1 <1>  -0.1600 
 10 C        2.4200     3.7260    -0.5200 C.3   1 <1>   0.0400 
 11 C       -4.0830     3.3830     0.6500 C.3   1 <1>   0.2800 
 12 O       -3.9440     4.5600     1.4180 O.3   1 <1>  -0.5600 
 13 C       -5.5770     3.1090     0.2730 C.3   1 <1>   0.2000 
 14 C       -5.0610     5.3590     1.6770 C.3   1 <1>   0.1200 
 15 O       -5.7000     2.0020    -0.5820 O.3   1 <1>  -0.6800 
 16 C       -6.3270     4.3700    -0.2670 C.3   1 <1>   0.2800 
 17 C       -5.7730     5.6610     0.3590 C.3   1 <1>  -0.1600 
 18 O       -7.6460     4.2710     0.1350 O.3   1 <1>  -0.6800 
 19 C       -6.3780     4.4930    -1.7970 C.3   1 <1>  -0.2400 
 20 H        0.7340     2.1050    -1.7020 H     1 <1>   0.0800 
 21 H        1.7520     1.2680    -0.5480 H     1 <1>   0.0800 
 22 H       -1.3960     3.9740     0.5440 H     1 <1>   0.0800 
 23 H       -1.1170     3.5880    -1.1360 H     1 <1>   0.0800 
 24 H       -3.2860     0.7650    -0.0050 H     1 <1>   0.0800 
 25 H       -2.3300     0.4710     1.4230 H     1 <1>   0.0800 
 26 H       -3.4640     2.9520    -1.3910 H     1 <1>   0.0800 
 27 H       -3.2980     4.6180    -0.9450 H     1 <1>   0.0800 
 28 H       -2.9000     2.6540     2.3120 H     1 <1>   0.0800 
 29 H       -4.3280     1.7180     2.0200 H     1 <1>   0.0800 
 30 H        2.5720     4.6580    -0.0020 H     1 <1>   0.0800 
 31 H        2.3320     3.9080    -1.5770 H     1 <1>   0.0800 
 32 H        3.2410     3.0610    -0.3140 H     1 <1>   0.0800 
 33 H       -6.0690     2.8190     1.1850 H     1 <1>   0.0800 
 34 H       -5.7070     4.8440     2.3690 H     1 <1>   0.0800 
 35 H       -4.7110     6.2670     2.1380 H     1 <1>   0.0800 
 36 H       -5.5920     2.2830    -1.5090 H     1 <1>   0.4000 
 37 H       -5.0550     6.1200    -0.2970 H     1 <1>   0.0800 
 38 H       -6.5590     6.3770     0.5220 H     1 <1>   0.0800 
 39 H       -8.1830     4.9510    -0.3120 H     1 <1>   0.4000 
 40 H       -5.3850     4.5130    -2.2060 H     1 <1>   0.0800 
 41 H       -6.8700     5.4050    -2.0850 H     1 <1>   0.0800 
 42 H       -6.9100     3.6640    -2.2300 H     1 <1>   0.0800 
@<TRIPOS>BOND
  1   1   2  2   
  2   2   3  am  
  3   2   4  1   
  4   3   5  1   
  5   3   6  1   
  6   4   7  1   
  7   4  20  1   
  8   4  21  1   
  9   5   8  1   
 10   5  22  1   
 11   5  23  1   
 12   6   9  1   
 13   6  24  1   
 14   6  25  1   
 15   7  10  1   
 16   8  11  1   
 17   8  26  1   
 18   8  27  1   
 19   9  11  1   
 20   9  28  1   
 21   9  29  1   
 22  10  30  1   
 23  10  31  1   
 24  10  32  1   
 25  11  12  1   
 26  11  13  1   
 27  12  14  1   
 28  13  15  1   
 29  13  16  1   
 30  13  33  1   
 31  14  17  1   
 32  14  34  1   
 33  14  35  1   
 34  15  36  1   
 35  16  17  1   
 36  16  18  1   
 37  16  19  1   
 38  17  37  1   
 39  17  38  1   
 40  18  39  1   
 41  19  40  1   
 42  19  41  1   
 43  19  42  1   
@<TRIPOS>SUBSTRUCTURE
  1 ****   8 GROUP 4 **** **** 0

# MOE 2024.06 (io_trps.svl 2023.06)
