@<TRIPOS>MOLECULE
NONAME
48 50 1 0 0 
SMALL
USER_CHARGES


@<TRIPOS>ATOM
  1 S        0.5900     0.3010    -1.4410 S.o2  1 <1>   1.3330 
  2 O        0.9420    -1.0680    -1.7450 O.2   1 <1>  -0.6500 
  3 O       -0.1440     1.0850    -2.4080 O.2   1 <1>  -0.6500 
  4 N       -0.3170     0.2990    -0.0030 N.am  1 <1>  -0.8490 
  5 C        2.0930     1.1720    -0.9910 C.3   1 <1>  -0.0550 
  6 C       -1.2110    -0.8610     0.0850 C.3   1 <1>   0.1160 
  7 C       -1.0870     1.5310     0.1970 C.3   1 <1>   0.1160 
  8 C        3.0050     0.3950    -0.0170 C.3   1 <1>  -0.0800 
  9 C        4.3660     1.0270     0.2330 C.3   1 <1>   0.2200 
 10 C        2.4510     0.2140     1.4030 C.3   1 <1>   0.1200 
 11 N        4.2410     2.4910     0.4400 N.am  1 <1>  -0.7300 
 12 C        4.7280     0.3790     1.5610 C.3   1 <1>   0.1200 
 13 O        3.5330     0.3620     2.2790 O.3   1 <1>  -0.5600 
 14 C        4.5690     3.4400    -0.4770 C.2   1 <1>   0.7150 
 15 O        4.8680     3.0820    -1.5970 O.2   1 <1>  -0.5700 
 16 C        4.5300     4.8310    -0.1040 C.2   1 <1>  -0.2370 
 17 N        3.6700     5.2980     0.8650 N.pl3 1 <1>   0.0330 
 18 C        5.2370     5.9060    -0.5720 C.2   1 <1>  -0.1810 
 19 C        3.8310     6.6470     1.0100 C.ar  1 <1>  -0.1520 
 20 C        4.8140     7.0600     0.1150 C.ar  1 <1>   0.0000 
 21 C        6.3120     5.9350    -1.6450 C.3   1 <1>  -0.0590 
 22 C        3.1860     7.5530     1.8620 C.ar  1 <1>  -0.1500 
 23 C        5.1710     8.4130     0.0580 C.ar  1 <1>  -0.1500 
 24 C        3.5400     8.8820     1.8050 C.ar  1 <1>  -0.1500 
 25 C        4.5280     9.2840     0.9010 C.ar  1 <1>   0.1900 
 26 F        4.8450    10.5540     0.8670 F     1 <1>  -0.1900 
 27 H        2.6520     1.3590    -1.8880 H     1 <1>   0.0800 
 28 H        1.8390     2.1250    -0.5720 H     1 <1>   0.0800 
 29 H       -1.7650    -0.8370     1.0080 H     1 <1>   0.0800 
 30 H       -0.6380    -1.7720     0.0610 H     1 <1>   0.0800 
 31 H       -1.9010    -0.8660    -0.7430 H     1 <1>   0.0800 
 32 H       -1.5640     1.5170     1.1630 H     1 <1>   0.0800 
 33 H       -1.8430     1.6320    -0.5650 H     1 <1>   0.0800 
 34 H       -0.4370     2.3880     0.1520 H     1 <1>   0.0800 
 35 H        3.1740    -0.5870    -0.4250 H     1 <1>   0.0800 
 36 H        5.0810     0.8040    -0.5420 H     1 <1>   0.0800 
 37 H        2.0180    -0.7630     1.5400 H     1 <1>   0.0800 
 38 H        1.7270     0.9700     1.6520 H     1 <1>   0.0800 
 39 H        4.1270     2.7520     1.4180 H     1 <1>   0.3700 
 40 H        5.4760     0.9250     2.1080 H     1 <1>   0.0800 
 41 H        5.0450    -0.6400     1.4190 H     1 <1>   0.0800 
 42 H        2.9740     4.7390     1.3660 H     1 <1>   0.2700 
 43 H        7.2000     6.4030    -1.2610 H     1 <1>   0.0800 
 44 H        5.9620     6.4950    -2.4940 H     1 <1>   0.0800 
 45 H        6.5640     4.9430    -1.9690 H     1 <1>   0.0800 
 46 H        2.4300     7.2110     2.5460 H     1 <1>   0.1500 
 47 H        5.9260     8.7480    -0.6270 H     1 <1>   0.1500 
 48 H        3.0760     9.6180     2.4360 H     1 <1>   0.1500 
@<TRIPOS>BOND
  1   1   2  2   
  2   1   3  2   
  3   1   4  am  
  4   1   5  1   
  5   4   6  1   
  6   4   7  1   
  7   5   8  1   
  8   5  27  1   
  9   5  28  1   
 10   6  29  1   
 11   6  30  1   
 12   6  31  1   
 13   7  32  1   
 14   7  33  1   
 15   7  34  1   
 16   8   9  1   
 17   8  10  1   
 18   8  35  1   
 19   9  11  1   
 20   9  12  1   
 21   9  36  1   
 22  10  13  1   
 23  10  37  1   
 24  10  38  1   
 25  11  14  am  
 26  11  39  1   
 27  12  13  1   
 28  12  40  1   
 29  12  41  1   
 30  14  15  2   
 31  14  16  1   
 32  16  17  1   
 33  16  18  2   
 34  17  19  1   
 35  17  42  1   
 36  18  20  1   
 37  18  21  1   
 38  19  20  ar  
 39  19  22  ar  
 40  20  23  ar  
 41  21  43  1   
 42  21  44  1   
 43  21  45  1   
 44  22  24  ar  
 45  22  46  1   
 46  23  25  ar  
 47  23  47  1   
 48  24  25  ar  
 49  24  48  1   
 50  25  26  1   
@<TRIPOS>SUBSTRUCTURE
  1 ****  14 GROUP 4 **** **** 0

# MOE 2024.06 (io_trps.svl 2023.06)
