@<TRIPOS>MOLECULE
NONAME
35 36 1 0 0 
SMALL
USER_CHARGES


@<TRIPOS>ATOM
  1 S        0.1720     0.2220    -0.3690 S.o2  1 <1>   1.0900 
  2 O       -0.5620     0.2730     0.8730 O.2   1 <1>  -0.6500 
  3 O       -0.4200     0.7380    -1.5810 O.2   1 <1>  -0.6500 
  4 C        1.7310     1.0530    -0.1180 C.3   1 <1>  -0.0550 
  5 C        0.6430    -1.4720    -0.6630 C.3   1 <1>  -0.1350 
  6 C        1.5070     2.5430     0.1260 C.3   1 <1>   0.1100 
  7 N        2.7950     3.2470     0.2580 N.3   1 <1>  -0.8100 
  8 C        2.5950     4.7030     0.0460 C.3   1 <1>   0.2900 
  9 C        3.3950     3.0160     1.5880 C.3   1 <1>   0.0300 
 10 C        3.9230     5.4230    -0.1270 C.2   1 <1>   0.0060 
 11 N        4.9390     4.8450    -0.8110 N.pl3 1 <1>   0.0330 
 12 N        4.2020     6.5940     0.3350 N.2   1 <1>  -0.5650 
 13 C        5.9660     5.7300    -0.7800 C.ar  1 <1>  -0.1520 
 14 C        5.4870     6.8140    -0.0620 C.ar  1 <1>   0.2270 
 15 C        7.2660     5.7030    -1.2980 C.ar  1 <1>  -0.1500 
 16 C        6.3030     7.9210     0.1600 C.ar  1 <1>  -0.1500 
 17 C        8.0760     6.7960    -1.0790 C.ar  1 <1>  -0.1500 
 18 C        7.5760     7.8820    -0.3540 C.ar  1 <1>   0.1900 
 19 F        8.3690     8.9060    -0.1630 F     1 <1>  -0.1900 
 20 H        2.3480     0.9380    -0.9880 H     1 <1>   0.0800 
 21 H        2.2310     0.6220     0.7260 H     1 <1>   0.0800 
 22 H       -0.2330    -2.0690    -0.8280 H     1 <1>   0.0800 
 23 H        1.1690    -1.8700     0.1830 H     1 <1>   0.0800 
 24 H        1.2690    -1.5450    -1.5310 H     1 <1>   0.0800 
 25 H        0.9020     2.6930     1.0070 H     1 <1>   0.0800 
 26 H        0.9640     2.9370    -0.7180 H     1 <1>   0.0800 
 27 H        2.0560     5.1330     0.8730 H     1 <1>   0.0800 
 28 H        2.0190     4.8640    -0.8490 H     1 <1>   0.0800 
 29 H        3.6090     1.9720     1.7320 H     1 <1>   0.0800 
 30 H        2.7280     3.3470     2.3670 H     1 <1>   0.0800 
 31 H        4.3220     3.5560     1.6820 H     1 <1>   0.0800 
 32 H        4.9180     3.8990    -1.2020 H     1 <1>   0.2700 
 33 H        7.6150     4.8480    -1.8510 H     1 <1>   0.1500 
 34 H        5.9310     8.7600     0.7150 H     1 <1>   0.1500 
 35 H        9.0830     6.8330    -1.4520 H     1 <1>   0.1500 
@<TRIPOS>BOND
  1   1   2  2   
  2   1   3  2   
  3   1   4  1   
  4   1   5  1   
  5   4   6  1   
  6   4  20  1   
  7   4  21  1   
  8   5  22  1   
  9   5  23  1   
 10   5  24  1   
 11   6   7  1   
 12   6  25  1   
 13   6  26  1   
 14   7   8  1   
 15   7   9  1   
 16   8  10  1   
 17   8  27  1   
 18   8  28  1   
 19   9  29  1   
 20   9  30  1   
 21   9  31  1   
 22  10  11  1   
 23  10  12  2   
 24  11  13  1   
 25  11  32  1   
 26  12  14  1   
 27  13  14  ar  
 28  13  15  ar  
 29  14  16  ar  
 30  15  17  ar  
 31  15  33  1   
 32  16  18  ar  
 33  16  34  1   
 34  17  18  ar  
 35  17  35  1   
 36  18  19  1   
@<TRIPOS>SUBSTRUCTURE
  1 ****  10 GROUP 4 **** **** 0

# MOE 2024.06 (io_trps.svl 2023.06)
