@<TRIPOS>MOLECULE
NONAME
41 43 1 0 0 
SMALL
USER_CHARGES


@<TRIPOS>ATOM
  1 O        0.6680    -0.1610    -0.8820 O.2   1 <1>  -0.5700 
  2 C        1.5510    -0.6320    -0.2030 C.2   1 <1>   0.5690 
  3 N        2.4740     0.1790     0.4140 N.am  1 <1>  -0.6600 
  4 C        1.6220    -2.1550    -0.0610 C.3   1 <1>  -0.0190 
  5 C        3.6580    -0.2580     1.2150 C.3   1 <1>   0.1400 
  6 C        2.4230     1.6650     0.2640 C.3   1 <1>   0.1400 
  7 C        2.6880    -2.7990    -0.9740 C.3   1 <1>  -0.0220 
  8 C        0.3070    -2.9240    -0.3350 C.3   1 <1>  -0.0220 
  9 C        4.9560     0.3170     0.6230 C.3   1 <1>   0.1100 
 10 C        3.7480     2.2010    -0.3050 C.3   1 <1>   0.1100 
 11 C        2.0780    -4.1370    -1.3090 C.2   1 <1>  -0.2880 
 12 C        0.7990    -4.2050    -0.9630 C.2   1 <1>  -0.2880 
 13 N        4.9110     1.7910     0.5200 N.3   1 <1>  -0.8100 
 14 C        6.1780     2.3040    -0.0290 C.3   1 <1>   0.1100 
 15 C        6.3380     3.7960     0.2690 C.3   1 <1>   0.0960 
 16 N        7.6790     4.2450    -0.1370 N.pl3 1 <1>   0.3140 
 17 N        8.0790     4.2690    -1.4010 N.2   1 <1>  -0.7070 
 18 C        8.6810     4.6750     0.6350 C.2   1 <1>   0.0360 
 19 C        9.2890     4.7130    -1.3010 C.2   1 <1>   0.3660 
 20 N        9.7160     4.9810    -0.0600 N.2   1 <1>  -0.5650 
 21 H        1.8790    -2.3860     0.9550 H     1 <1>   0.0800 
 22 H        3.7370    -1.3270     1.2510 H     1 <1>   0.0800 
 23 H        3.5480     0.0980     2.2250 H     1 <1>   0.0800 
 24 H        2.2440     2.1110     1.2260 H     1 <1>   0.0800 
 25 H        1.6180     1.9570    -0.3870 H     1 <1>   0.0800 
 26 H        3.6270    -2.9110    -0.4650 H     1 <1>   0.0800 
 27 H        2.8250    -2.2270    -1.8770 H     1 <1>   0.0800 
 28 H       -0.3330    -2.4140    -1.0340 H     1 <1>   0.0800 
 29 H       -0.2300    -3.1070     0.5790 H     1 <1>   0.0800 
 30 H        5.1180    -0.1140    -0.3510 H     1 <1>   0.0800 
 31 H        5.7780     0.0300     1.2560 H     1 <1>   0.0800 
 32 H        3.6860     3.2740    -0.3440 H     1 <1>   0.0800 
 33 H        3.8630     1.8370    -1.3120 H     1 <1>   0.0800 
 34 H        2.6880    -4.8840    -1.7880 H     1 <1>   0.1500 
 35 H        0.1070    -5.0210    -1.0880 H     1 <1>   0.1500 
 36 H        6.2220     2.1300    -1.0920 H     1 <1>   0.0800 
 37 H        6.9990     1.7820     0.4350 H     1 <1>   0.0800 
 38 H        6.2140     3.9740     1.3200 H     1 <1>   0.0800 
 39 H        5.6160     4.3690    -0.2810 H     1 <1>   0.0800 
 40 H        8.6090     4.7490     1.7050 H     1 <1>   0.1500 
 41 H        9.9360     4.8660    -2.1500 H     1 <1>   0.1500 
@<TRIPOS>BOND
  1   1   2  2   
  2   2   3  am  
  3   2   4  1   
  4   3   5  1   
  5   3   6  1   
  6   4   7  1   
  7   4   8  1   
  8   4  21  1   
  9   5   9  1   
 10   5  22  1   
 11   5  23  1   
 12   6  10  1   
 13   6  24  1   
 14   6  25  1   
 15   7  11  1   
 16   7  26  1   
 17   7  27  1   
 18   8  12  1   
 19   8  28  1   
 20   8  29  1   
 21   9  13  1   
 22   9  30  1   
 23   9  31  1   
 24  10  13  1   
 25  10  32  1   
 26  10  33  1   
 27  11  12  2   
 28  11  34  1   
 29  12  35  1   
 30  13  14  1   
 31  14  15  1   
 32  14  36  1   
 33  14  37  1   
 34  15  16  1   
 35  15  38  1   
 36  15  39  1   
 37  16  17  1   
 38  16  18  1   
 39  17  19  2   
 40  18  20  2   
 41  18  40  1   
 42  19  20  1   
 43  19  41  1   
@<TRIPOS>SUBSTRUCTURE
  1 ****   9 GROUP 4 **** **** 0

# MOE 2024.06 (io_trps.svl 2023.06)
