@<TRIPOS>MOLECULE
NONAME
50 52 1 0 0 
SMALL
USER_CHARGES


@<TRIPOS>ATOM
  1 CL       0.4490    -0.5080    -2.1430 Cl    1 <1>  -0.1770 
  2 C        0.2010    -2.0500    -1.3650 C.ar  1 <1>   0.1770 
  3 C        0.8880    -3.1580    -1.8230 C.ar  1 <1>  -0.1500 
  4 C       -0.6790    -2.1400    -0.3030 C.ar  1 <1>  -0.1500 
  5 C        0.6890    -4.3810    -1.2040 C.ar  1 <1>  -0.1500 
  6 C       -0.8740    -3.3660     0.3110 C.ar  1 <1>  -0.1500 
  7 C       -0.1920    -4.4890    -0.1370 C.ar  1 <1>  -0.1430 
  8 C       -0.4180    -5.8330     0.5360 C.3   1 <1>  -0.0160 
  9 C       -1.6280    -6.5400    -0.0920 C.3   1 <1>  -0.0990 
 10 C       -1.9530    -7.8870     0.5380 C.2   1 <1>   0.5690 
 11 O       -1.2320    -8.3090     1.4110 O.2   1 <1>  -0.5700 
 12 N       -3.0400    -8.6080     0.1100 N.am  1 <1>  -0.6600 
 13 C       -3.4230    -9.8560     0.8540 C.3   1 <1>   0.1400 
 14 C       -3.8890    -8.2390    -1.0710 C.3   1 <1>   0.1400 
 15 C       -4.2650   -10.7780    -0.0470 C.3   1 <1>   0.4230 
 16 C       -5.3580    -8.6130    -0.8330 C.3   1 <1>  -0.1600 
 17 N       -4.5030   -12.1720     0.4570 N.4   1 <1>  -0.9590 
 18 C       -5.6030   -10.0910    -0.3900 C.3   1 <1>  -0.1060 
 19 C       -5.1450   -13.0250    -0.5790 C.3   1 <1>   0.3430 
 20 C       -3.3410   -12.8310     1.1120 C.3   1 <1>   0.2630 
 21 C       -6.5370   -10.0900     0.8350 C.2   1 <1>   0.9060 
 22 C       -6.2480   -10.9090    -1.5340 C.3   1 <1>  -0.1600 
 23 C       -6.4300   -12.3810    -1.1140 C.3   1 <1>  -0.1600 
 24 O       -7.5950    -9.4680     0.7710 O.co2 1 <1>  -0.9000 
 25 O       -6.2380   -10.7640     1.8340 O.co2 1 <1>  -0.9000 
 26 H        1.5680    -3.0620    -2.6490 H     1 <1>   0.1500 
 27 H       -1.2010    -1.2640     0.0350 H     1 <1>   0.1500 
 28 H        1.2230    -5.2470    -1.5570 H     1 <1>   0.1500 
 29 H       -1.5590    -3.4430     1.1390 H     1 <1>   0.1500 
 30 H        0.4580    -6.4490     0.4320 H     1 <1>   0.0800 
 31 H       -0.5880    -5.6880     1.5890 H     1 <1>   0.0800 
 32 H       -1.4400    -6.6860    -1.1390 H     1 <1>   0.0800 
 33 H       -2.4860    -5.9020     0.0160 H     1 <1>   0.0800 
 34 H       -2.5250   -10.3590     1.1590 H     1 <1>   0.0800 
 35 H       -3.9790    -9.5810     1.7340 H     1 <1>   0.0800 
 36 H       -3.8360    -7.1820    -1.2660 H     1 <1>   0.0800 
 37 H       -3.5220    -8.7540    -1.9410 H     1 <1>   0.0800 
 38 H       -3.7070   -10.8710    -0.9620 H     1 <1>   0.0800 
 39 H       -5.7240    -7.9460    -0.0690 H     1 <1>   0.0800 
 40 H       -5.9330    -8.3880    -1.7140 H     1 <1>   0.0800 
 41 H       -5.2320   -11.9840     1.1990 H     1 <1>   0.4500 
 42 H       -4.4560   -13.1710    -1.3950 H     1 <1>   0.0800 
 43 H       -5.3830   -13.9890    -0.1600 H     1 <1>   0.0800 
 44 H       -2.5270   -12.9350     0.4140 H     1 <1>   0.0800 
 45 H       -3.6250   -13.8060     1.4710 H     1 <1>   0.0800 
 46 H       -3.0100   -12.2450     1.9540 H     1 <1>   0.0800 
 47 H       -7.2120   -10.4910    -1.7740 H     1 <1>   0.0800 
 48 H       -5.6350   -10.8560    -2.4170 H     1 <1>   0.0800 
 49 H       -6.7850   -12.9500    -1.9550 H     1 <1>   0.0800 
 50 H       -7.1890   -12.4440    -0.3520 H     1 <1>   0.0800 
@<TRIPOS>BOND
  1   1   2  1   
  2   2   3  ar  
  3   2   4  ar  
  4   3   5  ar  
  5   3  26  1   
  6   4   6  ar  
  7   4  27  1   
  8   5   7  ar  
  9   5  28  1   
 10   6   7  ar  
 11   6  29  1   
 12   7   8  1   
 13   8   9  1   
 14   8  30  1   
 15   8  31  1   
 16   9  10  1   
 17   9  32  1   
 18   9  33  1   
 19  10  11  2   
 20  10  12  am  
 21  12  13  1   
 22  12  14  1   
 23  13  15  1   
 24  13  34  1   
 25  13  35  1   
 26  14  16  1   
 27  14  36  1   
 28  14  37  1   
 29  15  17  1   
 30  15  18  1   
 31  15  38  1   
 32  16  18  1   
 33  16  39  1   
 34  16  40  1   
 35  17  19  1   
 36  17  20  1   
 37  17  41  1   
 38  18  21  1   
 39  18  22  1   
 40  19  23  1   
 41  19  42  1   
 42  19  43  1   
 43  20  44  1   
 44  20  45  1   
 45  20  46  1   
 46  21  24  ar  
 47  21  25  ar  
 48  22  23  1   
 49  22  47  1   
 50  22  48  1   
 51  23  49  1   
 52  23  50  1   
@<TRIPOS>SUBSTRUCTURE
  1 ****  12 GROUP 4 **** **** 0

# MOE 2024.06 (io_trps.svl 2023.06)
