@<TRIPOS>MOLECULE
NONAME
52 55 1 0 0 
SMALL
USER_CHARGES


@<TRIPOS>ATOM
  1 O       -2.8600     0.4020     0.4060 O.2   1 <1>  -0.5700 
  2 C       -2.8460     1.2840    -0.4360 C.2   1 <1>   0.5440 
  3 N       -3.7520     1.1470    -1.4600 N.am  1 <1>  -0.6600 
  4 C       -1.9630     2.4350    -0.3300 C.ar  1 <1>   0.0860 
  5 C       -5.1360     1.6560    -1.2060 C.3   1 <1>   0.1400 
  6 C       -3.7490    -0.1440    -2.2230 C.3   1 <1>   0.1400 
  7 C       -1.1930     2.6400     0.8120 C.ar  1 <1>  -0.1500 
  8 C       -1.8590     3.3790    -1.3740 C.ar  1 <1>  -0.1500 
  9 C       -5.9840     0.6290    -0.4020 C.3   1 <1>   0.4230 
 10 C       -4.8010    -1.1470    -1.6890 C.3   1 <1>   0.3430 
 11 C       -0.3570     3.7480     0.9160 C.ar  1 <1>   0.0000 
 12 C       -1.0330     4.4810    -1.2830 C.ar  1 <1>  -0.1500 
 13 N       -5.3180    -0.7290    -0.3390 N.4   1 <1>  -0.9590 
 14 C       -7.4180     0.5140    -0.9680 C.3   1 <1>   0.1200 
 15 C       -0.2880     4.6520    -0.1270 C.ar  1 <1>   0.1400 
 16 C        0.5300     4.2570     1.8870 C.2   1 <1>  -0.1500 
 17 C       -6.1900    -1.7110     0.3810 C.3   1 <1>   0.4230 
 18 O       -8.1570    -0.4360    -0.2550 O.3   1 <1>  -0.5600 
 19 O        0.5600     5.6350     0.1630 O.3   1 <1>  -0.2800 
 20 C        1.0470     5.3900     1.3740 C.2   1 <1>  -0.0400 
 21 C       -7.6130    -1.7290    -0.2270 C.3   1 <1>   0.1200 
 22 C       -5.5310    -3.0980     0.4170 C.3   1 <1>  -0.1600 
 23 C        2.0470     6.3690     1.9470 C.3   1 <1>  -0.0600 
 24 C       -6.1970    -4.0380     1.4340 C.3   1 <1>  -0.1600 
 25 C       -5.4600    -5.3790     1.5000 C.3   1 <1>  -0.2400 
 26 H       -5.0890     2.5810    -0.6560 H     1 <1>   0.0800 
 27 H       -5.6050     1.8720    -2.1500 H     1 <1>   0.0800 
 28 H       -3.9280     0.0510    -3.2660 H     1 <1>   0.0800 
 29 H       -2.7730    -0.5950    -2.1470 H     1 <1>   0.0800 
 30 H       -1.2340     1.9440     1.6310 H     1 <1>   0.1500 
 31 H       -2.4360     3.2380    -2.2710 H     1 <1>   0.1500 
 32 H       -6.0730     1.0070     0.6030 H     1 <1>   0.0800 
 33 H       -4.3430    -2.1210    -1.6290 H     1 <1>   0.0800 
 34 H       -5.6190    -1.2120    -2.3870 H     1 <1>   0.0800 
 35 H       -0.9490     5.2030    -2.0750 H     1 <1>   0.1500 
 36 H       -4.4550    -0.5620     0.2230 H     1 <1>   0.4500 
 37 H       -7.4100     0.2320    -2.0060 H     1 <1>   0.0800 
 38 H       -7.9300     1.4560    -0.8740 H     1 <1>   0.0800 
 39 H        0.7220     3.7940     2.8380 H     1 <1>   0.1500 
 40 H       -6.2910    -1.3790     1.4020 H     1 <1>   0.0800 
 41 H       -8.2680    -2.3350     0.3740 H     1 <1>   0.0800 
 42 H       -7.6070    -2.1240    -1.2270 H     1 <1>   0.0800 
 43 H       -5.5750    -3.5580    -0.5540 H     1 <1>   0.0800 
 44 H       -4.4980    -2.9840     0.6990 H     1 <1>   0.0800 
 45 H        2.3580     6.0540     2.9260 H     1 <1>   0.0800 
 46 H        1.6000     7.3440     2.0170 H     1 <1>   0.0800 
 47 H        2.9070     6.4250     1.3060 H     1 <1>   0.0800 
 48 H       -6.1860    -3.5890     2.4140 H     1 <1>   0.0800 
 49 H       -7.2220    -4.2250     1.1640 H     1 <1>   0.0800 
 50 H       -4.4370    -5.2380     1.8030 H     1 <1>   0.0800 
 51 H       -5.4740    -5.8700     0.5430 H     1 <1>   0.0800 
 52 H       -5.9370    -6.0250     2.2170 H     1 <1>   0.0800 
@<TRIPOS>BOND
  1   1   2  2   
  2   2   3  am  
  3   2   4  1   
  4   3   5  1   
  5   3   6  1   
  6   4   7  ar  
  7   4   8  ar  
  8   5   9  1   
  9   5  26  1   
 10   5  27  1   
 11   6  10  1   
 12   6  28  1   
 13   6  29  1   
 14   7  11  ar  
 15   7  30  1   
 16   8  12  ar  
 17   8  31  1   
 18   9  13  1   
 19   9  14  1   
 20   9  32  1   
 21  10  13  1   
 22  10  33  1   
 23  10  34  1   
 24  11  15  ar  
 25  11  16  1   
 26  12  15  ar  
 27  12  35  1   
 28  13  17  1   
 29  13  36  1   
 30  14  18  1   
 31  14  37  1   
 32  14  38  1   
 33  15  19  1   
 34  16  20  2   
 35  16  39  1   
 36  17  21  1   
 37  17  22  1   
 38  17  40  1   
 39  18  21  1   
 40  19  20  1   
 41  20  23  1   
 42  21  41  1   
 43  21  42  1   
 44  22  24  1   
 45  22  43  1   
 46  22  44  1   
 47  23  45  1   
 48  23  46  1   
 49  23  47  1   
 50  24  25  1   
 51  24  48  1   
 52  24  49  1   
 53  25  50  1   
 54  25  51  1   
 55  25  52  1   
@<TRIPOS>SUBSTRUCTURE
  1 ****   2 GROUP 4 **** **** 0

# MOE 2024.06 (io_trps.svl 2023.06)
