@<TRIPOS>MOLECULE
NONAME
47 48 1 0 0 
SMALL
USER_CHARGES


@<TRIPOS>ATOM
  1 S        0.9310     0.1330    -0.2860 S.o2  1 <1>   1.3330 
  2 O        2.3060     0.5000    -0.0300 O.2   1 <1>  -0.6500 
  3 O        0.5110    -0.1530    -1.6370 O.2   1 <1>  -0.6500 
  4 N        0.4790    -1.1380     0.7380 N.am  1 <1>  -0.8490 
  5 C       -0.0520     1.5110     0.3000 C.3   1 <1>  -0.0550 
  6 C       -0.6930    -1.8830     0.2620 C.3   1 <1>   0.1160 
  7 C        1.5830    -2.0690     0.9990 C.3   1 <1>   0.1160 
  8 C        0.1670     2.7860    -0.5470 C.3   1 <1>  -0.0800 
  9 C       -0.6180     4.0180    -0.0990 C.3   1 <1>   0.2000 
 10 C        1.6320     3.2540    -0.5830 C.3   1 <1>   0.3430 
 11 O       -0.5430     4.1410     1.2870 O.3   1 <1>  -0.6800 
 12 C        0.1810     5.1590    -0.7310 C.3   1 <1>   0.3430 
 13 N        1.6190     4.7480    -0.6270 N.4   1 <1>  -0.9590 
 14 C        2.2500     5.3040     0.6050 C.3   1 <1>   0.4860 
 15 C        2.2420     6.8190     0.5280 C.ar  1 <1>  -0.1440 
 16 C        3.0980     7.4890    -0.3330 C.ar  1 <1>  -0.1500 
 17 C        1.3650     7.5460     1.3220 C.ar  1 <1>  -0.1500 
 18 C        3.0670     8.8730    -0.4020 C.ar  1 <1>   0.0820 
 19 C        1.3320     8.9290     1.2460 C.ar  1 <1>  -0.1500 
 20 O        3.8960     9.5140    -1.2490 O.3   1 <1>  -0.3620 
 21 C        2.1800     9.5950     0.3800 C.ar  1 <1>  -0.1500 
 22 C        5.1370     9.9550    -0.7360 C.3   1 <1>   1.3000 
 23 F        5.8540    10.5130    -1.7000 F     1 <1>  -0.3400 
 24 F        5.8410     8.9410    -0.2440 F     1 <1>  -0.3400 
 25 F        4.9740    10.8560     0.2250 F     1 <1>  -0.3400 
 26 H       -1.0890     1.2400     0.2670 H     1 <1>   0.0800 
 27 H        0.2070     1.7000     1.3250 H     1 <1>   0.0800 
 28 H       -0.9850    -2.6200     0.9910 H     1 <1>   0.0800 
 29 H       -0.4710    -2.3810    -0.6680 H     1 <1>   0.0800 
 30 H       -1.5220    -1.2150     0.1060 H     1 <1>   0.0800 
 31 H        1.2640    -2.8470     1.6720 H     1 <1>   0.0800 
 32 H        2.4070    -1.5480     1.4580 H     1 <1>   0.0800 
 33 H        1.9240    -2.5150     0.0790 H     1 <1>   0.0800 
 34 H       -0.1170     2.5620    -1.5620 H     1 <1>   0.0800 
 35 H       -1.6530     4.0180    -0.4010 H     1 <1>   0.0800 
 36 H        2.1380     2.8420    -1.4420 H     1 <1>   0.0800 
 37 H        2.1430     2.9160     0.3050 H     1 <1>   0.0800 
 38 H       -1.2890     3.6800     1.7280 H     1 <1>   0.4000 
 39 H       -0.0210     6.0980    -0.2420 H     1 <1>   0.0800 
 40 H       -0.0920     5.2420    -1.7700 H     1 <1>   0.0800 
 41 H        2.1420     5.1060    -1.4350 H     1 <1>   0.4500 
 42 H        1.7060     4.9810     1.4780 H     1 <1>   0.0800 
 43 H        3.2670     4.9560     0.6910 H     1 <1>   0.0800 
 44 H        3.7960     6.9550    -0.9550 H     1 <1>   0.1500 
 45 H        0.6980     7.0460     2.0060 H     1 <1>   0.1500 
 46 H        0.6480     9.4890     1.8620 H     1 <1>   0.1500 
 47 H        2.1520    10.6690     0.3150 H     1 <1>   0.1500 
@<TRIPOS>BOND
  1   1   2  2   
  2   1   3  2   
  3   1   4  am  
  4   1   5  1   
  5   4   6  1   
  6   4   7  1   
  7   5   8  1   
  8   5  26  1   
  9   5  27  1   
 10   6  28  1   
 11   6  29  1   
 12   6  30  1   
 13   7  31  1   
 14   7  32  1   
 15   7  33  1   
 16   8   9  1   
 17   8  10  1   
 18   8  34  1   
 19   9  11  1   
 20   9  12  1   
 21   9  35  1   
 22  10  13  1   
 23  10  36  1   
 24  10  37  1   
 25  11  38  1   
 26  12  13  1   
 27  12  39  1   
 28  12  40  1   
 29  13  14  1   
 30  13  41  1   
 31  14  15  1   
 32  14  42  1   
 33  14  43  1   
 34  15  16  ar  
 35  15  17  ar  
 36  16  18  ar  
 37  16  44  1   
 38  17  19  ar  
 39  17  45  1   
 40  18  20  1   
 41  18  21  ar  
 42  19  21  ar  
 43  19  46  1   
 44  20  22  1   
 45  21  47  1   
 46  22  23  1   
 47  22  24  1   
 48  22  25  1   
@<TRIPOS>SUBSTRUCTURE
  1 ****  13 GROUP 4 **** **** 0

# MOE 2024.06 (io_trps.svl 2023.06)
