@<TRIPOS>MOLECULE
NONAME
35 36 1 0 0 
SMALL
USER_CHARGES


@<TRIPOS>ATOM
  1 O       -0.1210     0.5910    -0.9290 O.2   1 <1>  -0.5700 
  2 C       -0.0600     1.7550    -0.5590 C.2   1 <1>   0.6160 
  3 N       -1.1560     2.3760     0.0200 N.am  1 <1>  -0.4690 
  4 C        1.1290     2.5190    -0.7040 C.2   1 <1>  -0.1360 
  5 C       -1.0820     3.6900     0.4180 C.2   1 <1>  -0.0410 
  6 C       -2.4100     1.6030     0.2090 C.3   1 <1>   0.0600 
  7 C        1.1940     3.8170    -0.3060 C.2   1 <1>  -0.1500 
  8 C        0.0500     4.4550     0.2700 C.2   1 <1>   0.0140 
  9 C        0.0810     5.8400     0.6810 C.2   1 <1>   0.6160 
 10 O       -0.6860     6.2390     1.5390 O.2   1 <1>  -0.5700 
 11 N        0.9580     6.7160     0.0930 N.am  1 <1>  -0.4930 
 12 C        1.1970     8.0830     0.3820 C.2   1 <1>   0.0630 
 13 C        0.6640     8.8900     1.3900 C.2   1 <1>   0.1390 
 14 C        2.0300     8.8990    -0.2960 C.2   1 <1>  -0.3020 
 15 N        1.1270    10.1040     1.3460 N.2   1 <1>  -0.7070 
 16 N        1.9760    10.1140     0.2980 N.pl3 1 <1>   0.3140 
 17 C        2.7380    11.3250    -0.1240 C.3   1 <1>   0.1760 
 18 C        3.6790    11.7910     0.9960 C.3   1 <1>  -0.2400 
 19 C        1.7810    12.4520    -0.5380 C.3   1 <1>  -0.2400 
 20 H        1.9650     2.0050    -1.1380 H     1 <1>   0.1500 
 21 H       -1.9640     4.1230     0.8650 H     1 <1>   0.1500 
 22 H       -2.2130     0.7460     0.8290 H     1 <1>   0.0800 
 23 H       -2.7700     1.2640    -0.7470 H     1 <1>   0.0800 
 24 H       -3.1650     2.2100     0.6760 H     1 <1>   0.0800 
 25 H        2.1100     4.3710    -0.4060 H     1 <1>   0.1500 
 26 H        1.4720     6.3600    -0.7080 H     1 <1>   0.3700 
 27 H       -0.0480     8.5530     2.1240 H     1 <1>   0.1500 
 28 H        2.6470     8.6940    -1.1480 H     1 <1>   0.1500 
 29 H        3.3330    11.0520    -0.9780 H     1 <1>   0.0800 
 30 H        3.1110    12.0770     1.8640 H     1 <1>   0.0800 
 31 H        4.2560    12.6370     0.6690 H     1 <1>   0.0800 
 32 H        4.3550    10.9990     1.2650 H     1 <1>   0.0800 
 33 H        1.1750    12.7520     0.3000 H     1 <1>   0.0800 
 34 H        1.1380    12.1190    -1.3320 H     1 <1>   0.0800 
 35 H        2.3370    13.3050    -0.8820 H     1 <1>   0.0800 
@<TRIPOS>BOND
  1   1   2  2   
  2   2   3  am  
  3   2   4  1   
  4   3   5  1   
  5   3   6  1   
  6   4   7  2   
  7   4  20  1   
  8   5   8  2   
  9   5  21  1   
 10   6  22  1   
 11   6  23  1   
 12   6  24  1   
 13   7   8  1   
 14   7  25  1   
 15   8   9  1   
 16   9  10  2   
 17   9  11  am  
 18  11  12  1   
 19  11  26  1   
 20  12  13  1   
 21  12  14  2   
 22  13  15  2   
 23  13  27  1   
 24  14  16  1   
 25  14  28  1   
 26  15  16  1   
 27  16  17  1   
 28  17  18  1   
 29  17  19  1   
 30  17  29  1   
 31  18  30  1   
 32  18  31  1   
 33  18  32  1   
 34  19  33  1   
 35  19  34  1   
 36  19  35  1   
@<TRIPOS>SUBSTRUCTURE
  1 ****  11 GROUP 4 **** **** 0

# MOE 2024.06 (io_trps.svl 2023.06)
