@<TRIPOS>MOLECULE
NONAME
49 52 1 0 0 
SMALL
USER_CHARGES


@<TRIPOS>ATOM
  1 O       -1.0780    -1.1500    -0.9470 O.3   1 <1>  -0.6800 
  2 C       -0.6970    -1.4890     0.3510 C.3   1 <1>   0.1200 
  3 C        0.8600    -1.8780     0.3650 C.3   1 <1>   0.0000 
  4 C        2.4190    -2.2230     0.4600 C.3   1 <1>   0.4230 
  5 C        1.1940    -0.3310     0.7480 C.3   1 <1>  -0.1600 
  6 C        0.4570    -3.3860    -0.0780 C.3   1 <1>  -0.1600 
  7 N        2.9170    -3.6330     0.7220 N.4   1 <1>  -0.9590 
  8 C        3.1590    -1.5290    -0.7070 C.3   1 <1>   0.2090 
  9 C        2.5700     0.4040     0.7340 C.3   1 <1>   0.2090 
 10 C        1.3700    -4.1700    -1.0510 C.3   1 <1>  -0.1600 
 11 C        2.7280    -4.5000    -0.4560 C.3   1 <1>   0.3430 
 12 C        4.3390    -3.6320     1.1930 C.3   1 <1>   0.2630 
 13 N        3.5210    -0.1700    -0.2480 N.pl3 1 <1>  -0.8380 
 14 C        4.8480     0.1090    -0.0300 C.ar  1 <1>   0.4100 
 15 N        5.5530    -0.7640     0.6650 N.ar  1 <1>  -0.6200 
 16 C        5.4050     1.2770    -0.5020 C.ar  1 <1>  -0.1500 
 17 C        6.8150    -0.4220     0.8660 C.ar  1 <1>   0.4700 
 18 C        6.7220     1.5180    -0.2280 C.ar  1 <1>   0.2780 
 19 N        7.4490     0.6620     0.4630 N.ar  1 <1>  -0.6200 
 20 C        7.4150     2.7820    -0.7130 C.3   1 <1>  -0.0680 
 21 C        7.7590     3.8640     0.2650 C.3   1 <1>  -0.2000 
 22 C        6.7140     4.1070    -0.7810 C.3   1 <1>  -0.2000 
 23 H       -2.0240    -0.9000    -0.9870 H     1 <1>   0.4000 
 24 H       -0.9950    -0.6630     0.9800 H     1 <1>   0.0800 
 25 H       -1.3540    -2.2710     0.7020 H     1 <1>   0.0800 
 26 H        2.7630    -1.7240     1.3480 H     1 <1>   0.0800 
 27 H        0.8230    -0.1390     1.7420 H     1 <1>   0.0800 
 28 H        0.6490     0.3250     0.0830 H     1 <1>   0.0800 
 29 H        0.3130    -3.9740     0.8140 H     1 <1>   0.0800 
 30 H       -0.4760    -3.4850    -0.6150 H     1 <1>   0.0800 
 31 H        2.3250    -4.0040     1.4750 H     1 <1>   0.4500 
 32 H        2.5140    -1.4440    -1.5650 H     1 <1>   0.0800 
 33 H        4.0450    -2.0630    -1.0000 H     1 <1>   0.0800 
 34 H        3.0140     0.3470     1.7160 H     1 <1>   0.0800 
 35 H        2.4240     1.4490     0.5130 H     1 <1>   0.0800 
 36 H        1.5010    -3.6030    -1.9580 H     1 <1>   0.0800 
 37 H        0.8940    -5.0930    -1.3350 H     1 <1>   0.0800 
 38 H        3.5000    -4.3260    -1.1890 H     1 <1>   0.0800 
 39 H        2.7620    -5.5360    -0.1570 H     1 <1>   0.0800 
 40 H        4.9940    -3.2710     0.4170 H     1 <1>   0.0800 
 41 H        4.6450    -4.6280     1.4690 H     1 <1>   0.0800 
 42 H        4.4480    -2.9860     2.0500 H     1 <1>   0.0800 
 43 H        4.8080     1.9620    -1.0690 H     1 <1>   0.1500 
 44 H        7.4100    -1.1180     1.4340 H     1 <1>   0.1500 
 45 H        8.1490     2.5640    -1.4690 H     1 <1>   0.1000 
 46 H        7.4570     3.7350     1.2900 H     1 <1>   0.1000 
 47 H        8.7170     4.3460     0.1740 H     1 <1>   0.1000 
 48 H        6.9460     4.7700    -1.5970 H     1 <1>   0.1000 
 49 H        5.6920     4.1940    -0.4570 H     1 <1>   0.1000 
@<TRIPOS>BOND
  1   1   2  1   
  2   1  23  1   
  3   2   3  1   
  4   2  24  1   
  5   2  25  1   
  6   3   4  1   
  7   3   5  1   
  8   3   6  1   
  9   4   7  1   
 10   4   8  1   
 11   4  26  1   
 12   5   9  1   
 13   5  27  1   
 14   5  28  1   
 15   6  10  1   
 16   6  29  1   
 17   6  30  1   
 18   7  11  1   
 19   7  12  1   
 20   7  31  1   
 21   8  13  1   
 22   8  32  1   
 23   8  33  1   
 24   9  13  1   
 25   9  34  1   
 26   9  35  1   
 27  10  11  1   
 28  10  36  1   
 29  10  37  1   
 30  11  38  1   
 31  11  39  1   
 32  12  40  1   
 33  12  41  1   
 34  12  42  1   
 35  13  14  1   
 36  14  15  ar  
 37  14  16  ar  
 38  15  17  ar  
 39  16  18  ar  
 40  16  43  1   
 41  17  19  ar  
 42  17  44  1   
 43  18  19  ar  
 44  18  20  1   
 45  20  21  1   
 46  20  22  1   
 47  20  45  1   
 48  21  22  1   
 49  21  46  1   
 50  21  47  1   
 51  22  48  1   
 52  22  49  1   
@<TRIPOS>SUBSTRUCTURE
  1 ****  13 GROUP 4 **** **** 0

# MOE 2024.06 (io_trps.svl 2023.06)
