@<TRIPOS>MOLECULE
Untitled Document
63 68 1 0 0 
SMALL
USER_CHARGES


@<TRIPOS>ATOM
  1 O        0.2120    -0.5720    -0.3380 O.2   1 <1>  -0.5700 
  2 C        1.3130    -0.2670     0.1060 C.2   1 <1>   0.6300 
  3 N        1.6290     1.0720     0.1770 N.am  1 <1>  -0.4690 
  4 C        2.3000    -1.2030     0.5960 C.2   1 <1>   0.3900 
  5 C        2.8220     1.3950     0.7130 C.2   1 <1>   0.2180 
  6 C        0.9060     2.2960    -0.2560 C.3   1 <1>   0.2200 
  7 N        3.4500    -0.8860     1.1150 N.2   1 <1>  -0.6210 
  8 N        3.0300     2.7250     0.7300 N.am  1 <1>  -0.4690 
  9 C        3.7310     0.4580     1.1830 C.2   1 <1>   0.1710 
 10 C        1.9140     3.4310     0.0760 C.3   1 <1>   0.1400 
 11 C       -0.4260     2.4470     0.5210 C.3   1 <1>   0.3430 
 12 C        4.1990     3.2460     1.2400 C.2   1 <1>   0.6160 
 13 C        4.9400     0.9660     1.7170 C.2   1 <1>  -0.1500 
 14 N       -1.6750     2.4920    -0.3400 N.4   1 <1>  -0.9590 
 15 O        4.3590     4.4570     1.2470 O.2   1 <1>  -0.5700 
 16 C        5.1590     2.3180     1.7420 C.2   1 <1>  -0.1360 
 17 C       -2.8450     2.8620     0.5110 C.3   1 <1>   0.3430 
 18 C       -1.8970     1.1860    -1.0440 C.3   1 <1>   0.3430 
 19 C       -4.1180     2.9510    -0.3370 C.3   1 <1>  -0.1600 
 20 C       -3.1540     1.2510    -1.9100 C.3   1 <1>  -0.1600 
 21 C       -4.3740     1.6340    -1.0750 C.3   1 <1>   0.4230 
 22 N       -5.5450     1.7480    -1.9750 N.4   1 <1>  -0.9060 
 23 C       -6.8750     1.7840    -1.2860 C.3   1 <1>   0.4860 
 24 C       -7.1830     0.4040    -0.7060 C.ar  1 <1>   0.1670 
 25 N       -6.5890    -0.6290    -1.3010 N.ar  1 <1>  -0.6200 
 26 C       -8.0400     0.2940     0.3810 C.ar  1 <1>  -0.1500 
 27 C       -6.8850    -1.8210    -0.7930 C.ar  1 <1>   0.1600 
 28 C       -8.3270    -0.9490     0.9050 C.ar  1 <1>  -0.1440 
 29 C       -7.7300    -2.0360     0.2870 C.ar  1 <1>   0.0820 
 30 C       -9.2530    -1.1330     2.0960 C.3   1 <1>  -0.0170 
 31 O       -7.9390    -3.3060     0.7140 O.3   1 <1>  -0.3620 
 32 C       -9.0350    -2.5140     2.7200 C.3   1 <1>  -0.1600 
 33 C       -8.9880    -3.5830     1.6240 C.3   1 <1>   0.1200 
 34 H        2.0380    -2.2420     0.5200 H     1 <1>   0.0600 
 35 H        0.7380     2.2570    -1.3170 H     1 <1>   0.0800 
 36 H        1.5110     4.1760     0.7410 H     1 <1>   0.0800 
 37 H        2.2690     3.9110    -0.8200 H     1 <1>   0.0800 
 38 H       -0.3730     3.3560     1.0980 H     1 <1>   0.0800 
 39 H       -0.5040     1.6300     1.2200 H     1 <1>   0.0800 
 40 H        5.6590     0.2590     2.0920 H     1 <1>   0.1500 
 41 H       -1.5420     3.2280    -1.0500 H     1 <1>   0.4500 
 42 H        6.0630     2.7400     2.1390 H     1 <1>   0.1500 
 43 H       -2.9770     2.1220     1.2860 H     1 <1>   0.0800 
 44 H       -2.6660     3.8140     0.9890 H     1 <1>   0.0800 
 45 H       -1.0470     0.9490    -1.6660 H     1 <1>   0.0800 
 46 H       -1.9970     0.3930    -0.3180 H     1 <1>   0.0800 
 47 H       -4.0200     3.7660    -1.0320 H     1 <1>   0.0800 
 48 H       -4.9380     3.1670     0.3250 H     1 <1>   0.0800 
 49 H       -3.3080     0.2780    -2.3440 H     1 <1>   0.0800 
 50 H       -2.9940     1.9550    -2.7080 H     1 <1>   0.0800 
 51 H       -4.5570     0.8490    -0.3550 H     1 <1>   0.0800 
 52 H       -5.4620     2.4920    -2.6740 H     1 <1>   0.4500 
 53 H       -5.6090     0.8440    -2.4800 H     1 <1>   0.4500 
 54 H       -6.8900     2.5290    -0.5090 H     1 <1>   0.0800 
 55 H       -7.6450     2.0220    -2.0020 H     1 <1>   0.0800 
 56 H       -8.4910     1.1650     0.8220 H     1 <1>   0.1500 
 57 H       -6.4400    -2.6890    -1.2490 H     1 <1>   0.1500 
 58 H       -9.0770    -0.3700     2.8340 H     1 <1>   0.0800 
 59 H      -10.2720    -1.0490     1.7590 H     1 <1>   0.0800 
 60 H       -9.8300    -2.7330     3.4100 H     1 <1>   0.0800 
 61 H       -8.1070    -2.5320     3.2640 H     1 <1>   0.0800 
 62 H       -9.9090    -3.6040     1.0680 H     1 <1>   0.0800 
 63 H       -8.8080    -4.5570     2.0440 H     1 <1>   0.0800 
@<TRIPOS>BOND
  1   1   2  2   
  2   2   3  am  
  3   2   4  1   
  4   3   5  1   
  5   3   6  1   
  6   4   7  2   
  7   4  34  1   
  8   5   8  1   
  9   5   9  2   
 10   6  10  1   
 11   6  11  1   
 12   6  35  1   
 13   7   9  1   
 14   8  10  1   
 15   8  12  am  
 16   9  13  1   
 17  10  36  1   
 18  10  37  1   
 19  11  14  1   
 20  11  38  1   
 21  11  39  1   
 22  12  15  2   
 23  12  16  1   
 24  13  16  2   
 25  13  40  1   
 26  14  17  1   
 27  14  18  1   
 28  14  41  1   
 29  16  42  1   
 30  17  19  1   
 31  17  43  1   
 32  17  44  1   
 33  18  20  1   
 34  18  45  1   
 35  18  46  1   
 36  19  21  1   
 37  19  47  1   
 38  19  48  1   
 39  20  21  1   
 40  20  49  1   
 41  20  50  1   
 42  21  22  1   
 43  21  51  1   
 44  22  23  1   
 45  22  52  1   
 46  22  53  1   
 47  23  24  1   
 48  23  54  1   
 49  23  55  1   
 50  24  25  ar  
 51  24  26  ar  
 52  25  27  ar  
 53  26  28  ar  
 54  26  56  1   
 55  27  29  ar  
 56  27  57  1   
 57  28  29  ar  
 58  28  30  1   
 59  29  31  1   
 60  30  32  1   
 61  30  58  1   
 62  30  59  1   
 63  31  33  1   
 64  32  33  1   
 65  32  60  1   
 66  32  61  1   
 67  33  62  1   
 68  33  63  1   
@<TRIPOS>SUBSTRUCTURE
  1 ****  18 GROUP 4 **** **** 0

# MOE 2024.06 (io_trps.svl 2023.06)
