@<TRIPOS>MOLECULE
NONAME
46 48 1 0 0 
SMALL
USER_CHARGES


@<TRIPOS>ATOM
  1 F       -0.3110    -1.3540     0.6060 F     1 <1>  -0.1900 
  2 C       -1.5420    -1.6870     0.2870 C.ar  1 <1>   0.1900 
  3 C       -1.8910    -2.9960     0.0200 C.ar  1 <1>   0.3920 
  4 C       -2.5110    -0.7250     0.2120 C.ar  1 <1>   0.1600 
  5 O       -0.9390    -3.9540     0.0630 O.3   1 <1>  -0.3630 
  6 N       -3.1340    -3.3290    -0.2850 N.ar  1 <1>  -0.6200 
  7 N       -3.7500    -1.0340    -0.1080 N.ar  1 <1>  -0.6200 
  8 C       -1.1580    -5.2450    -0.4670 C.3   1 <1>   0.0400 
  9 C       -4.0030    -2.3180    -0.3560 C.ar  1 <1>   0.7200 
 10 N       -5.3040    -2.6390    -0.6980 N.pl3 1 <1>  -0.8380 
 11 C       -5.7450    -4.0240    -0.9580 C.3   1 <1>   0.2090 
 12 C       -6.4650    -1.7700    -0.3470 C.3   1 <1>   0.2090 
 13 C       -6.4570    -4.4560     0.3370 C.3   1 <1>   0.4230 
 14 C       -7.3090    -2.4270     0.7760 C.3   1 <1>  -0.1600 
 15 N       -6.2090    -5.8860     0.7650 N.4   1 <1>  -0.9590 
 16 C       -7.9480    -3.8660     0.3720 C.3   1 <1>   0.0000 
 17 C       -6.6130    -6.8570    -0.2690 C.3   1 <1>   0.3430 
 18 C       -4.7850    -6.0780     1.1840 C.3   1 <1>   0.2630 
 19 C       -8.6210    -5.2600    -0.1010 C.3   1 <1>  -0.1600 
 20 C       -9.4180    -3.2400     0.4890 C.3   1 <1>   0.1200 
 21 C       -7.8740    -6.3330    -0.9330 C.3   1 <1>  -0.1600 
 22 O       -9.7000    -2.5170    -0.6670 O.3   1 <1>  -0.6800 
 23 H       -2.2660     0.3030     0.4140 H     1 <1>   0.1500 
 24 H       -0.2320    -5.7890    -0.4160 H     1 <1>   0.0800 
 25 H       -1.4740    -5.1510    -1.4910 H     1 <1>   0.0800 
 26 H       -1.9090    -5.7390     0.1210 H     1 <1>   0.0800 
 27 H       -6.4270    -4.0200    -1.7910 H     1 <1>   0.0800 
 28 H       -4.9170    -4.6640    -1.1990 H     1 <1>   0.0800 
 29 H       -6.1450    -0.7930    -0.0280 H     1 <1>   0.0800 
 30 H       -7.0770    -1.6320    -1.2240 H     1 <1>   0.0800 
 31 H       -5.8870    -3.9380     1.0860 H     1 <1>   0.0800 
 32 H       -6.7310    -2.4710     1.6850 H     1 <1>   0.0800 
 33 H       -7.9720    -1.6100     1.0100 H     1 <1>   0.0800 
 34 H       -6.8150    -6.0390     1.5820 H     1 <1>   0.4500 
 35 H       -5.8370    -6.9740    -1.0080 H     1 <1>   0.0800 
 36 H       -6.8040    -7.8160     0.1860 H     1 <1>   0.0800 
 37 H       -4.1210    -5.8960     0.3540 H     1 <1>   0.0800 
 38 H       -4.6290    -7.0830     1.5410 H     1 <1>   0.0800 
 39 H       -4.5320    -5.3880     1.9740 H     1 <1>   0.0800 
 40 H       -9.0170    -5.7570     0.7710 H     1 <1>   0.0800 
 41 H       -9.4560    -5.0970    -0.7720 H     1 <1>   0.0800 
 42 H       -9.5660    -2.6010     1.3440 H     1 <1>   0.0800 
 43 H      -10.2360    -3.9320     0.6290 H     1 <1>   0.0800 
 44 H       -7.6240    -5.9330    -1.9000 H     1 <1>   0.0800 
 45 H       -8.5290    -7.1670    -1.1170 H     1 <1>   0.0800 
 46 H      -10.5960    -2.1230    -0.6310 H     1 <1>   0.4000 
@<TRIPOS>BOND
  1   1   2  1   
  2   2   3  ar  
  3   2   4  ar  
  4   3   5  1   
  5   3   6  ar  
  6   4   7  ar  
  7   4  23  1   
  8   5   8  1   
  9   6   9  ar  
 10   7   9  ar  
 11   8  24  1   
 12   8  25  1   
 13   8  26  1   
 14   9  10  1   
 15  10  11  1   
 16  10  12  1   
 17  11  13  1   
 18  11  27  1   
 19  11  28  1   
 20  12  14  1   
 21  12  29  1   
 22  12  30  1   
 23  13  15  1   
 24  13  16  1   
 25  13  31  1   
 26  14  16  1   
 27  14  32  1   
 28  14  33  1   
 29  15  17  1   
 30  15  18  1   
 31  15  34  1   
 32  16  19  1   
 33  16  20  1   
 34  17  21  1   
 35  17  35  1   
 36  17  36  1   
 37  18  37  1   
 38  18  38  1   
 39  18  39  1   
 40  19  21  1   
 41  19  40  1   
 42  19  41  1   
 43  20  22  1   
 44  20  42  1   
 45  20  43  1   
 46  21  44  1   
 47  21  45  1   
 48  22  46  1   
@<TRIPOS>SUBSTRUCTURE
  1 ****  10 GROUP 4 **** **** 0

# MOE 2024.06 (io_trps.svl 2023.06)
