@<TRIPOS>MOLECULE
NONAME
58 61 1 0 0 
SMALL
USER_CHARGES


@<TRIPOS>ATOM
  1 O       -1.1400     0.8080     2.4580 O.2   1 <1>  -0.5700 
  2 C       -1.8730     1.0830     1.5330 C.2   1 <1>   0.5690 
  3 N       -3.1630     0.5930     1.4890 N.am  1 <1>  -0.6600 
  4 C       -1.2750     2.0000     0.4430 C.3   1 <1>   0.2510 
  5 C       -4.1420     0.8170     0.3890 C.3   1 <1>   0.1400 
  6 C       -3.6620    -0.3710     2.5080 C.3   1 <1>   0.1400 
  7 N       -1.3920     1.4950    -0.9700 N.3   1 <1>  -0.8100 
  8 C       -1.8740     3.4140     0.5930 C.3   1 <1>   0.1200 
  9 C       -4.3950    -0.5090    -0.3280 C.3   1 <1>  -0.1600 
 10 C       -3.9030    -1.7220     1.8310 C.3   1 <1>  -0.1600 
 11 C       -0.8820     2.5080    -1.9110 C.3   1 <1>   0.1100 
 12 C       -0.6760     0.2240    -1.1400 C.3   1 <1>   0.0300 
 13 O       -1.3650     4.2970    -0.3700 O.3   1 <1>  -0.5600 
 14 C       -4.8700    -1.6050     0.6420 C.3   1 <1>   0.4240 
 15 C       -1.5640     3.8670    -1.6850 C.3   1 <1>   0.1200 
 16 O       -6.0940    -1.1890     1.2030 O.3   1 <1>  -0.5600 
 17 C       -5.0010    -2.9640    -0.0780 C.ar  1 <1>  -0.1430 
 18 C       -7.2560    -1.4420     0.4760 C.3   1 <1>   0.1200 
 19 C       -6.2270    -3.6040    -0.1990 C.ar  1 <1>  -0.1430 
 20 C       -3.8840    -3.5750    -0.6320 C.ar  1 <1>  -0.1500 
 21 C       -7.4640    -2.9510     0.3860 C.3   1 <1>  -0.0170 
 22 C       -6.3260    -4.8230    -0.8500 C.ar  1 <1>  -0.1500 
 23 C       -3.9620    -4.7940    -1.2820 C.ar  1 <1>   0.0820 
 24 C       -5.2050    -5.4330    -1.4070 C.ar  1 <1>   0.0820 
 25 O       -2.7740    -5.2630    -1.7590 O.3   1 <1>  -0.3630 
 26 O       -5.2990    -6.6190    -2.0790 O.3   1 <1>  -0.3620 
 27 C       -2.5010    -6.6460    -1.7980 C.3   1 <1>   0.0400 
 28 C       -6.5410    -7.2230    -2.3660 C.3   1 <1>   0.0400 
 29 H       -0.2270     2.0910     0.6700 H     1 <1>   0.0800 
 30 H       -5.0630     1.1860     0.8090 H     1 <1>   0.0800 
 31 H       -3.7890     1.5440    -0.3170 H     1 <1>   0.0800 
 32 H       -2.9520    -0.4890     3.3090 H     1 <1>   0.0800 
 33 H       -4.5800     0.0010     2.9310 H     1 <1>   0.0800 
 34 H       -1.6260     3.8110     1.5620 H     1 <1>   0.0800 
 35 H       -2.9440     3.3920     0.5020 H     1 <1>   0.0800 
 36 H       -3.4780    -0.8120    -0.7960 H     1 <1>   0.0800 
 37 H       -5.1130    -0.3720    -1.1140 H     1 <1>   0.0800 
 38 H       -4.3020    -2.4210     2.5410 H     1 <1>   0.0800 
 39 H       -2.9540    -2.1000     1.5030 H     1 <1>   0.0800 
 40 H        0.1810     2.6270    -1.7880 H     1 <1>   0.0800 
 41 H       -1.0710     2.1830    -2.9200 H     1 <1>   0.0800 
 42 H       -0.7880    -0.1270    -2.1520 H     1 <1>   0.0800 
 43 H       -1.0790    -0.5220    -0.4780 H     1 <1>   0.0800 
 44 H        0.3720     0.3490    -0.9260 H     1 <1>   0.0800 
 45 H       -2.6220     3.7970    -1.8720 H     1 <1>   0.0800 
 46 H       -1.1430     4.6090    -2.3390 H     1 <1>   0.0800 
 47 H       -8.0770    -0.9790     0.9950 H     1 <1>   0.0800 
 48 H       -7.1660    -1.0040    -0.5020 H     1 <1>   0.0800 
 49 H       -2.9180    -3.1090    -0.5660 H     1 <1>   0.1500 
 50 H       -7.6520    -3.3450     1.3690 H     1 <1>   0.0800 
 51 H       -8.3200    -3.1530    -0.2310 H     1 <1>   0.0800 
 52 H       -7.2920    -5.2820    -0.9150 H     1 <1>   0.1500 
 53 H       -1.4350    -6.7760    -1.8400 H     1 <1>   0.0800 
 54 H       -2.9530    -7.0640    -2.6790 H     1 <1>   0.0800 
 55 H       -2.8960    -7.1080    -0.9100 H     1 <1>   0.0800 
 56 H       -6.3550    -8.1040    -2.9540 H     1 <1>   0.0800 
 57 H       -7.1450    -6.5320    -2.9270 H     1 <1>   0.0800 
 58 H       -7.0190    -7.4970    -1.4430 H     1 <1>   0.0800 
@<TRIPOS>BOND
  1   1   2  2   
  2   2   3  am  
  3   2   4  1   
  4   3   5  1   
  5   3   6  1   
  6   4   7  1   
  7   4   8  1   
  8   4  29  1   
  9   5   9  1   
 10   5  30  1   
 11   5  31  1   
 12   6  10  1   
 13   6  32  1   
 14   6  33  1   
 15   7  11  1   
 16   7  12  1   
 17   8  13  1   
 18   8  34  1   
 19   8  35  1   
 20   9  14  1   
 21   9  36  1   
 22   9  37  1   
 23  10  14  1   
 24  10  38  1   
 25  10  39  1   
 26  11  15  1   
 27  11  40  1   
 28  11  41  1   
 29  12  42  1   
 30  12  43  1   
 31  12  44  1   
 32  13  15  1   
 33  14  16  1   
 34  14  17  1   
 35  15  45  1   
 36  15  46  1   
 37  16  18  1   
 38  17  19  ar  
 39  17  20  ar  
 40  18  21  1   
 41  18  47  1   
 42  18  48  1   
 43  19  21  1   
 44  19  22  ar  
 45  20  23  ar  
 46  20  49  1   
 47  21  50  1   
 48  21  51  1   
 49  22  24  ar  
 50  22  52  1   
 51  23  24  ar  
 52  23  25  1   
 53  24  26  1   
 54  25  27  1   
 55  26  28  1   
 56  27  53  1   
 57  27  54  1   
 58  27  55  1   
 59  28  56  1   
 60  28  57  1   
 61  28  58  1   
@<TRIPOS>SUBSTRUCTURE
  1 ****   9 GROUP 4 **** **** 0

# MOE 2024.06 (io_trps.svl 2023.06)
