@<TRIPOS>MOLECULE
NONAME
48 48 1 0 0 
SMALL
USER_CHARGES


@<TRIPOS>ATOM
  1 S        0.0460     0.3750    -0.3690 S.3   1 <1>  -0.4600 
  2 C       -0.0040    -1.1960     0.5330 C.3   1 <1>   0.1500 
  3 C        1.6130     1.1290     0.1230 C.3   1 <1>   0.0700 
  4 C       -1.0470    -2.0680    -0.1600 C.3   1 <1>  -0.2400 
  5 C       -0.3790    -0.8950     1.9830 C.3   1 <1>  -0.2400 
  6 C        1.7180     2.4480    -0.6490 C.3   1 <1>   0.3430 
  7 N        2.9610     3.2160    -0.3140 N.4   1 <1>  -0.9590 
  8 C        2.8560     4.5980    -0.8900 C.3   1 <1>   0.3430 
  9 C        4.1940     2.5240    -0.7980 C.3   1 <1>   0.3430 
 10 C        4.0680     5.4660    -0.5180 C.3   1 <1>  -0.0190 
 11 C        5.4300     3.3290    -0.3900 C.3   1 <1>  -0.1600 
 12 C        3.9100     6.8270    -1.1910 C.2   1 <1>   0.4480 
 13 C        5.3810     4.7680    -0.9240 C.3   1 <1>  -0.1600 
 14 O        3.0160     7.0110    -1.9610 O.2   1 <1>  -0.5700 
 15 C        4.9050     7.9350    -0.8720 C.3   1 <1>  -0.0990 
 16 C        4.9580     8.3370     0.6150 C.3   1 <1>  -0.0800 
 17 C        3.5870     8.8080     1.1200 C.3   1 <1>  -0.2400 
 18 C        5.9880     9.4540     0.8160 C.3   1 <1>  -0.2400 
 19 H        0.9720    -1.6460     0.4650 H     1 <1>   0.0800 
 20 H        2.3900     0.4340    -0.1400 H     1 <1>   0.0800 
 21 H        1.5710     1.2880     1.1850 H     1 <1>   0.0800 
 22 H       -2.0120    -1.5940    -0.1360 H     1 <1>   0.0800 
 23 H       -1.1190    -3.0220     0.3310 H     1 <1>   0.0800 
 24 H       -0.7670    -2.2340    -1.1860 H     1 <1>   0.0800 
 25 H       -1.3210    -0.3770     2.0260 H     1 <1>   0.0800 
 26 H        0.3740    -0.2920     2.4560 H     1 <1>   0.0800 
 27 H       -0.4700    -1.8130     2.5360 H     1 <1>   0.0800 
 28 H        0.8520     3.0440    -0.4090 H     1 <1>   0.0800 
 29 H        1.6900     2.2400    -1.7060 H     1 <1>   0.0800 
 30 H        3.0210     3.3090     0.7080 H     1 <1>   0.4500 
 31 H        1.9590     5.0810    -0.5360 H     1 <1>   0.0800 
 32 H        2.7900     4.5390    -1.9650 H     1 <1>   0.0800 
 33 H        4.1630     2.4340    -1.8730 H     1 <1>   0.0800 
 34 H        4.2580     1.5340    -0.3770 H     1 <1>   0.0800 
 35 H        4.0530     5.6150     0.5450 H     1 <1>   0.0800 
 36 H        6.3070     2.8390    -0.7770 H     1 <1>   0.0800 
 37 H        5.5150     3.3340     0.6830 H     1 <1>   0.0800 
 38 H        6.2270     5.3170    -0.5430 H     1 <1>   0.0800 
 39 H        5.4590     4.7510    -1.9990 H     1 <1>   0.0800 
 40 H        4.6370     8.7980    -1.4570 H     1 <1>   0.0800 
 41 H        5.8820     7.6280    -1.1990 H     1 <1>   0.0800 
 42 H        5.2740     7.4940     1.2050 H     1 <1>   0.0800 
 43 H        3.2410     9.6490     0.5440 H     1 <1>   0.0800 
 44 H        3.6540     9.1110     2.1510 H     1 <1>   0.0800 
 45 H        2.8540     8.0250     1.0510 H     1 <1>   0.0800 
 46 H        5.7140    10.3320     0.2550 H     1 <1>   0.0800 
 47 H        6.9630     9.1330     0.4930 H     1 <1>   0.0800 
 48 H        6.0520     9.7230     1.8560 H     1 <1>   0.0800 
@<TRIPOS>BOND
  1   1   2  1   
  2   1   3  1   
  3   2   4  1   
  4   2   5  1   
  5   2  19  1   
  6   3   6  1   
  7   3  20  1   
  8   3  21  1   
  9   4  22  1   
 10   4  23  1   
 11   4  24  1   
 12   5  25  1   
 13   5  26  1   
 14   5  27  1   
 15   6   7  1   
 16   6  28  1   
 17   6  29  1   
 18   7   8  1   
 19   7   9  1   
 20   7  30  1   
 21   8  10  1   
 22   8  31  1   
 23   8  32  1   
 24   9  11  1   
 25   9  33  1   
 26   9  34  1   
 27  10  12  1   
 28  10  13  1   
 29  10  35  1   
 30  11  13  1   
 31  11  36  1   
 32  11  37  1   
 33  12  14  2   
 34  12  15  1   
 35  13  38  1   
 36  13  39  1   
 37  15  16  1   
 38  15  40  1   
 39  15  41  1   
 40  16  17  1   
 41  16  18  1   
 42  16  42  1   
 43  17  43  1   
 44  17  44  1   
 45  17  45  1   
 46  18  46  1   
 47  18  47  1   
 48  18  48  1   
@<TRIPOS>SUBSTRUCTURE
  1 ****   7 GROUP 4 **** **** 0

# MOE 2024.06 (io_trps.svl 2023.06)
