@<TRIPOS>MOLECULE
NONAME
32 34 1 0 0 
SMALL
USER_CHARGES


@<TRIPOS>ATOM
  1 BR       0.1420    -0.1300     0.3010 Br    1 <1>  -0.1110 
  2 C       -1.5340     0.8070     0.1560 C.ar  1 <1>   0.1110 
  3 C       -2.7060     0.0930     0.1910 C.ar  1 <1>  -0.1500 
  4 C       -1.4970     2.1990     0.0190 C.ar  1 <1>  -0.1500 
  5 C       -3.9070     0.8080     0.0830 C.ar  1 <1>  -0.1520 
  6 C       -2.6800     2.8900    -0.0850 C.ar  1 <1>  -0.1500 
  7 N       -5.2280     0.4320     0.0810 N.pl3 1 <1>   0.3140 
  8 C       -3.8960     2.1840    -0.0500 C.ar  1 <1>   0.0000 
  9 N       -6.0410     1.5240    -0.0240 N.2   1 <1>  -0.7070 
 10 C       -5.7610    -0.9510     0.3430 C.3   1 <1>   0.4560 
 11 C       -5.2530     2.5380    -0.1120 C.2   1 <1>   0.1080 
 12 O       -4.9730    -1.9110    -0.3200 O.3   1 <1>  -0.5600 
 13 C       -7.2260    -1.1200    -0.1090 C.3   1 <1>  -0.1600 
 14 C       -5.7550     3.9560    -0.2590 C.3   1 <1>  -0.0590 
 15 C       -5.2870    -3.2360    -0.0250 C.3   1 <1>   0.1200 
 16 C       -7.7170    -2.5590     0.1030 C.3   1 <1>  -0.1600 
 17 C       -6.7100    -3.5410    -0.5060 C.3   1 <1>  -0.1600 
 18 H       -2.7010    -0.9760     0.2910 H     1 <1>   0.1500 
 19 H       -0.5460     2.7000    -0.0040 H     1 <1>   0.1500 
 20 H       -2.6970     3.9590    -0.1920 H     1 <1>   0.1500 
 21 H       -5.6830    -1.1340     1.3990 H     1 <1>   0.0800 
 22 H       -7.2950    -0.8610    -1.1510 H     1 <1>   0.0800 
 23 H       -7.8530    -0.4450     0.4460 H     1 <1>   0.0800 
 24 H       -5.3800     4.3800    -1.1710 H     1 <1>   0.0800 
 25 H       -5.4230     4.5470     0.5740 H     1 <1>   0.0800 
 26 H       -6.8290     3.9620    -0.2870 H     1 <1>   0.0800 
 27 H       -5.1900    -3.3890     1.0370 H     1 <1>   0.0800 
 28 H       -4.5760    -3.8630    -0.5360 H     1 <1>   0.0800 
 29 H       -8.6840    -2.6900    -0.3510 H     1 <1>   0.0800 
 30 H       -7.8120    -2.7520     1.1580 H     1 <1>   0.0800 
 31 H       -6.9740    -4.5490    -0.2370 H     1 <1>   0.0800 
 32 H       -6.7340    -3.4710    -1.5800 H     1 <1>   0.0800 
@<TRIPOS>BOND
  1   1   2  1   
  2   2   3  ar  
  3   2   4  ar  
  4   3   5  ar  
  5   3  18  1   
  6   4   6  ar  
  7   4  19  1   
  8   5   7  1   
  9   5   8  ar  
 10   6   8  ar  
 11   6  20  1   
 12   7   9  1   
 13   7  10  1   
 14   8  11  1   
 15   9  11  2   
 16  10  12  1   
 17  10  13  1   
 18  10  21  1   
 19  11  14  1   
 20  12  15  1   
 21  13  16  1   
 22  13  22  1   
 23  13  23  1   
 24  14  24  1   
 25  14  25  1   
 26  14  26  1   
 27  15  17  1   
 28  15  27  1   
 29  15  28  1   
 30  16  17  1   
 31  16  29  1   
 32  16  30  1   
 33  17  31  1   
 34  17  32  1   
@<TRIPOS>SUBSTRUCTURE
  1 ****   7 GROUP 4 **** **** 0

# MOE 2024.06 (io_trps.svl 2023.06)
