@<TRIPOS>MOLECULE
NONAME
54 56 1 0 0 
SMALL
USER_CHARGES


@<TRIPOS>ATOM
  1 S       -0.2550     0.8200     1.0080 S.o2  1 <1>   1.4470 
  2 O       -0.8810     1.9800     1.6120 O.2   1 <1>  -0.6500 
  3 O        0.9600     0.3290     1.6260 O.2   1 <1>  -0.6500 
  4 N        0.1530     1.2910    -0.5750 N.am  1 <1>  -0.8490 
  5 C       -1.5210    -0.4620     0.7780 C.ar  1 <1>  -0.0090 
  6 C        0.6360     2.6720    -0.7180 C.3   1 <1>   0.1960 
  7 C        0.8970     0.2900    -1.3420 C.3   1 <1>   0.1160 
  8 C       -1.1960    -1.8040     0.5810 C.ar  1 <1>   0.0820 
  9 C       -2.8660    -0.1070     0.7690 C.ar  1 <1>  -0.1500 
 10 C        1.8850     3.0380     0.1100 C.3   1 <1>  -0.0800 
 11 O        0.1150    -2.1540     0.5610 O.3   1 <1>  -0.3630 
 12 C       -2.2020    -2.7500     0.3990 C.ar  1 <1>  -0.1500 
 13 C       -3.8710    -1.0420     0.5890 C.ar  1 <1>  -0.1430 
 14 C        2.2610     4.5080    -0.0880 C.3   1 <1>   0.2090 
 15 C        3.1640     2.2750    -0.2370 C.3   1 <1>  -0.1600 
 16 C        0.5320    -3.4960     0.6800 C.3   1 <1>   0.0400 
 17 C       -3.5290    -2.3680     0.4060 C.ar  1 <1>  -0.1500 
 18 C       -5.3420    -0.6240     0.5960 C.3   1 <1>  -0.1230 
 19 N        3.7450     4.5670    -0.0810 N.pl3 1 <1>  -0.8380 
 20 C        4.2820     3.2130     0.1810 C.3   1 <1>   0.2090 
 21 C       -6.1390    -1.1030    -0.6020 C.2   1 <1>   0.9060 
 22 C        4.3800     5.7250     0.3890 C.ar  1 <1>   0.1000 
 23 O       -6.3450    -0.3170    -1.5340 O.co2 1 <1>  -0.9000 
 24 O       -6.5970    -2.2520    -0.5910 O.co2 1 <1>  -0.9000 
 25 C        5.4990     5.6880     1.2220 C.ar  1 <1>  -0.1500 
 26 C        3.9020     6.9770     0.0090 C.ar  1 <1>  -0.1500 
 27 C        6.1000     6.8510     1.6690 C.ar  1 <1>  -0.1500 
 28 C        4.4980     8.1440     0.4530 C.ar  1 <1>  -0.1500 
 29 C        5.6000     8.0840     1.2870 C.ar  1 <1>  -0.1500 
 30 H       -0.1650     3.3320    -0.4250 H     1 <1>   0.0800 
 31 H        0.8310     2.8670    -1.7590 H     1 <1>   0.0800 
 32 H        0.2800    -0.5780    -1.4990 H     1 <1>   0.0800 
 33 H        1.7840    -0.0150    -0.8150 H     1 <1>   0.0800 
 34 H        1.1710     0.6820    -2.3060 H     1 <1>   0.0800 
 35 H       -3.1360     0.9270     0.9040 H     1 <1>   0.1500 
 36 H        1.6760     2.9160     1.1580 H     1 <1>   0.0800 
 37 H       -1.9820    -3.7870     0.2400 H     1 <1>   0.1500 
 38 H        1.8510     5.1170     0.7000 H     1 <1>   0.0800 
 39 H        1.9110     4.8700    -1.0390 H     1 <1>   0.0800 
 40 H        3.2320     2.1080    -1.2970 H     1 <1>   0.0800 
 41 H        3.2310     1.3370     0.2840 H     1 <1>   0.0800 
 42 H        1.6020    -3.5050     0.7780 H     1 <1>   0.0800 
 43 H        0.2400    -4.0330    -0.2050 H     1 <1>   0.0800 
 44 H        0.0810    -3.9250     1.5580 H     1 <1>   0.0800 
 45 H       -4.3070    -3.1010     0.2570 H     1 <1>   0.1500 
 46 H       -5.4260     0.4450     0.6280 H     1 <1>   0.0800 
 47 H       -5.8150    -1.0190     1.4730 H     1 <1>   0.0800 
 48 H        5.1820     3.0410    -0.3850 H     1 <1>   0.0800 
 49 H        4.4770     3.0950     1.2330 H     1 <1>   0.0800 
 50 H        5.9100     4.7490     1.5310 H     1 <1>   0.1500 
 51 H        3.0580     7.0370    -0.6500 H     1 <1>   0.1500 
 52 H        6.9590     6.7980     2.3130 H     1 <1>   0.1500 
 53 H        4.1070     9.0970     0.1460 H     1 <1>   0.1500 
 54 H        6.0670     8.9890     1.6340 H     1 <1>   0.1500 
@<TRIPOS>BOND
  1   1   2  2   
  2   1   3  2   
  3   1   4  am  
  4   1   5  1   
  5   4   6  1   
  6   4   7  1   
  7   5   8  ar  
  8   5   9  ar  
  9   6  10  1   
 10   6  30  1   
 11   6  31  1   
 12   7  32  1   
 13   7  33  1   
 14   7  34  1   
 15   8  11  1   
 16   8  12  ar  
 17   9  13  ar  
 18   9  35  1   
 19  10  14  1   
 20  10  15  1   
 21  10  36  1   
 22  11  16  1   
 23  12  17  ar  
 24  12  37  1   
 25  13  17  ar  
 26  13  18  1   
 27  14  19  1   
 28  14  38  1   
 29  14  39  1   
 30  15  20  1   
 31  15  40  1   
 32  15  41  1   
 33  16  42  1   
 34  16  43  1   
 35  16  44  1   
 36  17  45  1   
 37  18  21  1   
 38  18  46  1   
 39  18  47  1   
 40  19  20  1   
 41  19  22  1   
 42  20  48  1   
 43  20  49  1   
 44  21  23  ar  
 45  21  24  ar  
 46  22  25  ar  
 47  22  26  ar  
 48  25  27  ar  
 49  25  50  1   
 50  26  28  ar  
 51  26  51  1   
 52  27  29  ar  
 53  27  52  1   
 54  28  29  ar  
 55  28  53  1   
 56  29  54  1   
@<TRIPOS>SUBSTRUCTURE
  1 ****   4 GROUP 4 **** **** 0

# MOE 2024.06 (io_trps.svl 2023.06)
