@<TRIPOS>MOLECULE
NONAME
48 50 1 0 0 
SMALL
USER_CHARGES


@<TRIPOS>ATOM
  1 S        0.2270     2.4920    -1.0950 S.o2  1 <1>   1.2040 
  2 O        0.0960     1.8500    -2.3840 O.2   1 <1>  -0.6500 
  3 O       -0.6140     2.0800     0.0070 O.2   1 <1>  -0.6500 
  4 C        1.9610     2.4700    -0.5770 C.ar  1 <1>  -0.0090 
  5 C       -0.0590     4.2320    -1.3460 C.3   1 <1>  -0.1350 
  6 C        2.9880     2.3620    -1.5060 C.ar  1 <1>  -0.1500 
  7 C        2.3130     2.5900     0.7620 C.ar  1 <1>  -0.1500 
  8 C        4.3160     2.3680    -1.1140 C.ar  1 <1>  -0.1500 
  9 C        3.6390     2.5970     1.1610 C.ar  1 <1>  -0.1500 
 10 C        4.6560     2.4810     0.2260 C.ar  1 <1>  -0.1430 
 11 C        6.1130     2.4700     0.6800 C.3   1 <1>   0.4330 
 12 N        6.8230     3.5560    -0.0050 N.pl3 1 <1>  -0.8690 
 13 C        6.7900     1.1490     0.3300 C.3   1 <1>  -0.2400 
 14 C        7.5950     4.4370     0.7010 C.ar  1 <1>   0.4100 
 15 N        7.3040     5.6960     0.4560 N.ar  1 <1>  -0.6200 
 16 C        8.6030     4.0430     1.5960 C.ar  1 <1>   0.1600 
 17 C        8.0520     6.5710     1.1540 C.ar  1 <1>   0.3960 
 18 N        9.3430     4.8690     2.3040 N.ar  1 <1>  -0.6200 
 19 C        7.8720     8.0180     1.0080 C.2   1 <1>   0.5440 
 20 C        9.0290     6.1330     2.0540 C.ar  1 <1>   0.1600 
 21 O        8.0560     8.7330     1.9800 O.2   1 <1>  -0.5700 
 22 N        7.5390     8.6420    -0.1810 N.am  1 <1>  -0.6600 
 23 C        7.4160     7.9820    -1.5020 C.3   1 <1>   0.1400 
 24 C        7.4600    10.1130    -0.3200 C.3   1 <1>   0.1400 
 25 C        7.1450     9.1120    -2.4910 C.3   1 <1>  -0.1600 
 26 C        7.6710    10.3710    -1.8070 C.3   1 <1>  -0.1600 
 27 H       -1.0720     4.3940    -1.6600 H     1 <1>   0.0800 
 28 H        0.5970     4.6140    -2.1040 H     1 <1>   0.0800 
 29 H        0.1060     4.7750    -0.4360 H     1 <1>   0.0800 
 30 H        2.7470     2.2630    -2.5520 H     1 <1>   0.1500 
 31 H        1.5380     2.6730     1.5060 H     1 <1>   0.1500 
 32 H        5.0870     2.2770    -1.8620 H     1 <1>   0.1500 
 33 H        3.8700     2.6900     2.2090 H     1 <1>   0.1500 
 34 H        6.1580     2.6230     1.7460 H     1 <1>   0.0800 
 35 H        6.1610     4.0690    -0.5920 H     1 <1>   0.4000 
 36 H        6.8060     1.0010    -0.7340 H     1 <1>   0.0800 
 37 H        6.2490     0.3370     0.7800 H     1 <1>   0.0800 
 38 H        7.7970     1.1330     0.7010 H     1 <1>   0.0800 
 39 H        8.7880     2.9920     1.7120 H     1 <1>   0.1500 
 40 H        9.5840     6.8810     2.5950 H     1 <1>   0.1500 
 41 H        6.6070     7.2720    -1.5020 H     1 <1>   0.0800 
 42 H        8.3400     7.4830    -1.7390 H     1 <1>   0.0800 
 43 H        8.2100    10.6040     0.2780 H     1 <1>   0.0800 
 44 H        6.4820    10.4390    -0.0120 H     1 <1>   0.0800 
 45 H        6.0830     9.1960    -2.6400 H     1 <1>   0.0800 
 46 H        7.6180     8.9340    -3.4400 H     1 <1>   0.0800 
 47 H        8.7240    10.4780    -1.9950 H     1 <1>   0.0800 
 48 H        7.1620    11.2610    -2.1330 H     1 <1>   0.0800 
@<TRIPOS>BOND
  1   1   2  2   
  2   1   3  2   
  3   1   4  1   
  4   1   5  1   
  5   4   6  ar  
  6   4   7  ar  
  7   5  27  1   
  8   5  28  1   
  9   5  29  1   
 10   6   8  ar  
 11   6  30  1   
 12   7   9  ar  
 13   7  31  1   
 14   8  10  ar  
 15   8  32  1   
 16   9  10  ar  
 17   9  33  1   
 18  10  11  1   
 19  11  12  1   
 20  11  13  1   
 21  11  34  1   
 22  12  14  1   
 23  12  35  1   
 24  13  36  1   
 25  13  37  1   
 26  13  38  1   
 27  14  15  ar  
 28  14  16  ar  
 29  15  17  ar  
 30  16  18  ar  
 31  16  39  1   
 32  17  19  1   
 33  17  20  ar  
 34  18  20  ar  
 35  19  21  2   
 36  19  22  am  
 37  20  40  1   
 38  22  23  1   
 39  22  24  1   
 40  23  25  1   
 41  23  41  1   
 42  23  42  1   
 43  24  26  1   
 44  24  43  1   
 45  24  44  1   
 46  25  26  1   
 47  25  45  1   
 48  25  46  1   
 49  26  47  1   
 50  26  48  1   
@<TRIPOS>SUBSTRUCTURE
  1 ****  12 GROUP 4 **** **** 0

# MOE 2024.06 (io_trps.svl 2023.06)
