@<TRIPOS>MOLECULE
NONAME
41 42 1 0 0 
SMALL
USER_CHARGES


@<TRIPOS>ATOM
  1 CL      -1.4250    -1.2040    -3.0810 Cl    1 <1>  -0.1770 
  2 C       -2.3790    -1.6270    -1.6760 C.ar  1 <1>   0.1770 
  3 C       -2.0060    -2.6770    -0.8460 C.ar  1 <1>   0.0820 
  4 C       -3.5170    -0.8980    -1.4070 C.ar  1 <1>  -0.1500 
  5 O       -0.9000    -3.4200    -1.0810 O.3   1 <1>  -0.3630 
  6 C       -2.7950    -2.9950     0.2460 C.ar  1 <1>  -0.1500 
  7 C       -4.2890    -1.2180    -0.2980 C.ar  1 <1>   0.0820 
  8 C        0.3280    -2.8590    -0.6750 C.3   1 <1>   0.0400 
  9 C       -3.9480    -2.2740     0.5490 C.ar  1 <1>  -0.0090 
 10 O       -5.4010    -0.4880    -0.0760 O.3   1 <1>  -0.3630 
 11 S       -4.9470    -2.7280     1.9990 S.o2  1 <1>   1.4470 
 12 C       -5.2170     0.7880     0.4970 C.3   1 <1>   0.0400 
 13 O       -4.1470    -3.6240     2.8100 O.2   1 <1>  -0.6500 
 14 O       -5.4890    -1.5460     2.6370 O.2   1 <1>  -0.6500 
 15 N       -6.2350    -3.6550     1.4050 N.am  1 <1>  -0.8490 
 16 C       -5.8150    -4.9630     0.8480 C.3   1 <1>   0.1960 
 17 C       -7.1700    -2.9290     0.5440 C.3   1 <1>   0.1960 
 18 C       -6.8510    -5.6320    -0.0800 C.3   1 <1>   0.2000 
 19 C       -8.4760    -3.7200     0.3690 C.3   1 <1>  -0.1600 
 20 O       -6.6400    -5.2120    -1.3860 O.3   1 <1>  -0.6800 
 21 C       -8.2810    -5.2580     0.3210 C.3   1 <1>  -0.1860 
 22 C       -9.2780    -5.9590    -0.5790 C.2   1 <1>   0.9060 
 23 O      -10.1410    -6.6760    -0.0680 O.co2 1 <1>  -0.9000 
 24 O       -9.1710    -5.8090    -1.8050 O.co2 1 <1>  -0.9000 
 25 H       -3.8070    -0.0930    -2.0570 H     1 <1>   0.1500 
 26 H       -2.4990    -3.8210     0.8700 H     1 <1>   0.1500 
 27 H        1.1090    -3.5620    -0.8990 H     1 <1>   0.0800 
 28 H        0.2930    -2.6720     0.3840 H     1 <1>   0.0800 
 29 H        0.4950    -1.9430    -1.2130 H     1 <1>   0.0800 
 30 H       -6.1860     1.2180     0.6730 H     1 <1>   0.0800 
 31 H       -4.6560     1.4040    -0.1830 H     1 <1>   0.0800 
 32 H       -4.6930     0.6800     1.4300 H     1 <1>   0.0800 
 33 H       -4.8930    -4.8680     0.3020 H     1 <1>   0.0800 
 34 H       -5.6330    -5.6220     1.6790 H     1 <1>   0.0800 
 35 H       -7.3990    -1.9660     0.9700 H     1 <1>   0.0800 
 36 H       -6.7170    -2.7710    -0.4210 H     1 <1>   0.0800 
 37 H       -6.7280    -6.7020    -0.0700 H     1 <1>   0.0800 
 38 H       -9.1500    -3.4810     1.1710 H     1 <1>   0.0800 
 39 H       -8.9400    -3.3900    -0.5440 H     1 <1>   0.0800 
 40 H       -7.5060    -5.3880    -1.8640 H     1 <1>   0.4000 
 41 H       -8.4370    -5.6370     1.3130 H     1 <1>   0.0800 
@<TRIPOS>BOND
  1   1   2  1   
  2   2   3  ar  
  3   2   4  ar  
  4   3   5  1   
  5   3   6  ar  
  6   4   7  ar  
  7   4  25  1   
  8   5   8  1   
  9   6   9  ar  
 10   6  26  1   
 11   7   9  ar  
 12   7  10  1   
 13   8  27  1   
 14   8  28  1   
 15   8  29  1   
 16   9  11  1   
 17  10  12  1   
 18  11  13  2   
 19  11  14  2   
 20  11  15  am  
 21  12  30  1   
 22  12  31  1   
 23  12  32  1   
 24  15  16  1   
 25  15  17  1   
 26  16  18  1   
 27  16  33  1   
 28  16  34  1   
 29  17  19  1   
 30  17  35  1   
 31  17  36  1   
 32  18  20  1   
 33  18  21  1   
 34  18  37  1   
 35  19  21  1   
 36  19  38  1   
 37  19  39  1   
 38  20  40  1   
 39  21  22  1   
 40  21  41  1   
 41  22  23  ar  
 42  22  24  ar  
@<TRIPOS>SUBSTRUCTURE
  1 ****   9 GROUP 4 **** **** 0

# MOE 2024.06 (io_trps.svl 2023.06)
