@<TRIPOS>MOLECULE
NONAME
47 50 1 0 0 
SMALL
USER_CHARGES


@<TRIPOS>ATOM
  1 S        0.3590     0.1350     1.5840 S.3   1 <1>  -0.0800 
  2 C        1.7850     0.1070     0.5960 C.2   1 <1>  -0.1400 
  3 C       -0.1230    -1.3900     0.8610 C.2   1 <1>   0.1980 
  4 C        1.7700    -0.9910    -0.1660 C.2   1 <1>   0.0460 
  5 C        2.8320     1.1950     0.6470 C.3   1 <1>   0.0200 
  6 N        0.6920    -1.8450    -0.0140 N.2   1 <1>  -0.5650 
  7 C       -1.4350    -1.9880     1.3490 C.3   1 <1>   0.3200 
  8 C        2.8780    -1.3030    -1.1520 C.3   1 <1>   0.0210 
  9 C        4.0940     0.7000    -0.0880 C.3   1 <1>  -0.1600 
 10 N       -1.7090    -3.2600     0.6480 N.am  1 <1>  -0.7300 
 11 C        3.7590    -0.0560    -1.3940 C.3   1 <1>  -0.1600 
 12 C       -2.7290    -4.1020     0.9410 C.2   1 <1>   0.5690 
 13 O       -3.5260    -3.8160     1.8050 O.2   1 <1>  -0.5700 
 14 C       -2.8450    -5.4190     0.1580 C.3   1 <1>   0.2610 
 15 O       -1.6300    -6.1480     0.2660 O.3   1 <1>  -0.5600 
 16 C       -4.0670    -6.2650     0.6110 C.3   1 <1>   0.3640 
 17 C       -1.5800    -7.3370    -0.4910 C.3   1 <1>   0.1810 
 18 N       -3.9230    -7.6980     0.2530 N.am  1 <1>  -0.7300 
 19 C       -5.3580    -5.7490    -0.0250 C.ar  1 <1>  -0.1440 
 20 C       -2.7970    -8.2360    -0.2630 C.2   1 <1>   0.5690 
 21 C       -6.2450    -4.9920     0.7280 C.ar  1 <1>  -0.1500 
 22 C       -5.6660    -6.0170    -1.3530 C.ar  1 <1>  -0.1500 
 23 O       -2.7560    -9.4010    -0.5700 O.2   1 <1>  -0.5700 
 24 C       -7.4170    -4.5150     0.1680 C.ar  1 <1>  -0.1500 
 25 C       -6.8370    -5.5410    -1.9150 C.ar  1 <1>  -0.1500 
 26 C       -7.7140    -4.7890    -1.1550 C.ar  1 <1>  -0.1500 
 27 H        2.4430     2.0760     0.1670 H     1 <1>   0.0800 
 28 H        3.0700     1.4350     1.6680 H     1 <1>   0.0800 
 29 H       -2.2390    -1.2990     1.1610 H     1 <1>   0.0800 
 30 H       -1.3750    -2.1710     2.4070 H     1 <1>   0.0800 
 31 H        3.4720    -2.1050    -0.7530 H     1 <1>   0.0800 
 32 H        2.4490    -1.6300    -2.0820 H     1 <1>   0.0800 
 33 H        4.7340     1.5370    -0.3020 H     1 <1>   0.0800 
 34 H        4.6330     0.0340     0.5640 H     1 <1>   0.0800 
 35 H       -0.9420    -3.5470     0.0280 H     1 <1>   0.3700 
 36 H        4.6680    -0.3540    -1.8870 H     1 <1>   0.0800 
 37 H        3.2330     0.6130    -2.0530 H     1 <1>   0.0800 
 38 H       -2.9690    -5.1630    -0.8780 H     1 <1>   0.0800 
 39 H       -4.1520    -6.2070     1.6830 H     1 <1>   0.0800 
 40 H       -1.5160    -7.0760    -1.5320 H     1 <1>   0.0800 
 41 H       -0.6890    -7.8670    -0.2100 H     1 <1>   0.0800 
 42 H       -4.7440    -8.2920     0.3760 H     1 <1>   0.3700 
 43 H       -6.0260    -4.7630     1.7580 H     1 <1>   0.1500 
 44 H       -4.9980    -6.6040    -1.9610 H     1 <1>   0.1500 
 45 H       -8.0960    -3.9290     0.7620 H     1 <1>   0.1500 
 46 H       -7.0680    -5.7560    -2.9440 H     1 <1>   0.1500 
 47 H       -8.6260    -4.4180    -1.5900 H     1 <1>   0.1500 
@<TRIPOS>BOND
  1   1   2  1   
  2   1   3  1   
  3   2   4  2   
  4   2   5  1   
  5   3   6  2   
  6   3   7  1   
  7   4   6  1   
  8   4   8  1   
  9   5   9  1   
 10   5  27  1   
 11   5  28  1   
 12   7  10  1   
 13   7  29  1   
 14   7  30  1   
 15   8  11  1   
 16   8  31  1   
 17   8  32  1   
 18   9  11  1   
 19   9  33  1   
 20   9  34  1   
 21  10  12  am  
 22  10  35  1   
 23  11  36  1   
 24  11  37  1   
 25  12  13  2   
 26  12  14  1   
 27  14  15  1   
 28  14  16  1   
 29  14  38  1   
 30  15  17  1   
 31  16  18  1   
 32  16  19  1   
 33  16  39  1   
 34  17  20  1   
 35  17  40  1   
 36  17  41  1   
 37  18  20  am  
 38  18  42  1   
 39  19  21  ar  
 40  19  22  ar  
 41  20  23  2   
 42  21  24  ar  
 43  21  43  1   
 44  22  25  ar  
 45  22  44  1   
 46  24  26  ar  
 47  24  45  1   
 48  25  26  ar  
 49  25  46  1   
 50  26  47  1   
@<TRIPOS>SUBSTRUCTURE
  1 ****  10 GROUP 4 **** **** 0

# MOE 2024.06 (io_trps.svl 2023.06)
