@<TRIPOS>MOLECULE
NONAME
56 58 1 0 0 
SMALL
USER_CHARGES


@<TRIPOS>ATOM
  1 O       -0.4510     0.9570    -0.8740 O.2   1 <1>  -0.5700 
  2 C       -0.5410     2.1460    -1.0740 C.2   1 <1>   0.5690 
  3 N       -0.9200     3.0530    -0.1150 N.am  1 <1>  -0.6600 
  4 C       -0.2090     2.6480    -2.4780 C.3   1 <1>   0.1810 
  5 C       -0.9720     4.5200    -0.4340 C.3   1 <1>   0.3640 
  6 C       -1.1480     2.7230     1.3200 C.3   1 <1>   0.2200 
  7 O        0.3560     3.9320    -2.4490 O.3   1 <1>  -0.5600 
  8 C       -2.3840     5.0620    -0.2160 C.ar  1 <1>  -0.1440 
  9 C       -0.4840     4.9050    -1.8550 C.3   1 <1>   0.2610 
 10 C        0.1560     2.2520     1.9620 C.3   1 <1>  -0.2400 
 11 C       -2.2720     1.7000     1.4910 C.3   1 <1>  -0.2400 
 12 C       -3.5040     4.3630    -0.6480 C.ar  1 <1>  -0.1500 
 13 C       -2.5570     6.2860     0.4160 C.ar  1 <1>  -0.1500 
 14 C        0.1900     6.2820    -1.7890 C.2   1 <1>   0.5690 
 15 C       -4.7740     4.8740    -0.4450 C.ar  1 <1>  -0.1500 
 16 C       -3.8270     6.7980     0.6190 C.ar  1 <1>  -0.1500 
 17 O       -0.4130     7.2020    -2.2960 O.2   1 <1>  -0.5700 
 18 N        1.3930     6.4940    -1.1440 N.am  1 <1>  -0.6600 
 19 C       -4.9360     6.0920     0.1900 C.ar  1 <1>  -0.1500 
 20 C        1.9720     7.8610    -1.0270 C.3   1 <1>   0.1400 
 21 C        2.2810     5.4330    -0.5850 C.3   1 <1>   0.1400 
 22 C        2.2470     8.1800     0.4460 C.3   1 <1>  -0.1600 
 23 C        2.5610     5.7210     0.8930 C.3   1 <1>  -0.1600 
 24 C        3.1560     7.1240     1.1040 C.3   1 <1>  -0.0800 
 25 C        3.3600     7.3820     2.6080 C.3   1 <1>  -0.1600 
 26 C        4.0990     8.6930     2.9050 C.3   1 <1>  -0.2400 
 27 H       -1.0980     2.6720    -3.0810 H     1 <1>   0.0800 
 28 H        0.5050     1.9870    -2.9330 H     1 <1>   0.0800 
 29 H       -0.3300     5.0090     0.2750 H     1 <1>   0.0800 
 30 H       -1.4580     3.6180     1.8340 H     1 <1>   0.0800 
 31 H       -1.3410     5.0010    -2.4980 H     1 <1>   0.0800 
 32 H        0.4790     1.3210     1.5320 H     1 <1>   0.0800 
 33 H        0.0090     2.1020     3.0160 H     1 <1>   0.0800 
 34 H        0.9250     2.9900     1.8270 H     1 <1>   0.0800 
 35 H       -1.9970     0.7440     1.0860 H     1 <1>   0.0800 
 36 H       -3.1670     2.0470     1.0080 H     1 <1>   0.0800 
 37 H       -2.4850     1.5690     2.5360 H     1 <1>   0.0800 
 38 H       -3.3950     3.4130    -1.1420 H     1 <1>   0.1500 
 39 H       -1.7060     6.8560     0.7480 H     1 <1>   0.1500 
 40 H       -5.6350     4.3240    -0.7800 H     1 <1>   0.1500 
 41 H       -3.9510     7.7490     1.1080 H     1 <1>   0.1500 
 42 H       -5.9230     6.4910     0.3480 H     1 <1>   0.1500 
 43 H        2.8880     7.9020    -1.5900 H     1 <1>   0.0800 
 44 H        1.3010     8.5990    -1.4320 H     1 <1>   0.0800 
 45 H        1.8440     4.4560    -0.6730 H     1 <1>   0.0800 
 46 H        3.2050     5.4280    -1.1370 H     1 <1>   0.0800 
 47 H        2.7100     9.1480     0.4960 H     1 <1>   0.0800 
 48 H        1.3090     8.2380     0.9680 H     1 <1>   0.0800 
 49 H        1.6440     5.6260     1.4470 H     1 <1>   0.0800 
 50 H        3.2450     4.9790     1.2650 H     1 <1>   0.0800 
 51 H        4.1180     7.1540     0.6190 H     1 <1>   0.0800 
 52 H        2.4060     7.3920     3.1090 H     1 <1>   0.0800 
 53 H        3.9360     6.5730     3.0250 H     1 <1>   0.0800 
 54 H        3.5060     9.5440     2.6220 H     1 <1>   0.0800 
 55 H        5.0350     8.7270     2.3750 H     1 <1>   0.0800 
 56 H        4.3030     8.7660     3.9590 H     1 <1>   0.0800 
@<TRIPOS>BOND
  1   1   2  2   
  2   2   3  am  
  3   2   4  1   
  4   3   5  1   
  5   3   6  1   
  6   4   7  1   
  7   4  27  1   
  8   4  28  1   
  9   5   8  1   
 10   5   9  1   
 11   5  29  1   
 12   6  10  1   
 13   6  11  1   
 14   6  30  1   
 15   7   9  1   
 16   8  12  ar  
 17   8  13  ar  
 18   9  14  1   
 19   9  31  1   
 20  10  32  1   
 21  10  33  1   
 22  10  34  1   
 23  11  35  1   
 24  11  36  1   
 25  11  37  1   
 26  12  15  ar  
 27  12  38  1   
 28  13  16  ar  
 29  13  39  1   
 30  14  17  2   
 31  14  18  am  
 32  15  19  ar  
 33  15  40  1   
 34  16  19  ar  
 35  16  41  1   
 36  18  20  1   
 37  18  21  1   
 38  19  42  1   
 39  20  22  1   
 40  20  43  1   
 41  20  44  1   
 42  21  23  1   
 43  21  45  1   
 44  21  46  1   
 45  22  24  1   
 46  22  47  1   
 47  22  48  1   
 48  23  24  1   
 49  23  49  1   
 50  23  50  1   
 51  24  25  1   
 52  24  51  1   
 53  25  26  1   
 54  25  52  1   
 55  25  53  1   
 56  26  54  1   
 57  26  55  1   
 58  26  56  1   
@<TRIPOS>SUBSTRUCTURE
  1 ****   5 GROUP 4 **** **** 0

# MOE 2024.06 (io_trps.svl 2023.06)
