@<TRIPOS>MOLECULE
NONAME
46 48 1 0 0 
SMALL
USER_CHARGES


@<TRIPOS>ATOM
  1 O       -0.3300    -1.6440    -1.2790 O.2   1 <1>  -0.5700 
  2 C       -0.0550    -1.6580    -0.1010 C.2   1 <1>   0.5690 
  3 N        1.2310    -1.6500     0.3530 N.am  1 <1>  -0.5790 
  4 C       -1.2320    -1.6690     0.8900 C.3   1 <1>   0.4040 
  5 C        2.4230    -1.6320    -0.5110 C.3   1 <1>   0.0490 
  6 N       -2.5210    -1.1610     0.2850 N.4   1 <1>  -0.9590 
  7 C        3.6330    -2.3720    -0.0490 C.3   1 <1>  -0.2000 
  8 C        3.6180    -0.8730    -0.0390 C.3   1 <1>  -0.2000 
  9 C       -3.7380    -1.5530     1.0640 C.3   1 <1>   0.3430 
 10 C       -2.4670     0.3020     0.0000 C.3   1 <1>   0.3430 
 11 C       -5.0340    -1.1800     0.3170 C.3   1 <1>   0.0000 
 12 C       -3.7180     0.7210    -0.7710 C.3   1 <1>  -0.1600 
 13 C       -6.2340    -1.5840     1.1990 C.3   1 <1>   0.2000 
 14 C       -5.0080     0.3260    -0.0360 C.3   1 <1>  -0.1600 
 15 C       -5.2150    -2.0730    -0.9250 C.3   1 <1>  -0.1600 
 16 O       -7.3750    -0.9340     0.7300 O.3   1 <1>  -0.5600 
 17 C       -6.3970    -3.0930     0.9690 C.3   1 <1>  -0.1600 
 18 C       -5.7880    -3.3960    -0.4070 C.3   1 <1>  -0.1600 
 19 C       -8.4220    -0.8180     1.6440 C.3   1 <1>   0.0400 
 20 H        1.4610    -1.6790     1.3480 H     1 <1>   0.3700 
 21 H       -0.9750    -1.0750     1.7490 H     1 <1>   0.0800 
 22 H       -1.3700    -2.6860     1.2130 H     1 <1>   0.0800 
 23 H        2.1940    -1.6300    -1.5660 H     1 <1>   0.1000 
 24 H       -2.5770    -1.6090    -0.6460 H     1 <1>   0.4500 
 25 H        3.6090    -2.8990     0.8890 H     1 <1>   0.1000 
 26 H        4.2490    -2.8650    -0.7810 H     1 <1>   0.1000 
 27 H        4.2250    -0.3600    -0.7650 H     1 <1>   0.1000 
 28 H        3.5840    -0.3600     0.9060 H     1 <1>   0.1000 
 29 H       -3.7300    -2.6160     1.2410 H     1 <1>   0.0800 
 30 H       -3.7290    -1.0520     2.0180 H     1 <1>   0.0800 
 31 H       -2.4120     0.8560     0.9240 H     1 <1>   0.0800 
 32 H       -1.5930     0.5330    -0.5910 H     1 <1>   0.0800 
 33 H       -3.7030     1.7880    -0.9090 H     1 <1>   0.0800 
 34 H       -3.6990     0.2760    -1.7510 H     1 <1>   0.0800 
 35 H       -6.0860    -1.3280     2.2350 H     1 <1>   0.0800 
 36 H       -5.8570     0.5780    -0.6510 H     1 <1>   0.0800 
 37 H       -5.0920     0.9030     0.8690 H     1 <1>   0.0800 
 38 H       -5.9510    -1.6250    -1.5720 H     1 <1>   0.0800 
 39 H       -4.3170    -2.2220    -1.4970 H     1 <1>   0.0800 
 40 H       -5.8550    -3.6330     1.7240 H     1 <1>   0.0800 
 41 H       -7.4280    -3.3970     1.0140 H     1 <1>   0.0800 
 42 H       -5.0140    -4.1400    -0.3160 H     1 <1>   0.0800 
 43 H       -6.5400    -3.7660    -1.0850 H     1 <1>   0.0800 
 44 H       -9.2410    -0.3250     1.1510 H     1 <1>   0.0800 
 45 H       -8.0990    -0.2270     2.4830 H     1 <1>   0.0800 
 46 H       -8.7340    -1.7960     1.9660 H     1 <1>   0.0800 
@<TRIPOS>BOND
  1   1   2  2   
  2   2   3  am  
  3   2   4  1   
  4   3   5  1   
  5   3  20  1   
  6   4   6  1   
  7   4  21  1   
  8   4  22  1   
  9   5   7  1   
 10   5   8  1   
 11   5  23  1   
 12   6   9  1   
 13   6  10  1   
 14   6  24  1   
 15   7   8  1   
 16   7  25  1   
 17   7  26  1   
 18   8  27  1   
 19   8  28  1   
 20   9  11  1   
 21   9  29  1   
 22   9  30  1   
 23  10  12  1   
 24  10  31  1   
 25  10  32  1   
 26  11  13  1   
 27  11  14  1   
 28  11  15  1   
 29  12  14  1   
 30  12  33  1   
 31  12  34  1   
 32  13  16  1   
 33  13  17  1   
 34  13  35  1   
 35  14  36  1   
 36  14  37  1   
 37  15  18  1   
 38  15  38  1   
 39  15  39  1   
 40  16  19  1   
 41  17  18  1   
 42  17  40  1   
 43  17  41  1   
 44  18  42  1   
 45  18  43  1   
 46  19  44  1   
 47  19  45  1   
 48  19  46  1   
@<TRIPOS>SUBSTRUCTURE
  1 ****   6 GROUP 4 **** **** 0

# MOE 2024.06 (io_trps.svl 2023.06)
