@<TRIPOS>MOLECULE
NONAME
47 49 1 0 0 
SMALL
USER_CHARGES


@<TRIPOS>ATOM
  1 O       -0.3730     0.0230    -0.8390 O.2   1 <1>  -0.5700 
  2 C       -1.3760     0.7070    -0.7470 C.2   1 <1>   0.5440 
  3 N       -2.5830     0.0870    -0.5370 N.am  1 <1>  -0.6600 
  4 C       -1.2910     2.1530    -0.8470 C.ar  1 <1>   0.0860 
  5 C       -3.8470     0.7770    -0.2000 C.3   1 <1>   0.1400 
  6 C       -2.7330    -1.3780    -0.4300 C.3   1 <1>   0.1400 
  7 C       -0.6310     2.9450     0.1030 C.ar  1 <1>  -0.1440 
  8 C       -1.8980     2.7850    -1.9330 C.ar  1 <1>  -0.1500 
  9 C       -4.6880    -0.2770     0.5340 C.3   1 <1>  -0.0800 
 10 C       -4.1930    -1.6220    -0.0330 C.3   1 <1>  -0.0800 
 11 C       -0.5900     4.3250    -0.0750 C.ar  1 <1>   0.0820 
 12 C        0.0360     2.2940     1.3180 C.3   1 <1>  -0.0960 
 13 C       -1.8630     4.1580    -2.0900 C.ar  1 <1>  -0.1500 
 14 C       -6.2340    -0.0710     0.4960 C.3   1 <1>   0.2800 
 15 C       -5.0590    -2.0680    -1.2220 C.3   1 <1>  -0.1600 
 16 O        0.0580     5.1160     0.7940 O.3   1 <1>  -0.5330 
 17 C       -1.2030     4.9300    -1.1560 C.ar  1 <1>  -0.1500 
 18 O       -6.5970     0.6310    -0.6390 O.3   1 <1>  -0.6800 
 19 C       -6.9480    -1.4330     0.4130 C.3   1 <1>  -0.1600 
 20 C       -6.7600     0.7290     1.7080 C.3   1 <1>  -0.1600 
 21 C       -6.5270    -2.2790    -0.8080 C.3   1 <1>  -0.1600 
 22 C       -6.1930     2.1510     1.8660 C.3   1 <1>  -0.2400 
 23 H       -3.6670     1.6400     0.4160 H     1 <1>   0.0800 
 24 H       -4.3100     1.0850    -1.1200 H     1 <1>   0.0800 
 25 H       -2.4840    -1.8470    -1.3670 H     1 <1>   0.0800 
 26 H       -2.0680    -1.7420     0.3340 H     1 <1>   0.0800 
 27 H       -2.4060     2.1810    -2.6650 H     1 <1>   0.1500 
 28 H       -4.3780    -0.2600     1.5640 H     1 <1>   0.0800 
 29 H       -4.2300    -2.3880     0.7210 H     1 <1>   0.0800 
 30 H       -0.4470     1.3700     1.5810 H     1 <1>   0.0800 
 31 H       -0.0160     2.9290     2.1830 H     1 <1>   0.0800 
 32 H        1.0660     2.0810     1.0930 H     1 <1>   0.0800 
 33 H       -2.3410     4.6210    -2.9350 H     1 <1>   0.1500 
 34 H       -5.0170    -1.3060    -1.9830 H     1 <1>   0.0800 
 35 H       -4.6700    -2.9750    -1.6500 H     1 <1>   0.0800 
 36 H        0.5300     4.6070     1.4750 H     1 <1>   0.4500 
 37 H       -1.1580     6.0000    -1.2600 H     1 <1>   0.1500 
 38 H       -7.5680     0.6910    -0.6820 H     1 <1>   0.4000 
 39 H       -6.7050    -1.9860     1.3040 H     1 <1>   0.0800 
 40 H       -8.0150    -1.3010     0.4110 H     1 <1>   0.0800 
 41 H       -7.8320     0.7950     1.6410 H     1 <1>   0.0800 
 42 H       -6.5410     0.1780     2.6050 H     1 <1>   0.0800 
 43 H       -6.6900    -3.3180    -0.5790 H     1 <1>   0.0800 
 44 H       -7.1530    -2.0320    -1.6480 H     1 <1>   0.0800 
 45 H       -6.3410     2.7240     0.9670 H     1 <1>   0.0800 
 46 H       -5.1430     2.1220     2.0910 H     1 <1>   0.0800 
 47 H       -6.6930     2.6550     2.6740 H     1 <1>   0.0800 
@<TRIPOS>BOND
  1   1   2  2   
  2   2   3  am  
  3   2   4  1   
  4   3   5  1   
  5   3   6  1   
  6   4   7  ar  
  7   4   8  ar  
  8   5   9  1   
  9   5  23  1   
 10   5  24  1   
 11   6  10  1   
 12   6  25  1   
 13   6  26  1   
 14   7  11  ar  
 15   7  12  1   
 16   8  13  ar  
 17   8  27  1   
 18   9  10  1   
 19   9  14  1   
 20   9  28  1   
 21  10  15  1   
 22  10  29  1   
 23  11  16  1   
 24  11  17  ar  
 25  12  30  1   
 26  12  31  1   
 27  12  32  1   
 28  13  17  ar  
 29  13  33  1   
 30  14  18  1   
 31  14  19  1   
 32  14  20  1   
 33  15  21  1   
 34  15  34  1   
 35  15  35  1   
 36  16  36  1   
 37  17  37  1   
 38  18  38  1   
 39  19  21  1   
 40  19  39  1   
 41  19  40  1   
 42  20  22  1   
 43  20  41  1   
 44  20  42  1   
 45  21  43  1   
 46  21  44  1   
 47  22  45  1   
 48  22  46  1   
 49  22  47  1   
@<TRIPOS>SUBSTRUCTURE
  1 ****   5 GROUP 4 **** **** 0

# MOE 2024.06 (io_trps.svl 2023.06)
