@<TRIPOS>MOLECULE
NONAME
56 58 1 0 0 
SMALL
USER_CHARGES


@<TRIPOS>ATOM
  1 O       -1.1560     0.4820    -1.4600 O.2   1 <1>  -0.5700 
  2 C       -0.7540     1.4250    -0.8180 C.2   1 <1>   0.5690 
  3 N       -1.4740     2.5840    -0.6910 N.am  1 <1>  -0.6600 
  4 C        0.6240     1.3080    -0.1610 C.3   1 <1>   0.1810 
  5 C       -0.9480     3.7440     0.1040 C.3   1 <1>   0.3640 
  6 C       -2.8670     2.7170    -1.2080 C.3   1 <1>   0.0600 
  7 O        0.8260     2.2300     0.8810 O.3   1 <1>  -0.5600 
  8 C       -1.0790     5.0380    -0.7180 C.ar  1 <1>  -0.1430 
  9 C        0.5300     3.5690     0.5330 C.3   1 <1>   0.2610 
 10 C       -1.6860     6.1920    -0.2200 C.ar  1 <1>  -0.1430 
 11 C       -0.5560     5.0580    -2.0070 C.ar  1 <1>  -0.1500 
 12 C        0.8390     4.5320     1.6920 C.2   1 <1>   0.5690 
 13 C       -1.7350     7.3340    -1.0060 C.ar  1 <1>  -0.1500 
 14 C       -2.3120     6.2600     1.1680 C.3   1 <1>  -0.0960 
 15 C       -0.6130     6.1990    -2.7850 C.ar  1 <1>  -0.1500 
 16 O        0.1490     4.4510     2.6860 O.2   1 <1>  -0.5700 
 17 N        1.8220     5.4950     1.6010 N.am  1 <1>  -0.6600 
 18 C       -1.2000     7.3420    -2.2810 C.ar  1 <1>  -0.1500 
 19 C        2.8180     5.6430     0.5130 C.3   1 <1>   0.1400 
 20 C        1.8420     6.6560     2.5250 C.3   1 <1>   0.1400 
 21 C        2.4330     6.8540    -0.3390 C.3   1 <1>  -0.1600 
 22 C        1.4460     7.9110     1.7410 C.3   1 <1>  -0.1600 
 23 C        2.3270     8.1550     0.4910 C.3   1 <1>  -0.0800 
 24 C        1.7910     9.3380    -0.3620 C.3   1 <1>  -0.0800 
 25 C        2.6380     9.5850    -1.6210 C.3   1 <1>  -0.2400 
 26 C        1.7280    10.6500     0.4370 C.3   1 <1>  -0.2400 
 27 H        1.3870     1.4590    -0.9020 H     1 <1>   0.0800 
 28 H        0.7340     0.3230     0.2520 H     1 <1>   0.0800 
 29 H       -1.5460     3.8060     0.9940 H     1 <1>   0.0800 
 30 H       -3.5210     3.0360    -0.4160 H     1 <1>   0.0800 
 31 H       -3.2230     1.7750    -1.5890 H     1 <1>   0.0800 
 32 H       -2.8960     3.4410    -2.0030 H     1 <1>   0.0800 
 33 H        1.1420     3.8100    -0.3100 H     1 <1>   0.0800 
 34 H       -0.1000     4.1750    -2.4200 H     1 <1>   0.1500 
 35 H       -2.1930     8.2320    -0.6310 H     1 <1>   0.1500 
 36 H       -2.8490     7.1810     1.3030 H     1 <1>   0.0800 
 37 H       -1.5520     6.2070     1.9250 H     1 <1>   0.0800 
 38 H       -3.0080     5.4530     1.3080 H     1 <1>   0.0800 
 39 H       -0.2040     6.1980    -3.7800 H     1 <1>   0.1500 
 40 H       -1.2460     8.2360    -2.8790 H     1 <1>   0.1500 
 41 H        3.7880     5.8070     0.9510 H     1 <1>   0.0800 
 42 H        2.8880     4.7580    -0.0900 H     1 <1>   0.0800 
 43 H        1.1580     6.5090     3.3440 H     1 <1>   0.0800 
 44 H        2.8310     6.7680     2.9350 H     1 <1>   0.0800 
 45 H        3.1790     6.9640    -1.1040 H     1 <1>   0.0800 
 46 H        1.4920     6.6560    -0.8200 H     1 <1>   0.0800 
 47 H        0.4170     7.8140     1.4420 H     1 <1>   0.0800 
 48 H        1.5150     8.7470     2.4110 H     1 <1>   0.0800 
 49 H        3.3170     8.4060     0.8330 H     1 <1>   0.0800 
 50 H        0.7900     9.0990    -0.6830 H     1 <1>   0.0800 
 51 H        3.6720     9.7270    -1.3600 H     1 <1>   0.0800 
 52 H        2.2930    10.4630    -2.1390 H     1 <1>   0.0800 
 53 H        2.5590     8.7620    -2.3080 H     1 <1>   0.0800 
 54 H        2.6900    10.8840     0.8570 H     1 <1>   0.0800 
 55 H        1.0070    10.5860     1.2310 H     1 <1>   0.0800 
 56 H        1.4280    11.4640    -0.1990 H     1 <1>   0.0800 
@<TRIPOS>BOND
  1   1   2  2   
  2   2   3  am  
  3   2   4  1   
  4   3   5  1   
  5   3   6  1   
  6   4   7  1   
  7   4  27  1   
  8   4  28  1   
  9   5   8  1   
 10   5   9  1   
 11   5  29  1   
 12   6  30  1   
 13   6  31  1   
 14   6  32  1   
 15   7   9  1   
 16   8  10  ar  
 17   8  11  ar  
 18   9  12  1   
 19   9  33  1   
 20  10  13  ar  
 21  10  14  1   
 22  11  15  ar  
 23  11  34  1   
 24  12  16  2   
 25  12  17  am  
 26  13  18  ar  
 27  13  35  1   
 28  14  36  1   
 29  14  37  1   
 30  14  38  1   
 31  15  18  ar  
 32  15  39  1   
 33  17  19  1   
 34  17  20  1   
 35  18  40  1   
 36  19  21  1   
 37  19  41  1   
 38  19  42  1   
 39  20  22  1   
 40  20  43  1   
 41  20  44  1   
 42  21  23  1   
 43  21  45  1   
 44  21  46  1   
 45  22  23  1   
 46  22  47  1   
 47  22  48  1   
 48  23  24  1   
 49  23  49  1   
 50  24  25  1   
 51  24  26  1   
 52  24  50  1   
 53  25  51  1   
 54  25  52  1   
 55  25  53  1   
 56  26  54  1   
 57  26  55  1   
 58  26  56  1   
@<TRIPOS>SUBSTRUCTURE
  1 ****   8 GROUP 4 **** **** 0

# MOE 2024.06 (io_trps.svl 2023.06)
