@<TRIPOS>MOLECULE
NONAME
41 43 1 0 0 
SMALL
USER_CHARGES


@<TRIPOS>ATOM
  1 O       -0.0490     0.4330     0.6310 O.co2 1 <1>  -0.9000 
  2 C        1.1270     0.1890     0.8920 C.2   1 <1>   0.9060 
  3 O        1.4790    -0.1900     2.0210 O.co2 1 <1>  -0.9000 
  4 C        2.1710     0.2890    -0.2340 C.3   1 <1>  -0.1060 
  5 C        3.5770    -0.0100     0.3170 C.3   1 <1>   0.4230 
  6 C        2.1220     1.7350    -0.8230 C.3   1 <1>  -0.1600 
  7 C        1.8840    -0.7790    -1.3150 C.3   1 <1>  -0.1600 
  8 N        3.6080    -1.3450     1.0030 N.4   1 <1>  -0.9590 
  9 C        4.0720     1.2260     1.0950 C.3   1 <1>   0.2090 
 10 C        3.4870     2.3890    -1.0930 C.3   1 <1>   0.2090 
 11 C        1.9900    -2.1930    -0.7100 C.3   1 <1>  -0.1600 
 12 C        3.3070    -2.4400     0.0410 C.3   1 <1>   0.3430 
 13 C        4.8340    -1.6050     1.7990 C.3   1 <1>   0.2630 
 14 N        4.4180     2.2870     0.0840 N.pl3 1 <1>  -0.8380 
 15 C        5.7650     2.4960    -0.1870 C.ar  1 <1>   0.4100 
 16 N        6.4640     1.3770    -0.3810 N.ar  1 <1>  -0.6200 
 17 C        6.3390     3.7900    -0.2680 C.ar  1 <1>   0.3830 
 18 C        7.7340     1.6090    -0.6580 C.ar  1 <1>   0.1600 
 19 N        7.6280     3.9940    -0.5480 N.ar  1 <1>  -0.6200 
 20 C        5.4980     4.9330    -0.0460 C.1   1 <1>   0.4840 
 21 C        8.2980     2.8720    -0.7380 C.ar  1 <1>   0.1600 
 22 N        4.8260     5.8450     0.1060 N.1   1 <1>  -0.5570 
 23 H        4.2440    -0.0860    -0.5240 H     1 <1>   0.0800 
 24 H        1.6090     2.3800    -0.1280 H     1 <1>   0.0800 
 25 H        1.5300     1.7490    -1.7220 H     1 <1>   0.0800 
 26 H        0.8900    -0.6360    -1.7060 H     1 <1>   0.0800 
 27 H        2.5810    -0.6760    -2.1290 H     1 <1>   0.0800 
 28 H        2.7850    -1.2500     1.6570 H     1 <1>   0.4500 
 29 H        4.9430     0.9960     1.6780 H     1 <1>   0.0800 
 30 H        3.3080     1.5940     1.7590 H     1 <1>   0.0800 
 31 H        3.3350     3.4280    -1.3350 H     1 <1>   0.0800 
 32 H        3.9440     1.9140    -1.9460 H     1 <1>   0.0800 
 33 H        1.8890    -2.9230    -1.4930 H     1 <1>   0.0800 
 34 H        1.1710    -2.3530    -0.0280 H     1 <1>   0.0800 
 35 H        4.1090    -2.5100    -0.6750 H     1 <1>   0.0800 
 36 H        3.2410    -3.3780     0.5670 H     1 <1>   0.0800 
 37 H        5.7060    -1.5540     1.1690 H     1 <1>   0.0800 
 38 H        4.7810    -2.5820     2.2510 H     1 <1>   0.0800 
 39 H        4.9260    -0.8740     2.5860 H     1 <1>   0.0800 
 40 H        8.3650     0.7550    -0.8310 H     1 <1>   0.1500 
 41 H        9.3460     2.9590    -0.9700 H     1 <1>   0.1500 
@<TRIPOS>BOND
  1   1   2  ar  
  2   2   3  ar  
  3   2   4  1   
  4   4   5  1   
  5   4   6  1   
  6   4   7  1   
  7   5   8  1   
  8   5   9  1   
  9   5  23  1   
 10   6  10  1   
 11   6  24  1   
 12   6  25  1   
 13   7  11  1   
 14   7  26  1   
 15   7  27  1   
 16   8  12  1   
 17   8  13  1   
 18   8  28  1   
 19   9  14  1   
 20   9  29  1   
 21   9  30  1   
 22  10  14  1   
 23  10  31  1   
 24  10  32  1   
 25  11  12  1   
 26  11  33  1   
 27  11  34  1   
 28  12  35  1   
 29  12  36  1   
 30  13  37  1   
 31  13  38  1   
 32  13  39  1   
 33  14  15  1   
 34  15  16  ar  
 35  15  17  ar  
 36  16  18  ar  
 37  17  19  ar  
 38  17  20  1   
 39  18  21  ar  
 40  18  40  1   
 41  19  21  ar  
 42  20  22  3   
 43  21  41  1   
@<TRIPOS>SUBSTRUCTURE
  1 ****   9 GROUP 4 **** **** 0

# MOE 2024.06 (io_trps.svl 2023.06)
