@<TRIPOS>MOLECULE
NONAME
43 44 1 0 0 
SMALL
USER_CHARGES


@<TRIPOS>ATOM
  1 CL       1.8780     0.8450    -2.6360 Cl    1 <1>  -0.1770 
  2 C        2.2120    -0.1130    -1.2120 C.ar  1 <1>   0.1770 
  3 C        2.6580     0.4920    -0.0420 C.ar  1 <1>  -0.1440 
  4 C        2.0240    -1.4800    -1.2950 C.ar  1 <1>  -0.1500 
  5 C        2.9250    -0.3060     1.0630 C.ar  1 <1>  -0.1500 
  6 C        2.8640     1.9990     0.0560 C.3   1 <1>  -0.0160 
  7 C        2.2940    -2.2500    -0.1810 C.ar  1 <1>   0.1770 
  8 C        2.7430    -1.6780     0.9960 C.ar  1 <1>  -0.1500 
  9 C        4.2310     2.3910    -0.5070 C.3   1 <1>   0.1400 
 10 CL       2.0650    -3.9770    -0.2600 Cl    1 <1>  -0.1770 
 11 N        4.4210     3.8550    -0.3930 N.am  1 <1>  -0.7300 
 12 C        4.9830     4.4770     0.6760 C.2   1 <1>   0.5690 
 13 O        5.3390     3.8630     1.6520 O.2   1 <1>  -0.5700 
 14 C        5.1520     5.9940     0.6550 C.3   1 <1>  -0.0190 
 15 C        3.8020     6.7240     0.5040 C.3   1 <1>  -0.1600 
 16 C        6.1650     6.4510    -0.4230 C.3   1 <1>  -0.1600 
 17 C        3.9510     8.2530     0.6470 C.3   1 <1>   0.2000 
 18 C        5.9890     7.9200    -0.8570 C.3   1 <1>  -0.1600 
 19 O        2.9920     8.8600    -0.1830 O.3   1 <1>  -0.5600 
 20 C        5.3630     8.7640     0.2550 C.3   1 <1>   0.2000 
 21 C        1.7130     8.9550     0.3630 C.3   1 <1>   0.0400 
 22 O        5.2660    10.0630    -0.1990 O.3   1 <1>  -0.6800 
 23 H        1.6780    -1.9340    -2.2040 H     1 <1>   0.1500 
 24 H        3.2770     0.1370     1.9810 H     1 <1>   0.1500 
 25 H        2.8120     2.3030     1.0870 H     1 <1>   0.0800 
 26 H        2.0870     2.5130    -0.4790 H     1 <1>   0.0800 
 27 H        2.9470    -2.3020     1.8480 H     1 <1>   0.1500 
 28 H        4.3090     2.0980    -1.5390 H     1 <1>   0.0800 
 29 H        5.0040     1.8840     0.0480 H     1 <1>   0.0800 
 30 H        4.1070     4.4120    -1.1900 H     1 <1>   0.3700 
 31 H        5.5540     6.2690     1.6160 H     1 <1>   0.0800 
 32 H        3.1180     6.3650     1.2510 H     1 <1>   0.0800 
 33 H        3.3950     6.4980    -0.4660 H     1 <1>   0.0800 
 34 H        7.1580     6.3120    -0.0290 H     1 <1>   0.0800 
 35 H        6.0870     5.8310    -1.3000 H     1 <1>   0.0800 
 36 H        3.7690     8.5500     1.6670 H     1 <1>   0.0800 
 37 H        5.3410     7.9560    -1.7160 H     1 <1>   0.0800 
 38 H        6.9440     8.3310    -1.1360 H     1 <1>   0.0800 
 39 H        6.0140     8.7620     1.1130 H     1 <1>   0.0800 
 40 H        1.0750     9.4320    -0.3610 H     1 <1>   0.0800 
 41 H        1.7510     9.5510     1.2580 H     1 <1>   0.0800 
 42 H        1.3380     7.9700     0.5780 H     1 <1>   0.0800 
 43 H        4.3720    10.1390    -0.6040 H     1 <1>   0.4000 
@<TRIPOS>BOND
  1   1   2  1   
  2   2   3  ar  
  3   2   4  ar  
  4   3   5  ar  
  5   3   6  1   
  6   4   7  ar  
  7   4  23  1   
  8   5   8  ar  
  9   5  24  1   
 10   6   9  1   
 11   6  25  1   
 12   6  26  1   
 13   7   8  ar  
 14   7  10  1   
 15   8  27  1   
 16   9  11  1   
 17   9  28  1   
 18   9  29  1   
 19  11  12  am  
 20  11  30  1   
 21  12  13  2   
 22  12  14  1   
 23  14  15  1   
 24  14  16  1   
 25  14  31  1   
 26  15  17  1   
 27  15  32  1   
 28  15  33  1   
 29  16  18  1   
 30  16  34  1   
 31  16  35  1   
 32  17  19  1   
 33  17  20  1   
 34  17  36  1   
 35  18  20  1   
 36  18  37  1   
 37  18  38  1   
 38  19  21  1   
 39  20  22  1   
 40  20  39  1   
 41  21  40  1   
 42  21  41  1   
 43  21  42  1   
 44  22  43  1   
@<TRIPOS>SUBSTRUCTURE
  1 ****  11 GROUP 4 **** **** 0

# MOE 2024.06 (io_trps.svl 2023.06)
