@<TRIPOS>MOLECULE
NONAME
44 47 1 0 0 
SMALL
USER_CHARGES


@<TRIPOS>ATOM
  1 O       -0.3620     0.2560     1.3980 O.2   1 <1>  -0.5700 
  2 C       -1.3460     0.8500     0.9970 C.2   1 <1>   0.7150 
  3 N       -2.3750     0.1220     0.4510 N.am  1 <1>  -0.6600 
  4 C       -1.4240     2.2780     1.0850 C.2   1 <1>  -0.2370 
  5 C       -3.4910     0.6970    -0.3370 C.3   1 <1>   0.1400 
  6 C       -2.2930    -1.3440     0.2620 C.3   1 <1>   0.1400 
  7 N       -0.4170     3.0990     0.6540 N.pl3 1 <1>   0.2940 
  8 C       -2.4300     3.0720     1.5800 C.2   1 <1>  -0.1500 
  9 C       -4.0280    -0.4730    -1.1610 C.3   1 <1>   0.2000 
 10 C       -3.6150    -1.7350    -0.4040 C.3   1 <1>  -0.0800 
 11 C       -0.7990     4.3800     0.8800 C.2   1 <1>  -0.3020 
 12 C        0.8550     2.6850     0.0140 C.3   1 <1>  -0.0910 
 13 C       -2.0340     4.3990     1.4490 C.2   1 <1>  -0.1500 
 14 O       -5.4070    -0.4200    -1.2860 O.3   1 <1>  -0.6800 
 15 C       -3.5060    -2.9630    -1.3220 C.3   1 <1>   0.0200 
 16 C        1.3760     3.4160    -1.1880 C.3   1 <1>  -0.2000 
 17 C        0.8120     2.0380    -1.3390 C.3   1 <1>  -0.2000 
 18 C       -3.1260    -4.2340    -0.5820 C.2   1 <1>  -0.0400 
 19 O       -2.8220    -5.2960    -1.2800 O.3   1 <1>  -0.0190 
 20 C       -3.0200    -4.5570     0.7170 C.2   1 <1>  -0.1500 
 21 N       -2.5150    -6.3080    -0.5210 N.2   1 <1>  -0.4100 
 22 C       -2.6260    -5.8910     0.6890 C.2   1 <1>   0.1080 
 23 C       -2.3610    -6.7440     1.9090 C.3   1 <1>  -0.0590 
 24 H       -4.2430     1.0700     0.3360 H     1 <1>   0.0800 
 25 H       -3.1380     1.4880    -0.9760 H     1 <1>   0.0800 
 26 H       -1.4550    -1.5670    -0.3780 H     1 <1>   0.0800 
 27 H       -2.1570    -1.8380     1.2080 H     1 <1>   0.0800 
 28 H       -3.3630     2.7460     2.0070 H     1 <1>   0.1500 
 29 H       -3.5970    -0.4480    -2.1480 H     1 <1>   0.0800 
 30 H       -4.3270    -1.9310     0.3780 H     1 <1>   0.0800 
 31 H       -0.1710     5.2130     0.6240 H     1 <1>   0.1500 
 32 H        1.5520     2.2960     0.7360 H     1 <1>   0.1000 
 33 H       -2.6080     5.2590     1.7490 H     1 <1>   0.1500 
 34 H       -5.8350    -0.4710    -0.4100 H     1 <1>   0.4000 
 35 H       -2.7710    -2.7770    -2.0850 H     1 <1>   0.0800 
 36 H       -4.4500    -3.1260    -1.8130 H     1 <1>   0.0800 
 37 H        0.8170     4.2450    -1.5860 H     1 <1>   0.1000 
 38 H        2.4390     3.5420    -1.2990 H     1 <1>   0.1000 
 39 H        1.4880     1.2250    -1.5390 H     1 <1>   0.1000 
 40 H       -0.1380     1.9170    -1.8280 H     1 <1>   0.1000 
 41 H       -3.1900    -3.9690     1.6000 H     1 <1>   0.1500 
 42 H       -1.5790    -6.3040     2.5000 H     1 <1>   0.0800 
 43 H       -2.0560    -7.7300     1.6080 H     1 <1>   0.0800 
 44 H       -3.2540    -6.8220     2.5010 H     1 <1>   0.0800 
@<TRIPOS>BOND
  1   1   2  2   
  2   2   3  am  
  3   2   4  1   
  4   3   5  1   
  5   3   6  1   
  6   4   7  1   
  7   4   8  2   
  8   5   9  1   
  9   5  24  1   
 10   5  25  1   
 11   6  10  1   
 12   6  26  1   
 13   6  27  1   
 14   7  11  1   
 15   7  12  1   
 16   8  13  1   
 17   8  28  1   
 18   9  10  1   
 19   9  14  1   
 20   9  29  1   
 21  10  15  1   
 22  10  30  1   
 23  11  13  2   
 24  11  31  1   
 25  12  16  1   
 26  12  17  1   
 27  12  32  1   
 28  13  33  1   
 29  14  34  1   
 30  15  18  1   
 31  15  35  1   
 32  15  36  1   
 33  16  17  1   
 34  16  37  1   
 35  16  38  1   
 36  17  39  1   
 37  17  40  1   
 38  18  19  1   
 39  18  20  2   
 40  19  21  1   
 41  20  22  1   
 42  20  41  1   
 43  21  22  2   
 44  22  23  1   
 45  23  42  1   
 46  23  43  1   
 47  23  44  1   
@<TRIPOS>SUBSTRUCTURE
  1 ****   3 GROUP 4 **** **** 0

# MOE 2024.06 (io_trps.svl 2023.06)
