@<TRIPOS>MOLECULE
NONAME
39 40 1 0 0 
SMALL
USER_CHARGES


@<TRIPOS>ATOM
  1 O       -3.0670     1.3790    -1.1070 O.co2 1 <1>  -0.9000 
  2 C       -3.2390     0.9090     0.0150 C.2   1 <1>   0.9060 
  3 O       -4.3500     0.7870     0.5340 O.co2 1 <1>  -0.9000 
  4 C       -2.1290     0.1300     0.6300 C.3   1 <1>  -0.2660 
  5 C       -2.0740    -1.2140    -0.0740 C.3   1 <1>   0.3430 
  6 N       -3.4400    -1.7940    -0.1430 N.4   1 <1>  -0.9590 
  7 C       -4.1090    -1.5690    -1.4550 C.3   1 <1>   0.3430 
  8 C       -3.6080    -3.2280     0.2010 C.3   1 <1>   0.3430 
  9 C       -5.2150    -2.6270    -1.4980 C.3   1 <1>   0.2000 
 10 C       -4.5000    -3.8350    -0.8920 C.3   1 <1>  -0.0800 
 11 O       -6.2770    -2.3020    -0.6440 O.3   1 <1>  -0.5600 
 12 C       -5.4280    -4.9470    -0.3680 C.3   1 <1>   0.0200 
 13 C       -6.9590    -1.1140    -0.9270 C.3   1 <1>   0.0400 
 14 C       -4.6240    -6.1500     0.0890 C.2   1 <1>  -0.0400 
 15 O       -3.7850    -6.0390     1.0840 O.3   1 <1>  -0.0190 
 16 C       -4.5790    -7.4180    -0.3460 C.2   1 <1>  -0.1500 
 17 N       -3.1700    -7.1570     1.3290 N.2   1 <1>  -0.4100 
 18 C       -3.6320    -8.0100     0.4860 C.2   1 <1>   0.1080 
 19 C       -3.2000    -9.4580     0.4160 C.3   1 <1>  -0.0590 
 20 H       -1.2080     0.6630     0.4950 H     1 <1>   0.0800 
 21 H       -2.3150     0.0070     1.6800 H     1 <1>   0.0800 
 22 H       -1.4130    -1.8730     0.4630 H     1 <1>   0.0800 
 23 H       -1.6900    -1.0740    -1.0720 H     1 <1>   0.0800 
 24 H       -4.0310    -1.2060     0.4930 H     1 <1>   0.4500 
 25 H       -4.4980    -0.5670    -1.5410 H     1 <1>   0.0800 
 26 H       -3.4100    -1.7420    -2.2540 H     1 <1>   0.0800 
 27 H       -2.6600    -3.7390     0.2420 H     1 <1>   0.0800 
 28 H       -4.0940    -3.3090     1.1600 H     1 <1>   0.0800 
 29 H       -5.5960    -2.8020    -2.4890 H     1 <1>   0.0800 
 30 H       -3.8560    -4.2560    -1.6430 H     1 <1>   0.0800 
 31 H       -6.1020    -5.2500    -1.1490 H     1 <1>   0.0800 
 32 H       -6.0210    -4.5890     0.4570 H     1 <1>   0.0800 
 33 H       -7.8370    -1.0780    -0.3060 H     1 <1>   0.0800 
 34 H       -7.2480    -1.0980    -1.9630 H     1 <1>   0.0800 
 35 H       -6.3340    -0.2690    -0.6910 H     1 <1>   0.0800 
 36 H       -5.1210    -7.8990    -1.1390 H     1 <1>   0.1500 
 37 H       -4.0480   -10.0990     0.5710 H     1 <1>   0.0800 
 38 H       -2.4690    -9.6610     1.1780 H     1 <1>   0.0800 
 39 H       -2.7690    -9.6660    -0.5450 H     1 <1>   0.0800 
@<TRIPOS>BOND
  1   1   2  ar  
  2   2   3  ar  
  3   2   4  1   
  4   4   5  1   
  5   4  20  1   
  6   4  21  1   
  7   5   6  1   
  8   5  22  1   
  9   5  23  1   
 10   6   7  1   
 11   6   8  1   
 12   6  24  1   
 13   7   9  1   
 14   7  25  1   
 15   7  26  1   
 16   8  10  1   
 17   8  27  1   
 18   8  28  1   
 19   9  10  1   
 20   9  11  1   
 21   9  29  1   
 22  10  12  1   
 23  10  30  1   
 24  11  13  1   
 25  12  14  1   
 26  12  31  1   
 27  12  32  1   
 28  13  33  1   
 29  13  34  1   
 30  13  35  1   
 31  14  15  1   
 32  14  16  2   
 33  15  17  1   
 34  16  18  1   
 35  16  36  1   
 36  17  18  2   
 37  18  19  1   
 38  19  37  1   
 39  19  38  1   
 40  19  39  1   
@<TRIPOS>SUBSTRUCTURE
  1 ****   8 GROUP 4 **** **** 0

# MOE 2024.06 (io_trps.svl 2023.06)
