@<TRIPOS>MOLECULE
NONAME
49 52 1 0 0 
SMALL
USER_CHARGES


@<TRIPOS>ATOM
  1 O       -0.2900    -2.8000     1.8470 O.3   1 <1>  -0.6800 
  2 C       -0.2840    -2.6110     0.4720 C.3   1 <1>   0.4240 
  3 C        1.1650    -2.2520     0.0720 C.ar  1 <1>  -0.1440 
  4 C       -1.2520    -1.4480     0.1540 C.3   1 <1>  -0.0800 
  5 C       -0.8000    -3.9280    -0.1320 C.3   1 <1>  -0.1600 
  6 C        1.8760    -1.3330     0.8380 C.ar  1 <1>  -0.1500 
  7 C        1.8000    -2.7940    -1.0440 C.ar  1 <1>  -0.1500 
  8 C       -2.6880    -1.7880     0.6060 C.3   1 <1>   0.2890 
  9 C       -1.1730    -0.9970    -1.3350 C.3   1 <1>  -0.1600 
 10 C       -2.2440    -4.2280     0.2640 C.3   1 <1>   0.2090 
 11 C        3.1690    -0.9660     0.5090 C.ar  1 <1>  -0.1500 
 12 C        3.0940    -2.4300    -1.3770 C.ar  1 <1>  -0.1500 
 13 N       -3.1230    -3.0700    -0.0420 N.pl3 1 <1>  -0.8380 
 14 C       -3.6370    -0.5860     0.3590 C.3   1 <1>  -0.1600 
 15 C       -2.4920    -0.4530    -1.9020 C.3   1 <1>  -0.1600 
 16 C        3.7800    -1.5150    -0.6020 C.ar  1 <1>  -0.1500 
 17 C       -4.4580    -3.3820    -0.0360 C.ar  1 <1>   0.4100 
 18 C       -3.2760     0.3130    -0.8380 C.3   1 <1>  -0.1600 
 19 N       -5.0130    -3.6730     1.1240 N.ar  1 <1>  -0.6200 
 20 C       -5.1870    -3.3950    -1.2060 C.ar  1 <1>  -0.1500 
 21 C       -6.2990    -3.9640     1.0820 C.ar  1 <1>   0.4770 
 22 C       -6.5140    -3.7130    -1.1240 C.ar  1 <1>   0.1600 
 23 N       -7.0920    -4.0030     0.0250 N.ar  1 <1>  -0.6200 
 24 C       -6.9530    -4.2960     2.4010 C.3   1 <1>  -0.0970 
 25 H       -1.1800    -3.0820     2.1200 H     1 <1>   0.4000 
 26 H       -0.9370    -0.6030     0.7390 H     1 <1>   0.0800 
 27 H       -0.7770    -3.8850    -1.2030 H     1 <1>   0.0800 
 28 H       -0.1600    -4.7370     0.1710 H     1 <1>   0.0800 
 29 H        1.4200    -0.8970     1.7100 H     1 <1>   0.1500 
 30 H        1.3070    -3.5050    -1.6780 H     1 <1>   0.1500 
 31 H       -2.6910    -1.9590     1.6690 H     1 <1>   0.0800 
 32 H       -0.4150    -0.2360    -1.4140 H     1 <1>   0.0800 
 33 H       -0.8630    -1.8060    -1.9700 H     1 <1>   0.0800 
 34 H       -2.3080    -4.4560     1.3150 H     1 <1>   0.0800 
 35 H       -2.5910    -5.0920    -0.2780 H     1 <1>   0.0800 
 36 H        3.6970    -0.2550     1.1190 H     1 <1>   0.1500 
 37 H        3.5670    -2.8600    -2.2420 H     1 <1>   0.1500 
 38 H       -4.6560    -0.9090     0.2720 H     1 <1>   0.0800 
 39 H       -3.6030     0.0350     1.2360 H     1 <1>   0.0800 
 40 H       -2.2890     0.1850    -2.7450 H     1 <1>   0.0800 
 41 H       -3.0940    -1.2740    -2.2510 H     1 <1>   0.0800 
 42 H        4.7850    -1.2320    -0.8610 H     1 <1>   0.1500 
 43 H       -4.1750     0.7220    -1.2670 H     1 <1>   0.0800 
 44 H       -2.6730     1.1380    -0.4970 H     1 <1>   0.0800 
 45 H       -4.7090    -3.1580    -2.1340 H     1 <1>   0.1500 
 46 H       -7.1230    -3.7340    -2.0110 H     1 <1>   0.1500 
 47 H       -7.8120    -3.6670     2.5430 H     1 <1>   0.0800 
 48 H       -6.2680    -4.1410     3.2140 H     1 <1>   0.0800 
 49 H       -7.2650    -5.3230     2.3940 H     1 <1>   0.0800 
@<TRIPOS>BOND
  1   1   2  1   
  2   1  25  1   
  3   2   3  1   
  4   2   4  1   
  5   2   5  1   
  6   3   6  ar  
  7   3   7  ar  
  8   4   8  1   
  9   4   9  1   
 10   4  26  1   
 11   5  10  1   
 12   5  27  1   
 13   5  28  1   
 14   6  11  ar  
 15   6  29  1   
 16   7  12  ar  
 17   7  30  1   
 18   8  13  1   
 19   8  14  1   
 20   8  31  1   
 21   9  15  1   
 22   9  32  1   
 23   9  33  1   
 24  10  13  1   
 25  10  34  1   
 26  10  35  1   
 27  11  16  ar  
 28  11  36  1   
 29  12  16  ar  
 30  12  37  1   
 31  13  17  1   
 32  14  18  1   
 33  14  38  1   
 34  14  39  1   
 35  15  18  1   
 36  15  40  1   
 37  15  41  1   
 38  16  42  1   
 39  17  19  ar  
 40  17  20  ar  
 41  18  43  1   
 42  18  44  1   
 43  19  21  ar  
 44  20  22  ar  
 45  20  45  1   
 46  21  23  ar  
 47  21  24  1   
 48  22  23  ar  
 49  22  46  1   
 50  24  47  1   
 51  24  48  1   
 52  24  49  1   
@<TRIPOS>SUBSTRUCTURE
  1 ****   8 GROUP 4 **** **** 0

# MOE 2024.06 (io_trps.svl 2023.06)
