@<TRIPOS>MOLECULE
NONAME
61 65 1 0 0 
SMALL
USER_CHARGES


@<TRIPOS>ATOM
  1 O       -1.8710    -0.5110     0.6120 O.2   1 <1>  -0.5700 
  2 C       -2.5190     0.4590     0.2670 C.2   1 <1>   0.7160 
  3 N       -3.8700     0.3730     0.3880 N.am  1 <1>  -0.7300 
  4 C       -1.9080     1.6270    -0.2920 C.2   1 <1>  -0.0860 
  5 C       -4.6340    -0.6840     1.0740 C.3   1 <1>   0.2350 
  6 C       -2.5640     2.8070    -0.6650 C.2   1 <1>   0.3720 
  7 C       -0.6140     1.8740    -0.6330 C.2   1 <1>   0.0870 
  8 C       -5.1780    -1.6760     0.0370 C.3   1 <1>  -0.1900 
  9 N       -1.7470     3.6520    -1.1850 N.2   1 <1>  -0.4100 
 10 N       -3.9310     3.0690    -0.4990 N.pl3 1 <1>  -0.8210 
 11 O       -0.5780     3.0720    -1.1590 O.3   1 <1>  -0.0190 
 12 C        0.6000     1.1060    -0.5370 C.ar  1 <1>   0.0530 
 13 C       -6.4200    -1.2790    -0.7030 C.3   1 <1>  -0.2000 
 14 C       -6.4680    -2.3920     0.3070 C.3   1 <1>  -0.2000 
 15 C       -4.0800    -2.3940    -0.7620 C.3   1 <1>   0.4380 
 16 C       -4.5950     3.5570    -1.7520 C.3   1 <1>   0.2090 
 17 C       -4.1840     4.0590     0.5960 C.3   1 <1>   0.2090 
 18 C        1.4490     0.9820    -1.6360 C.ar  1 <1>  -0.1500 
 19 C        0.9790     0.4720     0.6460 C.ar  1 <1>  -0.1500 
 20 N       -3.6270    -3.5910    -0.0100 N.4   1 <1>  -0.9590 
 21 C       -6.0870     3.8490    -1.5090 C.3   1 <1>   0.1200 
 22 C       -5.6900     4.3370     0.7560 C.3   1 <1>   0.1200 
 23 C        2.6170     0.2470    -1.5630 C.ar  1 <1>  -0.1500 
 24 C        2.1470    -0.2640     0.7260 C.ar  1 <1>  -0.1500 
 25 C       -2.4130    -3.3490     0.8080 C.3   1 <1>   0.3430 
 26 C       -3.2900    -4.7360    -0.8830 C.3   1 <1>   0.3430 
 27 O       -6.2540     4.7560    -0.4550 O.3   1 <1>  -0.5600 
 28 C        2.9690    -0.3800    -0.3810 C.ar  1 <1>  -0.1500 
 29 C       -1.8700    -4.7410     1.0960 C.3   1 <1>  -0.1600 
 30 C       -2.4380    -5.6420    -0.0050 C.3   1 <1>  -0.1600 
 31 H       -4.3820     1.2250     0.1060 H     1 <1>   0.3700 
 32 H       -5.4460    -0.2280     1.6150 H     1 <1>   0.0800 
 33 H       -4.0070    -1.1870     1.7900 H     1 <1>   0.0800 
 34 H       -6.5340    -1.5320    -1.7430 H     1 <1>   0.1000 
 35 H       -6.9120    -0.3520    -0.4590 H     1 <1>   0.1000 
 36 H       -7.0020    -2.2100     1.2260 H     1 <1>   0.1000 
 37 H       -6.6430    -3.3860    -0.0690 H     1 <1>   0.1000 
 38 H       -3.2550    -1.7320    -0.9690 H     1 <1>   0.0800 
 39 H       -4.5010    -2.7070    -1.7030 H     1 <1>   0.0800 
 40 H       -4.4960     2.8140    -2.5230 H     1 <1>   0.0800 
 41 H       -4.1160     4.4590    -2.0970 H     1 <1>   0.0800 
 42 H       -3.6760     4.9830     0.3770 H     1 <1>   0.0800 
 43 H       -3.7910     3.6770     1.5230 H     1 <1>   0.0800 
 44 H        1.1860     1.4700    -2.5580 H     1 <1>   0.1500 
 45 H        0.3520     0.5600     1.5150 H     1 <1>   0.1500 
 46 H       -4.3890    -3.8710     0.6170 H     1 <1>   0.4500 
 47 H       -6.6160     2.9440    -1.2710 H     1 <1>   0.0800 
 48 H       -6.5260     4.2860    -2.3880 H     1 <1>   0.0800 
 49 H       -5.8470     5.1200     1.4770 H     1 <1>   0.0800 
 50 H       -6.2050     3.4540     1.0880 H     1 <1>   0.0800 
 51 H        3.2570     0.1640    -2.4250 H     1 <1>   0.1500 
 52 H        2.4200    -0.7450     1.6490 H     1 <1>   0.1500 
 53 H       -2.6330    -2.8040     1.7120 H     1 <1>   0.0800 
 54 H       -1.6890    -2.7950     0.2310 H     1 <1>   0.0800 
 55 H       -2.7030    -4.3960    -1.7220 H     1 <1>   0.0800 
 56 H       -4.1740    -5.2400    -1.2420 H     1 <1>   0.0800 
 57 H        3.8790    -0.9510    -0.3220 H     1 <1>   0.1500 
 58 H       -2.2040    -5.0690     2.0650 H     1 <1>   0.0800 
 59 H       -0.7940    -4.7280     1.0900 H     1 <1>   0.0800 
 60 H       -1.6580    -6.1040    -0.5860 H     1 <1>   0.0800 
 61 H       -3.0500    -6.4180     0.4230 H     1 <1>   0.0800 
@<TRIPOS>BOND
  1   1   2  2   
  2   2   3  am  
  3   2   4  1   
  4   3   5  1   
  5   3  31  1   
  6   4   6  1   
  7   4   7  2   
  8   5   8  1   
  9   5  32  1   
 10   5  33  1   
 11   6   9  2   
 12   6  10  1   
 13   7  11  1   
 14   7  12  1   
 15   8  13  1   
 16   8  14  1   
 17   8  15  1   
 18   9  11  1   
 19  10  16  1   
 20  10  17  1   
 21  12  18  ar  
 22  12  19  ar  
 23  13  14  1   
 24  13  34  1   
 25  13  35  1   
 26  14  36  1   
 27  14  37  1   
 28  15  20  1   
 29  15  38  1   
 30  15  39  1   
 31  16  21  1   
 32  16  40  1   
 33  16  41  1   
 34  17  22  1   
 35  17  42  1   
 36  17  43  1   
 37  18  23  ar  
 38  18  44  1   
 39  19  24  ar  
 40  19  45  1   
 41  20  25  1   
 42  20  26  1   
 43  20  46  1   
 44  21  27  1   
 45  21  47  1   
 46  21  48  1   
 47  22  27  1   
 48  22  49  1   
 49  22  50  1   
 50  23  28  ar  
 51  23  51  1   
 52  24  28  ar  
 53  24  52  1   
 54  25  29  1   
 55  25  53  1   
 56  25  54  1   
 57  26  30  1   
 58  26  55  1   
 59  26  56  1   
 60  28  57  1   
 61  29  30  1   
 62  29  58  1   
 63  29  59  1   
 64  30  60  1   
 65  30  61  1   
@<TRIPOS>SUBSTRUCTURE
  1 ****   2 GROUP 4 **** **** 0

# MOE 2024.06 (io_trps.svl 2023.06)
