@<TRIPOS>MOLECULE
NONAME
47 49 1 0 0 
SMALL
USER_CHARGES


@<TRIPOS>ATOM
  1 F       -0.3850    -0.6580    -0.1020 F     1 <1>  -0.1900 
  2 C       -1.5690    -1.2070    -0.0450 C.ar  1 <1>   0.1900 
  3 C       -2.2820    -1.3770    -1.2160 C.ar  1 <1>  -0.1500 
  4 C       -2.0630    -1.5980     1.1840 C.ar  1 <1>  -0.1500 
  5 C       -3.5370    -1.9600    -1.1480 C.ar  1 <1>  -0.1500 
  6 C       -3.3190    -2.1800     1.2380 C.ar  1 <1>  -0.1500 
  7 C       -4.0590    -2.3600     0.0760 C.ar  1 <1>  -0.1440 
  8 C       -5.4370    -2.9990     0.1420 C.3   1 <1>  -0.0160 
  9 C       -5.3330    -4.5210    -0.0080 C.3   1 <1>  -0.1600 
 10 C       -6.7160    -5.1980     0.0470 C.3   1 <1>  -0.0990 
 11 C       -6.6820    -6.7150    -0.1080 C.2   1 <1>   0.5690 
 12 O       -5.6180    -7.2850    -0.1440 O.2   1 <1>  -0.5700 
 13 N       -7.8600    -7.4030    -0.1990 N.am  1 <1>  -0.6600 
 14 C       -9.2270    -6.8360    -0.1020 C.3   1 <1>   0.1400 
 15 C       -7.9140    -8.8780    -0.3390 C.3   1 <1>   0.1400 
 16 C      -10.1670    -8.0400    -0.1920 C.3   1 <1>   0.2000 
 17 C       -9.3150    -9.2650     0.1370 C.3   1 <1>  -0.0800 
 18 O      -11.2130    -7.9370     0.7120 O.3   1 <1>  -0.6800 
 19 C       -9.8650   -10.5540    -0.4970 C.3   1 <1>  -0.0160 
 20 C       -9.0240   -11.7680    -0.1350 C.ar  1 <1>   0.1670 
 21 N       -7.9440   -11.9780    -0.8700 N.ar  1 <1>  -0.6200 
 22 C       -9.4050   -12.5880     0.9260 C.ar  1 <1>   0.1600 
 23 C       -7.2740   -13.0480    -0.4750 C.ar  1 <1>   0.1600 
 24 N       -8.7370   -13.6600     1.3220 N.ar  1 <1>  -0.6200 
 25 C       -7.6580   -13.8610     0.5850 C.ar  1 <1>   0.1600 
 26 H       -1.8630    -1.0620    -2.1530 H     1 <1>   0.1500 
 27 H       -1.4780    -1.4520     2.0730 H     1 <1>   0.1500 
 28 H       -4.1040    -2.1020    -2.0510 H     1 <1>   0.1500 
 29 H       -3.7180    -2.4930     2.1870 H     1 <1>   0.1500 
 30 H       -5.9000    -2.7560     1.0820 H     1 <1>   0.0800 
 31 H       -6.0560    -2.5960    -0.6410 H     1 <1>   0.0800 
 32 H       -4.7110    -4.9150     0.7790 H     1 <1>   0.0800 
 33 H       -4.8580    -4.7560    -0.9460 H     1 <1>   0.0800 
 34 H       -7.3290    -4.7960    -0.7380 H     1 <1>   0.0800 
 35 H       -7.1800    -4.9720     0.9890 H     1 <1>   0.0800 
 36 H       -9.3390    -6.3280     0.8400 H     1 <1>   0.0800 
 37 H       -9.4070    -6.1570    -0.9180 H     1 <1>   0.0800 
 38 H       -7.7720    -9.1370    -1.3750 H     1 <1>   0.0800 
 39 H       -7.1480    -9.3540     0.2500 H     1 <1>   0.0800 
 40 H      -10.5800    -8.1040    -1.1840 H     1 <1>   0.0800 
 41 H       -9.2590    -9.3880     1.2050 H     1 <1>   0.0800 
 42 H      -10.8720    -7.9080     1.6270 H     1 <1>   0.4000 
 43 H       -9.8920   -10.4560    -1.5680 H     1 <1>   0.0800 
 44 H      -10.8760   -10.7070    -0.1630 H     1 <1>   0.0800 
 45 H      -10.2990   -12.3480     1.4720 H     1 <1>   0.1500 
 46 H       -6.3780   -13.2940    -1.0160 H     1 <1>   0.1500 
 47 H       -7.0460   -14.7100     0.8320 H     1 <1>   0.1500 
@<TRIPOS>BOND
  1   1   2  1   
  2   2   3  ar  
  3   2   4  ar  
  4   3   5  ar  
  5   3  26  1   
  6   4   6  ar  
  7   4  27  1   
  8   5   7  ar  
  9   5  28  1   
 10   6   7  ar  
 11   6  29  1   
 12   7   8  1   
 13   8   9  1   
 14   8  30  1   
 15   8  31  1   
 16   9  10  1   
 17   9  32  1   
 18   9  33  1   
 19  10  11  1   
 20  10  34  1   
 21  10  35  1   
 22  11  12  2   
 23  11  13  am  
 24  13  14  1   
 25  13  15  1   
 26  14  16  1   
 27  14  36  1   
 28  14  37  1   
 29  15  17  1   
 30  15  38  1   
 31  15  39  1   
 32  16  17  1   
 33  16  18  1   
 34  16  40  1   
 35  17  19  1   
 36  17  41  1   
 37  18  42  1   
 38  19  20  1   
 39  19  43  1   
 40  19  44  1   
 41  20  21  ar  
 42  20  22  ar  
 43  21  23  ar  
 44  22  24  ar  
 45  22  45  1   
 46  23  25  ar  
 47  23  46  1   
 48  24  25  ar  
 49  25  47  1   
@<TRIPOS>SUBSTRUCTURE
  1 ****  11 GROUP 4 **** **** 0

# MOE 2024.06 (io_trps.svl 2023.06)
