@<TRIPOS>MOLECULE
NONAME
47 49 1 0 0 
SMALL
USER_CHARGES


@<TRIPOS>ATOM
  1 F       -1.4710    -0.9050     1.0980 F     1 <1>  -0.1900 
  2 C       -2.0730     0.2310     0.8590 C.ar  1 <1>   0.1900 
  3 C       -2.9930     0.3140    -0.1810 C.ar  1 <1>  -0.1440 
  4 C       -1.7550     1.3100     1.6610 C.ar  1 <1>  -0.1500 
  5 C       -3.6070     1.5380    -0.4270 C.ar  1 <1>  -0.1500 
  6 C       -3.3190    -0.9050    -1.0300 C.3   1 <1>   0.2540 
  7 C       -2.3900     2.5040     1.3880 C.ar  1 <1>   0.1900 
  8 C       -3.3070     2.6400     0.3610 C.ar  1 <1>  -0.1500 
  9 N       -4.2200    -1.8090    -0.2920 N.3   1 <1>  -0.8100 
 10 F       -2.1150     3.5450     2.1260 F     1 <1>  -0.1900 
 11 C       -4.1820    -3.1800    -0.8120 C.3   1 <1>   0.1100 
 12 C       -5.5890    -1.2750    -0.1970 C.3   1 <1>   0.1100 
 13 C       -4.9990    -4.1210     0.1060 C.3   1 <1>   0.4230 
 14 C       -6.4160    -2.1630     0.7380 C.3   1 <1>  -0.1600 
 15 N       -4.8640    -5.5970    -0.2440 N.4   1 <1>  -0.9590 
 16 C       -6.4690    -3.6450     0.2820 C.3   1 <1>   0.0000 
 17 C       -5.9340    -6.4640     0.3500 C.3   1 <1>   0.3430 
 18 C       -4.7150    -5.8990    -1.7050 C.3   1 <1>   0.2630 
 19 C       -7.1550    -4.4910     1.3950 C.3   1 <1>  -0.1600 
 20 C       -7.2450    -3.7750    -1.0600 C.3   1 <1>   0.1200 
 21 C       -6.4840    -5.8560     1.6390 C.3   1 <1>  -0.1600 
 22 O       -8.4850    -3.1630    -0.9990 O.3   1 <1>  -0.6800 
 23 H       -1.0440     1.2230     2.4600 H     1 <1>   0.1500 
 24 H       -4.3210     1.6380    -1.2260 H     1 <1>   0.1500 
 25 H       -2.3970    -1.4120    -1.2570 H     1 <1>   0.0800 
 26 H       -3.7710    -0.6070    -1.9610 H     1 <1>   0.0800 
 27 H       -3.7760     3.5920     0.1850 H     1 <1>   0.1500 
 28 H       -4.5610    -3.1870    -1.8180 H     1 <1>   0.0800 
 29 H       -3.1580    -3.5120    -0.8200 H     1 <1>   0.0800 
 30 H       -5.5640    -0.2800     0.2160 H     1 <1>   0.0800 
 31 H       -6.0440    -1.2200    -1.1720 H     1 <1>   0.0800 
 32 H       -4.5540    -4.0010     1.0800 H     1 <1>   0.0800 
 33 H       -5.9720    -2.0920     1.7170 H     1 <1>   0.0800 
 34 H       -7.4080    -1.7520     0.8190 H     1 <1>   0.0800 
 35 H       -3.9840    -5.8840     0.2110 H     1 <1>   0.4500 
 36 H       -6.7470    -6.5690    -0.3500 H     1 <1>   0.0800 
 37 H       -5.5390    -7.4480     0.5490 H     1 <1>   0.0800 
 38 H       -5.5890    -5.5780    -2.2480 H     1 <1>   0.0800 
 39 H       -4.5880    -6.9600    -1.8550 H     1 <1>   0.0800 
 40 H       -3.8520    -5.3960    -2.1100 H     1 <1>   0.0800 
 41 H       -7.1490    -3.9590     2.3330 H     1 <1>   0.0800 
 42 H       -8.1910    -4.6500     1.1520 H     1 <1>   0.0800 
 43 H       -7.4100    -4.8050    -1.3190 H     1 <1>   0.0800 
 44 H       -6.7140    -3.3030    -1.8670 H     1 <1>   0.0800 
 45 H       -7.2040    -6.5300     2.0710 H     1 <1>   0.0800 
 46 H       -5.6820    -5.7540     2.3510 H     1 <1>   0.0800 
 47 H       -9.0400    -3.5220    -0.2790 H     1 <1>   0.4000 
@<TRIPOS>BOND
  1   1   2  1   
  2   2   3  ar  
  3   2   4  ar  
  4   3   5  ar  
  5   3   6  1   
  6   4   7  ar  
  7   4  23  1   
  8   5   8  ar  
  9   5  24  1   
 10   6   9  1   
 11   6  25  1   
 12   6  26  1   
 13   7   8  ar  
 14   7  10  1   
 15   8  27  1   
 16   9  11  1   
 17   9  12  1   
 18  11  13  1   
 19  11  28  1   
 20  11  29  1   
 21  12  14  1   
 22  12  30  1   
 23  12  31  1   
 24  13  15  1   
 25  13  16  1   
 26  13  32  1   
 27  14  16  1   
 28  14  33  1   
 29  14  34  1   
 30  15  17  1   
 31  15  18  1   
 32  15  35  1   
 33  16  19  1   
 34  16  20  1   
 35  17  21  1   
 36  17  36  1   
 37  17  37  1   
 38  18  38  1   
 39  18  39  1   
 40  18  40  1   
 41  19  21  1   
 42  19  41  1   
 43  19  42  1   
 44  20  22  1   
 45  20  43  1   
 46  20  44  1   
 47  21  45  1   
 48  21  46  1   
 49  22  47  1   
@<TRIPOS>SUBSTRUCTURE
  1 ****   9 GROUP 4 **** **** 0

# MOE 2024.06 (io_trps.svl 2023.06)
