@<TRIPOS>MOLECULE
NONAME
42 44 1 0 0 
SMALL
USER_CHARGES


@<TRIPOS>ATOM
  1 F       -0.2670    -1.4540    -1.3990 F     1 <1>  -0.1900 
  2 C       -0.3180    -2.2740    -0.3700 C.ar  1 <1>   0.1900 
  3 C       -1.4110    -2.2570     0.4980 C.ar  1 <1>   0.4100 
  4 C        0.7070    -3.1630    -0.1520 C.ar  1 <1>   0.1660 
  5 N       -1.4520    -3.1080     1.5100 N.ar  1 <1>  -0.6200 
  6 N       -2.4890    -1.3920     0.3750 N.pl3 1 <1>  -0.8380 
  7 N        0.6640    -4.0030     0.8710 N.ar  1 <1>  -0.6200 
  8 C        1.9350    -3.2410    -1.0520 C.3   1 <1>  -0.0170 
  9 C       -0.4160    -3.9190     1.6330 C.ar  1 <1>   0.4700 
 10 C       -3.8650    -1.8060     0.7770 C.3   1 <1>   0.2090 
 11 C       -2.3070     0.0760     0.2670 C.3   1 <1>   0.2090 
 12 C        3.1170    -2.4690    -0.4550 C.3   1 <1>  -0.2400 
 13 C       -4.9100    -1.2900    -0.2430 C.3   1 <1>   0.0000 
 14 C       -3.3050     0.6350    -0.7510 C.3   1 <1>  -0.1600 
 15 C       -6.3500    -1.6700     0.1530 C.3   1 <1>   0.2000 
 16 C       -4.7540     0.2400    -0.4100 C.3   1 <1>  -0.1600 
 17 C       -4.7540    -2.0350    -1.5820 C.3   1 <1>  -0.1600 
 18 O       -6.5810    -1.5930     1.5160 O.3   1 <1>  -0.6800 
 19 C       -6.5810    -3.0990    -0.3420 C.3   1 <1>  -0.1600 
 20 C       -5.5080    -3.3570    -1.4080 C.3   1 <1>  -0.1600 
 21 H        2.2090    -4.2740    -1.1750 H     1 <1>   0.0800 
 22 H        1.7090    -2.8500    -2.0280 H     1 <1>   0.0800 
 23 H       -0.4550    -4.6030     2.4640 H     1 <1>   0.1500 
 24 H       -3.9190    -2.8780     0.8490 H     1 <1>   0.0800 
 25 H       -4.0650    -1.3960     1.7520 H     1 <1>   0.0800 
 26 H       -2.4850     0.5200     1.2320 H     1 <1>   0.0800 
 27 H       -1.3000     0.3160    -0.0280 H     1 <1>   0.0800 
 28 H        3.3700    -2.8710     0.5110 H     1 <1>   0.0800 
 29 H        2.8640    -1.4300    -0.3410 H     1 <1>   0.0800 
 30 H        3.9750    -2.5490    -1.0980 H     1 <1>   0.0800 
 31 H       -3.2210     1.7060    -0.7750 H     1 <1>   0.0800 
 32 H       -3.0420     0.2670    -1.7270 H     1 <1>   0.0800 
 33 H       -7.0450    -1.0080    -0.3350 H     1 <1>   0.0800 
 34 H       -5.4160     0.6010    -1.1770 H     1 <1>   0.0800 
 35 H       -5.0350     0.7170     0.5130 H     1 <1>   0.0800 
 36 H       -5.2250    -1.4700    -2.3680 H     1 <1>   0.0800 
 37 H       -3.7240    -2.1970    -1.8510 H     1 <1>   0.0800 
 38 H       -6.1020    -2.3060     1.9790 H     1 <1>   0.4000 
 39 H       -6.4790    -3.8160     0.4540 H     1 <1>   0.0800 
 40 H       -7.5640    -3.1800    -0.7700 H     1 <1>   0.0800 
 41 H       -4.8270    -4.1150    -1.0600 H     1 <1>   0.0800 
 42 H       -5.9400    -3.6830    -2.3390 H     1 <1>   0.0800 
@<TRIPOS>BOND
  1   1   2  1   
  2   2   3  ar  
  3   2   4  ar  
  4   3   5  ar  
  5   3   6  1   
  6   4   7  ar  
  7   4   8  1   
  8   5   9  ar  
  9   6  10  1   
 10   6  11  1   
 11   7   9  ar  
 12   8  12  1   
 13   8  21  1   
 14   8  22  1   
 15   9  23  1   
 16  10  13  1   
 17  10  24  1   
 18  10  25  1   
 19  11  14  1   
 20  11  26  1   
 21  11  27  1   
 22  12  28  1   
 23  12  29  1   
 24  12  30  1   
 25  13  15  1   
 26  13  16  1   
 27  13  17  1   
 28  14  16  1   
 29  14  31  1   
 30  14  32  1   
 31  15  18  1   
 32  15  19  1   
 33  15  33  1   
 34  16  34  1   
 35  16  35  1   
 36  17  20  1   
 37  17  36  1   
 38  17  37  1   
 39  18  38  1   
 40  19  20  1   
 41  19  39  1   
 42  19  40  1   
 43  20  41  1   
 44  20  42  1   
@<TRIPOS>SUBSTRUCTURE
  1 ****   6 GROUP 4 **** **** 0

# MOE 2024.06 (io_trps.svl 2023.06)
