@<TRIPOS>MOLECULE
NONAME
58 61 1 0 0 
SMALL
USER_CHARGES


@<TRIPOS>ATOM
  1 O        0.0400    -0.1160    -1.2420 O.3   1 <1>  -0.5600 
  2 C        1.4100    -0.3350    -1.4800 C.3   1 <1>   0.2000 
  3 C       -0.3130     1.2090    -0.9780 C.3   1 <1>   0.1200 
  4 C        2.2730     0.1680    -0.2910 C.3   1 <1>   0.5660 
  5 C        1.6320    -1.8390    -1.7100 C.3   1 <1>   0.1200 
  6 C        0.3970     1.6980     0.2970 C.3   1 <1>   0.3430 
  7 N        1.8810     1.5310     0.1990 N.4   1 <1>  -0.9590 
  8 C        3.7490     0.2180    -0.6620 C.ar  1 <1>  -0.1430 
  9 O        1.5920    -2.5240    -0.4980 O.3   1 <1>  -0.6800 
 10 C        2.5710     1.8820     1.4640 C.3   1 <1>   0.4870 
 11 C        4.6530    -0.5600     0.0460 C.ar  1 <1>  -0.1500 
 12 C        4.2200     1.0440    -1.6750 C.ar  1 <1>  -0.1500 
 13 C        3.2740     3.1930     1.2010 C.ar  1 <1>  -0.1430 
 14 C        6.0130    -0.5010    -0.2240 C.ar  1 <1>   0.0820 
 15 C        5.5750     1.1110    -1.9440 C.ar  1 <1>  -0.1500 
 16 C        4.5990     3.1910     0.8240 C.ar  1 <1>  -0.1500 
 17 C        2.5780     4.4070     1.3140 C.ar  1 <1>  -0.1500 
 18 O        6.8290    -1.2830     0.5230 O.3   1 <1>  -0.3620 
 19 C        6.4900     0.3640    -1.2210 C.ar  1 <1>   0.0820 
 20 C        5.2320     4.3990     0.5290 C.ar  1 <1>  -0.1520 
 21 C        3.2030     5.6010     1.0330 C.ar  1 <1>  -0.1500 
 22 C        6.7510    -2.6750     0.3030 C.3   1 <1>   0.0400 
 23 O        7.7910     0.5740    -1.5710 O.3   1 <1>  -0.3630 
 24 N        6.5160     4.6660     0.1150 N.pl3 1 <1>   0.0480 
 25 C        4.5410     5.6010     0.6300 C.ar  1 <1>   0.0000 
 26 C        8.8790    -0.0020    -0.8830 C.3   1 <1>   0.0400 
 27 C        6.6260     6.0190    -0.0410 C.2   1 <1>  -0.3020 
 28 C        7.5800     3.6810    -0.1480 C.3   1 <1>   0.0160 
 29 C        5.4500     6.6140     0.2650 C.2   1 <1>  -0.1500 
 30 H        1.6650     0.1910    -2.3820 H     1 <1>   0.0800 
 31 H       -0.0580     1.8180    -1.8290 H     1 <1>   0.0800 
 32 H       -1.3800     1.2400    -0.8420 H     1 <1>   0.0800 
 33 H        2.1450    -0.5360     0.5150 H     1 <1>   0.0800 
 34 H        2.5970    -2.0160    -2.1550 H     1 <1>   0.0800 
 35 H        0.8670    -2.2320    -2.3590 H     1 <1>   0.0800 
 36 H        0.0190     1.1270     1.1300 H     1 <1>   0.0800 
 37 H        0.1540     2.7340     0.4650 H     1 <1>   0.0800 
 38 H        2.2590     2.1990    -0.4830 H     1 <1>   0.4500 
 39 H        1.4440    -3.4820    -0.6490 H     1 <1>   0.4000 
 40 H        1.8720     1.9840     2.2770 H     1 <1>   0.0800 
 41 H        3.3020     1.1330     1.7240 H     1 <1>   0.0800 
 42 H        4.3130    -1.2180     0.8270 H     1 <1>   0.1500 
 43 H        3.5560     1.6560    -2.2620 H     1 <1>   0.1500 
 44 H        5.9370     1.7590    -2.7240 H     1 <1>   0.1500 
 45 H        5.1680     2.2810     0.7440 H     1 <1>   0.1500 
 46 H        1.5490     4.4170     1.6270 H     1 <1>   0.1500 
 47 H        2.6880     6.5410     1.1170 H     1 <1>   0.1500 
 48 H        7.5250    -3.1500     0.8800 H     1 <1>   0.0800 
 49 H        6.9010    -2.8710    -0.7440 H     1 <1>   0.0800 
 50 H        5.7880    -3.0330     0.6190 H     1 <1>   0.0800 
 51 H        9.7870     0.3880    -1.3060 H     1 <1>   0.0800 
 52 H        8.8470    -1.0680    -1.0110 H     1 <1>   0.0800 
 53 H        8.8170     0.2620     0.1580 H     1 <1>   0.0800 
 54 H        7.5430     6.4810    -0.3630 H     1 <1>   0.1500 
 55 H        8.5390     4.1580    -0.0660 H     1 <1>   0.0800 
 56 H        7.4600     3.2860    -1.1400 H     1 <1>   0.0800 
 57 H        7.5170     2.8820     0.5670 H     1 <1>   0.0800 
 58 H        5.2120     7.6630     0.2450 H     1 <1>   0.1500 
@<TRIPOS>BOND
  1   1   2  1   
  2   1   3  1   
  3   2   4  1   
  4   2   5  1   
  5   2  30  1   
  6   3   6  1   
  7   3  31  1   
  8   3  32  1   
  9   4   7  1   
 10   4   8  1   
 11   4  33  1   
 12   5   9  1   
 13   5  34  1   
 14   5  35  1   
 15   6   7  1   
 16   6  36  1   
 17   6  37  1   
 18   7  10  1   
 19   7  38  1   
 20   8  11  ar  
 21   8  12  ar  
 22   9  39  1   
 23  10  13  1   
 24  10  40  1   
 25  10  41  1   
 26  11  14  ar  
 27  11  42  1   
 28  12  15  ar  
 29  12  43  1   
 30  13  16  ar  
 31  13  17  ar  
 32  14  18  1   
 33  14  19  ar  
 34  15  19  ar  
 35  15  44  1   
 36  16  20  ar  
 37  16  45  1   
 38  17  21  ar  
 39  17  46  1   
 40  18  22  1   
 41  19  23  1   
 42  20  24  1   
 43  20  25  ar  
 44  21  25  ar  
 45  21  47  1   
 46  22  48  1   
 47  22  49  1   
 48  22  50  1   
 49  23  26  1   
 50  24  27  1   
 51  24  28  1   
 52  25  29  1   
 53  26  51  1   
 54  26  52  1   
 55  26  53  1   
 56  27  29  2   
 57  27  54  1   
 58  28  55  1   
 59  28  56  1   
 60  28  57  1   
 61  29  58  1   
@<TRIPOS>SUBSTRUCTURE
  1 ****   8 GROUP 4 **** **** 0

# MOE 2024.06 (io_trps.svl 2023.06)
