@<TRIPOS>MOLECULE
NONAME
48 51 1 0 0 
SMALL
USER_CHARGES


@<TRIPOS>ATOM
  1 F       -2.4550    -0.5330    -0.9140 F     1 <1>  -0.1900 
  2 C       -2.2510     0.2410     0.1230 C.ar  1 <1>   0.1900 
  3 C       -1.9380     1.5770    -0.1050 C.ar  1 <1>   0.0820 
  4 C       -2.3640    -0.3250     1.3930 C.ar  1 <1>   0.0860 
  5 O       -1.8780     1.9960    -1.4070 O.3   1 <1>  -0.3630 
  6 C       -1.7180     2.3640     1.0300 C.ar  1 <1>   0.1900 
  7 C       -2.7010    -1.7150     1.5930 C.2   1 <1>   0.5440 
  8 C       -2.1220     0.5090     2.4860 C.ar  1 <1>  -0.1500 
  9 C       -1.3830     3.2600    -1.7930 C.3   1 <1>   0.0400 
 10 F       -1.4280     3.6350     0.9440 F     1 <1>  -0.1900 
 11 C       -1.8030     1.8440     2.3100 C.ar  1 <1>  -0.1500 
 12 O       -1.8790    -2.4430     2.1130 O.2   1 <1>  -0.5700 
 13 N       -3.9300    -2.2400     1.2480 N.am  1 <1>  -0.6600 
 14 C       -4.2050    -3.7120     1.2850 C.3   1 <1>   0.1400 
 15 C       -5.0700    -1.4660     0.6660 C.3   1 <1>   0.1400 
 16 C       -4.7060    -4.2110    -0.0830 C.3   1 <1>   0.3440 
 17 C       -5.5080    -2.0750    -0.6860 C.3   1 <1>   0.2950 
 18 O       -5.7940    -3.4340    -0.5190 O.3   1 <1>  -0.5600 
 19 C       -5.1250    -5.6760     0.0000 C.ar  1 <1>  -0.1440 
 20 C       -6.7600    -1.4300    -1.3070 C.3   1 <1>  -0.1950 
 21 C       -4.1940    -6.6710    -0.2660 C.ar  1 <1>  -0.1500 
 22 C       -6.4180    -6.0420     0.3520 C.ar  1 <1>  -0.1500 
 23 C       -7.1060     0.0210    -1.1620 C.3   1 <1>  -0.2000 
 24 C       -7.9730    -1.0300    -0.5230 C.3   1 <1>  -0.2000 
 25 C       -4.5480    -8.0060    -0.1820 C.ar  1 <1>  -0.1500 
 26 C       -6.7730    -7.3770     0.4370 C.ar  1 <1>  -0.1500 
 27 C       -5.8380    -8.3610     0.1710 C.ar  1 <1>  -0.1500 
 28 H       -2.1830     0.0940     3.4790 H     1 <1>   0.1500 
 29 H       -1.3440     3.2890    -2.8670 H     1 <1>   0.0800 
 30 H       -0.3940     3.3890    -1.3900 H     1 <1>   0.0800 
 31 H       -2.0490     4.0240    -1.4340 H     1 <1>   0.0800 
 32 H       -1.6200     2.4810     3.1580 H     1 <1>   0.1500 
 33 H       -3.3200    -4.2610     1.5520 H     1 <1>   0.0800 
 34 H       -4.9530    -3.9150     2.0310 H     1 <1>   0.0800 
 35 H       -5.8940    -1.4990     1.3540 H     1 <1>   0.0800 
 36 H       -4.8020    -0.4370     0.5240 H     1 <1>   0.0800 
 37 H       -3.9190    -4.1110    -0.8100 H     1 <1>   0.0800 
 38 H       -4.6980    -1.9870    -1.3900 H     1 <1>   0.0800 
 39 H       -6.9450    -1.8570    -2.2780 H     1 <1>   0.1000 
 40 H       -3.1860    -6.4110    -0.5400 H     1 <1>   0.1500 
 41 H       -7.1540    -5.2840     0.5580 H     1 <1>   0.1500 
 42 H       -6.5360     0.6660    -0.5170 H     1 <1>   0.1000 
 43 H       -7.4850     0.5450    -2.0230 H     1 <1>   0.1000 
 44 H       -8.9390    -1.2390    -0.9480 H     1 <1>   0.1000 
 45 H       -7.9730    -1.1290     0.5480 H     1 <1>   0.1000 
 46 H       -3.8190    -8.7700    -0.3900 H     1 <1>   0.1500 
 47 H       -7.7780    -7.6480     0.7090 H     1 <1>   0.1500 
 48 H       -6.1130    -9.3980     0.2360 H     1 <1>   0.1500 
@<TRIPOS>BOND
  1   1   2  1   
  2   2   3  ar  
  3   2   4  ar  
  4   3   5  1   
  5   3   6  ar  
  6   4   7  1   
  7   4   8  ar  
  8   5   9  1   
  9   6  10  1   
 10   6  11  ar  
 11   7  12  2   
 12   7  13  am  
 13   8  11  ar  
 14   8  28  1   
 15   9  29  1   
 16   9  30  1   
 17   9  31  1   
 18  11  32  1   
 19  13  14  1   
 20  13  15  1   
 21  14  16  1   
 22  14  33  1   
 23  14  34  1   
 24  15  17  1   
 25  15  35  1   
 26  15  36  1   
 27  16  18  1   
 28  16  19  1   
 29  16  37  1   
 30  17  18  1   
 31  17  20  1   
 32  17  38  1   
 33  19  21  ar  
 34  19  22  ar  
 35  20  23  1   
 36  20  24  1   
 37  20  39  1   
 38  21  25  ar  
 39  21  40  1   
 40  22  26  ar  
 41  22  41  1   
 42  23  24  1   
 43  23  42  1   
 44  23  43  1   
 45  24  44  1   
 46  24  45  1   
 47  25  27  ar  
 48  25  46  1   
 49  26  27  ar  
 50  26  47  1   
 51  27  48  1   
@<TRIPOS>SUBSTRUCTURE
  1 ****  13 GROUP 4 **** **** 0

# MOE 2024.06 (io_trps.svl 2023.06)
