@<TRIPOS>MOLECULE
NONAME
54 57 1 0 0 
SMALL
USER_CHARGES


@<TRIPOS>ATOM
  1 O       -0.6230     0.0110     2.6840 O.2   1 <1>  -0.5700 
  2 C       -1.3150     0.7920     2.0530 C.2   1 <1>   0.7160 
  3 N       -2.5310     0.3450     1.5820 N.am  1 <1>  -0.6600 
  4 C       -0.8410     2.1330     1.8680 C.2   1 <1>  -0.0860 
  5 C       -2.8370    -1.1100     1.4260 C.3   1 <1>   0.1400 
  6 C       -3.6360     1.2220     1.0930 C.3   1 <1>   0.1400 
  7 C       -0.8320     2.9610     0.7730 C.2   1 <1>  -0.0260 
  8 C       -0.2140     2.8860     2.8570 C.2   1 <1>   0.1390 
  9 C       -3.3280    -1.4140    -0.0010 C.3   1 <1>   0.3440 
 10 C       -4.0710     0.8090    -0.3320 C.3   1 <1>   0.2000 
 11 N       -1.2800     2.7610    -0.5140 N.2   1 <1>  -0.5760 
 12 N       -0.2290     4.1260     1.1790 N.pl3 1 <1>   0.6010 
 13 N        0.1440     4.0740     2.4700 N.2   1 <1>  -0.7070 
 14 O       -4.3900    -0.5610    -0.3390 O.3   1 <1>  -0.5600 
 15 C       -3.7810    -2.8670    -0.1170 C.ar  1 <1>  -0.1430 
 16 C       -5.2740     1.6180    -0.9070 C.3   1 <1>   0.0000 
 17 C       -1.1020     3.7400    -1.3450 C.2   1 <1>   0.3760 
 18 C       -0.0560     5.1560     0.2840 C.2   1 <1>  -0.1810 
 19 C       -5.0820    -3.2460     0.1850 C.ar  1 <1>  -0.1500 
 20 C       -2.8740    -3.8370    -0.5210 C.ar  1 <1>  -0.1500 
 21 C       -4.9520     3.1220    -0.9610 C.3   1 <1>  -0.2400 
 22 C       -5.5620     1.1530    -2.3470 C.3   1 <1>  -0.2400 
 23 C       -6.5550     1.4250    -0.0730 C.3   1 <1>  -0.2400 
 24 C       -0.4900     4.9790    -0.9930 C.2   1 <1>  -0.1240 
 25 C       -5.4690    -4.5720     0.0880 C.ar  1 <1>  -0.1500 
 26 C       -3.2600    -5.1630    -0.6190 C.ar  1 <1>  -0.1500 
 27 C       -0.3390     6.0590    -2.0510 C.3   1 <1>  -0.1020 
 28 C       -4.5580    -5.5320    -0.3140 C.ar  1 <1>  -0.1500 
 29 H       -1.9640    -1.7060     1.6280 H     1 <1>   0.0800 
 30 H       -3.5990    -1.3920     2.1300 H     1 <1>   0.0800 
 31 H       -4.4710     1.1230     1.7630 H     1 <1>   0.0800 
 32 H       -3.3330     2.2510     1.1040 H     1 <1>   0.0800 
 33 H       -0.0390     2.5160     3.8550 H     1 <1>   0.1500 
 34 H       -2.5300    -1.2350    -0.7010 H     1 <1>   0.0800 
 35 H       -3.2330     0.9480    -0.9940 H     1 <1>   0.0800 
 36 H       -1.4340     3.6200    -2.3610 H     1 <1>   0.0600 
 37 H        0.4190     6.0400     0.6650 H     1 <1>   0.1500 
 38 H       -5.7990    -2.5050     0.4950 H     1 <1>   0.1500 
 39 H       -1.8610    -3.5660    -0.7610 H     1 <1>   0.1500 
 40 H       -5.7510     3.6610    -1.4400 H     1 <1>   0.0800 
 41 H       -4.0500     3.2920    -1.5220 H     1 <1>   0.0800 
 42 H       -4.8250     3.5320     0.0240 H     1 <1>   0.0800 
 43 H       -6.3670     1.7200    -2.7800 H     1 <1>   0.0800 
 44 H       -5.8410     0.1140    -2.3590 H     1 <1>   0.0800 
 45 H       -4.6900     1.2730    -2.9640 H     1 <1>   0.0800 
 46 H       -7.3820     1.9380    -0.5300 H     1 <1>   0.0800 
 47 H       -6.4360     1.8100     0.9230 H     1 <1>   0.0800 
 48 H       -6.8050     0.3810    -0.0070 H     1 <1>   0.0800 
 49 H       -6.4810    -4.8530     0.3230 H     1 <1>   0.1500 
 50 H       -2.5490    -5.9080    -0.9330 H     1 <1>   0.1500 
 51 H        0.2600     5.6970    -2.8680 H     1 <1>   0.0800 
 52 H        0.1390     6.9310    -1.6400 H     1 <1>   0.0800 
 53 H       -1.3050     6.3460    -2.4280 H     1 <1>   0.0800 
 54 H       -4.8590    -6.5620    -0.3900 H     1 <1>   0.1500 
@<TRIPOS>BOND
  1   1   2  2   
  2   2   3  am  
  3   2   4  1   
  4   3   5  1   
  5   3   6  1   
  6   4   7  2   
  7   4   8  1   
  8   5   9  1   
  9   5  29  1   
 10   5  30  1   
 11   6  10  1   
 12   6  31  1   
 13   6  32  1   
 14   7  11  1   
 15   7  12  1   
 16   8  13  2   
 17   8  33  1   
 18   9  14  1   
 19   9  15  1   
 20   9  34  1   
 21  10  14  1   
 22  10  16  1   
 23  10  35  1   
 24  11  17  2   
 25  12  13  1   
 26  12  18  1   
 27  15  19  ar  
 28  15  20  ar  
 29  16  21  1   
 30  16  22  1   
 31  16  23  1   
 32  17  24  1   
 33  17  36  1   
 34  18  24  2   
 35  18  37  1   
 36  19  25  ar  
 37  19  38  1   
 38  20  26  ar  
 39  20  39  1   
 40  21  40  1   
 41  21  41  1   
 42  21  42  1   
 43  22  43  1   
 44  22  44  1   
 45  22  45  1   
 46  23  46  1   
 47  23  47  1   
 48  23  48  1   
 49  24  27  1   
 50  25  28  ar  
 51  25  49  1   
 52  26  28  ar  
 53  26  50  1   
 54  27  51  1   
 55  27  52  1   
 56  27  53  1   
 57  28  54  1   
@<TRIPOS>SUBSTRUCTURE
  1 ****   6 GROUP 4 **** **** 0

# MOE 2024.06 (io_trps.svl 2023.06)
