@<TRIPOS>MOLECULE
NONAME
35 36 1 0 0 
SMALL
USER_CHARGES


@<TRIPOS>ATOM
  1 F        0.8980     0.1530     1.0930 F     1 <1>  -0.3400 
  2 C        1.2160     0.5660    -0.1380 C.3   1 <1>   0.2600 
  3 C        2.7740     0.1660    -0.4730 C.3   1 <1>   0.2200 
  4 C        1.0850     2.2330    -0.1920 C.3   1 <1>  -0.1600 
  5 N        4.2170     0.7650    -0.7140 N.am  1 <1>  -0.6600 
  6 C        2.6500     1.4970    -0.4460 C.3   1 <1>  -0.1600 
  7 C        2.5950     2.8320    -0.4190 C.3   1 <1>  -0.0800 
  8 C        5.3670     0.0450    -0.6160 C.2   1 <1>   0.7800 
  9 C        4.1550     2.4230    -0.7630 C.3   1 <1>   0.1140 
 10 O        6.4430     0.4760    -0.9810 O.2   1 <1>  -0.5700 
 11 O        5.2430    -1.2010    -0.1490 O.3   1 <1>  -0.4300 
 12 C        5.1450     3.1980     0.1400 C.2   1 <1>   0.9060 
 13 C        6.2850    -2.1050     0.1400 C.3   1 <1>   0.2800 
 14 O        5.2430     2.9100     1.3430 O.co2 1 <1>  -0.9000 
 15 O        5.7350     4.1770    -0.3410 O.co2 1 <1>  -0.9000 
 16 C        7.0200    -2.5000    -1.1470 C.3   1 <1>  -0.2400 
 17 C        5.5920    -3.3370     0.7230 C.3   1 <1>  -0.2400 
 18 C        7.2250    -1.5080     1.1950 C.3   1 <1>  -0.2400 
 19 H        0.5210     0.0760    -0.7980 H     1 <1>   0.0800 
 20 H        2.6280    -0.3770    -1.3940 H     1 <1>   0.0800 
 21 H        0.4520     2.5280    -1.0140 H     1 <1>   0.0800 
 22 H        0.6480     2.6100     0.7190 H     1 <1>   0.0800 
 23 H        2.4570     1.5090    -1.6090 H     1 <1>   0.0800 
 24 H        2.8990     1.4970     0.7080 H     1 <1>   0.0800 
 25 H        2.7230     3.3960     0.4960 H     1 <1>   0.0800 
 26 H        4.3860     2.7290    -1.7690 H     1 <1>   0.0800 
 27 H        7.7160    -3.2930    -0.9440 H     1 <1>   0.0800 
 28 H        7.5780    -1.6710    -1.5420 H     1 <1>   0.0800 
 29 H        6.3190    -2.8380    -1.8880 H     1 <1>   0.0800 
 30 H        6.3170    -4.0870     0.9810 H     1 <1>   0.0800 
 31 H        4.9090    -3.7540     0.0060 H     1 <1>   0.0800 
 32 H        5.0480    -3.0680     1.6110 H     1 <1>   0.0800 
 33 H        7.9310    -2.2470     1.5240 H     1 <1>   0.0800 
 34 H        6.6600    -1.1660     2.0440 H     1 <1>   0.0800 
 35 H        7.7810    -0.6810     0.7940 H     1 <1>   0.0800 
@<TRIPOS>BOND
  1   1   2  1   
  2   2   3  1   
  3   2   4  1   
  4   2  19  1   
  5   3   5  1   
  6   3   6  1   
  7   3  20  1   
  8   4   7  1   
  9   4  21  1   
 10   4  22  1   
 11   5   8  am  
 12   5   9  1   
 13   6   7  1   
 14   6  23  1   
 15   6  24  1   
 16   7   9  1   
 17   7  25  1   
 18   8  10  2   
 19   8  11  1   
 20   9  12  1   
 21   9  26  1   
 22  11  13  1   
 23  12  14  ar  
 24  12  15  ar  
 25  13  16  1   
 26  13  17  1   
 27  13  18  1   
 28  16  27  1   
 29  16  28  1   
 30  16  29  1   
 31  17  30  1   
 32  17  31  1   
 33  17  32  1   
 34  18  33  1   
 35  18  34  1   
 36  18  35  1   
@<TRIPOS>SUBSTRUCTURE
  1 ****   5 GROUP 4 **** **** 0

# MOE 2024.06 (io_trps.svl 2023.06)
