@<TRIPOS>MOLECULE
NONAME
45 48 1 0 0 
SMALL
USER_CHARGES


@<TRIPOS>ATOM
  1 O        0.6800    -0.2350     1.8150 O.2   1 <1>  -0.5700 
  2 C        1.4870    -0.7730     1.0980 C.2   1 <1>   0.5690 
  3 N        2.5760    -0.1120     0.6110 N.am  1 <1>  -0.6600 
  4 C        1.2570    -2.2230     0.7280 C.3   1 <1>  -0.0990 
  5 C        2.4830     1.3650     0.3220 C.3   1 <1>   0.4000 
  6 C        3.9380    -0.6330     0.9160 C.3   1 <1>   0.1400 
  7 C       -0.1080    -2.3910     0.0460 C.3   1 <1>   0.0200 
  8 C        1.1130     1.8030    -0.2130 C.2   1 <1>   0.2980 
  9 C        3.5500     1.7740    -0.7130 C.3   1 <1>  -0.1600 
 10 C        4.9350    -0.2380    -0.1740 C.3   1 <1>  -0.1600 
 11 C       -0.3290    -3.8260    -0.3890 C.2   1 <1>   0.2980 
 12 O        0.5580     1.0970    -1.1710 O.3   1 <1>  -0.0190 
 13 N        0.4450     2.8210     0.1680 N.2   1 <1>  -0.5650 
 14 C        4.9580     1.2800    -0.3650 C.3   1 <1>  -0.1600 
 15 O        0.3870    -4.2990    -1.3760 O.3   1 <1>  -0.0190 
 16 N       -1.1560    -4.6370     0.1240 N.2   1 <1>  -0.5650 
 17 N       -0.5640     1.7050    -1.4020 N.2   1 <1>  -0.4100 
 18 C       -0.6160     2.7010    -0.6120 C.2   1 <1>   0.3350 
 19 N       -0.0190    -5.5240    -1.5020 N.2   1 <1>  -0.4100 
 20 C       -0.9340    -5.7270    -0.6190 C.2   1 <1>   0.5150 
 21 C       -1.7570     3.6850    -0.5260 C.3   1 <1>  -0.0590 
 22 C       -1.6670    -6.9560    -0.4020 C.2   1 <1>   0.1410 
 23 O       -1.4360    -8.0390    -1.1400 O.3   1 <1>  -0.2800 
 24 C       -2.6430    -7.2490     0.5000 C.2   1 <1>  -0.1500 
 25 C       -2.2340    -9.0040    -0.7340 C.2   1 <1>  -0.0100 
 26 C       -3.0110    -8.5790     0.2840 C.2   1 <1>  -0.1500 
 27 H        1.2930    -2.8190     1.6210 H     1 <1>   0.0800 
 28 H        2.0280    -2.5560     0.0590 H     1 <1>   0.0800 
 29 H        2.6660     1.8960     1.2400 H     1 <1>   0.0800 
 30 H        3.9190    -1.7050     1.0130 H     1 <1>   0.0800 
 31 H        4.2590    -0.2240     1.8590 H     1 <1>   0.0800 
 32 H       -0.1720    -1.7500    -0.8150 H     1 <1>   0.0800 
 33 H       -0.8910    -2.1070     0.7290 H     1 <1>   0.0800 
 34 H        3.5580     2.8470    -0.7950 H     1 <1>   0.0800 
 35 H        3.2680     1.3820    -1.6750 H     1 <1>   0.0800 
 36 H        4.6650    -0.7250    -1.0950 H     1 <1>   0.0800 
 37 H        5.9160    -0.5810     0.1030 H     1 <1>   0.0800 
 38 H        5.3000     1.7570     0.5380 H     1 <1>   0.0800 
 39 H        5.6410     1.5370    -1.1580 H     1 <1>   0.0800 
 40 H       -1.3950     4.6740    -0.7390 H     1 <1>   0.0800 
 41 H       -2.1720     3.6650     0.4640 H     1 <1>   0.0800 
 42 H       -2.5210     3.4270    -1.2350 H     1 <1>   0.0800 
 43 H       -3.0600    -6.5910     1.2420 H     1 <1>   0.1500 
 44 H       -2.1840    -9.9610    -1.2230 H     1 <1>   0.1500 
 45 H       -3.7610    -9.1220     0.8320 H     1 <1>   0.1500 
@<TRIPOS>BOND
  1   1   2  2   
  2   2   3  am  
  3   2   4  1   
  4   3   5  1   
  5   3   6  1   
  6   4   7  1   
  7   4  27  1   
  8   4  28  1   
  9   5   8  1   
 10   5   9  1   
 11   5  29  1   
 12   6  10  1   
 13   6  30  1   
 14   6  31  1   
 15   7  11  1   
 16   7  32  1   
 17   7  33  1   
 18   8  12  1   
 19   8  13  2   
 20   9  14  1   
 21   9  34  1   
 22   9  35  1   
 23  10  14  1   
 24  10  36  1   
 25  10  37  1   
 26  11  15  1   
 27  11  16  2   
 28  12  17  1   
 29  13  18  1   
 30  14  38  1   
 31  14  39  1   
 32  15  19  1   
 33  16  20  1   
 34  17  18  2   
 35  18  21  1   
 36  19  20  2   
 37  20  22  1   
 38  21  40  1   
 39  21  41  1   
 40  21  42  1   
 41  22  23  1   
 42  22  24  2   
 43  23  25  1   
 44  24  26  1   
 45  24  43  1   
 46  25  26  2   
 47  25  44  1   
 48  26  45  1   
@<TRIPOS>SUBSTRUCTURE
  1 ****   7 GROUP 4 **** **** 0

# MOE 2024.06 (io_trps.svl 2023.06)
