@<TRIPOS>MOLECULE
NONAME
42 43 1 0 0 
SMALL
USER_CHARGES


@<TRIPOS>ATOM
  1 F       -0.7860    -0.8000    -0.0640 F     1 <1>  -0.3400 
  2 C       -1.6860     0.1520     0.1530 C.3   1 <1>   1.0200 
  3 F       -2.8280    -0.2970    -0.3490 F     1 <1>  -0.3400 
  4 F       -1.8530     0.2180     1.4680 F     1 <1>  -0.3400 
  5 C       -1.2820     1.5170    -0.4790 C.3   1 <1>   0.1100 
  6 N       -0.1310     2.2880     0.1110 N.3   1 <1>  -0.8100 
  7 C       -0.0550     3.6520    -0.4620 C.3   1 <1>   0.1100 
  8 C        1.1690     1.5810    -0.0230 C.3   1 <1>   0.1100 
  9 C        1.0830     4.4850     0.1650 C.3   1 <1>   0.3430 
 10 C        2.3320     2.3750     0.6030 C.3   1 <1>   0.3430 
 11 N        2.3900     3.7700     0.0670 N.4   1 <1>  -0.9590 
 12 C        3.5930     4.4990     0.6310 C.3   1 <1>   0.4600 
 13 C        3.5030     5.9700     0.2220 C.ar  1 <1>  -0.1430 
 14 C        4.9000     3.8150     0.1640 C.2   1 <1>   0.9060 
 15 C        3.7200     6.3620    -1.0930 C.ar  1 <1>  -0.1500 
 16 C        3.1800     6.9310     1.1700 C.ar  1 <1>  -0.1500 
 17 O        5.8310     3.6610     0.9570 O.co2 1 <1>  -0.9000 
 18 O        4.8740     3.2900    -0.9630 O.co2 1 <1>  -0.9000 
 19 C        3.5980     7.6920    -1.4530 C.ar  1 <1>  -0.1500 
 20 C        3.0590     8.2630     0.8110 C.ar  1 <1>  -0.1500 
 21 C        3.2640     8.6500    -0.5100 C.ar  1 <1>   0.0830 
 22 O        3.1610     9.9290    -0.9470 O.3   1 <1>  -0.3630 
 23 C        2.9480    10.9970    -0.0520 C.3   1 <1>   0.0400 
 24 H       -2.1590     2.1350    -0.4150 H     1 <1>   0.0800 
 25 H       -1.0920     1.3430    -1.5230 H     1 <1>   0.0800 
 26 H       -0.9850     4.1640    -0.2870 H     1 <1>   0.0800 
 27 H        0.0970     3.5960    -1.5270 H     1 <1>   0.0800 
 28 H        1.3870     1.3980    -1.0620 H     1 <1>   0.0800 
 29 H        1.1210     0.6300     0.4780 H     1 <1>   0.0800 
 30 H        0.8490     4.6680     1.2000 H     1 <1>   0.0800 
 31 H        1.1460     5.4370    -0.3360 H     1 <1>   0.0800 
 32 H        3.2600     1.8650     0.3960 H     1 <1>   0.0800 
 33 H        2.1970     2.4010     1.6720 H     1 <1>   0.0800 
 34 H        2.6780     3.6640    -0.9220 H     1 <1>   0.4500 
 35 H        3.5790     4.4390     1.7040 H     1 <1>   0.0800 
 36 H        3.9950     5.6370    -1.8430 H     1 <1>   0.1500 
 37 H        3.0240     6.6510     2.1980 H     1 <1>   0.1500 
 38 H        3.7680     7.9970    -2.4700 H     1 <1>   0.1500 
 39 H        2.8090     8.9820     1.5670 H     1 <1>   0.1500 
 40 H        2.9460    11.9110    -0.6170 H     1 <1>   0.0800 
 41 H        3.7490    11.0150     0.6670 H     1 <1>   0.0800 
 42 H        1.9970    10.8640     0.4320 H     1 <1>   0.0800 
@<TRIPOS>BOND
  1   1   2  1   
  2   2   3  1   
  3   2   4  1   
  4   2   5  1   
  5   5   6  1   
  6   5  24  1   
  7   5  25  1   
  8   6   7  1   
  9   6   8  1   
 10   7   9  1   
 11   7  26  1   
 12   7  27  1   
 13   8  10  1   
 14   8  28  1   
 15   8  29  1   
 16   9  11  1   
 17   9  30  1   
 18   9  31  1   
 19  10  11  1   
 20  10  32  1   
 21  10  33  1   
 22  11  12  1   
 23  11  34  1   
 24  12  13  1   
 25  12  14  1   
 26  12  35  1   
 27  13  15  ar  
 28  13  16  ar  
 29  14  17  ar  
 30  14  18  ar  
 31  15  19  ar  
 32  15  36  1   
 33  16  20  ar  
 34  16  37  1   
 35  19  21  ar  
 36  19  38  1   
 37  20  21  ar  
 38  20  39  1   
 39  21  22  1   
 40  22  23  1   
 41  23  40  1   
 42  23  41  1   
 43  23  42  1   
@<TRIPOS>SUBSTRUCTURE
  1 ****  11 GROUP 4 **** **** 0

# MOE 2024.06 (io_trps.svl 2023.06)
