@<TRIPOS>MOLECULE
NONAME
56 60 1 0 0 
SMALL
USER_CHARGES


@<TRIPOS>ATOM
  1 O       -3.4140     2.2980    -1.4520 O.3   1 <1>  -0.3630 
  2 C       -3.4210     3.3140    -0.5590 C.ar  1 <1>   0.0830 
  3 C       -3.1340     2.5160    -2.8180 C.3   1 <1>   0.0400 
  4 C       -3.4800     2.9670     0.7800 C.ar  1 <1>  -0.1500 
  5 C       -3.3700     4.6580    -0.9120 C.ar  1 <1>  -0.1500 
  6 C       -3.5090     3.9440     1.7560 C.ar  1 <1>  -0.1500 
  7 C       -3.4090     5.6320     0.0690 C.ar  1 <1>  -0.1500 
  8 C       -3.5020     5.2930     1.4170 C.ar  1 <1>   0.0530 
  9 C       -3.6370     6.3060     2.4280 C.2   1 <1>  -0.2050 
 10 N       -2.7900     7.3540     2.5740 N.pl3 1 <1>   0.3000 
 11 C       -4.5730     6.4590     3.4090 C.2   1 <1>  -0.1810 
 12 N       -3.1530     8.1640     3.5830 N.2   1 <1>  -0.7070 
 13 C       -4.2180     7.6190     4.0800 C.2   1 <1>   0.1390 
 14 C       -5.7600     5.5860     3.7560 C.3   1 <1>   0.5240 
 15 N       -6.3820     5.1220     2.4940 N.4   1 <1>  -0.9590 
 16 C       -7.2800     6.1750     1.9090 C.3   1 <1>   0.3430 
 17 C       -7.0780     3.8160     2.6560 C.3   1 <1>   0.3430 
 18 C       -7.8560     5.7570     0.5420 C.3   1 <1>   0.1430 
 19 C       -7.5680     3.3290     1.2910 C.3   1 <1>  -0.1600 
 20 C       -8.8930     6.7710     0.1240 C.ar  1 <1>   0.1670 
 21 C       -8.4990     4.3550     0.6220 C.3   1 <1>  -0.1600 
 22 C       -6.8180     5.8530    -0.6070 C.3   1 <1>  -0.1600 
 23 N       -9.8370     7.2340     0.9050 N.ar  1 <1>  -0.6200 
 24 C       -8.7270     7.1610    -1.1710 C.ar  1 <1>  -0.1430 
 25 C       -7.5530     6.4660    -1.8150 C.3   1 <1>  -0.0170 
 26 C      -10.6250     8.1250     0.3160 C.ar  1 <1>   0.7200 
 27 C       -9.6100     8.0850    -1.6750 C.ar  1 <1>   0.1600 
 28 N      -10.5750     8.5760    -0.9290 N.ar  1 <1>  -0.6200 
 29 N      -11.6090     8.6190     1.0670 N.pl3 1 <1>  -0.9000 
 30 H       -3.1040     1.5600    -3.3090 H     1 <1>   0.0800 
 31 H       -2.1770     3.0000    -2.9050 H     1 <1>   0.0800 
 32 H       -3.9130     3.1210    -3.2450 H     1 <1>   0.0800 
 33 H       -3.4890     1.9230     1.0440 H     1 <1>   0.1500 
 34 H       -3.3030     4.9570    -1.9420 H     1 <1>   0.1500 
 35 H       -3.5270     3.6540     2.7920 H     1 <1>   0.1500 
 36 H       -3.3770     6.6690    -0.2180 H     1 <1>   0.1500 
 37 H       -1.9480     7.5290     2.0090 H     1 <1>   0.2700 
 38 H       -4.7430     8.0450     4.9210 H     1 <1>   0.1500 
 39 H       -6.4740     6.1350     4.3490 H     1 <1>   0.0800 
 40 H       -5.4100     4.7440     4.3310 H     1 <1>   0.0800 
 41 H       -5.5970     4.9830     1.8390 H     1 <1>   0.4500 
 42 H       -6.7410     7.1020     1.7940 H     1 <1>   0.0800 
 43 H       -8.1050     6.3560     2.5790 H     1 <1>   0.0800 
 44 H       -7.9190     3.9280     3.3210 H     1 <1>   0.0800 
 45 H       -6.4040     3.0850     3.0740 H     1 <1>   0.0800 
 46 H       -8.1030     2.4040     1.4230 H     1 <1>   0.0800 
 47 H       -6.7210     3.1170     0.6600 H     1 <1>   0.0800 
 48 H       -8.7740     4.0170    -0.3630 H     1 <1>   0.0800 
 49 H       -9.4070     4.4220     1.1980 H     1 <1>   0.0800 
 50 H       -6.3740     4.9060    -0.8580 H     1 <1>   0.0800 
 51 H       -6.0350     6.5340    -0.3230 H     1 <1>   0.0800 
 52 H       -7.9080     5.6970    -2.4790 H     1 <1>   0.0800 
 53 H       -6.9270     7.1560    -2.3560 H     1 <1>   0.0800 
 54 H       -9.5270     8.4260    -2.6930 H     1 <1>   0.1500 
 55 H      -12.3440     9.0930     0.5470 H     1 <1>   0.4000 
 56 H      -11.9080     8.0470     1.8500 H     1 <1>   0.4000 
@<TRIPOS>BOND
  1   1   2  1   
  2   1   3  1   
  3   2   4  ar  
  4   2   5  ar  
  5   3  30  1   
  6   3  31  1   
  7   3  32  1   
  8   4   6  ar  
  9   4  33  1   
 10   5   7  ar  
 11   5  34  1   
 12   6   8  ar  
 13   6  35  1   
 14   7   8  ar  
 15   7  36  1   
 16   8   9  1   
 17   9  10  1   
 18   9  11  2   
 19  10  12  1   
 20  10  37  1   
 21  11  13  1   
 22  11  14  1   
 23  12  13  2   
 24  13  38  1   
 25  14  15  1   
 26  14  39  1   
 27  14  40  1   
 28  15  16  1   
 29  15  17  1   
 30  15  41  1   
 31  16  18  1   
 32  16  42  1   
 33  16  43  1   
 34  17  19  1   
 35  17  44  1   
 36  17  45  1   
 37  18  20  1   
 38  18  21  1   
 39  18  22  1   
 40  19  21  1   
 41  19  46  1   
 42  19  47  1   
 43  20  23  ar  
 44  20  24  ar  
 45  21  48  1   
 46  21  49  1   
 47  22  25  1   
 48  22  50  1   
 49  22  51  1   
 50  23  26  ar  
 51  24  25  1   
 52  24  27  ar  
 53  25  52  1   
 54  25  53  1   
 55  26  28  ar  
 56  26  29  1   
 57  27  28  ar  
 58  27  54  1   
 59  29  55  1   
 60  29  56  1   
@<TRIPOS>SUBSTRUCTURE
  1 ****  22 GROUP 4 **** **** 0

# MOE 2024.06 (io_trps.svl 2023.06)
