@<TRIPOS>MOLECULE
NONAME
54 58 1 0 0 
SMALL
USER_CHARGES


@<TRIPOS>ATOM
  1 O       -0.8190     0.2230     1.2470 O.2   1 <1>  -0.5700 
  2 C       -1.7780     0.9650     1.0830 C.2   1 <1>   0.7160 
  3 N       -3.0340     0.3990     1.2350 N.am  1 <1>  -0.6600 
  4 C       -1.5660     2.3740     0.7350 C.2   1 <1>   0.2030 
  5 C       -4.3140     1.0690     0.9120 C.3   1 <1>   0.1400 
  6 C       -3.2520    -1.0090     1.6160 C.3   1 <1>   0.1400 
  7 N       -2.4190     3.3740     0.9220 N.2   1 <1>  -0.7070 
  8 C       -0.3910     2.8780     0.1460 C.2   1 <1>  -0.1810 
  9 C       -5.3750    -0.0420     0.8950 C.3   1 <1>  -0.0800 
 10 C       -4.6180    -1.3810     1.0400 C.3   1 <1>  -0.0800 
 11 N       -1.8020     4.4750     0.4710 N.pl3 1 <1>   0.3000 
 12 C       -0.5740     4.2000     0.0010 C.2   1 <1>  -0.3320 
 13 C        0.8830     2.1620    -0.2740 C.3   1 <1>   0.0210 
 14 C       -6.3840     0.0260    -0.2820 C.3   1 <1>   0.4240 
 15 C       -4.4960    -2.1420    -0.2910 C.3   1 <1>  -0.1600 
 16 C        0.4250     5.1760    -0.5890 C.3   1 <1>   0.0200 
 17 C        1.7260     3.0620    -1.1970 C.3   1 <1>  -0.1600 
 18 O       -5.7190     0.3630    -1.4490 O.3   1 <1>  -0.6800 
 19 C       -7.4770     1.0780     0.0010 C.ar  1 <1>  -0.1440 
 20 C       -6.9540    -1.3790    -0.5530 C.3   1 <1>  -0.1600 
 21 C       -5.8740    -2.4240    -0.9240 C.3   1 <1>  -0.1600 
 22 C        1.8110     4.5100    -0.6740 C.3   1 <1>  -0.1600 
 23 C       -7.4670     2.3290    -0.6090 C.ar  1 <1>  -0.1500 
 24 C       -8.5020     0.8040     0.9030 C.ar  1 <1>  -0.1500 
 25 C       -8.4490     3.2670    -0.3380 C.ar  1 <1>  -0.1500 
 26 C       -9.4860     1.7380     1.1760 C.ar  1 <1>  -0.1500 
 27 C       -9.4620     2.9720     0.5540 C.ar  1 <1>  -0.1500 
 28 H       -4.5460     1.8010     1.6670 H     1 <1>   0.0800 
 29 H       -4.2220     1.5760    -0.0330 H     1 <1>   0.0800 
 30 H       -2.4680    -1.6440     1.2360 H     1 <1>   0.0800 
 31 H       -3.2680    -1.0750     2.6910 H     1 <1>   0.0800 
 32 H       -5.9420     0.0760     1.8010 H     1 <1>   0.0800 
 33 H       -5.1300    -2.0190     1.7400 H     1 <1>   0.0800 
 34 H       -2.2410     5.4020     0.4970 H     1 <1>   0.2700 
 35 H        1.4440     1.9160     0.6100 H     1 <1>   0.0800 
 36 H        0.6410     1.2460    -0.7830 H     1 <1>   0.0800 
 37 H       -3.8940    -1.5620    -0.9700 H     1 <1>   0.0800 
 38 H       -3.9810    -3.0740    -0.1340 H     1 <1>   0.0800 
 39 H        0.0980     5.4580    -1.5750 H     1 <1>   0.0800 
 40 H        0.4880     6.0630     0.0180 H     1 <1>   0.0800 
 41 H        2.7140     2.6470    -1.2910 H     1 <1>   0.0800 
 42 H        1.2770     3.0720    -2.1760 H     1 <1>   0.0800 
 43 H       -5.0490    -0.3230    -1.6130 H     1 <1>   0.4000 
 44 H       -7.4490    -1.7250     0.3350 H     1 <1>   0.0800 
 45 H       -7.6990    -1.3220    -1.3270 H     1 <1>   0.0800 
 46 H       -6.2200    -3.3940    -0.6110 H     1 <1>   0.0800 
 47 H       -5.7620    -2.4590    -1.9950 H     1 <1>   0.0800 
 48 H        2.4510     5.0940    -1.3110 H     1 <1>   0.0800 
 49 H        2.2480     4.4950     0.3100 H     1 <1>   0.0800 
 50 H       -6.6890     2.5910    -1.3060 H     1 <1>   0.1500 
 51 H       -8.5490    -0.1410     1.4120 H     1 <1>   0.1500 
 52 H       -8.4210     4.2260    -0.8250 H     1 <1>   0.1500 
 53 H      -10.2720     1.5060     1.8730 H     1 <1>   0.1500 
 54 H      -10.2270     3.6990     0.7630 H     1 <1>   0.1500 
@<TRIPOS>BOND
  1   1   2  2   
  2   2   3  am  
  3   2   4  1   
  4   3   5  1   
  5   3   6  1   
  6   4   7  2   
  7   4   8  1   
  8   5   9  1   
  9   5  28  1   
 10   5  29  1   
 11   6  10  1   
 12   6  30  1   
 13   6  31  1   
 14   7  11  1   
 15   8  12  2   
 16   8  13  1   
 17   9  10  1   
 18   9  14  1   
 19   9  32  1   
 20  10  15  1   
 21  10  33  1   
 22  11  12  1   
 23  11  34  1   
 24  12  16  1   
 25  13  17  1   
 26  13  35  1   
 27  13  36  1   
 28  14  18  1   
 29  14  19  1   
 30  14  20  1   
 31  15  21  1   
 32  15  37  1   
 33  15  38  1   
 34  16  22  1   
 35  16  39  1   
 36  16  40  1   
 37  17  22  1   
 38  17  41  1   
 39  17  42  1   
 40  18  43  1   
 41  19  23  ar  
 42  19  24  ar  
 43  20  21  1   
 44  20  44  1   
 45  20  45  1   
 46  21  46  1   
 47  21  47  1   
 48  22  48  1   
 49  22  49  1   
 50  23  25  ar  
 51  23  50  1   
 52  24  26  ar  
 53  24  51  1   
 54  25  27  ar  
 55  25  52  1   
 56  26  27  ar  
 57  26  53  1   
 58  27  54  1   
@<TRIPOS>SUBSTRUCTURE
  1 ****   5 GROUP 4 **** **** 0

# MOE 2024.06 (io_trps.svl 2023.06)
