@<TRIPOS>MOLECULE
NONAME
58 61 1 0 0 
SMALL
USER_CHARGES


@<TRIPOS>ATOM
  1 O        0.6470     0.2310    -1.2630 O.2   1 <1>  -0.5700 
  2 C       -0.2840     1.0030    -1.3580 C.2   1 <1>   0.5690 
  3 N       -1.5480     0.5690    -1.0230 N.am  1 <1>  -0.6600 
  4 C        0.0200     2.4460    -1.8830 C.3   1 <1>   0.3410 
  5 C       -2.8200     1.3430    -1.0030 C.3   1 <1>   0.1400 
  6 C       -1.7550    -0.7250    -0.3320 C.3   1 <1>   0.1400 
  7 O       -0.5870     3.4690    -1.0980 O.3   1 <1>  -0.3630 
  8 C       -0.5670     2.6210    -3.2930 C.3   1 <1>  -0.2400 
  9 C        1.5230     2.7820    -1.9680 C.3   1 <1>  -0.2400 
 10 C       -3.7270     0.6190    -0.0010 C.3   1 <1>   0.2000 
 11 C       -3.2660    -0.8370    -0.1070 C.3   1 <1>  -0.0800 
 12 C       -0.5870     3.5790     0.2590 C.ar  1 <1>   0.0820 
 13 O       -3.4790     1.0670     1.3020 O.3   1 <1>  -0.5600 
 14 C       -3.6440    -1.7150     1.1000 C.3   1 <1>   0.0200 
 15 C       -1.4470     4.5720     0.7990 C.ar  1 <1>   0.0000 
 16 C        0.1600     2.7810     1.0960 C.ar  1 <1>  -0.1500 
 17 C       -4.0940     2.2660     1.6590 C.3   1 <1>   0.0400 
 18 C       -3.3220    -3.1860     0.8960 C.2   1 <1>  -0.0400 
 19 C       -1.5350     4.7090     2.2030 C.ar  1 <1>   0.0000 
 20 C       -2.2390     5.4300     0.0020 C.ar  1 <1>  -0.1500 
 21 C        0.0760     2.9300     2.4820 C.ar  1 <1>  -0.1500 
 22 O       -3.5210    -4.0140     1.8870 O.3   1 <1>  -0.0190 
 23 C       -2.8480    -3.8980    -0.1400 C.2   1 <1>  -0.1500 
 24 C       -0.7530     3.8720     3.0220 C.ar  1 <1>  -0.1500 
 25 C       -2.4070     5.6740     2.7470 C.ar  1 <1>  -0.1500 
 26 C       -3.0770     6.3580     0.5550 C.ar  1 <1>  -0.1500 
 27 N       -3.2050    -5.2370     1.5720 N.2   1 <1>  -0.4100 
 28 C       -2.7950    -5.1970     0.3560 C.2   1 <1>   0.1080 
 29 C       -3.1640     6.4810     1.9450 C.ar  1 <1>  -0.1500 
 30 C       -2.3200    -6.4040    -0.4210 C.3   1 <1>  -0.0590 
 31 H       -2.6800     2.3690    -0.7300 H     1 <1>   0.0800 
 32 H       -3.2630     1.2960    -1.9810 H     1 <1>   0.0800 
 33 H       -1.3710    -1.5370    -0.9240 H     1 <1>   0.0800 
 34 H       -1.2350    -0.6960     0.6120 H     1 <1>   0.0800 
 35 H       -0.1370     1.8950    -3.9590 H     1 <1>   0.0800 
 36 H       -0.3520     3.6030    -3.6720 H     1 <1>   0.0800 
 37 H       -1.6310     2.4770    -3.2820 H     1 <1>   0.0800 
 38 H        2.0090     2.1120    -2.6540 H     1 <1>   0.0800 
 39 H        2.0020     2.6730    -1.0150 H     1 <1>   0.0800 
 40 H        1.6650     3.7900    -2.3160 H     1 <1>   0.0800 
 41 H       -4.7750     0.7350    -0.2210 H     1 <1>   0.0800 
 42 H       -3.7050    -1.2570    -0.9950 H     1 <1>   0.0800 
 43 H       -4.6980    -1.6220     1.2920 H     1 <1>   0.0800 
 44 H       -3.1240    -1.3700     1.9780 H     1 <1>   0.0800 
 45 H        0.8220     2.0200     0.7330 H     1 <1>   0.1500 
 46 H       -3.7890     2.5100     2.6610 H     1 <1>   0.0800 
 47 H       -5.1620     2.1420     1.6240 H     1 <1>   0.0800 
 48 H       -3.7830     3.0520     0.9950 H     1 <1>   0.0800 
 49 H       -2.1710     5.3460    -1.0670 H     1 <1>   0.1500 
 50 H        0.6690     2.2900     3.1120 H     1 <1>   0.1500 
 51 H       -2.5660    -3.5890    -1.1280 H     1 <1>   0.1500 
 52 H       -0.8220     3.9850     4.0880 H     1 <1>   0.1500 
 53 H       -2.4650     5.7660     3.8160 H     1 <1>   0.1500 
 54 H       -3.6730     7.0040    -0.0660 H     1 <1>   0.1500 
 55 H       -3.8280     7.2160     2.3660 H     1 <1>   0.1500 
 56 H       -2.9080    -6.5180    -1.3130 H     1 <1>   0.0800 
 57 H       -2.4220    -7.2900     0.1790 H     1 <1>   0.0800 
 58 H       -1.2870    -6.2810    -0.6890 H     1 <1>   0.0800 
@<TRIPOS>BOND
  1   1   2  2   
  2   2   3  am  
  3   2   4  1   
  4   3   5  1   
  5   3   6  1   
  6   4   7  1   
  7   4   8  1   
  8   4   9  1   
  9   5  10  1   
 10   5  31  1   
 11   5  32  1   
 12   6  11  1   
 13   6  33  1   
 14   6  34  1   
 15   7  12  1   
 16   8  35  1   
 17   8  36  1   
 18   8  37  1   
 19   9  38  1   
 20   9  39  1   
 21   9  40  1   
 22  10  11  1   
 23  10  13  1   
 24  10  41  1   
 25  11  14  1   
 26  11  42  1   
 27  12  15  ar  
 28  12  16  ar  
 29  13  17  1   
 30  14  18  1   
 31  14  43  1   
 32  14  44  1   
 33  15  19  ar  
 34  15  20  ar  
 35  16  21  ar  
 36  16  45  1   
 37  17  46  1   
 38  17  47  1   
 39  17  48  1   
 40  18  22  1   
 41  18  23  2   
 42  19  24  ar  
 43  19  25  ar  
 44  20  26  ar  
 45  20  49  1   
 46  21  24  ar  
 47  21  50  1   
 48  22  27  1   
 49  23  28  1   
 50  23  51  1   
 51  24  52  1   
 52  25  29  ar  
 53  25  53  1   
 54  26  29  ar  
 55  26  54  1   
 56  27  28  2   
 57  28  30  1   
 58  29  55  1   
 59  30  56  1   
 60  30  57  1   
 61  30  58  1   
@<TRIPOS>SUBSTRUCTURE
  1 ****   3 GROUP 4 **** **** 0

# MOE 2024.06 (io_trps.svl 2023.06)
