@<TRIPOS>MOLECULE
NONAME
46 48 1 0 0 
SMALL
USER_CHARGES


@<TRIPOS>ATOM
  1 O        0.1530    -0.3430    -1.8570 O.2   1 <1>  -0.5700 
  2 C       -0.5930     0.4920    -1.4000 C.2   1 <1>   0.5690 
  3 N       -1.7650     0.1340    -0.7870 N.am  1 <1>  -0.6600 
  4 C       -0.1990     1.9560    -1.5510 C.3   1 <1>   0.0440 
  5 C       -2.7260     1.0490    -0.1210 C.3   1 <1>   0.1400 
  6 C       -2.1630    -1.2800    -0.5880 C.3   1 <1>   0.1400 
  7 C       -0.0430     2.6970    -0.2180 C.ar  1 <1>  -0.1440 
  8 C       -3.8810     0.1500     0.3150 C.3   1 <1>   0.2000 
  9 C       -3.2720    -1.2410     0.4650 C.3   1 <1>  -0.0800 
 10 C       -0.6150     3.9440     0.0280 C.ar  1 <1>  -0.1440 
 11 C        0.7050     2.0850     0.7790 C.ar  1 <1>  -0.1500 
 12 O       -4.4310     0.5690     1.5150 O.3   1 <1>  -0.6800 
 13 C       -4.3020    -2.3710     0.3180 C.3   1 <1>   0.0210 
 14 C       -0.4410     4.5410     1.2690 C.ar  1 <1>  -0.1500 
 15 C       -1.4280     4.6920    -1.0200 C.3   1 <1>  -0.0970 
 16 C        0.8740     2.6880     2.0110 C.ar  1 <1>  -0.1500 
 17 C       -3.6310    -3.7300     0.3460 C.2   1 <1>   0.1080 
 18 C        0.2980     3.9190     2.2570 C.ar  1 <1>  -0.1500 
 19 N       -2.9950    -4.1800     1.3830 N.2   1 <1>  -0.7070 
 20 C       -3.6070    -4.6280    -0.7160 C.2   1 <1>  -0.1500 
 21 N       -2.5450    -5.3910     1.0060 N.pl3 1 <1>   0.3000 
 22 C       -2.9010    -5.6850    -0.2620 C.2   1 <1>  -0.3320 
 23 C       -2.5390    -6.9750    -0.9730 C.3   1 <1>  -0.0600 
 24 H        0.7390     2.0030    -2.0730 H     1 <1>   0.0800 
 25 H       -0.9330     2.4160    -2.1810 H     1 <1>   0.0800 
 26 H       -2.2540     1.4990     0.7350 H     1 <1>   0.0800 
 27 H       -3.0660     1.8080    -0.8040 H     1 <1>   0.0800 
 28 H       -2.5280    -1.6740    -1.5210 H     1 <1>   0.0800 
 29 H       -1.3280    -1.8740    -0.2550 H     1 <1>   0.0800 
 30 H       -4.6530     0.1630    -0.4360 H     1 <1>   0.0800 
 31 H       -2.7940    -1.3260     1.4260 H     1 <1>   0.0800 
 32 H        1.1630     1.1260     0.6020 H     1 <1>   0.1500 
 33 H       -3.7750     0.4820     2.2340 H     1 <1>   0.4000 
 34 H       -4.8430    -2.2610    -0.6040 H     1 <1>   0.0800 
 35 H       -5.0080    -2.3190     1.1280 H     1 <1>   0.0800 
 36 H       -0.8790     5.5020     1.4760 H     1 <1>   0.1500 
 37 H       -1.7040     5.6700    -0.6690 H     1 <1>   0.0800 
 38 H       -2.3290     4.1510    -1.2480 H     1 <1>   0.0800 
 39 H       -0.8500     4.8140    -1.9180 H     1 <1>   0.0800 
 40 H        1.4550     2.2000     2.7740 H     1 <1>   0.1500 
 41 H        0.4260     4.3930     3.2150 H     1 <1>   0.1500 
 42 H       -4.0600    -4.4850    -1.6800 H     1 <1>   0.1500 
 43 H       -1.9970    -5.9900     1.6360 H     1 <1>   0.2700 
 44 H       -2.9360    -6.9710    -1.9720 H     1 <1>   0.0800 
 45 H       -2.9480    -7.8190    -0.4450 H     1 <1>   0.0800 
 46 H       -1.4700    -7.0810    -1.0300 H     1 <1>   0.0800 
@<TRIPOS>BOND
  1   1   2  2   
  2   2   3  am  
  3   2   4  1   
  4   3   5  1   
  5   3   6  1   
  6   4   7  1   
  7   4  24  1   
  8   4  25  1   
  9   5   8  1   
 10   5  26  1   
 11   5  27  1   
 12   6   9  1   
 13   6  28  1   
 14   6  29  1   
 15   7  10  ar  
 16   7  11  ar  
 17   8   9  1   
 18   8  12  1   
 19   8  30  1   
 20   9  13  1   
 21   9  31  1   
 22  10  14  ar  
 23  10  15  1   
 24  11  16  ar  
 25  11  32  1   
 26  12  33  1   
 27  13  17  1   
 28  13  34  1   
 29  13  35  1   
 30  14  18  ar  
 31  14  36  1   
 32  15  37  1   
 33  15  38  1   
 34  15  39  1   
 35  16  18  ar  
 36  16  40  1   
 37  17  19  2   
 38  17  20  1   
 39  18  41  1   
 40  19  21  1   
 41  20  22  2   
 42  20  42  1   
 43  21  22  1   
 44  21  43  1   
 45  22  23  1   
 46  23  44  1   
 47  23  45  1   
 48  23  46  1   
@<TRIPOS>SUBSTRUCTURE
  1 ****   3 GROUP 4 **** **** 0

# MOE 2024.06 (io_trps.svl 2023.06)
