@<TRIPOS>MOLECULE
NONAME
52 55 1 0 0 
SMALL
USER_CHARGES


@<TRIPOS>ATOM
  1 O        0.5210    -0.1610    -1.7380 O.2   1 <1>  -0.5700 
  2 C        1.3680    -0.7880    -1.1280 C.2   1 <1>   0.5440 
  3 N        2.5480    -0.1550    -0.8070 N.am  1 <1>  -0.6600 
  4 C        1.1180    -2.1720    -0.7790 C.ar  1 <1>   0.0860 
  5 C        2.6500     1.3320    -0.9140 C.3   1 <1>   0.3210 
  6 C        3.8330    -0.8700    -0.5300 C.3   1 <1>   0.1400 
  7 C        1.3100    -2.6460     0.5190 C.ar  1 <1>  -0.1500 
  8 C        0.6680    -3.0860    -1.7310 C.ar  1 <1>  -0.1500 
  9 C        3.6300     1.8770     0.1130 C.2   1 <1>  -0.1810 
 10 C        4.4150    -0.4350     0.8190 C.3   1 <1>   0.0210 
 11 C        1.0960    -3.9720     0.8420 C.ar  1 <1>  -0.1500 
 12 C        0.4510    -4.4120    -1.4100 C.ar  1 <1>  -0.1500 
 13 C        3.9410     3.1410     0.4750 C.2   1 <1>  -0.2370 
 14 C        4.4440     1.0730     0.9000 C.2   1 <1>   0.1080 
 15 C        0.6690    -4.8820    -0.1210 C.ar  1 <1>   0.1170 
 16 N        4.8950     3.0400     1.4250 N.pl3 1 <1>   0.3000 
 17 C        3.4120     4.4730    -0.0170 C.3   1 <1>  -0.0150 
 18 N        5.2100     1.7560     1.6910 N.2   1 <1>  -0.7070 
 19 N        0.4420    -6.2340     0.1490 N.am  1 <1>  -0.5470 
 20 C        2.6510     5.3530     0.9220 C.3   1 <1>  -0.2000 
 21 C        1.9430     4.6810    -0.2140 C.3   1 <1>  -0.2000 
 22 C        0.7310    -7.0400     1.2140 C.2   1 <1>   0.5690 
 23 O        1.3060    -6.6750     2.2120 O.2   1 <1>  -0.5700 
 24 C        0.3000    -8.5040     1.0900 C.3   1 <1>   0.1710 
 25 N       -0.7380    -8.7410     0.0370 N.3   1 <1>  -0.8100 
 26 C       -0.7730   -10.1580    -0.3440 C.3   1 <1>   0.0300 
 27 C       -2.0670    -8.3140     0.5000 C.3   1 <1>   0.0300 
 28 H        1.6830     1.7750    -0.7550 H     1 <1>   0.0800 
 29 H        2.9840     1.5920    -1.9030 H     1 <1>   0.0800 
 30 H        4.5340    -0.6210    -1.3080 H     1 <1>   0.0800 
 31 H        3.6950    -1.9370    -0.5420 H     1 <1>   0.0800 
 32 H        1.6280    -1.9600     1.2830 H     1 <1>   0.1500 
 33 H        0.4900    -2.7380    -2.7340 H     1 <1>   0.1500 
 34 H        5.4130    -0.8190     0.9280 H     1 <1>   0.0800 
 35 H        3.8160    -0.8190     1.6230 H     1 <1>   0.0800 
 36 H        1.2570    -4.2960     1.8530 H     1 <1>   0.1500 
 37 H        0.1080    -5.0920    -2.1700 H     1 <1>   0.1500 
 38 H        5.3420     3.8270     1.9070 H     1 <1>   0.2700 
 39 H        4.0780     4.9530    -0.7150 H     1 <1>   0.1000 
 40 H       -0.0610    -6.7690    -0.5680 H     1 <1>   0.3700 
 41 H        2.8050     6.4170     0.8780 H     1 <1>   0.1000 
 42 H        2.4530     5.0030     1.9210 H     1 <1>   0.1000 
 43 H        1.2530     3.8920     0.0280 H     1 <1>   0.1000 
 44 H        1.6150     5.2760    -1.0480 H     1 <1>   0.1000 
 45 H       -0.0560    -8.8460     2.0450 H     1 <1>   0.0800 
 46 H        1.1850    -9.0660     0.8490 H     1 <1>   0.0800 
 47 H        0.1860   -10.4590    -0.7310 H     1 <1>   0.0800 
 48 H       -1.5090   -10.3120    -1.1150 H     1 <1>   0.0800 
 49 H       -1.0200   -10.7730     0.5040 H     1 <1>   0.0800 
 50 H       -2.0570    -7.2700     0.7640 H     1 <1>   0.0800 
 51 H       -2.3710    -8.8860     1.3610 H     1 <1>   0.0800 
 52 H       -2.7910    -8.4560    -0.2840 H     1 <1>   0.0800 
@<TRIPOS>BOND
  1   1   2  2   
  2   2   3  am  
  3   2   4  1   
  4   3   5  1   
  5   3   6  1   
  6   4   7  ar  
  7   4   8  ar  
  8   5   9  1   
  9   5  28  1   
 10   5  29  1   
 11   6  10  1   
 12   6  30  1   
 13   6  31  1   
 14   7  11  ar  
 15   7  32  1   
 16   8  12  ar  
 17   8  33  1   
 18   9  13  2   
 19   9  14  1   
 20  10  14  1   
 21  10  34  1   
 22  10  35  1   
 23  11  15  ar  
 24  11  36  1   
 25  12  15  ar  
 26  12  37  1   
 27  13  16  1   
 28  13  17  1   
 29  14  18  2   
 30  15  19  1   
 31  16  18  1   
 32  16  38  1   
 33  17  20  1   
 34  17  21  1   
 35  17  39  1   
 36  19  22  am  
 37  19  40  1   
 38  20  21  1   
 39  20  41  1   
 40  20  42  1   
 41  21  43  1   
 42  21  44  1   
 43  22  23  2   
 44  22  24  1   
 45  24  25  1   
 46  24  45  1   
 47  24  46  1   
 48  25  26  1   
 49  25  27  1   
 50  26  47  1   
 51  26  48  1   
 52  26  49  1   
 53  27  50  1   
 54  27  51  1   
 55  27  52  1   
@<TRIPOS>SUBSTRUCTURE
  1 ****   7 GROUP 4 **** **** 0

# MOE 2024.06 (io_trps.svl 2023.06)
