@<TRIPOS>MOLECULE
NONAME
40 41 1 0 0 
SMALL
USER_CHARGES


@<TRIPOS>ATOM
  1 S        0.1870    -0.2980    -0.4850 S.3   1 <1>  -0.0800 
  2 C       -1.3770    -0.8770    -0.0060 C.2   1 <1>   0.4420 
  3 C       -0.3810     1.2990    -0.1400 C.2   1 <1>   0.1980 
  4 N       -2.1540     0.0810     0.3510 N.2   1 <1>  -0.3380 
  5 N       -1.5810    -2.2360    -0.0660 N.am  1 <1>  -0.4940 
  6 N       -1.5810     1.3170     0.2730 N.2   1 <1>  -0.3380 
  7 C        0.5540     2.4690    -0.3490 C.3   1 <1>   0.0200 
  8 C       -2.6950    -2.9670     0.2330 C.2   1 <1>   0.7150 
  9 C       -0.1940     3.7630    -0.0070 C.3   1 <1>   0.3430 
 10 O       -3.7090    -2.4160     0.6040 O.2   1 <1>  -0.5700 
 11 C       -2.6360    -4.3980     0.0920 C.2   1 <1>  -0.2370 
 12 N        0.6260     4.9980    -0.2410 N.4   1 <1>  -0.9590 
 13 N       -3.7140    -5.2600     0.2480 N.pl3 1 <1>   0.0480 
 14 C       -1.5340    -5.1600    -0.2160 C.2   1 <1>  -0.1500 
 15 C        1.7650     5.1250     0.7250 C.3   1 <1>   0.2630 
 16 C       -0.2540     6.2050    -0.1510 C.3   1 <1>   0.2630 
 17 C       -3.2470    -6.5300     0.0270 C.2   1 <1>  -0.3320 
 18 C       -5.1380    -4.8810     0.5870 C.3   1 <1>   0.8560 
 19 C       -1.9200    -6.4910    -0.2570 C.2   1 <1>  -0.1500 
 20 C       -4.0990    -7.7890     0.0930 C.3   1 <1>  -0.0600 
 21 F       -5.5330    -5.5300     1.6800 F     1 <1>  -0.3400 
 22 F       -5.9580    -5.3000    -0.3740 F     1 <1>  -0.3400 
 23 H       -0.7990    -2.7930    -0.3890 H     1 <1>   0.3700 
 24 H        0.8670     2.4810    -1.3760 H     1 <1>   0.0800 
 25 H        1.4070     2.3410     0.2910 H     1 <1>   0.0800 
 26 H       -0.5130     3.7240     1.0230 H     1 <1>   0.0800 
 27 H       -1.0840     3.8040    -0.6150 H     1 <1>   0.0800 
 28 H        1.0070     4.9630    -1.2010 H     1 <1>   0.4500 
 29 H       -0.5250    -4.8380    -0.4010 H     1 <1>   0.1500 
 30 H        1.3960     5.1500     1.7380 H     1 <1>   0.0800 
 31 H        2.3150     6.0330     0.5380 H     1 <1>   0.0800 
 32 H        2.4420     4.2920     0.6250 H     1 <1>   0.0800 
 33 H       -0.6830     6.2850     0.8360 H     1 <1>   0.0800 
 34 H       -1.0560     6.1400    -0.8690 H     1 <1>   0.0800 
 35 H        0.3130     7.1000    -0.3520 H     1 <1>   0.0800 
 36 H       -5.3130    -3.8360     0.7410 H     1 <1>   0.0800 
 37 H       -1.2710    -7.3230    -0.4740 H     1 <1>   0.1500 
 38 H       -4.8990    -7.7400    -0.6250 H     1 <1>   0.0800 
 39 H       -4.5160    -7.9100     1.0760 H     1 <1>   0.0800 
 40 H       -3.5000    -8.6540    -0.1280 H     1 <1>   0.0800 
@<TRIPOS>BOND
  1   1   2  1   
  2   1   3  1   
  3   2   4  2   
  4   2   5  1   
  5   3   6  2   
  6   3   7  1   
  7   4   6  1   
  8   5   8  am  
  9   5  23  1   
 10   7   9  1   
 11   7  24  1   
 12   7  25  1   
 13   8  10  2   
 14   8  11  1   
 15   9  12  1   
 16   9  26  1   
 17   9  27  1   
 18  11  13  1   
 19  11  14  2   
 20  12  15  1   
 21  12  16  1   
 22  12  28  1   
 23  13  17  1   
 24  13  18  1   
 25  14  19  1   
 26  14  29  1   
 27  15  30  1   
 28  15  31  1   
 29  15  32  1   
 30  16  33  1   
 31  16  34  1   
 32  16  35  1   
 33  17  19  2   
 34  17  20  1   
 35  18  21  1   
 36  18  22  1   
 37  18  36  1   
 38  19  37  1   
 39  20  38  1   
 40  20  39  1   
 41  20  40  1   
@<TRIPOS>SUBSTRUCTURE
  1 ****   5 GROUP 4 **** **** 0

# MOE 2024.06 (io_trps.svl 2023.06)
