@<TRIPOS>MOLECULE
NONAME
50 53 1 0 0 
SMALL
USER_CHARGES


@<TRIPOS>ATOM
  1 F       -0.1090     0.9850    -0.1690 F     1 <1>  -0.1900 
  2 C        1.1030     1.4660    -0.2240 C.ar  1 <1>   0.1900 
  3 C        1.3010     2.8020     0.0600 C.ar  1 <1>  -0.1500 
  4 C        2.1400     0.6180    -0.5630 C.ar  1 <1>  -0.1500 
  5 C        2.5860     3.3340     0.0050 C.ar  1 <1>   0.0000 
  6 C        3.4210     1.1380    -0.6180 C.ar  1 <1>  -0.1500 
  7 C        2.8200     4.7290     0.2950 C.ar  1 <1>   0.0000 
  8 C        3.6360     2.4790    -0.3360 C.ar  1 <1>  -0.1500 
  9 C        3.7170     5.1200     1.2850 C.ar  1 <1>  -0.1500 
 10 C        2.1480     5.7300    -0.4000 C.ar  1 <1>  -0.1500 
 11 C        3.9320     6.4560     1.5670 C.ar  1 <1>  -0.1500 
 12 C        2.3620     7.0650    -0.1170 C.ar  1 <1>  -0.1500 
 13 C        3.2640     7.4600     0.8700 C.ar  1 <1>   0.0860 
 14 C        3.5060     8.8580     1.1640 C.2   1 <1>   0.5440 
 15 O        3.3080     9.2710     2.2920 O.2   1 <1>  -0.5700 
 16 N        3.9780     9.7460     0.2090 N.am  1 <1>  -0.6600 
 17 C        4.1040    11.1950     0.5740 C.3   1 <1>   0.1400 
 18 C        4.6790     9.2620    -1.0230 C.3   1 <1>   0.1400 
 19 C        5.5400    11.6210     0.9790 C.3   1 <1>   0.4230 
 20 C        6.1310     9.7680    -1.1870 C.3   1 <1>  -0.0800 
 21 N        6.3730    12.0830    -0.1920 N.4   1 <1>  -0.9590 
 22 C        6.3260    10.5690     1.8100 C.3   1 <1>   0.1200 
 23 C        7.1270     9.2870    -0.1080 C.3   1 <1>   0.1200 
 24 C        6.1830    11.2770    -1.4350 C.3   1 <1>   0.3430 
 25 C        6.1690    13.5370    -0.4720 C.3   1 <1>   0.2630 
 26 O        6.5920     9.3420     1.1750 O.3   1 <1>  -0.5600 
 27 H        0.4650     3.4230     0.3250 H     1 <1>   0.1500 
 28 H        1.9450    -0.4170    -0.7760 H     1 <1>   0.1500 
 29 H        4.2490     0.5010    -0.8790 H     1 <1>   0.1500 
 30 H        4.6350     2.8740    -0.3850 H     1 <1>   0.1500 
 31 H        4.2430     4.3670     1.8440 H     1 <1>   0.1500 
 32 H        1.4480     5.4530    -1.1690 H     1 <1>   0.1500 
 33 H        4.6260     6.7390     2.3400 H     1 <1>   0.1500 
 34 H        1.8220     7.8200    -0.6610 H     1 <1>   0.1500 
 35 H        3.7460    11.8000    -0.2380 H     1 <1>   0.0800 
 36 H        3.4550    11.4060     1.4060 H     1 <1>   0.0800 
 37 H        4.7120     8.1860    -1.0260 H     1 <1>   0.0800 
 38 H        4.0970     9.5580    -1.8790 H     1 <1>   0.0800 
 39 H        5.4190    12.4700     1.6310 H     1 <1>   0.0800 
 40 H        6.4720     9.3300    -2.1080 H     1 <1>   0.0800 
 41 H        7.3490    11.9450     0.1040 H     1 <1>   0.4500 
 42 H        5.7540    10.3330     2.6910 H     1 <1>   0.0800 
 43 H        7.2640    10.9800     2.1360 H     1 <1>   0.0800 
 44 H        8.0510     9.8370    -0.1280 H     1 <1>   0.0800 
 45 H        7.3580     8.2500    -0.2870 H     1 <1>   0.0800 
 46 H        5.2730    11.5760    -1.9280 H     1 <1>   0.0800 
 47 H        6.9990    11.4870    -2.1080 H     1 <1>   0.0800 
 48 H        5.1510    13.7230    -0.7760 H     1 <1>   0.0800 
 49 H        6.8290    13.8640    -1.2600 H     1 <1>   0.0800 
 50 H        6.3760    14.1220     0.4100 H     1 <1>   0.0800 
@<TRIPOS>BOND
  1   1   2  1   
  2   2   3  ar  
  3   2   4  ar  
  4   3   5  ar  
  5   3  27  1   
  6   4   6  ar  
  7   4  28  1   
  8   5   7  1   
  9   5   8  ar  
 10   6   8  ar  
 11   6  29  1   
 12   7   9  ar  
 13   7  10  ar  
 14   8  30  1   
 15   9  11  ar  
 16   9  31  1   
 17  10  12  ar  
 18  10  32  1   
 19  11  13  ar  
 20  11  33  1   
 21  12  13  ar  
 22  12  34  1   
 23  13  14  1   
 24  14  15  2   
 25  14  16  am  
 26  16  17  1   
 27  16  18  1   
 28  17  19  1   
 29  17  35  1   
 30  17  36  1   
 31  18  20  1   
 32  18  37  1   
 33  18  38  1   
 34  19  21  1   
 35  19  22  1   
 36  19  39  1   
 37  20  23  1   
 38  20  24  1   
 39  20  40  1   
 40  21  24  1   
 41  21  25  1   
 42  21  41  1   
 43  22  26  1   
 44  22  42  1   
 45  22  43  1   
 46  23  26  1   
 47  23  44  1   
 48  23  45  1   
 49  24  46  1   
 50  24  47  1   
 51  25  48  1   
 52  25  49  1   
 53  25  50  1   
@<TRIPOS>SUBSTRUCTURE
  1 ****  13 GROUP 4 **** **** 0

# MOE 2024.06 (io_trps.svl 2023.06)
