@<TRIPOS>MOLECULE
NONAME
42 43 1 0 0 
SMALL
USER_CHARGES


@<TRIPOS>ATOM
  1 S        1.2600     1.3610     0.5150 S.o2  1 <1>   1.5000 
  2 O        2.5740     0.9570     0.0660 O.2   1 <1>  -0.6500 
  3 O        1.1280     2.2430     1.6500 O.2   1 <1>  -0.6500 
  4 N        0.5510     2.2050    -0.7500 N.am  1 <1>  -0.9140 
  5 C        0.1810    -0.0730     0.7280 C.2   1 <1>  -0.0220 
  6 C        1.4690     3.1690    -1.3810 C.3   1 <1>   0.2570 
  7 S        0.1980    -1.3170    -0.5200 S.3   1 <1>  -0.0800 
  8 C       -0.7060    -0.4150     1.6870 C.2   1 <1>  -0.1500 
  9 C        1.8330     4.3580    -0.4730 C.2   1 <1>   0.5690 
 10 C       -1.0110    -2.2690     0.3230 C.2   1 <1>  -0.1100 
 11 C       -1.3800    -1.6580     1.4620 C.2   1 <1>  -0.1500 
 12 O        0.9620     5.1830    -0.3070 O.2   1 <1>  -0.5700 
 13 N        3.0540     4.4850     0.1430 N.am  1 <1>  -0.6600 
 14 C        3.2160     5.4250     1.2940 C.3   1 <1>   0.3200 
 15 C        4.2370     3.5940    -0.0630 C.3   1 <1>   0.0600 
 16 C        4.2670     6.4850     1.0000 C.2   1 <1>   0.0060 
 17 N        5.4370     6.5040     1.5460 N.2   1 <1>  -0.3380 
 18 N        4.1050     7.5100     0.1550 N.pl3 1 <1>   0.0480 
 19 N        6.0820     7.5630     1.0580 N.2   1 <1>  -0.3380 
 20 C        5.2760     8.1430     0.2400 C.2   1 <1>   0.0360 
 21 C        2.9500     7.8890    -0.6850 C.3   1 <1>   0.0960 
 22 C        1.9190     8.6830     0.1280 C.3   1 <1>  -0.1600 
 23 C        0.7200     9.0800    -0.7390 C.3   1 <1>  -0.2400 
 24 H       -0.1590     2.7750    -0.2860 H     1 <1>   0.4200 
 25 H        0.9770     3.5760    -2.2460 H     1 <1>   0.0800 
 26 H        2.3440     2.6610    -1.7380 H     1 <1>   0.0800 
 27 H       -0.9170     0.1710     2.5660 H     1 <1>   0.1500 
 28 H       -1.3180    -3.1950    -0.1310 H     1 <1>   0.1500 
 29 H       -2.1060    -2.0300     2.1640 H     1 <1>   0.1500 
 30 H        3.5190     4.8620     2.1590 H     1 <1>   0.0800 
 31 H        2.2840     5.9020     1.5380 H     1 <1>   0.0800 
 32 H        4.2010     3.0940    -1.0120 H     1 <1>   0.0800 
 33 H        4.2770     2.8560     0.7210 H     1 <1>   0.0800 
 34 H        5.1450     4.1730    -0.0320 H     1 <1>   0.0800 
 35 H        5.5050     9.0330    -0.3170 H     1 <1>   0.1500 
 36 H        2.5040     7.0000    -1.0890 H     1 <1>   0.0800 
 37 H        3.3040     8.4860    -1.5060 H     1 <1>   0.0800 
 38 H        2.3790     9.5720     0.5250 H     1 <1>   0.0800 
 39 H        1.5670     8.0830     0.9500 H     1 <1>   0.0800 
 40 H        1.0330     9.6930    -1.5660 H     1 <1>   0.0800 
 41 H        0.0100     9.6350    -0.1520 H     1 <1>   0.0800 
 42 H        0.2290     8.2010    -1.1220 H     1 <1>   0.0800 
@<TRIPOS>BOND
  1   1   2  2   
  2   1   3  2   
  3   1   4  am  
  4   1   5  1   
  5   4   6  1   
  6   4  24  1   
  7   5   7  1   
  8   5   8  2   
  9   6   9  1   
 10   6  25  1   
 11   6  26  1   
 12   7  10  1   
 13   8  11  1   
 14   8  27  1   
 15   9  12  2   
 16   9  13  am  
 17  10  11  2   
 18  10  28  1   
 19  11  29  1   
 20  13  14  1   
 21  13  15  1   
 22  14  16  1   
 23  14  30  1   
 24  14  31  1   
 25  15  32  1   
 26  15  33  1   
 27  15  34  1   
 28  16  17  2   
 29  16  18  1   
 30  17  19  1   
 31  18  20  1   
 32  18  21  1   
 33  19  20  2   
 34  20  35  1   
 35  21  22  1   
 36  21  36  1   
 37  21  37  1   
 38  22  23  1   
 39  22  38  1   
 40  22  39  1   
 41  23  40  1   
 42  23  41  1   
 43  23  42  1   
@<TRIPOS>SUBSTRUCTURE
  1 ****   9 GROUP 4 **** **** 0

# MOE 2024.06 (io_trps.svl 2023.06)
