@<TRIPOS>MOLECULE
NONAME
42 45 1 0 0 
SMALL
USER_CHARGES


@<TRIPOS>ATOM
  1 S       -1.7410    -0.4610    -2.6460 S.3   1 <1>  -0.4600 
  2 C       -3.0170     0.3630    -1.6400 C.3   1 <1>   0.2510 
  3 C       -1.9680    -2.1630    -2.0490 C.3   1 <1>   0.2510 
  4 C       -3.6300    -0.7780    -0.8630 C.2   1 <1>   0.1080 
  5 C       -3.1100    -2.0390    -1.0680 C.2   1 <1>  -0.1810 
  6 N       -4.6000    -0.7610    -0.0070 N.2   1 <1>  -0.7070 
  7 C       -3.8250    -2.8600    -0.2640 C.2   1 <1>  -0.0880 
  8 N       -4.7250    -2.0550     0.3800 N.pl3 1 <1>   0.3140 
  9 N       -3.6750    -4.2640    -0.1490 N.am  1 <1>  -0.4940 
 10 C       -5.7940    -2.4300     1.3170 C.3   1 <1>   0.0160 
 11 C       -3.8260    -5.0840     0.9340 C.2   1 <1>   0.5690 
 12 O       -4.0950    -4.6910     2.0420 O.2   1 <1>  -0.5700 
 13 C       -3.6620    -6.5770     0.7260 C.3   1 <1>  -0.0990 
 14 C       -4.9660    -7.2150     0.2190 C.3   1 <1>  -0.1600 
 15 C       -4.8490    -8.7400     0.0780 C.3   1 <1>   0.0200 
 16 C       -6.1510    -9.3410    -0.4150 C.2   1 <1>   0.2980 
 17 O       -6.5290    -9.0980    -1.6430 O.3   1 <1>  -0.0190 
 18 N       -6.9320   -10.0710     0.2650 N.2   1 <1>  -0.5650 
 19 N       -7.6570    -9.7270    -1.7550 N.2   1 <1>  -0.4100 
 20 C       -7.9000   -10.3040    -0.6310 C.2   1 <1>   0.5150 
 21 C       -9.0550   -11.1140    -0.3090 C.2   1 <1>   0.1410 
 22 O      -10.0140   -11.3360    -1.2040 O.3   1 <1>  -0.2800 
 23 C       -9.3850   -11.7570     0.8450 C.2   1 <1>  -0.1500 
 24 C      -10.9370   -12.0970    -0.6530 C.2   1 <1>  -0.0100 
 25 C      -10.6070   -12.3940     0.6210 C.2   1 <1>  -0.1500 
 26 H       -3.7250     0.8300    -2.2990 H     1 <1>   0.0800 
 27 H       -2.5380     1.0770    -0.9970 H     1 <1>   0.0800 
 28 H       -1.0540    -2.4750    -1.5750 H     1 <1>   0.0800 
 29 H       -2.2130    -2.7820    -2.8930 H     1 <1>   0.0800 
 30 H       -3.3560    -4.7250    -0.9990 H     1 <1>   0.3700 
 31 H       -6.5690    -1.6880     1.2830 H     1 <1>   0.0800 
 32 H       -5.3850    -2.4780     2.3090 H     1 <1>   0.0800 
 33 H       -6.1950    -3.3850     1.0400 H     1 <1>   0.0800 
 34 H       -3.3860    -7.0180     1.6680 H     1 <1>   0.0800 
 35 H       -2.8610    -6.7560     0.0310 H     1 <1>   0.0800 
 36 H       -5.2330    -6.7850    -0.7310 H     1 <1>   0.0800 
 37 H       -5.7590    -6.9910     0.9140 H     1 <1>   0.0800 
 38 H       -4.6080    -9.1750     1.0320 H     1 <1>   0.0800 
 39 H       -4.0670    -8.9930    -0.6140 H     1 <1>   0.0800 
 40 H       -8.8230   -11.7780     1.7620 H     1 <1>   0.1500 
 41 H      -11.7950   -12.3790    -1.2380 H     1 <1>   0.1500 
 42 H      -11.1470   -12.9910     1.3350 H     1 <1>   0.1500 
@<TRIPOS>BOND
  1   1   2  1   
  2   1   3  1   
  3   2   4  1   
  4   2  26  1   
  5   2  27  1   
  6   3   5  1   
  7   3  28  1   
  8   3  29  1   
  9   4   5  1   
 10   4   6  2   
 11   5   7  2   
 12   6   8  1   
 13   7   8  1   
 14   7   9  1   
 15   8  10  1   
 16   9  11  am  
 17   9  30  1   
 18  10  31  1   
 19  10  32  1   
 20  10  33  1   
 21  11  12  2   
 22  11  13  1   
 23  13  14  1   
 24  13  34  1   
 25  13  35  1   
 26  14  15  1   
 27  14  36  1   
 28  14  37  1   
 29  15  16  1   
 30  15  38  1   
 31  15  39  1   
 32  16  17  1   
 33  16  18  2   
 34  17  19  1   
 35  18  20  1   
 36  19  20  2   
 37  20  21  1   
 38  21  22  1   
 39  21  23  2   
 40  22  24  1   
 41  23  25  1   
 42  23  40  1   
 43  24  25  2   
 44  24  41  1   
 45  25  42  1   
@<TRIPOS>SUBSTRUCTURE
  1 ****  14 GROUP 4 **** **** 0

# MOE 2024.06 (io_trps.svl 2023.06)
