@<TRIPOS>MOLECULE
NONAME
51 54 1 0 0 
SMALL
USER_CHARGES


@<TRIPOS>ATOM
  1 CL      -1.1360    -0.3420     0.3100 Cl    1 <1>  -0.1770 
  2 C       -0.3430    -1.8940     0.2390 C.ar  1 <1>   0.1770 
  3 C       -0.9170    -2.9120    -0.4950 C.ar  1 <1>  -0.1500 
  4 C        0.8450    -2.0770     0.9210 C.ar  1 <1>  -0.1500 
  5 C       -0.3080    -4.1640    -0.5670 C.ar  1 <1>   0.0530 
  6 C        1.4660    -3.3110     0.8600 C.ar  1 <1>  -0.1500 
  7 C       -0.9020    -5.2390    -1.3300 C.2   1 <1>   0.0870 
  8 C        0.8940    -4.3360     0.1240 C.ar  1 <1>  -0.1500 
  9 O       -0.4870    -6.4890    -1.1640 O.3   1 <1>  -0.2800 
 10 C       -1.8910    -5.2340    -2.2630 C.2   1 <1>  -0.1500 
 11 C       -1.1830    -7.2780    -1.9570 C.2   1 <1>  -0.0400 
 12 C       -2.0740    -6.5570    -2.6690 C.2   1 <1>  -0.1500 
 13 C       -0.9110    -8.7720    -1.9470 C.3   1 <1>   0.5230 
 14 N       -1.6380    -9.4120    -0.8280 N.4   1 <1>  -0.9590 
 15 C       -1.5620   -10.8940    -0.8370 C.3   1 <1>   0.3430 
 16 C       -1.4150    -8.8040     0.5160 C.3   1 <1>   0.3430 
 17 C       -2.7400   -11.4710    -0.0440 C.3   1 <1>  -0.1060 
 18 C       -1.8150    -9.7620     1.6440 C.3   1 <1>  -0.1600 
 19 C       -3.9600   -11.2740    -0.9310 C.2   1 <1>   0.9060 
 20 C       -3.0090   -10.6260     1.2350 C.3   1 <1>   0.2000 
 21 C       -2.4610   -12.9870     0.1860 C.3   1 <1>  -0.0650 
 22 O       -4.0780   -10.1780    -1.5040 O.co2 1 <1>  -0.9000 
 23 O       -4.7880   -12.1720    -1.0520 O.co2 1 <1>  -0.9000 
 24 O       -3.3440   -11.4120     2.3190 O.3   1 <1>  -0.6800 
 25 C       -1.1520   -13.2900     0.9320 C.3   1 <1>  -0.1950 
 26 C        0.1450   -13.5010     0.2120 C.3   1 <1>  -0.2000 
 27 C       -0.5620   -14.6610     0.8520 C.3   1 <1>  -0.2000 
 28 H       -1.8430    -2.7240    -1.0050 H     1 <1>   0.1500 
 29 H        1.2710    -1.2670     1.4850 H     1 <1>   0.1500 
 30 H        2.3950    -3.4710     1.3820 H     1 <1>   0.1500 
 31 H        1.3920    -5.2880     0.0830 H     1 <1>   0.1500 
 32 H       -2.4480    -4.3940    -2.6390 H     1 <1>   0.1500 
 33 H       -2.7950    -6.8940    -3.3960 H     1 <1>   0.1500 
 34 H        0.1480    -8.9440    -1.8570 H     1 <1>   0.0800 
 35 H       -1.2540    -9.1950    -2.8770 H     1 <1>   0.0800 
 36 H       -2.6540    -9.2690    -1.0700 H     1 <1>   0.4500 
 37 H       -1.6120   -11.2660    -1.8480 H     1 <1>   0.0800 
 38 H       -0.6310   -11.2060    -0.3970 H     1 <1>   0.0800 
 39 H       -0.3780    -8.5320     0.6330 H     1 <1>   0.0800 
 40 H       -2.0010    -7.9010     0.5870 H     1 <1>   0.0800 
 41 H       -2.0620    -9.1860     2.5180 H     1 <1>   0.0800 
 42 H       -0.9780   -10.3900     1.8870 H     1 <1>   0.0800 
 43 H       -3.8500    -9.9690     1.0670 H     1 <1>   0.0800 
 44 H       -3.2800   -13.4270     0.7290 H     1 <1>   0.0800 
 45 H       -2.4420   -13.4840    -0.7700 H     1 <1>   0.0800 
 46 H       -4.1250   -11.9600     2.0890 H     1 <1>   0.4000 
 47 H       -1.1230   -12.8390     1.9100 H     1 <1>   0.1000 
 48 H        0.1820   -13.4820    -0.8630 H     1 <1>   0.1000 
 49 H        1.0580   -13.1540     0.6650 H     1 <1>   0.1000 
 50 H       -0.1490   -15.0950     1.7460 H     1 <1>   0.1000 
 51 H       -1.0340   -15.3950     0.2200 H     1 <1>   0.1000 
@<TRIPOS>BOND
  1   1   2  1   
  2   2   3  ar  
  3   2   4  ar  
  4   3   5  ar  
  5   3  28  1   
  6   4   6  ar  
  7   4  29  1   
  8   5   7  1   
  9   5   8  ar  
 10   6   8  ar  
 11   6  30  1   
 12   7   9  1   
 13   7  10  2   
 14   8  31  1   
 15   9  11  1   
 16  10  12  1   
 17  10  32  1   
 18  11  12  2   
 19  11  13  1   
 20  12  33  1   
 21  13  14  1   
 22  13  34  1   
 23  13  35  1   
 24  14  15  1   
 25  14  16  1   
 26  14  36  1   
 27  15  17  1   
 28  15  37  1   
 29  15  38  1   
 30  16  18  1   
 31  16  39  1   
 32  16  40  1   
 33  17  19  1   
 34  17  20  1   
 35  17  21  1   
 36  18  20  1   
 37  18  41  1   
 38  18  42  1   
 39  19  22  ar  
 40  19  23  ar  
 41  20  24  1   
 42  20  43  1   
 43  21  25  1   
 44  21  44  1   
 45  21  45  1   
 46  24  46  1   
 47  25  26  1   
 48  25  27  1   
 49  25  47  1   
 50  26  27  1   
 51  26  48  1   
 52  26  49  1   
 53  27  50  1   
 54  27  51  1   
@<TRIPOS>SUBSTRUCTURE
  1 ****  16 GROUP 4 **** **** 0

# MOE 2024.06 (io_trps.svl 2023.06)
