@<TRIPOS>MOLECULE
NONAME
50 51 1 0 0 
SMALL
USER_CHARGES


@<TRIPOS>ATOM
  1 CL      -0.9430     1.1330     1.7700 Cl    1 <1>  -0.1770 
  2 C       -0.3960     2.7150     1.2770 C.ar  1 <1>   0.1770 
  3 C       -0.2720     3.0000    -0.0700 C.ar  1 <1>  -0.1500 
  4 C       -0.0950     3.6600     2.2400 C.ar  1 <1>  -0.1500 
  5 C        0.1620     4.2570    -0.4580 C.ar  1 <1>  -0.1500 
  6 C        0.3380     4.9150     1.8450 C.ar  1 <1>  -0.1500 
  7 C        0.4680     5.2180     0.4970 C.ar  1 <1>  -0.1430 
  8 C        0.9470     6.5930     0.0580 C.3   1 <1>  -0.0160 
  9 C        2.4450     6.5650    -0.2400 C.3   1 <1>   0.1400 
 10 N        2.8970     7.9080    -0.6660 N.am  1 <1>  -0.7300 
 11 C        3.1230     8.3080    -1.9440 C.2   1 <1>   0.5690 
 12 O        2.9430     7.5770    -2.8890 O.2   1 <1>  -0.5700 
 13 C        3.6090     9.7430    -2.1770 C.3   1 <1>   0.1710 
 14 N        4.2860    10.3680    -1.0010 N.3   1 <1>  -0.8100 
 15 C        4.3890    11.8330    -1.1900 C.3   1 <1>   0.1100 
 16 C        5.6220     9.7820    -0.7950 C.3   1 <1>   0.1100 
 17 C        5.0090    12.5150     0.0390 C.3   1 <1>   0.2000 
 18 C        6.2630    10.3700     0.4660 C.3   1 <1>  -0.1600 
 19 O        5.1760    13.8660    -0.2660 O.3   1 <1>  -0.5600 
 20 C        6.3730    11.9000     0.3800 C.3   1 <1>  -0.1600 
 21 C        5.2130    14.7220     0.8300 C.3   1 <1>   0.1200 
 22 C        5.3710    16.1470     0.3030 C.3   1 <1>  -0.1600 
 23 C        5.4170    17.1650     1.4470 C.3   1 <1>  -0.2400 
 24 H       -0.5120     2.2490    -0.8000 H     1 <1>   0.1500 
 25 H       -0.2010     3.4130     3.2800 H     1 <1>   0.1500 
 26 H        0.2620     4.4850    -1.5060 H     1 <1>   0.1500 
 27 H        0.5730     5.6520     2.5930 H     1 <1>   0.1500 
 28 H        0.7450     7.3130     0.8310 H     1 <1>   0.0800 
 29 H        0.4150     6.8910    -0.8280 H     1 <1>   0.0800 
 30 H        2.6420     5.8540    -1.0250 H     1 <1>   0.0800 
 31 H        2.9930     6.2630     0.6350 H     1 <1>   0.0800 
 32 H        3.1200     8.5990     0.0590 H     1 <1>   0.3700 
 33 H        2.7420    10.3230    -2.4340 H     1 <1>   0.0800 
 34 H        4.2700     9.7490    -3.0260 H     1 <1>   0.0800 
 35 H        3.4070    12.2440    -1.3460 H     1 <1>   0.0800 
 36 H        4.9970    12.0450    -2.0530 H     1 <1>   0.0800 
 37 H        6.2480     9.9830    -1.6500 H     1 <1>   0.0800 
 38 H        5.5420     8.7130    -0.6820 H     1 <1>   0.0800 
 39 H        4.3240    12.4190     0.8650 H     1 <1>   0.0800 
 40 H        7.2430     9.9460     0.5970 H     1 <1>   0.0800 
 41 H        5.6690    10.0940     1.3190 H     1 <1>   0.0800 
 42 H        6.7320    12.2830     1.3180 H     1 <1>   0.0800 
 43 H        7.0760    12.1590    -0.3930 H     1 <1>   0.0800 
 44 H        6.0470    14.4580     1.4560 H     1 <1>   0.0800 
 45 H        4.2920    14.6230     1.3800 H     1 <1>   0.0800 
 46 H        4.5430    16.3770    -0.3440 H     1 <1>   0.0800 
 47 H        6.2810    16.2120    -0.2680 H     1 <1>   0.0800 
 48 H        4.5080    17.1280     2.0220 H     1 <1>   0.0800 
 49 H        5.5290    18.1580     1.0490 H     1 <1>   0.0800 
 50 H        6.2490    16.9620     2.0980 H     1 <1>   0.0800 
@<TRIPOS>BOND
  1   1   2  1   
  2   2   3  ar  
  3   2   4  ar  
  4   3   5  ar  
  5   3  24  1   
  6   4   6  ar  
  7   4  25  1   
  8   5   7  ar  
  9   5  26  1   
 10   6   7  ar  
 11   6  27  1   
 12   7   8  1   
 13   8   9  1   
 14   8  28  1   
 15   8  29  1   
 16   9  10  1   
 17   9  30  1   
 18   9  31  1   
 19  10  11  am  
 20  10  32  1   
 21  11  12  2   
 22  11  13  1   
 23  13  14  1   
 24  13  33  1   
 25  13  34  1   
 26  14  15  1   
 27  14  16  1   
 28  15  17  1   
 29  15  35  1   
 30  15  36  1   
 31  16  18  1   
 32  16  37  1   
 33  16  38  1   
 34  17  19  1   
 35  17  20  1   
 36  17  39  1   
 37  18  20  1   
 38  18  40  1   
 39  18  41  1   
 40  19  21  1   
 41  20  42  1   
 42  20  43  1   
 43  21  22  1   
 44  21  44  1   
 45  21  45  1   
 46  22  23  1   
 47  22  46  1   
 48  22  47  1   
 49  23  48  1   
 50  23  49  1   
 51  23  50  1   
@<TRIPOS>SUBSTRUCTURE
  1 ****  10 GROUP 4 **** **** 0

# MOE 2024.06 (io_trps.svl 2023.06)
