@<TRIPOS>MOLECULE
NONAME
55 59 1 0 0 
SMALL
USER_CHARGES


@<TRIPOS>ATOM
  1 S        0.7570     0.0700     1.6320 S.3   1 <1>  -0.0800 
  2 C       -0.1870    -1.3400     1.1560 C.ar  1 <1>   0.2970 
  3 C        2.0810    -0.4200     0.5800 C.2   1 <1>  -0.1400 
  4 N       -1.3960    -1.5730     1.6260 N.ar  1 <1>  -0.5670 
  5 C        0.5010    -2.1140     0.2500 C.ar  1 <1>   0.0000 
  6 C        1.8080    -1.5720    -0.0530 C.2   1 <1>  -0.1810 
  7 C        3.3250     0.4340     0.4850 C.3   1 <1>   0.0200 
  8 C       -1.9280    -2.6730     1.1370 C.ar  1 <1>   0.4770 
  9 C       -0.2030    -3.2380    -0.1880 C.ar  1 <1>   0.4100 
 10 C        2.8200    -2.1990    -1.0020 C.3   1 <1>   0.0210 
 11 C        4.1520    -0.0210    -0.7300 C.3   1 <1>  -0.1600 
 12 N       -1.4120    -3.5190     0.2510 N.ar  1 <1>  -0.6200 
 13 C       -3.3470    -2.9980     1.6060 C.3   1 <1>   0.4870 
 14 N        0.2780    -4.1240    -1.0930 N.pl3 1 <1>  -0.9000 
 15 C        4.2150    -1.5580    -0.8390 C.3   1 <1>  -0.1600 
 16 N       -4.3010    -3.1250     0.4490 N.4   1 <1>  -0.9590 
 17 C       -5.6070    -3.7200     0.8680 C.3   1 <1>   0.3430 
 18 C       -4.4720    -1.8220    -0.2540 C.3   1 <1>   0.3430 
 19 C       -6.5380    -3.9570    -0.3410 C.3   1 <1>   0.0000 
 20 C       -5.3550    -2.0130    -1.4890 C.3   1 <1>  -0.1600 
 21 C       -7.8900    -4.5110     0.1430 C.3   1 <1>   0.2000 
 22 C       -6.7110    -2.6430    -1.1320 C.3   1 <1>  -0.1600 
 23 C       -6.0090    -5.1050    -1.2170 C.3   1 <1>  -0.1600 
 24 O       -8.2310    -3.9820     1.3750 O.3   1 <1>  -0.6800 
 25 C       -7.7300    -6.0300     0.2520 C.3   1 <1>  -0.1600 
 26 C       -6.4390    -6.3850    -0.4980 C.3   1 <1>  -0.1600 
 27 H        3.0580     1.4710     0.3790 H     1 <1>   0.0800 
 28 H        3.8980     0.3190     1.3890 H     1 <1>   0.0800 
 29 H        2.9060    -3.2520    -0.8040 H     1 <1>   0.0800 
 30 H        2.4760    -2.0650    -2.0120 H     1 <1>   0.0800 
 31 H        3.6990     0.3710    -1.6250 H     1 <1>   0.0800 
 32 H        5.1460     0.3840    -0.6590 H     1 <1>   0.0800 
 33 H       -3.6790    -2.2240     2.2770 H     1 <1>   0.0800 
 34 H       -3.3100    -3.9260     2.1500 H     1 <1>   0.0800 
 35 H       -0.2210    -5.0030    -1.2360 H     1 <1>   0.4000 
 36 H        1.2580    -4.1230    -1.3730 H     1 <1>   0.4000 
 37 H        4.6720    -1.9460     0.0550 H     1 <1>   0.0800 
 38 H        4.8350    -1.8390    -1.6720 H     1 <1>   0.0800 
 39 H       -3.8410    -3.7660    -0.2150 H     1 <1>   0.4500 
 40 H       -5.4460    -4.6560     1.3760 H     1 <1>   0.0800 
 41 H       -6.0980    -3.0500     1.5560 H     1 <1>   0.0800 
 42 H       -4.9340    -1.1080     0.4100 H     1 <1>   0.0800 
 43 H       -3.5120    -1.4320    -0.5560 H     1 <1>   0.0800 
 44 H       -5.5210    -1.0540    -1.9480 H     1 <1>   0.0800 
 45 H       -4.8370    -2.6240    -2.2070 H     1 <1>   0.0800 
 46 H       -8.6700    -4.2730    -0.5630 H     1 <1>   0.0800 
 47 H       -7.2780    -2.8180    -2.0310 H     1 <1>   0.0800 
 48 H       -7.2720    -1.9460    -0.5300 H     1 <1>   0.0800 
 49 H       -6.4940    -5.0780    -2.1790 H     1 <1>   0.0800 
 50 H       -4.9460    -5.0770    -1.3780 H     1 <1>   0.0800 
 51 H       -9.1150    -4.3070     1.6470 H     1 <1>   0.4000 
 52 H       -7.6610    -6.3550     1.2760 H     1 <1>   0.0800 
 53 H       -8.5700    -6.5150    -0.2160 H     1 <1>   0.0800 
 54 H       -5.6820    -6.6840     0.2080 H     1 <1>   0.0800 
 55 H       -6.5940    -7.1930    -1.1940 H     1 <1>   0.0800 
@<TRIPOS>BOND
  1   1   2  1   
  2   1   3  1   
  3   2   4  ar  
  4   2   5  ar  
  5   3   6  2   
  6   3   7  1   
  7   4   8  ar  
  8   5   6  1   
  9   5   9  ar  
 10   6  10  1   
 11   7  11  1   
 12   7  27  1   
 13   7  28  1   
 14   8  12  ar  
 15   8  13  1   
 16   9  12  ar  
 17   9  14  1   
 18  10  15  1   
 19  10  29  1   
 20  10  30  1   
 21  11  15  1   
 22  11  31  1   
 23  11  32  1   
 24  13  16  1   
 25  13  33  1   
 26  13  34  1   
 27  14  35  1   
 28  14  36  1   
 29  15  37  1   
 30  15  38  1   
 31  16  17  1   
 32  16  18  1   
 33  16  39  1   
 34  17  19  1   
 35  17  40  1   
 36  17  41  1   
 37  18  20  1   
 38  18  42  1   
 39  18  43  1   
 40  19  21  1   
 41  19  22  1   
 42  19  23  1   
 43  20  22  1   
 44  20  44  1   
 45  20  45  1   
 46  21  24  1   
 47  21  25  1   
 48  21  46  1   
 49  22  47  1   
 50  22  48  1   
 51  23  26  1   
 52  23  49  1   
 53  23  50  1   
 54  24  51  1   
 55  25  26  1   
 56  25  52  1   
 57  25  53  1   
 58  26  54  1   
 59  26  55  1   
@<TRIPOS>SUBSTRUCTURE
  1 ****   8 GROUP 4 **** **** 0

# MOE 2024.06 (io_trps.svl 2023.06)
