@<TRIPOS>MOLECULE
NONAME
46 50 1 0 0 
SMALL
USER_CHARGES


@<TRIPOS>ATOM
  1 S       -0.3180     0.6930    -1.6280 S.3   1 <1>  -0.0800 
  2 C       -1.7450     1.0050    -0.6410 C.2   1 <1>   0.4620 
  3 C        0.6200     1.7100    -0.5740 C.2   1 <1>  -0.1100 
  4 N       -1.5060     1.7800     0.3570 N.2   1 <1>  -0.5650 
  5 N       -2.9560     0.4300    -0.9700 N.pl3 1 <1>  -0.8220 
  6 C       -0.1810     2.1780     0.3960 C.2   1 <1>   0.0460 
  7 C       -3.1650    -0.5630    -2.0570 C.3   1 <1>   0.2090 
  8 C       -4.1660     0.6700    -0.1440 C.3   1 <1>   0.2090 
  9 C        0.2210     3.1070     1.5340 C.3   1 <1>   0.3010 
 10 C       -3.5430    -1.8980    -1.4200 C.3   1 <1>  -0.1600 
 11 C       -4.5620    -0.6440     0.5240 C.3   1 <1>  -0.1600 
 12 O        1.6010     3.1110     1.6920 O.3   1 <1>  -0.6800 
 13 C       -4.7700    -1.7570    -0.5130 C.3   1 <1>   0.4600 
 14 O       -5.8460    -1.4090    -1.3590 O.3   1 <1>  -0.5600 
 15 C       -5.0740    -3.0860     0.1670 C.2   1 <1>  -0.3320 
 16 C       -7.1550    -1.6580    -0.9050 C.3   1 <1>   0.1200 
 17 N       -4.2200    -3.8100     0.9530 N.pl3 1 <1>   0.0330 
 18 C       -6.2530    -3.7330     0.0790 C.2   1 <1>  -0.1810 
 19 C       -7.4010    -3.1640    -0.7160 C.3   1 <1>   0.0210 
 20 C       -4.8790    -4.9450     1.3620 C.ar  1 <1>  -0.1520 
 21 C       -6.1630    -4.9270     0.8240 C.ar  1 <1>   0.0000 
 22 C       -4.4540    -6.0030     2.1680 C.ar  1 <1>  -0.1500 
 23 C       -7.0400    -5.9830     1.0930 C.ar  1 <1>  -0.1500 
 24 C       -5.3280    -7.0350     2.4250 C.ar  1 <1>  -0.1500 
 25 C       -6.6210    -7.0250     1.8870 C.ar  1 <1>  -0.1500 
 26 H        1.6620     1.8500    -0.7960 H     1 <1>   0.1500 
 27 H       -2.2850    -0.6850    -2.6610 H     1 <1>   0.0800 
 28 H       -3.9610    -0.2230    -2.6980 H     1 <1>   0.0800 
 29 H       -4.9640     1.0220    -0.7760 H     1 <1>   0.0800 
 30 H       -3.9780     1.4200     0.6050 H     1 <1>   0.0800 
 31 H       -0.2200     2.7730     2.4570 H     1 <1>   0.0800 
 32 H       -0.1040     4.1120     1.3290 H     1 <1>   0.0800 
 33 H       -2.7050    -2.2500    -0.8490 H     1 <1>   0.0800 
 34 H       -3.7510    -2.6250    -2.1830 H     1 <1>   0.0800 
 35 H       -5.4500    -0.5100     1.1110 H     1 <1>   0.0800 
 36 H       -3.7750    -0.9270     1.1970 H     1 <1>   0.0800 
 37 H        1.9080     2.1990     1.8540 H     1 <1>   0.4000 
 38 H       -7.8370    -1.2590    -1.6350 H     1 <1>   0.0800 
 39 H       -7.3010    -1.1360     0.0240 H     1 <1>   0.0800 
 40 H       -3.2570    -3.5650     1.1980 H     1 <1>   0.2700 
 41 H       -7.4580    -3.6510    -1.6720 H     1 <1>   0.0800 
 42 H       -8.3270    -3.3170    -0.1930 H     1 <1>   0.0800 
 43 H       -3.4600    -6.0030     2.5770 H     1 <1>   0.1500 
 44 H       -8.0280    -5.9620     0.6720 H     1 <1>   0.1500 
 45 H       -5.0250    -7.8620     3.0430 H     1 <1>   0.1500 
 46 H       -7.2840    -7.8440     2.1020 H     1 <1>   0.1500 
@<TRIPOS>BOND
  1   1   2  1   
  2   1   3  1   
  3   2   4  2   
  4   2   5  1   
  5   3   6  2   
  6   3  26  1   
  7   4   6  1   
  8   5   7  1   
  9   5   8  1   
 10   6   9  1   
 11   7  10  1   
 12   7  27  1   
 13   7  28  1   
 14   8  11  1   
 15   8  29  1   
 16   8  30  1   
 17   9  12  1   
 18   9  31  1   
 19   9  32  1   
 20  10  13  1   
 21  10  33  1   
 22  10  34  1   
 23  11  13  1   
 24  11  35  1   
 25  11  36  1   
 26  12  37  1   
 27  13  14  1   
 28  13  15  1   
 29  14  16  1   
 30  15  17  1   
 31  15  18  2   
 32  16  19  1   
 33  16  38  1   
 34  16  39  1   
 35  17  20  1   
 36  17  40  1   
 37  18  19  1   
 38  18  21  1   
 39  19  41  1   
 40  19  42  1   
 41  20  21  ar  
 42  20  22  ar  
 43  21  23  ar  
 44  22  24  ar  
 45  22  43  1   
 46  23  25  ar  
 47  23  44  1   
 48  24  25  ar  
 49  24  45  1   
 50  25  46  1   
@<TRIPOS>SUBSTRUCTURE
  1 ****  13 GROUP 4 **** **** 0

# MOE 2024.06 (io_trps.svl 2023.06)
