@<TRIPOS>MOLECULE
NONAME
49 51 1 0 0 
SMALL
USER_CHARGES


@<TRIPOS>ATOM
  1 S       -0.8230    -0.3690    -1.5830 S.3   1 <1>  -0.3320 
  2 C       -0.6230    -1.9150    -0.6770 C.ar  1 <1>   0.1020 
  3 C        0.7360     0.5930    -1.3450 C.3   1 <1>  -0.0100 
  4 C       -1.6740    -2.8100    -0.7260 C.ar  1 <1>  -0.1500 
  5 C        0.5270    -2.2030     0.0410 C.ar  1 <1>  -0.1500 
  6 C       -1.5990    -4.0230    -0.0540 C.ar  1 <1>   0.1170 
  7 C        0.6110    -3.4090     0.7170 C.ar  1 <1>  -0.1500 
  8 N       -2.6940    -4.8960    -0.1200 N.am  1 <1>  -0.5470 
  9 C       -0.4430    -4.3060     0.6700 C.ar  1 <1>  -0.1500 
 10 C       -2.8120    -6.2370     0.1040 C.2   1 <1>   0.6900 
 11 O       -1.8420    -6.9400     0.3180 O.2   1 <1>  -0.5700 
 12 N       -4.0610    -6.7910     0.0610 N.am  1 <1>  -0.6600 
 13 C       -5.3430    -6.0560     0.1170 C.3   1 <1>   0.1400 
 14 C       -4.2810    -8.2470     0.1850 C.3   1 <1>   0.1400 
 15 C       -6.3690    -7.0750     0.6360 C.3   1 <1>  -0.0800 
 16 C       -5.7990    -8.4400     0.2080 C.3   1 <1>  -0.0800 
 17 C       -7.8550    -6.8230     0.2310 C.3   1 <1>   0.2800 
 18 C       -6.3600    -8.8630    -1.1590 C.3   1 <1>  -0.1600 
 19 O       -7.9170    -6.1080    -0.9500 O.3   1 <1>  -0.6800 
 20 C       -8.5690    -8.1620    -0.0310 C.3   1 <1>  -0.1600 
 21 C       -8.6320    -6.0100     1.2900 C.3   1 <1>  -0.1600 
 22 C       -7.8910    -9.0210    -1.1210 C.3   1 <1>  -0.1600 
 23 C       -8.0790    -4.6060     1.5900 C.3   1 <1>  -0.2400 
 24 H        0.6330     1.5160    -1.8860 H     1 <1>   0.0800 
 25 H        1.5490     0.0100    -1.7370 H     1 <1>   0.0800 
 26 H        0.8540     0.7790    -0.2920 H     1 <1>   0.0800 
 27 H       -2.5490    -2.5570    -1.2940 H     1 <1>   0.1500 
 28 H        1.3490    -1.5170     0.0860 H     1 <1>   0.1500 
 29 H        1.4950    -3.6520     1.2800 H     1 <1>   0.1500 
 30 H       -3.5470    -4.4990    -0.4970 H     1 <1>   0.3700 
 31 H       -0.3620    -5.2350     1.2050 H     1 <1>   0.1500 
 32 H       -5.2740    -5.2060     0.7720 H     1 <1>   0.0800 
 33 H       -5.5780    -5.7270    -0.8790 H     1 <1>   0.0800 
 34 H       -3.8170    -8.7670    -0.6360 H     1 <1>   0.0800 
 35 H       -3.8440    -8.5860     1.1090 H     1 <1>   0.0800 
 36 H       -6.3120    -7.0570     1.7090 H     1 <1>   0.0800 
 37 H       -6.0480    -9.2000     0.9280 H     1 <1>   0.0800 
 38 H       -6.1050    -8.1090    -1.8850 H     1 <1>   0.0800 
 39 H       -5.9100    -9.7870    -1.4800 H     1 <1>   0.0800 
 40 H       -8.8450    -6.0530    -1.2420 H     1 <1>   0.4000 
 41 H       -8.5660    -8.7230     0.8870 H     1 <1>   0.0800 
 42 H       -9.6000    -7.9980    -0.2900 H     1 <1>   0.0800 
 43 H       -9.6560    -5.9120     0.9720 H     1 <1>   0.0800 
 44 H       -8.6480    -6.5680     2.2100 H     1 <1>   0.0800 
 45 H       -8.1420   -10.0540    -0.9490 H     1 <1>   0.0800 
 46 H       -8.2840    -8.7510    -2.0860 H     1 <1>   0.0800 
 47 H       -8.0000    -4.0250     0.6880 H     1 <1>   0.0800 
 48 H       -7.1100    -4.6650     2.0520 H     1 <1>   0.0800 
 49 H       -8.7390    -4.0910     2.2660 H     1 <1>   0.0800 
@<TRIPOS>BOND
  1   1   2  1   
  2   1   3  1   
  3   2   4  ar  
  4   2   5  ar  
  5   3  24  1   
  6   3  25  1   
  7   3  26  1   
  8   4   6  ar  
  9   4  27  1   
 10   5   7  ar  
 11   5  28  1   
 12   6   8  1   
 13   6   9  ar  
 14   7   9  ar  
 15   7  29  1   
 16   8  10  am  
 17   8  30  1   
 18   9  31  1   
 19  10  11  2   
 20  10  12  am  
 21  12  13  1   
 22  12  14  1   
 23  13  15  1   
 24  13  32  1   
 25  13  33  1   
 26  14  16  1   
 27  14  34  1   
 28  14  35  1   
 29  15  16  1   
 30  15  17  1   
 31  15  36  1   
 32  16  18  1   
 33  16  37  1   
 34  17  19  1   
 35  17  20  1   
 36  17  21  1   
 37  18  22  1   
 38  18  38  1   
 39  18  39  1   
 40  19  40  1   
 41  20  22  1   
 42  20  41  1   
 43  20  42  1   
 44  21  23  1   
 45  21  43  1   
 46  21  44  1   
 47  22  45  1   
 48  22  46  1   
 49  23  47  1   
 50  23  48  1   
 51  23  49  1   
@<TRIPOS>SUBSTRUCTURE
  1 ****   8 GROUP 4 **** **** 0

# MOE 2024.06 (io_trps.svl 2023.06)
