@<TRIPOS>MOLECULE
NONAME
49 51 1 0 0 
SMALL
USER_CHARGES


@<TRIPOS>ATOM
  1 O       -0.6310     0.1420    -0.7810 O.2   1 <1>  -0.5700 
  2 C       -1.4100     0.7910    -0.1120 C.2   1 <1>   0.5440 
  3 N       -2.5160     0.1620     0.4150 N.am  1 <1>  -0.6600 
  4 C       -1.1650     2.2010     0.1010 C.ar  1 <1>   0.0860 
  5 C       -2.6350    -1.3310     0.4360 C.3   1 <1>   0.1400 
  6 C       -3.8300     0.8440     0.6310 C.3   1 <1>   0.1400 
  7 C       -1.3200     2.7690     1.3650 C.ar  1 <1>   0.1600 
  8 C       -0.7670     3.0420    -0.9280 C.ar  1 <1>  -0.1500 
  9 C       -3.7700    -1.8050    -0.4880 C.3   1 <1>   0.3440 
 10 C       -4.9140     0.2590    -0.3070 C.3   1 <1>   0.2000 
 11 N       -1.1500     4.0470     1.6730 N.ar  1 <1>  -0.6200 
 12 C       -0.5740     4.3740    -0.6350 C.ar  1 <1>   0.0830 
 13 O       -4.9600    -1.1370    -0.1590 O.3   1 <1>  -0.5600 
 14 C       -3.9740    -3.3110    -0.3570 C.ar  1 <1>  -0.1430 
 15 C       -6.3440     0.8440    -0.0920 C.3   1 <1>   0.0000 
 16 C       -0.7790     4.8220     0.6660 C.ar  1 <1>   0.1600 
 17 O       -0.1900     5.2070    -1.6210 O.3   1 <1>  -0.5320 
 18 C       -3.2660    -4.1710    -1.1860 C.ar  1 <1>  -0.1500 
 19 C       -4.8420    -3.8480     0.5850 C.ar  1 <1>  -0.1500 
 20 C       -6.3480     2.3720    -0.2840 C.3   1 <1>  -0.2400 
 21 C       -6.8980     0.5270     1.3100 C.3   1 <1>  -0.2400 
 22 C       -7.3050     0.2430    -1.1350 C.3   1 <1>  -0.2400 
 23 C       -3.4220    -5.5420    -1.0760 C.ar  1 <1>  -0.1500 
 24 C       -5.0000    -5.2190     0.6960 C.ar  1 <1>  -0.1500 
 25 C       -4.2890    -6.0670    -0.1340 C.ar  1 <1>  -0.1500 
 26 H       -1.7140    -1.7940     0.1290 H     1 <1>   0.0800 
 27 H       -2.8430    -1.6570     1.4390 H     1 <1>   0.0800 
 28 H       -4.1260     0.7120     1.6560 H     1 <1>   0.0800 
 29 H       -3.7350     1.8970     0.4430 H     1 <1>   0.0800 
 30 H       -1.6040     2.1150     2.1730 H     1 <1>   0.1500 
 31 H       -0.6100     2.6650    -1.9240 H     1 <1>   0.1500 
 32 H       -3.5270    -1.5670    -1.5090 H     1 <1>   0.0800 
 33 H       -4.6240     0.4650    -1.3230 H     1 <1>   0.0800 
 34 H       -0.6290     5.8640     0.8870 H     1 <1>   0.1500 
 35 H       -0.0340     6.1270    -1.3380 H     1 <1>   0.4500 
 36 H       -2.5870    -3.7770    -1.9220 H     1 <1>   0.1500 
 37 H       -5.4020    -3.1960     1.2330 H     1 <1>   0.1500 
 38 H       -7.3530     2.7530    -0.2360 H     1 <1>   0.0800 
 39 H       -5.9360     2.6340    -1.2430 H     1 <1>   0.0800 
 40 H       -5.7770     2.8650     0.4820 H     1 <1>   0.0800 
 41 H       -7.9080     0.8850     1.4050 H     1 <1>   0.0800 
 42 H       -6.3080     0.9920     2.0790 H     1 <1>   0.0800 
 43 H       -6.9030    -0.5350     1.4800 H     1 <1>   0.0800 
 44 H       -8.2930     0.6540    -1.0290 H     1 <1>   0.0800 
 45 H       -7.3730    -0.8250    -1.0150 H     1 <1>   0.0800 
 46 H       -6.9570     0.4460    -2.1320 H     1 <1>   0.0800 
 47 H       -2.8690    -6.2000    -1.7230 H     1 <1>   0.1500 
 48 H       -5.6770    -5.6230     1.4280 H     1 <1>   0.1500 
 49 H       -4.4120    -7.1320    -0.0480 H     1 <1>   0.1500 
@<TRIPOS>BOND
  1   1   2  2   
  2   2   3  am  
  3   2   4  1   
  4   3   5  1   
  5   3   6  1   
  6   4   7  ar  
  7   4   8  ar  
  8   5   9  1   
  9   5  26  1   
 10   5  27  1   
 11   6  10  1   
 12   6  28  1   
 13   6  29  1   
 14   7  11  ar  
 15   7  30  1   
 16   8  12  ar  
 17   8  31  1   
 18   9  13  1   
 19   9  14  1   
 20   9  32  1   
 21  10  13  1   
 22  10  15  1   
 23  10  33  1   
 24  11  16  ar  
 25  12  16  ar  
 26  12  17  1   
 27  14  18  ar  
 28  14  19  ar  
 29  15  20  1   
 30  15  21  1   
 31  15  22  1   
 32  16  34  1   
 33  17  35  1   
 34  18  23  ar  
 35  18  36  1   
 36  19  24  ar  
 37  19  37  1   
 38  20  38  1   
 39  20  39  1   
 40  20  40  1   
 41  21  41  1   
 42  21  42  1   
 43  21  43  1   
 44  22  44  1   
 45  22  45  1   
 46  22  46  1   
 47  23  25  ar  
 48  23  47  1   
 49  24  25  ar  
 50  24  48  1   
 51  25  49  1   
@<TRIPOS>SUBSTRUCTURE
  1 ****   3 GROUP 4 **** **** 0

# MOE 2024.06 (io_trps.svl 2023.06)
