@<TRIPOS>MOLECULE
NONAME
42 45 1 0 0 
SMALL
USER_CHARGES


@<TRIPOS>ATOM
  1 O       -0.4720     0.4790     0.0850 O.2   1 <1>  -0.5700 
  2 C       -1.5370     1.0740     0.0300 C.2   1 <1>   0.7160 
  3 N       -2.6790     0.3010    -0.0880 N.am  1 <1>  -0.6600 
  4 C       -1.5390     2.5400     0.0880 C.2   1 <1>   0.2030 
  5 C       -4.0690     0.8020    -0.2300 C.3   1 <1>   0.1400 
  6 C       -2.6560    -1.1820    -0.0690 C.3   1 <1>   0.1400 
  7 N       -2.5920     3.3530     0.0490 N.2   1 <1>  -0.7070 
  8 C       -0.3600     3.2810     0.2000 C.2   1 <1>  -0.1500 
  9 C       -4.9180    -0.4480    -0.4630 C.3   1 <1>   0.2000 
 10 C       -4.1120    -1.6020     0.1280 C.3   1 <1>  -0.0800 
 11 N       -2.0850     4.5930     0.1350 N.pl3 1 <1>   0.6010 
 12 C       -0.7170     4.5850     0.2290 C.2   1 <1>  -0.0260 
 13 O       -6.1510    -0.3570     0.1630 O.3   1 <1>  -0.6800 
 14 C       -4.4520    -2.9620    -0.5000 C.3   1 <1>   0.0210 
 15 C       -2.7560     5.8000     0.1390 C.2   1 <1>  -0.1810 
 16 N        0.0460     5.7320     0.3290 N.2   1 <1>  -0.5760 
 17 C       -3.5380    -4.0520     0.0270 C.2   1 <1>   0.1080 
 18 C       -2.0190     6.9380     0.2370 C.2   1 <1>  -0.1360 
 19 C       -0.6000     6.8520     0.3310 C.2   1 <1>   0.3760 
 20 N       -3.4870    -4.3830     1.2800 N.2   1 <1>  -0.7070 
 21 C       -2.6590    -4.7980    -0.7500 C.2   1 <1>  -0.1500 
 22 N       -2.5650    -5.3620     1.3360 N.pl3 1 <1>   0.3000 
 23 C       -2.0480    -5.6310     0.1180 C.2   1 <1>  -0.3320 
 24 C       -0.9850    -6.6820    -0.1430 C.3   1 <1>  -0.0600 
 25 H       -4.3590     1.3040     0.6770 H     1 <1>   0.0800 
 26 H       -4.1440     1.4740    -1.0670 H     1 <1>   0.0800 
 27 H       -2.2730    -1.5370    -1.0100 H     1 <1>   0.0800 
 28 H       -2.0320    -1.5500     0.7300 H     1 <1>   0.0800 
 29 H        0.6360     2.8800     0.2520 H     1 <1>   0.1500 
 30 H       -5.0820    -0.5820    -1.5180 H     1 <1>   0.0800 
 31 H       -4.2810    -1.6550     1.1900 H     1 <1>   0.0800 
 32 H       -6.0340    -0.3250     1.1320 H     1 <1>   0.4000 
 33 H       -4.3610    -2.9100    -1.5690 H     1 <1>   0.0800 
 34 H       -5.4690    -3.2220    -0.2630 H     1 <1>   0.0800 
 35 H       -3.8250     5.7530     0.0630 H     1 <1>   0.1500 
 36 H       -2.4660     7.9150     0.2470 H     1 <1>   0.1500 
 37 H       -0.0500     7.7730     0.4080 H     1 <1>   0.0600 
 38 H       -2.5170    -4.7090    -1.8120 H     1 <1>   0.1500 
 39 H       -2.3130    -5.8260     2.2170 H     1 <1>   0.2700 
 40 H       -0.7380    -6.7050    -1.1900 H     1 <1>   0.0800 
 41 H       -1.3430    -7.6540     0.1450 H     1 <1>   0.0800 
 42 H       -0.0930    -6.4560     0.4130 H     1 <1>   0.0800 
@<TRIPOS>BOND
  1   1   2  2   
  2   2   3  am  
  3   2   4  1   
  4   3   5  1   
  5   3   6  1   
  6   4   7  2   
  7   4   8  1   
  8   5   9  1   
  9   5  25  1   
 10   5  26  1   
 11   6  10  1   
 12   6  27  1   
 13   6  28  1   
 14   7  11  1   
 15   8  12  2   
 16   8  29  1   
 17   9  10  1   
 18   9  13  1   
 19   9  30  1   
 20  10  14  1   
 21  10  31  1   
 22  11  12  1   
 23  11  15  1   
 24  12  16  1   
 25  13  32  1   
 26  14  17  1   
 27  14  33  1   
 28  14  34  1   
 29  15  18  2   
 30  15  35  1   
 31  16  19  2   
 32  17  20  2   
 33  17  21  1   
 34  18  19  1   
 35  18  36  1   
 36  19  37  1   
 37  20  22  1   
 38  21  23  2   
 39  21  38  1   
 40  22  23  1   
 41  22  39  1   
 42  23  24  1   
 43  24  40  1   
 44  24  41  1   
 45  24  42  1   
@<TRIPOS>SUBSTRUCTURE
  1 ****   3 GROUP 4 **** **** 0

# MOE 2024.06 (io_trps.svl 2023.06)
