@<TRIPOS>MOLECULE
NONAME
49 52 1 0 0 
SMALL
USER_CHARGES


@<TRIPOS>ATOM
  1 O        0.8540    -0.3230    -3.5460 O.2   1 <1>  -0.5700 
  2 C        1.0430    -0.9170    -2.5110 C.2   1 <1>   0.5690 
  3 N        1.6030    -0.3550    -1.3960 N.am  1 <1>  -0.4940 
  4 C        0.6090    -2.3790    -2.3950 C.3   1 <1>   0.1610 
  5 C        1.9460     0.9740    -1.0560 C.2   1 <1>  -0.0880 
  6 C        0.0290    -2.6710    -1.0100 C.2   1 <1>  -0.3320 
  7 C        1.8060    -3.3230    -2.6660 C.3   1 <1>  -0.1600 
  8 N        2.3950     1.9670    -1.8740 N.pl3 1 <1>   0.3140 
  9 C        1.9000     1.5000     0.1920 C.2   1 <1>  -0.1810 
 10 N       -0.9100    -1.9050    -0.3730 N.pl3 1 <1>   0.0330 
 11 C        0.3690    -3.7150    -0.2260 C.2   1 <1>  -0.1810 
 12 C        1.5690    -4.7590    -2.1520 C.3   1 <1>  -0.1600 
 13 N        2.6320     3.1020    -1.1810 N.2   1 <1>  -0.7070 
 14 C        2.7100     1.9110    -3.3070 C.3   1 <1>   0.0160 
 15 C        2.3330     2.8160     0.0460 C.2   1 <1>   0.1080 
 16 C        1.4700     0.8260     1.4860 C.3   1 <1>  -0.0590 
 17 C       -1.1390    -2.4620     0.8600 C.ar  1 <1>  -0.1520 
 18 C       -0.3520    -3.6040     0.9830 C.ar  1 <1>   0.0000 
 19 C        1.3540    -4.7940    -0.6270 C.3   1 <1>   0.0210 
 20 C        2.4640     3.8370     1.1620 C.3   1 <1>   0.0210 
 21 C       -1.9810    -2.0560     1.8980 C.ar  1 <1>  -0.1500 
 22 C       -0.4060    -4.3570     2.1600 C.ar  1 <1>  -0.1500 
 23 C        3.8510     3.7740     1.8100 C.3   1 <1>  -0.2400 
 24 C       -2.0230    -2.8050     3.0510 C.ar  1 <1>  -0.1500 
 25 C       -1.2360    -3.9560     3.1820 C.ar  1 <1>  -0.1500 
 26 H        1.6080    -1.0000    -0.6000 H     1 <1>   0.3700 
 27 H       -0.1580    -2.5660    -3.1260 H     1 <1>   0.0800 
 28 H        2.6830    -2.9330    -2.1800 H     1 <1>   0.0800 
 29 H        2.0030    -3.3430    -3.7240 H     1 <1>   0.0800 
 30 H       -1.3620    -1.0560    -0.7310 H     1 <1>   0.2700 
 31 H        2.4070    -5.3830    -2.4080 H     1 <1>   0.0800 
 32 H        0.6960    -5.1630    -2.6350 H     1 <1>   0.0800 
 33 H        3.1440     0.9580    -3.5390 H     1 <1>   0.0800 
 34 H        3.4050     2.6930    -3.5460 H     1 <1>   0.0800 
 35 H        1.8050     2.0480    -3.8680 H     1 <1>   0.0800 
 36 H        1.1870    -0.1960     1.3160 H     1 <1>   0.0800 
 37 H        0.6290     1.3470     1.9060 H     1 <1>   0.0800 
 38 H        2.2800     0.8440     2.1920 H     1 <1>   0.0800 
 39 H        0.9780    -5.7580    -0.3360 H     1 <1>   0.0800 
 40 H        2.2850    -4.6230    -0.1170 H     1 <1>   0.0800 
 41 H        1.7040     3.6630     1.9010 H     1 <1>   0.0800 
 42 H        2.3060     4.8170     0.7490 H     1 <1>   0.0800 
 43 H       -2.5840    -1.1720     1.7880 H     1 <1>   0.1500 
 44 H        0.2010    -5.2380     2.2480 H     1 <1>   0.1500 
 45 H        4.0200     2.8000     2.2330 H     1 <1>   0.0800 
 46 H        3.9340     4.5140     2.5850 H     1 <1>   0.0800 
 47 H        4.6050     3.9610     1.0660 H     1 <1>   0.0800 
 48 H       -2.6650    -2.5150     3.8650 H     1 <1>   0.1500 
 49 H       -1.2890    -4.5250     4.0930 H     1 <1>   0.1500 
@<TRIPOS>BOND
  1   1   2  2   
  2   2   3  am  
  3   2   4  1   
  4   3   5  1   
  5   3  26  1   
  6   4   6  1   
  7   4   7  1   
  8   4  27  1   
  9   5   8  1   
 10   5   9  2   
 11   6  10  1   
 12   6  11  2   
 13   7  12  1   
 14   7  28  1   
 15   7  29  1   
 16   8  13  1   
 17   8  14  1   
 18   9  15  1   
 19   9  16  1   
 20  10  17  1   
 21  10  30  1   
 22  11  18  1   
 23  11  19  1   
 24  12  19  1   
 25  12  31  1   
 26  12  32  1   
 27  13  15  2   
 28  14  33  1   
 29  14  34  1   
 30  14  35  1   
 31  15  20  1   
 32  16  36  1   
 33  16  37  1   
 34  16  38  1   
 35  17  18  ar  
 36  17  21  ar  
 37  18  22  ar  
 38  19  39  1   
 39  19  40  1   
 40  20  23  1   
 41  20  41  1   
 42  20  42  1   
 43  21  24  ar  
 44  21  43  1   
 45  22  25  ar  
 46  22  44  1   
 47  23  45  1   
 48  23  46  1   
 49  23  47  1   
 50  24  25  ar  
 51  24  48  1   
 52  25  49  1   
@<TRIPOS>SUBSTRUCTURE
  1 ****   3 GROUP 4 **** **** 0

# MOE 2024.06 (io_trps.svl 2023.06)
