@<TRIPOS>MOLECULE
NONAME
52 54 1 0 0 
SMALL
USER_CHARGES


@<TRIPOS>ATOM
  1 O       -1.6120     1.2450    -2.9970 O.2   1 <1>  -0.5700 
  2 C       -1.8580     1.5560    -1.8490 C.2   1 <1>   0.6160 
  3 N       -2.5460     0.6710    -1.0400 N.am  1 <1>  -0.6600 
  4 C       -1.4390     2.8560    -1.3780 C.2   1 <1>  -0.0140 
  5 C       -2.8920    -0.7110    -1.5130 C.3   1 <1>   0.1400 
  6 C       -3.0540     1.0280     0.3160 C.3   1 <1>   0.1400 
  7 C       -0.4150     2.9750    -0.3620 C.ar  1 <1>   0.0280 
  8 C       -2.0000     3.9930    -1.8800 C.2   1 <1>  -0.1360 
  9 C       -4.4030    -0.9770    -1.3860 C.3   1 <1>   0.2000 
 10 C       -4.5670     0.7810     0.3850 C.3   1 <1>  -0.1600 
 11 C       -0.0800     4.2570     0.1110 C.ar  1 <1>   0.1170 
 12 C        0.2710     1.8810     0.1780 C.ar  1 <1>  -0.1500 
 13 C       -1.6470     5.2830    -1.4120 C.2   1 <1>   0.6160 
 14 O       -4.6680    -2.2910    -1.7630 O.3   1 <1>  -0.6800 
 15 C       -4.9660    -0.6760     0.0330 C.3   1 <1>   0.0000 
 16 N       -0.7130     5.3690    -0.4310 N.am  1 <1>  -0.5470 
 17 C        0.8790     4.4080     1.1070 C.ar  1 <1>  -0.1500 
 18 C        1.2230     2.0370     1.1640 C.ar  1 <1>  -0.1430 
 19 O       -2.1490     6.3080    -1.8320 O.2   1 <1>  -0.5700 
 20 C       -4.3500    -1.6690     1.0600 C.3   1 <1>   0.1200 
 21 C       -6.5160    -0.8350     0.0780 C.3   1 <1>  -0.1600 
 22 C        1.5230     3.3090     1.6320 C.ar  1 <1>  -0.1500 
 23 C        1.9550     0.8390     1.7440 C.3   1 <1>  -0.0970 
 24 O       -4.7520    -1.3870     2.3580 O.3   1 <1>  -0.6800 
 25 C       -7.3280    -0.0260    -0.9510 C.3   1 <1>  -0.1600 
 26 C       -8.8290    -0.2560    -0.7560 C.3   1 <1>  -0.2400 
 27 H       -2.6120    -0.8380    -2.5440 H     1 <1>   0.0800 
 28 H       -2.3360    -1.4220    -0.9300 H     1 <1>   0.0800 
 29 H       -2.5370     0.4420     1.0550 H     1 <1>   0.0800 
 30 H       -2.8660     2.0650     0.5360 H     1 <1>   0.0800 
 31 H       -2.7430     3.9600    -2.6540 H     1 <1>   0.1500 
 32 H       -4.8890    -0.3480    -2.1100 H     1 <1>   0.0800 
 33 H       -4.9250     1.0440     1.3640 H     1 <1>   0.0800 
 34 H       -5.0280     1.4650    -0.3050 H     1 <1>   0.0800 
 35 H        0.0560     0.8920    -0.1860 H     1 <1>   0.1500 
 36 H       -4.3030    -2.9270    -1.1210 H     1 <1>   0.4000 
 37 H       -0.4740     6.3150    -0.1360 H     1 <1>   0.3700 
 38 H        1.1210     5.3910     1.4670 H     1 <1>   0.1500 
 39 H       -3.2750    -1.6450     1.0460 H     1 <1>   0.0800 
 40 H       -4.6670    -2.6760     0.8480 H     1 <1>   0.0800 
 41 H       -6.7560    -1.8760    -0.0600 H     1 <1>   0.0800 
 42 H       -6.8640    -0.5680     1.0610 H     1 <1>   0.0800 
 43 H        2.2640     3.4360     2.4020 H     1 <1>   0.1500 
 44 H        3.0160     0.9650     1.6230 H     1 <1>   0.0800 
 45 H        1.6620    -0.0700     1.2490 H     1 <1>   0.0800 
 46 H        1.7340     0.7460     2.7920 H     1 <1>   0.0800 
 47 H       -4.5760    -0.4550     2.5850 H     1 <1>   0.4000 
 48 H       -7.1310     1.0260    -0.8530 H     1 <1>   0.0800 
 49 H       -7.0690    -0.3290    -1.9510 H     1 <1>   0.0800 
 50 H       -9.1350     0.0570     0.2270 H     1 <1>   0.0800 
 51 H       -9.0680    -1.2990    -0.8780 H     1 <1>   0.0800 
 52 H       -9.3860     0.3070    -1.4840 H     1 <1>   0.0800 
@<TRIPOS>BOND
  1   1   2  2   
  2   2   3  am  
  3   2   4  1   
  4   3   5  1   
  5   3   6  1   
  6   4   7  1   
  7   4   8  2   
  8   5   9  1   
  9   5  27  1   
 10   5  28  1   
 11   6  10  1   
 12   6  29  1   
 13   6  30  1   
 14   7  11  ar  
 15   7  12  ar  
 16   8  13  1   
 17   8  31  1   
 18   9  14  1   
 19   9  15  1   
 20   9  32  1   
 21  10  15  1   
 22  10  33  1   
 23  10  34  1   
 24  11  16  1   
 25  11  17  ar  
 26  12  18  ar  
 27  12  35  1   
 28  13  16  am  
 29  13  19  2   
 30  14  36  1   
 31  15  20  1   
 32  15  21  1   
 33  16  37  1   
 34  17  22  ar  
 35  17  38  1   
 36  18  22  ar  
 37  18  23  1   
 38  20  24  1   
 39  20  39  1   
 40  20  40  1   
 41  21  25  1   
 42  21  41  1   
 43  21  42  1   
 44  22  43  1   
 45  23  44  1   
 46  23  45  1   
 47  23  46  1   
 48  24  47  1   
 49  25  26  1   
 50  25  48  1   
 51  25  49  1   
 52  26  50  1   
 53  26  51  1   
 54  26  52  1   
@<TRIPOS>SUBSTRUCTURE
  1 ****   6 GROUP 4 **** **** 0

# MOE 2024.06 (io_trps.svl 2023.06)
