@<TRIPOS>MOLECULE
NONAME
47 49 1 0 0 
SMALL
USER_CHARGES


@<TRIPOS>ATOM
  1 O       -1.3710     0.9850    -0.0550 O.2   1 <1>  -0.5700 
  2 C       -0.8730     2.0300     0.2770 C.2   1 <1>   0.5690 
  3 N       -1.6390     3.1280     0.4620 N.am  1 <1>  -0.7300 
  4 C        0.6470     2.1310     0.4540 C.3   1 <1>   0.1810 
  5 C       -1.0920     4.4370     0.8830 C.3   1 <1>   0.3640 
  6 O        1.0650     3.3140     1.1060 O.3   1 <1>  -0.5600 
  7 C       -1.8250     5.5390     0.1200 C.ar  1 <1>  -0.1440 
  8 C        0.4360     4.4970     0.6410 C.3   1 <1>   0.2610 
  9 C       -1.8930     5.5340    -1.2670 C.ar  1 <1>  -0.1500 
 10 C       -2.4350     6.5710     0.8200 C.ar  1 <1>  -0.1500 
 11 C        1.0560     5.7550     1.2690 C.2   1 <1>   0.5690 
 12 C       -2.5560     6.5440    -1.9420 C.ar  1 <1>  -0.1500 
 13 C       -3.1030     7.5790     0.1460 C.ar  1 <1>  -0.1500 
 14 O        0.4910     6.2870     2.2010 O.2   1 <1>  -0.5700 
 15 N        2.1980     6.2990     0.7380 N.am  1 <1>  -0.6600 
 16 C       -3.1620     7.5670    -1.2350 C.ar  1 <1>  -0.1500 
 17 C        2.6500     7.6700     1.1170 C.3   1 <1>   0.3200 
 18 C        3.0710     5.6280    -0.2690 C.3   1 <1>   0.0600 
 19 C        2.6250     8.5840    -0.1010 C.2   1 <1>   0.0070 
 20 N        3.6950     8.9300    -0.7480 N.2   1 <1>  -0.5650 
 21 N        1.4840     9.1060    -0.6190 N.pl3 1 <1>   0.0480 
 22 C        3.2340     9.7180    -1.7350 C.2   1 <1>   0.0770 
 23 C        1.8910     9.8360    -1.6730 C.2   1 <1>  -0.3020 
 24 C        0.0820     8.9410    -0.1740 C.3   1 <1>   0.0960 
 25 C       -0.2720     9.9730     0.8990 C.3   1 <1>  -0.2400 
 26 H       -2.6510     3.0590     0.3440 H     1 <1>   0.3700 
 27 H        1.1180     2.0950    -0.5110 H     1 <1>   0.0800 
 28 H        0.9920     1.2980     1.0370 H     1 <1>   0.0800 
 29 H       -1.2780     4.5500     1.9370 H     1 <1>   0.0800 
 30 H        0.6030     4.5520    -0.4180 H     1 <1>   0.0800 
 31 H       -1.4370     4.7390    -1.8320 H     1 <1>   0.1500 
 32 H       -2.3900     6.5980     1.8960 H     1 <1>   0.1500 
 33 H       -2.6040     6.5310    -3.0170 H     1 <1>   0.1500 
 34 H       -3.5780     8.3710     0.6990 H     1 <1>   0.1500 
 35 H       -3.6830     8.3500    -1.7600 H     1 <1>   0.1500 
 36 H        2.0310     8.0850     1.8920 H     1 <1>   0.0800 
 37 H        3.6550     7.6160     1.4970 H     1 <1>   0.0800 
 38 H        4.1020     5.8710    -0.0780 H     1 <1>   0.0800 
 39 H        2.8170     5.9730    -1.2570 H     1 <1>   0.0800 
 40 H        2.9650     4.5590    -0.2220 H     1 <1>   0.0800 
 41 H        3.9040    10.1680    -2.4490 H     1 <1>   0.1500 
 42 H        1.2220    10.3880    -2.3050 H     1 <1>   0.1500 
 43 H       -0.5650     9.0590    -1.0250 H     1 <1>   0.0800 
 44 H       -0.0530     7.9480     0.2080 H     1 <1>   0.0800 
 45 H       -0.1470    10.9700     0.5150 H     1 <1>   0.0800 
 46 H        0.3500     9.8430     1.7660 H     1 <1>   0.0800 
 47 H       -1.2970     9.8470     1.1970 H     1 <1>   0.0800 
@<TRIPOS>BOND
  1   1   2  2   
  2   2   3  am  
  3   2   4  1   
  4   3   5  1   
  5   3  26  1   
  6   4   6  1   
  7   4  27  1   
  8   4  28  1   
  9   5   7  1   
 10   5   8  1   
 11   5  29  1   
 12   6   8  1   
 13   7   9  ar  
 14   7  10  ar  
 15   8  11  1   
 16   8  30  1   
 17   9  12  ar  
 18   9  31  1   
 19  10  13  ar  
 20  10  32  1   
 21  11  14  2   
 22  11  15  am  
 23  12  16  ar  
 24  12  33  1   
 25  13  16  ar  
 26  13  34  1   
 27  15  17  1   
 28  15  18  1   
 29  16  35  1   
 30  17  19  1   
 31  17  36  1   
 32  17  37  1   
 33  18  38  1   
 34  18  39  1   
 35  18  40  1   
 36  19  20  2   
 37  19  21  1   
 38  20  22  1   
 39  21  23  1   
 40  21  24  1   
 41  22  23  2   
 42  22  41  1   
 43  23  42  1   
 44  24  25  1   
 45  24  43  1   
 46  24  44  1   
 47  25  45  1   
 48  25  46  1   
 49  25  47  1   
@<TRIPOS>SUBSTRUCTURE
  1 ****  11 GROUP 4 **** **** 0

# MOE 2024.06 (io_trps.svl 2023.06)
