@<TRIPOS>MOLECULE
NONAME
53 56 1 0 0 
SMALL
USER_CHARGES


@<TRIPOS>ATOM
  1 O       -0.2120     0.3900    -0.4480 O.2   1 <1>  -0.5700 
  2 C       -1.1990     1.0110    -0.1030 C.2   1 <1>   0.5440 
  3 N       -2.3900     0.3310     0.0140 N.am  1 <1>  -0.6600 
  4 C       -1.1020     2.4340     0.1550 C.ar  1 <1>   0.0860 
  5 C       -3.7330     0.9630     0.0390 C.3   1 <1>   0.1400 
  6 C       -2.4990    -1.1150    -0.2920 C.3   1 <1>   0.1400 
  7 C       -1.5950     3.0060     1.3300 C.ar  1 <1>  -0.1500 
  8 C       -0.5020     3.2860    -0.7730 C.ar  1 <1>  -0.1500 
  9 C       -4.6920    -0.1370    -0.4170 C.3   1 <1>   0.2000 
 10 C       -3.9800    -1.4540    -0.1120 C.3   1 <1>  -0.0800 
 11 C       -1.5090     4.3660     1.5600 C.ar  1 <1>  -0.1500 
 12 C       -0.4120     4.6480    -0.5520 C.ar  1 <1>  -0.1500 
 13 O       -5.8990    -0.0770     0.2610 O.3   1 <1>  -0.6800 
 14 C       -4.4660    -2.6070    -1.0050 C.3   1 <1>   0.0200 
 15 C       -0.9140     5.1960     0.6230 C.ar  1 <1>   0.0830 
 16 C       -3.8010    -3.9360    -0.6890 C.2   1 <1>  -0.0400 
 17 O       -0.8570     6.5210     0.8890 O.3   1 <1>  -0.1650 
 18 O       -4.0140    -4.9470    -1.4880 O.3   1 <1>  -0.0190 
 19 C       -2.9850    -4.3570     0.2920 C.2   1 <1>  -0.1500 
 20 C        0.1510     7.3080     0.4360 C.ar  1 <1>   0.0830 
 21 N       -3.3850    -6.0180    -1.0990 N.2   1 <1>  -0.4100 
 22 C       -2.7550    -5.6920    -0.0280 C.2   1 <1>   0.1080 
 23 C       -0.1660     8.5570    -0.0730 C.ar  1 <1>  -0.1500 
 24 C        1.4770     6.8950     0.4900 C.ar  1 <1>  -0.1500 
 25 C       -1.8840    -6.6380     0.7670 C.3   1 <1>  -0.0590 
 26 C        0.8320     9.3930    -0.5470 C.ar  1 <1>  -0.1430 
 27 C        2.4750     7.7290     0.0190 C.ar  1 <1>  -0.1500 
 28 C        2.1520     8.9730    -0.4980 C.ar  1 <1>  -0.1500 
 29 C        0.4910    10.7610    -1.1090 C.3   1 <1>  -0.0970 
 30 H       -3.9610     1.2740     1.0430 H     1 <1>   0.0800 
 31 H       -3.7700     1.8050    -0.6310 H     1 <1>   0.0800 
 32 H       -2.1840    -1.2810    -1.3090 H     1 <1>   0.0800 
 33 H       -1.8700    -1.6860     0.3690 H     1 <1>   0.0800 
 34 H       -2.0440     2.3690     2.0710 H     1 <1>   0.1500 
 35 H       -0.1040     2.8630    -1.6800 H     1 <1>   0.1500 
 36 H       -4.8890    -0.0310    -1.4710 H     1 <1>   0.0800 
 37 H       -4.1320    -1.7100     0.9220 H     1 <1>   0.0800 
 38 H       -1.8960     4.7940     2.4690 H     1 <1>   0.1500 
 39 H        0.0440     5.2810    -1.2930 H     1 <1>   0.1500 
 40 H       -5.7660    -0.2220     1.2170 H     1 <1>   0.4000 
 41 H       -4.2770    -2.3660    -2.0370 H     1 <1>   0.0800 
 42 H       -5.5290    -2.7250    -0.8880 H     1 <1>   0.0800 
 43 H       -2.5820    -3.8350     1.1390 H     1 <1>   0.1500 
 44 H       -1.1960     8.8640    -0.0960 H     1 <1>   0.1500 
 45 H        1.7260     5.9330     0.9000 H     1 <1>   0.1500 
 46 H       -2.2560    -6.7180     1.7720 H     1 <1>   0.0800 
 47 H       -0.8740    -6.2720     0.7890 H     1 <1>   0.0800 
 48 H       -1.8920    -7.6120     0.3140 H     1 <1>   0.0800 
 49 H        3.5030     7.4130     0.0570 H     1 <1>   0.1500 
 50 H        2.9360     9.6150    -0.8610 H     1 <1>   0.1500 
 51 H        1.0740    10.9560    -1.9910 H     1 <1>   0.0800 
 52 H        0.7040    11.5190    -0.3770 H     1 <1>   0.0800 
 53 H       -0.5500    10.8160    -1.3720 H     1 <1>   0.0800 
@<TRIPOS>BOND
  1   1   2  2   
  2   2   3  am  
  3   2   4  1   
  4   3   5  1   
  5   3   6  1   
  6   4   7  ar  
  7   4   8  ar  
  8   5   9  1   
  9   5  30  1   
 10   5  31  1   
 11   6  10  1   
 12   6  32  1   
 13   6  33  1   
 14   7  11  ar  
 15   7  34  1   
 16   8  12  ar  
 17   8  35  1   
 18   9  10  1   
 19   9  13  1   
 20   9  36  1   
 21  10  14  1   
 22  10  37  1   
 23  11  15  ar  
 24  11  38  1   
 25  12  15  ar  
 26  12  39  1   
 27  13  40  1   
 28  14  16  1   
 29  14  41  1   
 30  14  42  1   
 31  15  17  1   
 32  16  18  1   
 33  16  19  2   
 34  17  20  1   
 35  18  21  1   
 36  19  22  1   
 37  19  43  1   
 38  20  23  ar  
 39  20  24  ar  
 40  21  22  2   
 41  22  25  1   
 42  23  26  ar  
 43  23  44  1   
 44  24  27  ar  
 45  24  45  1   
 46  25  46  1   
 47  25  47  1   
 48  25  48  1   
 49  26  28  ar  
 50  26  29  1   
 51  27  28  ar  
 52  27  49  1   
 53  28  50  1   
 54  29  51  1   
 55  29  52  1   
 56  29  53  1   
@<TRIPOS>SUBSTRUCTURE
  1 ****   4 GROUP 4 **** **** 0

# MOE 2024.06 (io_trps.svl 2023.06)
