@<TRIPOS>MOLECULE
NONAME
56 60 1 0 0 
SMALL
USER_CHARGES


@<TRIPOS>ATOM
  1 O       -2.8460     1.2700    -2.3040 O.2   1 <1>  -0.5700 
  2 C       -3.0330     1.0410    -1.1230 C.2   1 <1>   0.5440 
  3 N       -2.7600     2.0350    -0.2090 N.am  1 <1>  -0.6600 
  4 C       -3.5460    -0.2480    -0.7250 C.ar  1 <1>   0.0860 
  5 C       -3.3300     2.1140     1.1560 C.3   1 <1>   0.1400 
  6 C       -2.2060     3.3450    -0.6220 C.3   1 <1>   0.1400 
  7 C       -4.5830    -0.8380    -1.4420 C.ar  1 <1>   0.1600 
  8 C       -3.0470    -0.9650     0.3580 C.ar  1 <1>  -0.1500 
  9 C       -3.3950     3.6060     1.4620 C.3   1 <1>  -0.1600 
 10 C       -2.2730     4.2160     0.6280 C.3   1 <1>  -0.1600 
 11 N       -5.1540    -2.0000    -1.1730 N.ar  1 <1>  -0.6200 
 12 C       -3.6240    -2.1770     0.6510 C.ar  1 <1>  -0.1500 
 13 C       -4.6700    -2.6600    -0.1280 C.ar  1 <1>   0.4100 
 14 N       -5.2480    -3.8600     0.1800 N.pl3 1 <1>  -0.8690 
 15 C       -6.2140    -4.5880    -0.6820 C.3   1 <1>   0.2890 
 16 C       -7.6210    -4.5210    -0.1060 C.3   1 <1>  -0.0800 
 17 C       -5.9410    -6.0830    -0.5860 C.3   1 <1>   0.1200 
 18 C       -7.6440    -5.6820     0.8940 C.3   1 <1>   0.1200 
 19 C       -8.0300    -3.1640     0.5000 C.3   1 <1>  -0.0170 
 20 O       -6.5460    -6.4980     0.6020 O.3   1 <1>  -0.5600 
 21 C       -9.5020    -3.1630     0.8970 C.ar  1 <1>  -0.1440 
 22 C      -10.5400    -3.0010    -0.0510 C.ar  1 <1>   0.0000 
 23 C       -9.8610    -3.3290     2.2030 C.ar  1 <1>  -0.1500 
 24 C      -11.8740    -3.0430     0.4220 C.ar  1 <1>   0.3100 
 25 C      -10.3340    -2.7980    -1.4360 C.ar  1 <1>  -0.1500 
 26 C      -11.2120    -3.3470     2.5660 C.ar  1 <1>   0.1600 
 27 N      -12.1930    -3.2170     1.7300 N.ar  1 <1>  -0.6200 
 28 C      -12.9250    -2.8970    -0.4980 C.ar  1 <1>  -0.1500 
 29 C      -11.3810    -2.6580    -2.3050 C.ar  1 <1>  -0.1500 
 30 C      -12.6940    -2.7100    -1.8330 C.ar  1 <1>  -0.1500 
 31 H       -4.3060     1.6600     1.2020 H     1 <1>   0.0800 
 32 H       -2.6640     1.6250     1.8450 H     1 <1>   0.0800 
 33 H       -1.1970     3.2350    -0.9810 H     1 <1>   0.0800 
 34 H       -2.8230     3.7580    -1.4040 H     1 <1>   0.0800 
 35 H       -4.9600    -0.3000    -2.2960 H     1 <1>   0.1500 
 36 H       -2.2290    -0.5770     0.9380 H     1 <1>   0.1500 
 37 H       -4.3450     3.9890     1.1320 H     1 <1>   0.0800 
 38 H       -3.2810     3.8050     2.5130 H     1 <1>   0.0800 
 39 H       -1.3380     4.1380     1.1570 H     1 <1>   0.0800 
 40 H       -2.4540     5.2480     0.3860 H     1 <1>   0.0800 
 41 H       -3.2740    -2.7650     1.4780 H     1 <1>   0.1500 
 42 H       -4.9240    -4.4010     0.9850 H     1 <1>   0.4000 
 43 H       -6.1650    -4.2390    -1.6990 H     1 <1>   0.0800 
 44 H       -8.3070    -4.7660    -0.8960 H     1 <1>   0.0800 
 45 H       -4.8900    -6.3120    -0.5610 H     1 <1>   0.0800 
 46 H       -6.4130    -6.6080    -1.3970 H     1 <1>   0.0800 
 47 H       -8.5460    -6.2640     0.8070 H     1 <1>   0.0800 
 48 H       -7.5300    -5.3370     1.9070 H     1 <1>   0.0800 
 49 H       -7.8380    -2.3720    -0.2020 H     1 <1>   0.0800 
 50 H       -7.4250    -2.9570     1.3660 H     1 <1>   0.0800 
 51 H       -9.1260    -3.4520     2.9780 H     1 <1>   0.1500 
 52 H       -9.3320    -2.7490    -1.8190 H     1 <1>   0.1500 
 53 H      -11.4510    -3.4810     3.6070 H     1 <1>   0.1500 
 54 H      -13.9270    -2.9380    -0.1110 H     1 <1>   0.1500 
 55 H      -11.2090    -2.5040    -3.3570 H     1 <1>   0.1500 
 56 H      -13.5100    -2.5990    -2.5260 H     1 <1>   0.1500 
@<TRIPOS>BOND
  1   1   2  2   
  2   2   3  am  
  3   2   4  1   
  4   3   5  1   
  5   3   6  1   
  6   4   7  ar  
  7   4   8  ar  
  8   5   9  1   
  9   5  31  1   
 10   5  32  1   
 11   6  10  1   
 12   6  33  1   
 13   6  34  1   
 14   7  11  ar  
 15   7  35  1   
 16   8  12  ar  
 17   8  36  1   
 18   9  10  1   
 19   9  37  1   
 20   9  38  1   
 21  10  39  1   
 22  10  40  1   
 23  11  13  ar  
 24  12  13  ar  
 25  12  41  1   
 26  13  14  1   
 27  14  15  1   
 28  14  42  1   
 29  15  16  1   
 30  15  17  1   
 31  15  43  1   
 32  16  18  1   
 33  16  19  1   
 34  16  44  1   
 35  17  20  1   
 36  17  45  1   
 37  17  46  1   
 38  18  20  1   
 39  18  47  1   
 40  18  48  1   
 41  19  21  1   
 42  19  49  1   
 43  19  50  1   
 44  21  22  ar  
 45  21  23  ar  
 46  22  24  ar  
 47  22  25  ar  
 48  23  26  ar  
 49  23  51  1   
 50  24  27  ar  
 51  24  28  ar  
 52  25  29  ar  
 53  25  52  1   
 54  26  27  ar  
 55  26  53  1   
 56  28  30  ar  
 57  28  54  1   
 58  29  30  ar  
 59  29  55  1   
 60  30  56  1   
@<TRIPOS>SUBSTRUCTURE
  1 ****  19 GROUP 4 **** **** 0

# MOE 2024.06 (io_trps.svl 2023.06)
