@<TRIPOS>MOLECULE
NONAME
49 52 1 0 0 
SMALL
USER_CHARGES


@<TRIPOS>ATOM
  1 O        2.7630     1.1690     0.5140 O.3   1 <1>  -0.6800 
  2 C        2.0390     2.3500     0.4500 C.3   1 <1>   0.2000 
  3 C        2.6070     3.3060    -0.6020 C.3   1 <1>   0.2090 
  4 C        2.1770     3.0980     1.7660 C.3   1 <1>  -0.1600 
  5 N        2.4570     4.6720    -0.0250 N.pl3 1 <1>  -0.8380 
  6 C        2.0100     4.5660     1.3910 C.3   1 <1>   0.2090 
  7 C        2.7160     5.8510    -0.6430 C.ar  1 <1>   0.4100 
  8 N        2.4380     6.9610     0.0170 N.ar  1 <1>  -0.6200 
  9 C        3.2630     5.8900    -1.9420 C.ar  1 <1>  -0.1500 
 10 C        2.6870     8.1100    -0.5740 C.ar  1 <1>   0.7710 
 11 C        3.5060     7.0890    -2.5220 C.ar  1 <1>   0.2110 
 12 N        3.2030     8.2020    -1.8120 N.ar  1 <1>  -0.1790 
 13 N        2.4000     9.2090     0.1320 N.pl3 1 <1>  -0.8690 
 14 C        2.4890    10.6590    -0.1620 C.3   1 <1>   0.2090 
 15 C        3.9570    11.0800    -0.1980 C.3   1 <1>  -0.1600 
 16 C        4.1110    12.6020    -0.3340 C.3   1 <1>   0.0960 
 17 N        5.4730    12.9170    -0.8010 N.pl3 1 <1>   0.0480 
 18 C        6.6380    12.7680    -0.0850 C.ar  1 <1>  -0.1520 
 19 C        5.8110    13.2370    -2.0870 C.2   1 <1>  -0.3020 
 20 C        7.7110    12.9980    -0.9410 C.ar  1 <1>   0.0000 
 21 C        6.8610    12.4460     1.2590 C.ar  1 <1>  -0.1500 
 22 C        7.1590    13.2980    -2.2030 C.2   1 <1>  -0.1500 
 23 C        9.0200    12.9010    -0.4620 C.ar  1 <1>  -0.1500 
 24 C        8.1540    12.3520     1.7190 C.ar  1 <1>  -0.1500 
 25 C        9.2350    12.5790     0.8580 C.ar  1 <1>  -0.1500 
 26 H        2.5620     0.5920    -0.2470 H     1 <1>   0.4000 
 27 H        1.0070     2.1230     0.2440 H     1 <1>   0.0800 
 28 H        2.0620     3.2210    -1.5250 H     1 <1>   0.0800 
 29 H        3.6540     3.1020    -0.7560 H     1 <1>   0.0800 
 30 H        3.1630     2.9580     2.1730 H     1 <1>   0.0800 
 31 H        1.4420     2.7890     2.4860 H     1 <1>   0.0800 
 32 H        2.5990     5.1990     2.0330 H     1 <1>   0.0800 
 33 H        0.9740     4.8540     1.4560 H     1 <1>   0.0800 
 34 H        3.4840     4.9700    -2.4490 H     1 <1>   0.1500 
 35 H        3.9260     7.1890    -3.5110 H     1 <1>   0.1500 
 36 H        3.3630     9.1400    -2.1600 H     1 <1>   0.4570 
 37 H        2.0330     8.9960     1.0690 H     1 <1>   0.4000 
 38 H        1.9750    11.2020     0.6160 H     1 <1>   0.0800 
 39 H        2.0030    10.8800    -1.0980 H     1 <1>   0.0800 
 40 H        4.4480    10.6110    -1.0300 H     1 <1>   0.0800 
 41 H        4.4420    10.7660     0.7100 H     1 <1>   0.0800 
 42 H        3.9430    13.0910     0.6100 H     1 <1>   0.0800 
 43 H        3.4130    12.9940    -1.0530 H     1 <1>   0.0800 
 44 H        5.0750    13.4090    -2.8510 H     1 <1>   0.1500 
 45 H        6.0330    12.2800     1.9230 H     1 <1>   0.1500 
 46 H        7.7450    13.5300    -3.0750 H     1 <1>   0.1500 
 47 H        9.8390    13.0810    -1.1330 H     1 <1>   0.1500 
 48 H        8.3500    12.1070     2.7480 H     1 <1>   0.1500 
 49 H       10.2370    12.5010     1.2430 H     1 <1>   0.1500 
@<TRIPOS>BOND
  1   1   2  1   
  2   1  26  1   
  3   2   3  1   
  4   2   4  1   
  5   2  27  1   
  6   3   5  1   
  7   3  28  1   
  8   3  29  1   
  9   4   6  1   
 10   4  30  1   
 11   4  31  1   
 12   5   6  1   
 13   5   7  1   
 14   6  32  1   
 15   6  33  1   
 16   7   8  ar  
 17   7   9  ar  
 18   8  10  ar  
 19   9  11  ar  
 20   9  34  1   
 21  10  12  ar  
 22  10  13  1   
 23  11  12  ar  
 24  11  35  1   
 25  12  36  1   
 26  13  14  1   
 27  13  37  1   
 28  14  15  1   
 29  14  38  1   
 30  14  39  1   
 31  15  16  1   
 32  15  40  1   
 33  15  41  1   
 34  16  17  1   
 35  16  42  1   
 36  16  43  1   
 37  17  18  1   
 38  17  19  1   
 39  18  20  ar  
 40  18  21  ar  
 41  19  22  2   
 42  19  44  1   
 43  20  22  1   
 44  20  23  ar  
 45  21  24  ar  
 46  21  45  1   
 47  22  46  1   
 48  23  25  ar  
 49  23  47  1   
 50  24  25  ar  
 51  24  48  1   
 52  25  49  1   
@<TRIPOS>SUBSTRUCTURE
  1 ****  10 GROUP 4 **** **** 0

# MOE 2024.06 (io_trps.svl 2023.06)
