@<TRIPOS>MOLECULE
NONAME
47 49 1 0 0 
SMALL
USER_CHARGES


@<TRIPOS>ATOM
  1 CL       0.3420     1.0110     0.5040 Cl    1 <1>  -0.1770 
  2 C       -1.2700     1.6290     0.2530 C.ar  1 <1>   0.1770 
  3 C       -1.6270     2.1150    -0.9880 C.ar  1 <1>  -0.1500 
  4 C       -2.1710     1.6210     1.2980 C.ar  1 <1>  -0.1500 
  5 C       -2.9090     2.6000    -1.1800 C.ar  1 <1>  -0.1500 
  6 C       -3.4520     2.1090     1.0970 C.ar  1 <1>  -0.1500 
  7 C       -3.8410     2.6130    -0.1440 C.ar  1 <1>  -0.1430 
  8 C       -5.2580     3.1750    -0.4410 C.3   1 <1>   0.2040 
  9 C       -5.1130     4.5780    -1.0860 C.2   1 <1>   0.5690 
 10 C       -5.9360     2.1540    -1.4040 C.3   1 <1>  -0.1600 
 11 C       -6.1350     3.3720     0.8330 C.3   1 <1>  -0.1600 
 12 O       -5.8230     4.9190    -2.0050 O.2   1 <1>  -0.5700 
 13 N       -4.1900     5.4410    -0.5920 N.am  1 <1>  -0.7300 
 14 C       -7.4680     2.1370    -1.2910 C.3   1 <1>  -0.1600 
 15 C       -6.9230     2.1110     1.2240 C.3   1 <1>  -0.1600 
 16 C       -3.9400     6.8050    -1.1210 C.3   1 <1>   0.3210 
 17 C       -7.9230     1.7210     0.1200 C.3   1 <1>  -0.1600 
 18 C       -2.8020     7.5070    -0.3790 C.2   1 <1>   0.3350 
 19 N       -2.1080     7.0000     0.5650 N.2   1 <1>  -0.4100 
 20 N       -2.4470     8.7490    -0.6830 N.2   1 <1>  -0.5650 
 21 O       -1.2400     7.8950     0.9270 O.3   1 <1>  -0.0190 
 22 C       -1.4900     8.9160     0.1450 C.2   1 <1>   0.2980 
 23 C       -0.6600    10.1810     0.3060 C.3   1 <1>   0.3000 
 24 O        0.7000     9.9130     0.1050 O.3   1 <1>  -0.5600 
 25 C        1.5250    11.0270     0.2140 C.3   1 <1>   0.0400 
 26 H       -0.9110     2.1120    -1.7890 H     1 <1>   0.1500 
 27 H       -1.8720     1.2350     2.2550 H     1 <1>   0.1500 
 28 H       -3.1750     2.9730    -2.1550 H     1 <1>   0.1500 
 29 H       -4.1270     2.0790     1.9310 H     1 <1>   0.1500 
 30 H       -5.5830     1.1630    -1.1770 H     1 <1>   0.0800 
 31 H       -5.6510     2.3630    -2.4200 H     1 <1>   0.0800 
 32 H       -6.8590     4.1440     0.6360 H     1 <1>   0.0800 
 33 H       -5.5410     3.7290     1.6540 H     1 <1>   0.0800 
 34 H       -3.5220     5.1360     0.1250 H     1 <1>   0.3700 
 35 H       -7.8840     1.4610    -2.0180 H     1 <1>   0.0800 
 36 H       -7.8440     3.1210    -1.5140 H     1 <1>   0.0800 
 37 H       -7.4520     2.2760     2.1460 H     1 <1>   0.0800 
 38 H       -6.2390     1.2950     1.3810 H     1 <1>   0.0800 
 39 H       -4.8370     7.3900    -1.0270 H     1 <1>   0.0800 
 40 H       -3.6890     6.7380    -2.1650 H     1 <1>   0.0800 
 41 H       -8.0690     0.6550     0.1510 H     1 <1>   0.0800 
 42 H       -8.8760     2.1810     0.3190 H     1 <1>   0.0800 
 43 H       -0.7890    10.5710     1.3000 H     1 <1>   0.0800 
 44 H       -0.9760    10.9120    -0.4160 H     1 <1>   0.0800 
 45 H        2.5390    10.7090     0.0440 H     1 <1>   0.0800 
 46 H        1.4380    11.4410     1.2040 H     1 <1>   0.0800 
 47 H        1.2450    11.7540    -0.5300 H     1 <1>   0.0800 
@<TRIPOS>BOND
  1   1   2  1   
  2   2   3  ar  
  3   2   4  ar  
  4   3   5  ar  
  5   3  26  1   
  6   4   6  ar  
  7   4  27  1   
  8   5   7  ar  
  9   5  28  1   
 10   6   7  ar  
 11   6  29  1   
 12   7   8  1   
 13   8   9  1   
 14   8  10  1   
 15   8  11  1   
 16   9  12  2   
 17   9  13  am  
 18  10  14  1   
 19  10  30  1   
 20  10  31  1   
 21  11  15  1   
 22  11  32  1   
 23  11  33  1   
 24  13  16  1   
 25  13  34  1   
 26  14  17  1   
 27  14  35  1   
 28  14  36  1   
 29  15  17  1   
 30  15  37  1   
 31  15  38  1   
 32  16  18  1   
 33  16  39  1   
 34  16  40  1   
 35  17  41  1   
 36  17  42  1   
 37  18  19  2   
 38  18  20  1   
 39  19  21  1   
 40  20  22  2   
 41  21  22  1   
 42  22  23  1   
 43  23  24  1   
 44  23  43  1   
 45  23  44  1   
 46  24  25  1   
 47  25  45  1   
 48  25  46  1   
 49  25  47  1   
@<TRIPOS>SUBSTRUCTURE
  1 ****  13 GROUP 4 **** **** 0

# MOE 2024.06 (io_trps.svl 2023.06)
