@<TRIPOS>MOLECULE
NONAME
42 44 1 0 0 
SMALL
USER_CHARGES


@<TRIPOS>ATOM
  1 CL       0.5320     0.7410     1.1780 Cl    1 <1>  -0.1770 
  2 C       -0.9690     1.3830     0.5570 C.ar  1 <1>   0.1770 
  3 C       -1.0000     2.2140    -0.5570 C.ar  1 <1>  -0.0090 
  4 C       -2.1140     1.0350     1.2490 C.ar  1 <1>  -0.1500 
  5 S        0.4810     2.7040    -1.4820 S.o2  1 <1>   1.4470 
  6 C       -2.2480     2.6940    -0.9420 C.ar  1 <1>  -0.1500 
  7 C       -3.3540     1.5170     0.8540 C.ar  1 <1>   0.0730 
  8 O        1.5970     1.7930    -1.3590 O.2   1 <1>  -0.6500 
  9 O        0.0760     3.0940    -2.8120 O.2   1 <1>  -0.6500 
 10 N        1.0330     4.1290    -0.7400 N.am  1 <1>  -0.8490 
 11 C       -3.4010     2.3540    -0.2540 C.ar  1 <1>  -0.1500 
 12 C       -4.5460     1.1660     1.5720 C.1   1 <1>   0.4840 
 13 C        1.4680     4.0100     0.6810 C.3   1 <1>   0.2760 
 14 C        1.8160     4.9830    -1.6610 C.3   1 <1>   0.1960 
 15 N       -5.4880     0.8910     2.1520 N.1   1 <1>  -0.5570 
 16 C        1.4610     5.3710     1.3960 C.3   1 <1>   0.1200 
 17 C        2.8310     3.2950     0.9100 C.3   1 <1>   0.3430 
 18 C        3.1040     5.6110    -1.1050 C.3   1 <1>  -0.0800 
 19 O        2.6760     6.0320     1.2250 O.3   1 <1>  -0.5600 
 20 N        3.7260     3.2580    -0.2940 N.4   1 <1>  -0.9590 
 21 C        2.8450     6.6500    -0.0050 C.3   1 <1>   0.1200 
 22 C        4.2100     4.6070    -0.7280 C.3   1 <1>   0.3430 
 23 C        4.8600     2.3160    -0.0760 C.3   1 <1>   0.2630 
 24 H       -2.0390     0.3840     2.1040 H     1 <1>   0.1500 
 25 H       -2.3250     3.3450    -1.8000 H     1 <1>   0.1500 
 26 H       -4.3510     2.7440    -0.5850 H     1 <1>   0.1500 
 27 H        0.7220     3.4380     1.2000 H     1 <1>   0.0800 
 28 H        2.0960     4.4170    -2.5350 H     1 <1>   0.0800 
 29 H        1.1660     5.7690    -2.0090 H     1 <1>   0.0800 
 30 H        1.3480     5.2140     2.4550 H     1 <1>   0.0800 
 31 H        0.6490     5.9940     1.0610 H     1 <1>   0.0800 
 32 H        2.6210     2.2820     1.2110 H     1 <1>   0.0800 
 33 H        3.3430     3.7700     1.7310 H     1 <1>   0.0800 
 34 H        3.5070     6.1860    -1.9190 H     1 <1>   0.0800 
 35 H        3.1300     2.8480    -1.0430 H     1 <1>   0.4500 
 36 H        1.9830     7.2600    -0.2210 H     1 <1>   0.0800 
 37 H        3.6980     7.3010     0.0910 H     1 <1>   0.0800 
 38 H        4.8170     5.0380     0.0520 H     1 <1>   0.0800 
 39 H        4.8430     4.4740    -1.5910 H     1 <1>   0.0800 
 40 H        5.4880     2.6630     0.7280 H     1 <1>   0.0800 
 41 H        5.4550     2.2350    -0.9720 H     1 <1>   0.0800 
 42 H        4.4850     1.3360     0.1720 H     1 <1>   0.0800 
@<TRIPOS>BOND
  1   1   2  1   
  2   2   3  ar  
  3   2   4  ar  
  4   3   5  1   
  5   3   6  ar  
  6   4   7  ar  
  7   4  24  1   
  8   5   8  2   
  9   5   9  2   
 10   5  10  am  
 11   6  11  ar  
 12   6  25  1   
 13   7  11  ar  
 14   7  12  1   
 15  10  13  1   
 16  10  14  1   
 17  11  26  1   
 18  12  15  3   
 19  13  16  1   
 20  13  17  1   
 21  13  27  1   
 22  14  18  1   
 23  14  28  1   
 24  14  29  1   
 25  16  19  1   
 26  16  30  1   
 27  16  31  1   
 28  17  20  1   
 29  17  32  1   
 30  17  33  1   
 31  18  21  1   
 32  18  22  1   
 33  18  34  1   
 34  19  21  1   
 35  20  22  1   
 36  20  23  1   
 37  20  35  1   
 38  21  36  1   
 39  21  37  1   
 40  22  38  1   
 41  22  39  1   
 42  23  40  1   
 43  23  41  1   
 44  23  42  1   
@<TRIPOS>SUBSTRUCTURE
  1 ****  10 GROUP 4 **** **** 0

# MOE 2024.06 (io_trps.svl 2023.06)
