@<TRIPOS>MOLECULE
NONAME
58 60 1 0 0 
SMALL
USER_CHARGES


@<TRIPOS>ATOM
  1 F       -1.2130    -2.4990     2.7640 F     1 <1>  -0.1900 
  2 C       -2.1420    -2.9550     1.9670 C.ar  1 <1>   0.1900 
  3 C       -3.0380    -2.0650     1.4080 C.ar  1 <1>  -0.1500 
  4 C       -2.1930    -4.3120     1.7130 C.ar  1 <1>  -0.1500 
  5 C       -4.0190    -2.5580     0.5650 C.ar  1 <1>  -0.1500 
  6 C       -3.1800    -4.7920     0.8670 C.ar  1 <1>  -0.1500 
  7 C       -4.0950    -3.9180     0.2910 C.ar  1 <1>  -0.1430 
  8 C       -5.1770    -4.4500    -0.6410 C.3   1 <1>   0.2540 
  9 N       -6.5280    -4.0440    -0.1990 N.3   1 <1>  -0.8100 
 10 C       -7.5500    -4.4170    -1.2210 C.3   1 <1>   0.1710 
 11 C       -6.8460    -4.5640     1.1360 C.3   1 <1>   0.0300 
 12 C       -7.6440    -5.9150    -1.5770 C.2   1 <1>   0.5690 
 13 O       -6.9240    -6.2950    -2.4730 O.2   1 <1>  -0.5700 
 14 N       -8.4890    -6.7920    -0.9260 N.am  1 <1>  -0.6600 
 15 C       -8.4820    -8.2560    -1.2700 C.3   1 <1>   0.1400 
 16 C       -9.5820    -6.3890     0.0050 C.3   1 <1>   0.1400 
 17 C       -8.3760    -9.1490    -0.0100 C.3   1 <1>   0.0000 
 18 C       -9.5320    -7.2330     1.2780 C.3   1 <1>  -0.1600 
 19 C       -9.5350    -8.7220     0.9300 C.3   1 <1>   0.2000 
 20 C       -8.6330   -10.6260    -0.4010 C.3   1 <1>   0.1200 
 21 C       -6.9860    -8.9760     0.6830 C.3   1 <1>  -0.0170 
 22 O       -9.5200    -9.4390     2.1140 O.3   1 <1>  -0.6800 
 23 O       -7.8790   -11.0060    -1.5020 O.3   1 <1>  -0.6800 
 24 C       -5.8030    -9.6140    -0.0380 C.ar  1 <1>  -0.1430 
 25 C       -5.1400    -8.9360    -1.0490 C.ar  1 <1>  -0.1500 
 26 C       -5.3720   -10.8840     0.3170 C.ar  1 <1>  -0.1500 
 27 C       -4.0750    -9.5230    -1.7080 C.ar  1 <1>  -0.1500 
 28 C       -4.3070   -11.4730    -0.3400 C.ar  1 <1>  -0.1500 
 29 C       -3.6580   -10.7940    -1.3550 C.ar  1 <1>  -0.1500 
 30 H       -2.9690    -1.0160     1.6300 H     1 <1>   0.1500 
 31 H       -1.4760    -4.9730     2.1660 H     1 <1>   0.1500 
 32 H       -4.7350    -1.8870     0.1200 H     1 <1>   0.1500 
 33 H       -3.2320    -5.8470     0.6590 H     1 <1>   0.1500 
 34 H       -5.1150    -5.5240    -0.6910 H     1 <1>   0.0800 
 35 H       -4.9950    -4.0640    -1.6300 H     1 <1>   0.0800 
 36 H       -8.5080    -4.0440    -0.9170 H     1 <1>   0.0800 
 37 H       -7.3080    -3.8960    -2.1300 H     1 <1>   0.0800 
 38 H       -6.1540    -4.1690     1.8610 H     1 <1>   0.0800 
 39 H       -6.7820    -5.6370     1.1480 H     1 <1>   0.0800 
 40 H       -7.8360    -4.2580     1.4250 H     1 <1>   0.0800 
 41 H       -9.3930    -8.4860    -1.7950 H     1 <1>   0.0800 
 42 H       -7.6730    -8.4830    -1.9420 H     1 <1>   0.0800 
 43 H       -9.5150    -5.3520     0.2720 H     1 <1>   0.0800 
 44 H      -10.5270    -6.5410    -0.4900 H     1 <1>   0.0800 
 45 H      -10.3990    -7.0060     1.8740 H     1 <1>   0.0800 
 46 H       -8.6570    -6.9710     1.8440 H     1 <1>   0.0800 
 47 H      -10.4710    -8.9520     0.4480 H     1 <1>   0.0800 
 48 H       -9.6660   -10.7750    -0.6650 H     1 <1>   0.0800 
 49 H       -8.3940   -11.2860     0.4160 H     1 <1>   0.0800 
 50 H       -6.7700    -7.9320     0.8120 H     1 <1>   0.0800 
 51 H       -7.0200    -9.4040     1.6680 H     1 <1>   0.0800 
 52 H       -8.7890    -9.1420     2.6880 H     1 <1>   0.4000 
 53 H       -6.9230   -10.8430    -1.3260 H     1 <1>   0.4000 
 54 H       -5.4490    -7.9480    -1.3350 H     1 <1>   0.1500 
 55 H       -5.8660   -11.4270     1.1050 H     1 <1>   0.1500 
 56 H       -3.5740    -8.9890    -2.4970 H     1 <1>   0.1500 
 57 H       -3.9820   -12.4610    -0.0620 H     1 <1>   0.1500 
 58 H       -2.8310   -11.2510    -1.8690 H     1 <1>   0.1500 
@<TRIPOS>BOND
  1   1   2  1   
  2   2   3  ar  
  3   2   4  ar  
  4   3   5  ar  
  5   3  30  1   
  6   4   6  ar  
  7   4  31  1   
  8   5   7  ar  
  9   5  32  1   
 10   6   7  ar  
 11   6  33  1   
 12   7   8  1   
 13   8   9  1   
 14   8  34  1   
 15   8  35  1   
 16   9  10  1   
 17   9  11  1   
 18  10  12  1   
 19  10  36  1   
 20  10  37  1   
 21  11  38  1   
 22  11  39  1   
 23  11  40  1   
 24  12  13  2   
 25  12  14  am  
 26  14  15  1   
 27  14  16  1   
 28  15  17  1   
 29  15  41  1   
 30  15  42  1   
 31  16  18  1   
 32  16  43  1   
 33  16  44  1   
 34  17  19  1   
 35  17  20  1   
 36  17  21  1   
 37  18  19  1   
 38  18  45  1   
 39  18  46  1   
 40  19  22  1   
 41  19  47  1   
 42  20  23  1   
 43  20  48  1   
 44  20  49  1   
 45  21  24  1   
 46  21  50  1   
 47  21  51  1   
 48  22  52  1   
 49  23  53  1   
 50  24  25  ar  
 51  24  26  ar  
 52  25  27  ar  
 53  25  54  1   
 54  26  28  ar  
 55  26  55  1   
 56  27  29  ar  
 57  27  56  1   
 58  28  29  ar  
 59  28  57  1   
 60  29  58  1   
@<TRIPOS>SUBSTRUCTURE
  1 ****  21 GROUP 4 **** **** 0

# MOE 2024.06 (io_trps.svl 2023.06)
