@<TRIPOS>MOLECULE
NONAME
48 50 1 0 0 
SMALL
USER_CHARGES


@<TRIPOS>ATOM
  1 S       -2.0350     0.0640     0.8790 S.3   1 <1>  -0.0800 
  2 C       -1.1000    -1.0540    -0.0580 C.2   1 <1>   0.4420 
  3 C       -1.0370     1.3240     0.2430 C.2   1 <1>   0.1980 
  4 N       -0.1780    -0.4660    -0.7320 N.2   1 <1>  -0.3380 
  5 N       -1.4570    -2.3790     0.0390 N.am  1 <1>  -0.4940 
  6 N       -0.1480     0.8890    -0.5550 N.2   1 <1>  -0.3380 
  7 C       -1.3270     2.7430     0.6930 C.3   1 <1>   0.0200 
  8 C       -0.9410    -3.5050    -0.5540 C.2   1 <1>   0.6160 
  9 C       -0.3650     3.7380     0.0480 C.3   1 <1>   0.1200 
 10 O        0.0020    -3.3820    -1.3120 O.2   1 <1>  -0.5700 
 11 C       -1.4820    -4.8230    -0.3050 C.2   1 <1>   0.0290 
 12 O       -0.6910     5.0110     0.5060 O.3   1 <1>  -0.5600 
 13 C       -2.5910    -5.0400     0.5780 C.2   1 <1>   0.4690 
 14 C       -0.9420    -5.9230    -0.9180 C.2   1 <1>  -0.0500 
 15 C        0.1160     6.0150    -0.0100 C.3   1 <1>   0.1200 
 16 O       -3.1310    -4.1080     1.1670 O.2   1 <1>  -0.5700 
 17 C       -3.0880    -6.3750     0.7830 C.ar  1 <1>   0.0860 
 18 N       -1.4020    -7.1960    -0.7280 N.pl3 1 <1>  -0.5690 
 19 C       -0.3610     7.3350     0.5800 C.3   1 <1>  -0.2400 
 20 C       -2.4800    -7.4530     0.1200 C.ar  1 <1>   0.4100 
 21 C       -4.1640    -6.6550     1.6240 C.ar  1 <1>  -0.1500 
 22 C       -0.7280    -8.3060    -1.4610 C.3   1 <1>   0.2090 
 23 N       -2.8810    -8.7220     0.2570 N.ar  1 <1>  -0.6200 
 24 C       -4.5670    -7.9600     1.7550 C.ar  1 <1>  -0.1500 
 25 C       -1.4310    -8.5360    -2.7980 C.3   1 <1>  -0.2400 
 26 C       -3.8970    -8.9530     1.0550 C.ar  1 <1>   0.1670 
 27 C       -4.3270   -10.3990     1.1870 C.3   1 <1>  -0.0970 
 28 H       -2.2480    -2.5760     0.6620 H     1 <1>   0.3700 
 29 H       -1.2270     2.7970     1.7610 H     1 <1>   0.0800 
 30 H       -2.3340     2.9970     0.4190 H     1 <1>   0.0800 
 31 H       -0.4630     3.7160    -1.0240 H     1 <1>   0.0800 
 32 H        0.6510     3.5150     0.3270 H     1 <1>   0.0800 
 33 H       -0.1080    -5.8010    -1.5940 H     1 <1>   0.1500 
 34 H        0.0220     6.0220    -1.0830 H     1 <1>   0.0800 
 35 H        1.1380     5.8200     0.2700 H     1 <1>   0.0800 
 36 H       -1.3850     7.5130     0.3060 H     1 <1>   0.0800 
 37 H        0.2410     8.1420     0.2040 H     1 <1>   0.0800 
 38 H       -0.2750     7.3120     1.6520 H     1 <1>   0.0800 
 39 H       -4.6650    -5.8630     2.1550 H     1 <1>   0.1500 
 40 H       -0.7390    -9.2070    -0.8730 H     1 <1>   0.0800 
 41 H        0.3020    -8.0460    -1.6350 H     1 <1>   0.0800 
 42 H       -5.3930    -8.2120     2.3950 H     1 <1>   0.1500 
 43 H       -2.4550    -8.8200    -2.6300 H     1 <1>   0.0800 
 44 H       -0.9410    -9.3270    -3.3340 H     1 <1>   0.0800 
 45 H       -1.4010    -7.6420    -3.3950 H     1 <1>   0.0800 
 46 H       -3.5090   -10.9840     1.5660 H     1 <1>   0.0800 
 47 H       -4.6060   -10.7800     0.2220 H     1 <1>   0.0800 
 48 H       -5.1640   -10.4980     1.8540 H     1 <1>   0.0800 
@<TRIPOS>BOND
  1   1   2  1   
  2   1   3  1   
  3   2   4  2   
  4   2   5  1   
  5   3   6  2   
  6   3   7  1   
  7   4   6  1   
  8   5   8  am  
  9   5  28  1   
 10   7   9  1   
 11   7  29  1   
 12   7  30  1   
 13   8  10  2   
 14   8  11  1   
 15   9  12  1   
 16   9  31  1   
 17   9  32  1   
 18  11  13  1   
 19  11  14  2   
 20  12  15  1   
 21  13  16  2   
 22  13  17  1   
 23  14  18  1   
 24  14  33  1   
 25  15  19  1   
 26  15  34  1   
 27  15  35  1   
 28  17  20  ar  
 29  17  21  ar  
 30  18  20  1   
 31  18  22  1   
 32  19  36  1   
 33  19  37  1   
 34  19  38  1   
 35  20  23  ar  
 36  21  24  ar  
 37  21  39  1   
 38  22  25  1   
 39  22  40  1   
 40  22  41  1   
 41  23  26  ar  
 42  24  26  ar  
 43  24  42  1   
 44  25  43  1   
 45  25  44  1   
 46  25  45  1   
 47  26  27  1   
 48  27  46  1   
 49  27  47  1   
 50  27  48  1   
@<TRIPOS>SUBSTRUCTURE
  1 ****   5 GROUP 4 **** **** 0

# MOE 2024.06 (io_trps.svl 2023.06)
