@<TRIPOS>MOLECULE
NONAME
60 63 1 0 0 
SMALL
USER_CHARGES


@<TRIPOS>ATOM
  1 O       -2.5540    -2.5150     1.7930 O.3   1 <1>  -0.5600 
  2 C       -2.7840    -3.8350     2.1930 C.3   1 <1>   0.1200 
  3 C       -1.3260    -2.3180     1.1610 C.3   1 <1>   0.1200 
  4 C       -2.7740    -4.7770     0.9760 C.3   1 <1>   0.2090 
  5 C       -1.2370    -3.1700    -0.1190 C.3   1 <1>   0.2090 
  6 N       -1.5030    -4.6250     0.1720 N.pl3 1 <1>  -0.8380 
  7 C       -0.7530    -5.6960    -0.2030 C.ar  1 <1>   0.7710 
  8 N       -1.1000    -6.9130     0.2060 N.ar  1 <1>  -0.6200 
  9 N        0.3240    -5.5040    -0.9880 N.ar  1 <1>  -0.1790 
 10 C       -0.3520    -7.9280    -0.1530 C.ar  1 <1>   0.4100 
 11 C        1.1150    -6.5260    -1.3950 C.ar  1 <1>   0.2180 
 12 N       -0.7650    -9.1060     0.3460 N.pl3 1 <1>  -0.8690 
 13 C        0.7780    -7.7710    -0.9770 C.ar  1 <1>  -0.1500 
 14 C        2.3150    -6.2230    -2.2840 C.3   1 <1>  -0.0170 
 15 C       -0.1100   -10.4440     0.3440 C.3   1 <1>   0.2890 
 16 C        3.3500    -5.3380    -1.5770 C.3   1 <1>  -0.2400 
 17 C       -0.8920   -11.4110    -0.5770 C.3   1 <1>   0.3430 
 18 C       -0.1170   -10.9870     1.7830 C.3   1 <1>  -0.1600 
 19 N       -2.3450   -11.4860    -0.1760 N.4   1 <1>  -0.9590 
 20 C       -1.2890   -11.9540     2.0720 C.3   1 <1>  -0.1600 
 21 C       -2.5770   -11.6160     1.3080 C.3   1 <1>   0.3430 
 22 C       -3.0810   -12.5160    -0.9650 C.3   1 <1>   0.4860 
 23 C       -4.5660   -12.3870    -0.6990 C.ar  1 <1>  -0.1430 
 24 C       -5.2230   -13.3660     0.0330 C.ar  1 <1>   0.1600 
 25 C       -5.2910   -11.3070    -1.1690 C.ar  1 <1>  -0.1500 
 26 N       -6.5040   -13.3390     0.3460 N.ar  1 <1>  -0.6200 
 27 C       -6.6330   -11.2730    -0.8580 C.ar  1 <1>  -0.1500 
 28 C       -7.1840   -12.2980    -0.1070 C.ar  1 <1>   0.1600 
 29 H       -3.7440    -3.8660     2.6770 H     1 <1>   0.0800 
 30 H       -2.0290    -4.1200     2.9050 H     1 <1>   0.0800 
 31 H       -0.5390    -2.5700     1.8510 H     1 <1>   0.0800 
 32 H       -1.2510    -1.2720     0.9200 H     1 <1>   0.0800 
 33 H       -3.6180    -4.5390     0.3520 H     1 <1>   0.0800 
 34 H       -2.9100    -5.7830     1.3300 H     1 <1>   0.0800 
 35 H       -0.2670    -3.0200    -0.5550 H     1 <1>   0.0800 
 36 H       -1.9740    -2.8080    -0.8180 H     1 <1>   0.0800 
 37 H        0.5100    -4.5490    -1.2640 H     1 <1>   0.4570 
 38 H       -1.5050    -9.0060     1.0480 H     1 <1>   0.4000 
 39 H        1.3560    -8.6290    -1.2580 H     1 <1>   0.1500 
 40 H        1.9860    -5.7420    -3.1900 H     1 <1>   0.0800 
 41 H        2.7920    -7.1450    -2.5700 H     1 <1>   0.0800 
 42 H        0.9080   -10.3570     0.0050 H     1 <1>   0.0800 
 43 H        2.9490    -4.3690    -1.3390 H     1 <1>   0.0800 
 44 H        4.2040    -5.1940    -2.2180 H     1 <1>   0.0800 
 45 H        3.6920    -5.8070    -0.6700 H     1 <1>   0.0800 
 46 H       -0.4440   -12.3880    -0.5060 H     1 <1>   0.0800 
 47 H       -0.8050   -11.0760    -1.5970 H     1 <1>   0.0800 
 48 H       -0.1270   -10.1670     2.4830 H     1 <1>   0.0800 
 49 H        0.8010   -11.5230     1.9550 H     1 <1>   0.0800 
 50 H       -2.7540   -10.5770    -0.4370 H     1 <1>   0.4500 
 51 H       -1.4960   -11.9530     3.1290 H     1 <1>   0.0800 
 52 H       -0.9990   -12.9590     1.8180 H     1 <1>   0.0800 
 53 H       -3.3200   -12.3710     1.5110 H     1 <1>   0.0800 
 54 H       -2.9620   -10.6820     1.6850 H     1 <1>   0.0800 
 55 H       -2.7440   -13.5030    -0.6910 H     1 <1>   0.0800 
 56 H       -2.9000   -12.3770    -2.0180 H     1 <1>   0.0800 
 57 H       -4.6740   -14.2220     0.3890 H     1 <1>   0.1500 
 58 H       -4.8520   -10.5200    -1.7590 H     1 <1>   0.1500 
 59 H       -7.2570   -10.4630    -1.1940 H     1 <1>   0.1500 
 60 H       -8.2340   -12.2610     0.1310 H     1 <1>   0.1500 
@<TRIPOS>BOND
  1   1   2  1   
  2   1   3  1   
  3   2   4  1   
  4   2  29  1   
  5   2  30  1   
  6   3   5  1   
  7   3  31  1   
  8   3  32  1   
  9   4   6  1   
 10   4  33  1   
 11   4  34  1   
 12   5   6  1   
 13   5  35  1   
 14   5  36  1   
 15   6   7  1   
 16   7   8  ar  
 17   7   9  ar  
 18   8  10  ar  
 19   9  11  ar  
 20   9  37  1   
 21  10  12  1   
 22  10  13  ar  
 23  11  13  ar  
 24  11  14  1   
 25  12  15  1   
 26  12  38  1   
 27  13  39  1   
 28  14  16  1   
 29  14  40  1   
 30  14  41  1   
 31  15  17  1   
 32  15  18  1   
 33  15  42  1   
 34  16  43  1   
 35  16  44  1   
 36  16  45  1   
 37  17  19  1   
 38  17  46  1   
 39  17  47  1   
 40  18  20  1   
 41  18  48  1   
 42  18  49  1   
 43  19  21  1   
 44  19  22  1   
 45  19  50  1   
 46  20  21  1   
 47  20  51  1   
 48  20  52  1   
 49  21  53  1   
 50  21  54  1   
 51  22  23  1   
 52  22  55  1   
 53  22  56  1   
 54  23  24  ar  
 55  23  25  ar  
 56  24  26  ar  
 57  24  57  1   
 58  25  27  ar  
 59  25  58  1   
 60  26  28  ar  
 61  27  28  ar  
 62  27  59  1   
 63  28  60  1   
@<TRIPOS>SUBSTRUCTURE
  1 ****  12 GROUP 4 **** **** 0

# MOE 2024.06 (io_trps.svl 2023.06)
