@<TRIPOS>MOLECULE
NONAME
61 62 1 0 0 
SMALL
USER_CHARGES


@<TRIPOS>ATOM
  1 O        0.2670     1.8740     1.7080 O.2   1 <1>  -0.5700 
  2 C        0.0270     2.1230     0.5270 C.2   1 <1>   0.5690 
  3 N       -1.2160     1.9000     0.0090 N.am  1 <1>  -0.7300 
  4 C        1.1840     2.5960    -0.3900 C.3   1 <1>   0.2810 
  5 C       -2.3200     1.2410     0.7530 C.3   1 <1>   0.1400 
  6 N        2.3330     1.7090    -0.1800 N.am  1 <1>  -0.7300 
  7 C        1.5790     4.0790    -0.1630 C.3   1 <1>  -0.0800 
  8 C       -2.4370    -0.2360     0.3540 C.3   1 <1>  -0.1600 
  9 C        3.1180     1.2000    -1.1350 C.2   1 <1>   0.5690 
 10 C        0.3640     5.0240    -0.2130 C.3   1 <1>  -0.2400 
 11 C        2.6280     4.5840    -1.1700 C.3   1 <1>  -0.2400 
 12 C       -1.0730    -0.9400     0.3530 C.3   1 <1>   0.1400 
 13 O        3.0300     1.5750    -2.2980 O.2   1 <1>  -0.5700 
 14 C        4.0750     0.0440    -0.7340 C.3   1 <1>   0.2810 
 15 N       -1.1740    -2.4270     0.2420 N.am  1 <1>  -0.6600 
 16 N        3.4350    -0.8630     0.2260 N.am  1 <1>  -0.7300 
 17 C        5.3650     0.5680    -0.0970 C.3   1 <1>  -0.2400 
 18 C       -1.8180    -3.0230    -0.8240 C.2   1 <1>   0.5440 
 19 C       -0.0680    -3.1470     0.9370 C.3   1 <1>   0.1400 
 20 C        3.5760    -2.2100     0.2150 C.2   1 <1>   0.5690 
 21 O       -2.0460    -2.3660    -1.8220 O.2   1 <1>  -0.5700 
 22 C       -2.1990    -4.4220    -0.7910 C.ar  1 <1>   0.0860 
 23 C        1.2110    -3.0420     0.0910 C.3   1 <1>  -0.1600 
 24 O        4.4670    -2.7700    -0.3690 O.2   1 <1>  -0.5700 
 25 C        2.5060    -3.0140     0.9280 C.3   1 <1>  -0.0990 
 26 C       -2.7460    -5.0300     0.3290 C.ar  1 <1>  -0.1500 
 27 C       -2.0470    -5.2520    -1.8910 C.ar  1 <1>  -0.1500 
 28 C       -3.0800    -6.3700     0.3030 C.ar  1 <1>   0.1600 
 29 C       -2.4110    -6.5830    -1.8180 C.ar  1 <1>   0.1600 
 30 N       -2.9190    -7.1630    -0.7430 N.ar  1 <1>  -0.6200 
 31 H       -1.3900     2.0470    -0.9890 H     1 <1>   0.3700 
 32 H        0.8420     2.4950    -1.4210 H     1 <1>   0.0800 
 33 H       -2.1300     1.3090     1.8120 H     1 <1>   0.0800 
 34 H       -3.2460     1.7530     0.5520 H     1 <1>   0.0800 
 35 H        2.4940     1.4410     0.7770 H     1 <1>   0.3700 
 36 H        2.0110     4.1550     0.8370 H     1 <1>   0.0800 
 37 H       -2.8800    -0.2940    -0.6230 H     1 <1>   0.0800 
 38 H       -3.0930    -0.7280     1.0490 H     1 <1>   0.0800 
 39 H       -0.1280     4.9550    -1.1840 H     1 <1>   0.0800 
 40 H        0.6880     6.0540    -0.0540 H     1 <1>   0.0800 
 41 H       -0.3490     4.7740     0.5730 H     1 <1>   0.0800 
 42 H        2.2580     4.4690    -2.1900 H     1 <1>   0.0800 
 43 H        3.5540     4.0170    -1.0680 H     1 <1>   0.0800 
 44 H        2.8540     5.6350    -0.9870 H     1 <1>   0.0800 
 45 H       -0.5580    -0.6860     1.2640 H     1 <1>   0.0800 
 46 H       -0.4880    -0.5750    -0.4740 H     1 <1>   0.0800 
 47 H        4.3300    -0.5040    -1.6440 H     1 <1>   0.0800 
 48 H        2.6350    -0.4990     0.7110 H     1 <1>   0.3700 
 49 H        5.1390     1.1100     0.8210 H     1 <1>   0.0800 
 50 H        5.8680     1.2360    -0.7970 H     1 <1>   0.0800 
 51 H        6.0240    -0.2710     0.1290 H     1 <1>   0.0800 
 52 H        0.0770    -2.7010     1.9060 H     1 <1>   0.0800 
 53 H       -0.3170    -4.1830     1.0910 H     1 <1>   0.0800 
 54 H        1.2530    -3.8650    -0.6010 H     1 <1>   0.0800 
 55 H        1.1700    -2.1460    -0.5020 H     1 <1>   0.0800 
 56 H        2.8610    -4.0150     1.0960 H     1 <1>   0.0800 
 57 H        2.3350    -2.5570     1.8850 H     1 <1>   0.0800 
 58 H       -2.9150    -4.4520     1.2200 H     1 <1>   0.1500 
 59 H       -1.6450    -4.8510    -2.8050 H     1 <1>   0.1500 
 60 H       -3.5040    -6.8180     1.1870 H     1 <1>   0.1500 
 61 H       -2.2800    -7.2040    -2.6880 H     1 <1>   0.1500 
@<TRIPOS>BOND
  1   1   2  2   
  2   2   3  am  
  3   2   4  1   
  4   3   5  1   
  5   3  31  1   
  6   4   6  1   
  7   4   7  1   
  8   4  32  1   
  9   5   8  1   
 10   5  33  1   
 11   5  34  1   
 12   6   9  am  
 13   6  35  1   
 14   7  10  1   
 15   7  11  1   
 16   7  36  1   
 17   8  12  1   
 18   8  37  1   
 19   8  38  1   
 20   9  13  2   
 21   9  14  1   
 22  10  39  1   
 23  10  40  1   
 24  10  41  1   
 25  11  42  1   
 26  11  43  1   
 27  11  44  1   
 28  12  15  1   
 29  12  45  1   
 30  12  46  1   
 31  14  16  1   
 32  14  17  1   
 33  14  47  1   
 34  15  18  am  
 35  15  19  1   
 36  16  20  am  
 37  16  48  1   
 38  17  49  1   
 39  17  50  1   
 40  17  51  1   
 41  18  21  2   
 42  18  22  1   
 43  19  23  1   
 44  19  52  1   
 45  19  53  1   
 46  20  24  2   
 47  20  25  1   
 48  22  26  ar  
 49  22  27  ar  
 50  23  25  1   
 51  23  54  1   
 52  23  55  1   
 53  25  56  1   
 54  25  57  1   
 55  26  28  ar  
 56  26  58  1   
 57  27  29  ar  
 58  27  59  1   
 59  28  30  ar  
 60  28  60  1   
 61  29  30  ar  
 62  29  61  1   
@<TRIPOS>SUBSTRUCTURE
  1 ****  12 GROUP 4 **** **** 0

# MOE 2024.06 (io_trps.svl 2023.06)
