@<TRIPOS>MOLECULE
NONAME
61 64 1 0 0 
SMALL
USER_CHARGES


@<TRIPOS>ATOM
  1 O        1.3470     1.8270     0.5250 O.3   1 <1>  -0.6800 
  2 C        1.8680     1.8770    -0.7540 C.3   1 <1>   0.1200 
  3 C        1.2610     3.0740    -1.4940 C.3   1 <1>  -0.1600 
  4 C        1.3670     4.3820    -0.6810 C.3   1 <1>   0.4230 
  5 N        0.0010     4.8910    -0.2700 N.4   1 <1>  -0.9590 
  6 C        2.1650     5.4460    -1.4810 C.3   1 <1>   0.2090 
  7 C        0.1070     6.2190     0.4400 C.3   1 <1>   0.3430 
  8 C       -0.7190     3.9060     0.5900 C.3   1 <1>   0.4380 
  9 N        2.2280     6.7590    -0.7670 N.pl3 1 <1>  -0.8380 
 10 C        0.8960     7.2850    -0.3510 C.3   1 <1>   0.2090 
 11 C       -2.1750     4.3390     0.7710 C.3   1 <1>  -0.1950 
 12 C        3.3610     7.1390    -0.1270 C.ar  1 <1>   0.4100 
 13 C       -2.6300     5.2430     1.8780 C.3   1 <1>  -0.2000 
 14 C       -2.9750     3.7830     1.9060 C.3   1 <1>  -0.2000 
 15 N        3.8960     6.2380     0.6710 N.ar  1 <1>  -0.6200 
 16 C        3.9220     8.4250    -0.3090 C.ar  1 <1>  -0.1440 
 17 C        4.9970     6.5720     1.3350 C.ar  1 <1>   0.7710 
 18 C        5.0470     8.7360     0.3890 C.ar  1 <1>   0.2180 
 19 C        3.2870     9.4230    -1.2810 C.3   1 <1>  -0.0160 
 20 N        5.5620     7.7830     1.2010 N.ar  1 <1>  -0.1790 
 21 N        5.5730     5.6680     2.1770 N.pl3 1 <1>  -0.8380 
 22 C        5.7680    10.0770     0.2950 C.3   1 <1>  -0.0160 
 23 C        4.2400    10.5670    -1.6530 C.3   1 <1>  -0.1600 
 24 C        5.0890     4.2500     2.2710 C.3   1 <1>   0.1290 
 25 C        6.6970     5.9270     3.1350 C.3   1 <1>   0.1290 
 26 C        4.9170    11.1450    -0.4060 C.3   1 <1>  -0.1600 
 27 H        1.6230     0.9960     0.9730 H     1 <1>   0.4000 
 28 H        1.6290     0.9550    -1.2590 H     1 <1>   0.0800 
 29 H        2.9390     1.9710    -0.6760 H     1 <1>   0.0800 
 30 H        0.2440     2.8520    -1.7610 H     1 <1>   0.0800 
 31 H        1.8000     3.1680    -2.4200 H     1 <1>   0.0800 
 32 H        1.9360     4.1770     0.2120 H     1 <1>   0.0800 
 33 H       -0.5570     5.0200    -1.1190 H     1 <1>   0.4500 
 34 H        1.7110     5.5940    -2.4460 H     1 <1>   0.0800 
 35 H        3.1650     5.0820    -1.6480 H     1 <1>   0.0800 
 36 H        0.6030     6.0740     1.3860 H     1 <1>   0.0800 
 37 H       -0.8780     6.6030     0.6430 H     1 <1>   0.0800 
 38 H       -0.2320     3.8210     1.5480 H     1 <1>   0.0800 
 39 H       -0.7080     2.9320     0.1290 H     1 <1>   0.0800 
 40 H        1.0230     8.1550     0.2700 H     1 <1>   0.0800 
 41 H        0.3380     7.5820    -1.2230 H     1 <1>   0.0800 
 42 H       -2.7000     4.3850    -0.1690 H     1 <1>   0.1000 
 43 H       -3.4290     5.9430     1.6970 H     1 <1>   0.1000 
 44 H       -1.9440     5.5940     2.6310 H     1 <1>   0.1000 
 45 H       -2.5010     3.1630     2.6490 H     1 <1>   0.1000 
 46 H       -4.0010     3.4970     1.7350 H     1 <1>   0.1000 
 47 H        2.4030     9.8370    -0.8290 H     1 <1>   0.0800 
 48 H        2.9890     8.9190    -2.1850 H     1 <1>   0.0800 
 49 H        6.4140     7.9260     1.7250 H     1 <1>   0.4570 
 50 H        6.6800     9.9400    -0.2610 H     1 <1>   0.0800 
 51 H        6.0260    10.4340     1.2770 H     1 <1>   0.0800 
 52 H        3.6880    11.3410    -2.1600 H     1 <1>   0.0800 
 53 H        4.9900    10.2040    -2.3360 H     1 <1>   0.0800 
 54 H        4.5040     3.9700     1.4120 H     1 <1>   0.0800 
 55 H        4.4840     4.1300     3.1540 H     1 <1>   0.0800 
 56 H        5.9270     3.5770     2.3310 H     1 <1>   0.0800 
 57 H        6.8040     6.9740     3.3590 H     1 <1>   0.0800 
 58 H        7.6210     5.5530     2.7260 H     1 <1>   0.0800 
 59 H        6.5090     5.4160     4.0660 H     1 <1>   0.0800 
 60 H        5.5390    11.9800    -0.6820 H     1 <1>   0.0800 
 61 H        4.1620    11.5100     0.2700 H     1 <1>   0.0800 
@<TRIPOS>BOND
  1   1   2  1   
  2   1  27  1   
  3   2   3  1   
  4   2  28  1   
  5   2  29  1   
  6   3   4  1   
  7   3  30  1   
  8   3  31  1   
  9   4   5  1   
 10   4   6  1   
 11   4  32  1   
 12   5   7  1   
 13   5   8  1   
 14   5  33  1   
 15   6   9  1   
 16   6  34  1   
 17   6  35  1   
 18   7  10  1   
 19   7  36  1   
 20   7  37  1   
 21   8  11  1   
 22   8  38  1   
 23   8  39  1   
 24   9  10  1   
 25   9  12  1   
 26  10  40  1   
 27  10  41  1   
 28  11  13  1   
 29  11  14  1   
 30  11  42  1   
 31  12  15  ar  
 32  12  16  ar  
 33  13  14  1   
 34  13  43  1   
 35  13  44  1   
 36  14  45  1   
 37  14  46  1   
 38  15  17  ar  
 39  16  18  ar  
 40  16  19  1   
 41  17  20  ar  
 42  17  21  1   
 43  18  20  ar  
 44  18  22  1   
 45  19  23  1   
 46  19  47  1   
 47  19  48  1   
 48  20  49  1   
 49  21  24  1   
 50  21  25  1   
 51  22  26  1   
 52  22  50  1   
 53  22  51  1   
 54  23  26  1   
 55  23  52  1   
 56  23  53  1   
 57  24  54  1   
 58  24  55  1   
 59  24  56  1   
 60  25  57  1   
 61  25  58  1   
 62  25  59  1   
 63  26  60  1   
 64  26  61  1   
@<TRIPOS>SUBSTRUCTURE
  1 ****   9 GROUP 4 **** **** 0

# MOE 2024.06 (io_trps.svl 2023.06)
