@<TRIPOS>MOLECULE
NONAME
54 57 1 0 0 
SMALL
USER_CHARGES


@<TRIPOS>ATOM
  1 O        0.4860     0.2550     1.3110 O.3   1 <1>  -0.6800 
  2 C        1.5700    -0.0050     0.4850 C.3   1 <1>   0.2000 
  3 C        2.3050    -1.2630     0.9430 C.3   1 <1>  -0.0800 
  4 C        2.6050     1.1150     0.5830 C.3   1 <1>   0.2090 
  5 C        3.7420    -1.0320     0.4670 C.3   1 <1>   0.2090 
  6 C        1.6800    -2.5590     0.3890 C.3   1 <1>  -0.0170 
  7 N        3.9290     0.4450     0.4480 N.pl3 1 <1>  -0.8380 
  8 C        2.3790    -3.8660     0.7840 C.ar  1 <1>  -0.1440 
  9 C        5.1290     1.0520     0.3540 C.ar  1 <1>   0.4100 
 10 C        2.1680    -5.0510     0.0330 C.ar  1 <1>   0.0000 
 11 C        3.2100    -3.9620     1.8660 C.ar  1 <1>  -0.1500 
 12 N        6.2060     0.2670     0.2150 N.ar  1 <1>  -0.6200 
 13 C        5.2750     2.4440     0.3950 C.ar  1 <1>  -0.1500 
 14 C        2.8650    -6.2210     0.4270 C.ar  1 <1>   0.3100 
 15 C        1.2980    -5.1520    -1.0800 C.ar  1 <1>  -0.1500 
 16 C        3.8410    -5.1730     2.1760 C.ar  1 <1>   0.1600 
 17 C        7.3730     0.8250     0.1190 C.ar  1 <1>   0.5280 
 18 C        6.5160     2.9990     0.2920 C.ar  1 <1>   0.2180 
 19 N        3.6960    -6.2640     1.4960 N.ar  1 <1>  -0.6200 
 20 C        2.6900    -7.4030    -0.3110 C.ar  1 <1>  -0.1500 
 21 C        1.1460    -6.3220    -1.7750 C.ar  1 <1>  -0.1500 
 22 N        7.5620     2.1600     0.1540 N.ar  1 <1>  -0.1790 
 23 C        8.5840    -0.0720    -0.0390 C.3   1 <1>  -0.0970 
 24 C        6.7590     4.5020     0.3290 C.3   1 <1>  -0.0170 
 25 C        1.8530    -7.4630    -1.3900 C.ar  1 <1>  -0.1500 
 26 C        7.2580     5.0350    -1.0230 C.3   1 <1>  -0.1600 
 27 C        7.4710     6.5510    -0.9740 C.3   1 <1>  -0.2400 
 28 H       -0.1630    -0.4730     1.2750 H     1 <1>   0.4000 
 29 H        1.2230    -0.0910    -0.5300 H     1 <1>   0.0800 
 30 H        2.3090    -1.2760     2.0180 H     1 <1>   0.0800 
 31 H        2.5440     1.5910     1.5470 H     1 <1>   0.0800 
 32 H        2.4560     1.8350    -0.2030 H     1 <1>   0.0800 
 33 H        3.8820    -1.4140    -0.5310 H     1 <1>   0.0800 
 34 H        4.4540    -1.5010     1.1250 H     1 <1>   0.0800 
 35 H        1.6840    -2.4750    -0.6830 H     1 <1>   0.0800 
 36 H        0.6540    -2.6220     0.7090 H     1 <1>   0.0800 
 37 H        3.4140    -3.1360     2.5190 H     1 <1>   0.1500 
 38 H        4.4030     3.0590     0.5080 H     1 <1>   0.1500 
 39 H        0.7320    -4.2970    -1.3950 H     1 <1>   0.1500 
 40 H        4.4890    -5.1970     3.0350 H     1 <1>   0.1500 
 41 H        3.2420    -8.2680     0.0080 H     1 <1>   0.1500 
 42 H        0.4830    -6.3800    -2.6210 H     1 <1>   0.1500 
 43 H        8.5090     2.5280     0.0720 H     1 <1>   0.4570 
 44 H        8.2770    -1.1030    -0.0610 H     1 <1>   0.0800 
 45 H        9.2580     0.0600     0.7870 H     1 <1>   0.0800 
 46 H        9.0930     0.1460    -0.9600 H     1 <1>   0.0800 
 47 H        5.8410     5.0050     0.5830 H     1 <1>   0.0800 
 48 H        7.4730     4.7340     1.1020 H     1 <1>   0.0800 
 49 H        1.7280    -8.3770    -1.9460 H     1 <1>   0.1500 
 50 H        8.1870     4.5670    -1.2970 H     1 <1>   0.0800 
 51 H        6.5340     4.8110    -1.7890 H     1 <1>   0.0800 
 52 H        8.2070     6.8140    -0.2340 H     1 <1>   0.0800 
 53 H        6.5510     7.0590    -0.7410 H     1 <1>   0.0800 
 54 H        7.8140     6.9060    -1.9310 H     1 <1>   0.0800 
@<TRIPOS>BOND
  1   1   2  1   
  2   1  28  1   
  3   2   3  1   
  4   2   4  1   
  5   2  29  1   
  6   3   5  1   
  7   3   6  1   
  8   3  30  1   
  9   4   7  1   
 10   4  31  1   
 11   4  32  1   
 12   5   7  1   
 13   5  33  1   
 14   5  34  1   
 15   6   8  1   
 16   6  35  1   
 17   6  36  1   
 18   7   9  1   
 19   8  10  ar  
 20   8  11  ar  
 21   9  12  ar  
 22   9  13  ar  
 23  10  14  ar  
 24  10  15  ar  
 25  11  16  ar  
 26  11  37  1   
 27  12  17  ar  
 28  13  18  ar  
 29  13  38  1   
 30  14  19  ar  
 31  14  20  ar  
 32  15  21  ar  
 33  15  39  1   
 34  16  19  ar  
 35  16  40  1   
 36  17  22  ar  
 37  17  23  1   
 38  18  22  ar  
 39  18  24  1   
 40  20  25  ar  
 41  20  41  1   
 42  21  25  ar  
 43  21  42  1   
 44  22  43  1   
 45  23  44  1   
 46  23  45  1   
 47  23  46  1   
 48  24  26  1   
 49  24  47  1   
 50  24  48  1   
 51  25  49  1   
 52  26  27  1   
 53  26  50  1   
 54  26  51  1   
 55  27  52  1   
 56  27  53  1   
 57  27  54  1   
@<TRIPOS>SUBSTRUCTURE
  1 ****   5 GROUP 4 **** **** 0

# MOE 2024.06 (io_trps.svl 2023.06)
