@<TRIPOS>MOLECULE
NONAME
51 53 1 0 0 
SMALL
USER_CHARGES


@<TRIPOS>ATOM
  1 O       -0.6250     0.1450     1.2900 O.2   1 <1>  -0.5700 
  2 C       -1.6530     0.7660     1.1060 C.2   1 <1>   0.5440 
  3 N       -2.8530     0.0900     1.0900 N.am  1 <1>  -0.6600 
  4 C       -1.5950     2.1950     0.8970 C.ar  1 <1>   0.0860 
  5 C       -2.9430    -1.3960     1.2370 C.3   1 <1>   0.1400 
  6 C       -4.1710     0.7130     0.7620 C.3   1 <1>   0.1400 
  7 C       -1.5940     2.7690    -0.3800 C.ar  1 <1>   0.1660 
  8 C       -1.5650     3.0530     1.9870 C.ar  1 <1>  -0.1500 
  9 C       -3.6710    -2.0230     0.0340 C.3   1 <1>   0.3440 
 10 C       -4.8150    -0.0030    -0.4480 C.3   1 <1>   0.2000 
 11 N       -1.6070     4.0710    -0.6190 N.ar  1 <1>  -0.6200 
 12 C       -1.5890     1.9120    -1.6370 C.3   1 <1>  -0.0960 
 13 C       -1.5600     4.4080     1.7480 C.ar  1 <1>  -0.1500 
 14 O       -4.9020    -1.3800    -0.1790 O.3   1 <1>  -0.5600 
 15 C       -3.9080    -3.5130     0.2640 C.ar  1 <1>  -0.1430 
 16 C       -6.2200     0.5350    -0.8520 C.3   1 <1>   0.0000 
 17 C       -1.5850     4.8610     0.4420 C.ar  1 <1>   0.1600 
 18 C       -2.9600    -4.4320    -0.1650 C.ar  1 <1>  -0.1500 
 19 C       -5.0480    -3.9740     0.9080 C.ar  1 <1>  -0.1500 
 20 C       -6.1530     2.0330    -1.2060 C.3   1 <1>  -0.2400 
 21 C       -6.7170    -0.2150    -2.1020 C.3   1 <1>  -0.2400 
 22 C       -7.2600     0.3440     0.2690 C.3   1 <1>  -0.2400 
 23 C       -3.1480    -5.7870     0.0460 C.ar  1 <1>  -0.1500 
 24 C       -5.2380    -5.3280     1.1200 C.ar  1 <1>  -0.1500 
 25 C       -4.2870    -6.2360     0.6890 C.ar  1 <1>  -0.1500 
 26 H       -1.9640    -1.8340     1.3210 H     1 <1>   0.0800 
 27 H       -3.4830    -1.6320     2.1370 H     1 <1>   0.0800 
 28 H       -4.8170     0.6280     1.6170 H     1 <1>   0.0800 
 29 H       -4.0520     1.7570     0.5420 H     1 <1>   0.0800 
 30 H       -1.5470     2.6580     2.9890 H     1 <1>   0.1500 
 31 H       -3.0760    -1.8930    -0.8520 H     1 <1>   0.0800 
 32 H       -4.1630     0.1160    -1.2960 H     1 <1>   0.0800 
 33 H       -1.2920     0.8990    -1.4400 H     1 <1>   0.0800 
 34 H       -0.8960     2.3260    -2.3470 H     1 <1>   0.0800 
 35 H       -2.5680     1.9140    -2.0770 H     1 <1>   0.0800 
 36 H       -1.5370     5.1110     2.5620 H     1 <1>   0.1500 
 37 H       -1.5850     5.9220     0.2590 H     1 <1>   0.1500 
 38 H       -2.0680    -4.0980    -0.6650 H     1 <1>   0.1500 
 39 H       -5.7950    -3.2750     1.2450 H     1 <1>   0.1500 
 40 H       -7.1030     2.3720    -1.5830 H     1 <1>   0.0800 
 41 H       -5.4100     2.2110    -1.9640 H     1 <1>   0.0800 
 42 H       -5.9150     2.6300    -0.3450 H     1 <1>   0.0800 
 43 H       -7.6730     0.1600    -2.4210 H     1 <1>   0.0800 
 44 H       -6.8240    -1.2660    -1.8950 H     1 <1>   0.0800 
 45 H       -6.0200    -0.1030    -2.9140 H     1 <1>   0.0800 
 46 H       -8.2320     0.6640    -0.0610 H     1 <1>   0.0800 
 47 H       -7.0020     0.9130     1.1430 H     1 <1>   0.0800 
 48 H       -7.3260    -0.6940     0.5450 H     1 <1>   0.0800 
 49 H       -2.4080    -6.4920    -0.2900 H     1 <1>   0.1500 
 50 H       -6.1260    -5.6740     1.6190 H     1 <1>   0.1500 
 51 H       -4.4350    -7.2890     0.8530 H     1 <1>   0.1500 
@<TRIPOS>BOND
  1   1   2  2   
  2   2   3  am  
  3   2   4  1   
  4   3   5  1   
  5   3   6  1   
  6   4   7  ar  
  7   4   8  ar  
  8   5   9  1   
  9   5  26  1   
 10   5  27  1   
 11   6  10  1   
 12   6  28  1   
 13   6  29  1   
 14   7  11  ar  
 15   7  12  1   
 16   8  13  ar  
 17   8  30  1   
 18   9  14  1   
 19   9  15  1   
 20   9  31  1   
 21  10  14  1   
 22  10  16  1   
 23  10  32  1   
 24  11  17  ar  
 25  12  33  1   
 26  12  34  1   
 27  12  35  1   
 28  13  17  ar  
 29  13  36  1   
 30  15  18  ar  
 31  15  19  ar  
 32  16  20  1   
 33  16  21  1   
 34  16  22  1   
 35  17  37  1   
 36  18  23  ar  
 37  18  38  1   
 38  19  24  ar  
 39  19  39  1   
 40  20  40  1   
 41  20  41  1   
 42  20  42  1   
 43  21  43  1   
 44  21  44  1   
 45  21  45  1   
 46  22  46  1   
 47  22  47  1   
 48  22  48  1   
 49  23  25  ar  
 50  23  49  1   
 51  24  25  ar  
 52  24  50  1   
 53  25  51  1   
@<TRIPOS>SUBSTRUCTURE
  1 ****   3 GROUP 4 **** **** 0

# MOE 2024.06 (io_trps.svl 2023.06)
