@<TRIPOS>MOLECULE
NONAME
48 50 1 0 0 
SMALL
USER_CHARGES


@<TRIPOS>ATOM
  1 O        0.2590    -0.2030     0.1190 O.2   1 <1>  -0.5700 
  2 C       -0.8390     0.2560    -0.0780 C.2   1 <1>   0.5690 
  3 N       -1.9160    -0.5430    -0.2620 N.am  1 <1>  -0.7300 
  4 C       -1.0170     1.7720    -0.1130 C.3   1 <1>  -0.0190 
  5 C       -1.8710    -2.0100    -0.2750 C.3   1 <1>   0.2840 
  6 C       -2.0220     2.2620     0.9480 C.3   1 <1>  -0.1600 
  7 C       -1.4000     2.2760    -1.5270 C.3   1 <1>  -0.1600 
  8 C       -3.2570    -2.5100    -0.6390 C.ar  1 <1>  -0.1440 
  9 C       -2.0800     3.8020     1.0240 C.3   1 <1>   0.2000 
 10 C       -2.1000     3.6500    -1.5260 C.3   1 <1>  -0.1600 
 11 C       -4.1800    -2.8000     0.3560 C.ar  1 <1>  -0.1500 
 12 C       -3.6140    -2.6680    -1.9700 C.ar  1 <1>  -0.1500 
 13 O       -3.3940     4.1690     1.3700 O.3   1 <1>  -0.5600 
 14 C       -1.6920     4.4890    -0.3120 C.3   1 <1>   0.2000 
 15 C       -5.4510    -3.2470     0.0320 C.ar  1 <1>  -0.1430 
 16 C       -4.8790    -3.1150    -2.3010 C.ar  1 <1>  -0.1500 
 17 C       -3.6920     4.0920     2.7290 C.3   1 <1>   0.0400 
 18 O       -2.3350     5.7060    -0.4000 O.3   1 <1>  -0.6800 
 19 C       -5.7970    -3.4090    -1.3070 C.ar  1 <1>   0.0830 
 20 C       -6.4540    -3.5580     1.1310 C.3   1 <1>  -0.0170 
 21 O       -7.0250    -3.8410    -1.6860 O.3   1 <1>  -0.3630 
 22 C       -7.8740    -3.5990     0.5620 C.3   1 <1>  -0.1600 
 23 C       -7.8900    -4.4200    -0.7300 C.3   1 <1>   0.1200 
 24 H       -2.8410    -0.1490    -0.4430 H     1 <1>   0.3700 
 25 H       -0.0590     2.1970     0.1370 H     1 <1>   0.0800 
 26 H       -1.1450    -2.3430    -0.9980 H     1 <1>   0.0800 
 27 H       -1.5780    -2.3710     0.6960 H     1 <1>   0.0800 
 28 H       -1.7420     1.8710     1.9100 H     1 <1>   0.0800 
 29 H       -2.9980     1.8820     0.6990 H     1 <1>   0.0800 
 30 H       -0.5010     2.3330    -2.1170 H     1 <1>   0.0800 
 31 H       -2.0510     1.5700    -2.0130 H     1 <1>   0.0800 
 32 H       -1.4070     4.1620     1.7830 H     1 <1>   0.0800 
 33 H       -3.1650     3.4990    -1.4930 H     1 <1>   0.0800 
 34 H       -1.8610     4.1770    -2.4330 H     1 <1>   0.0800 
 35 H       -3.9080    -2.6740     1.3890 H     1 <1>   0.1500 
 36 H       -2.9090    -2.4420    -2.7510 H     1 <1>   0.1500 
 37 H       -0.6320     4.6720    -0.3450 H     1 <1>   0.0800 
 38 H       -5.1650    -3.2400    -3.3300 H     1 <1>   0.1500 
 39 H       -4.7130     4.4020     2.8650 H     1 <1>   0.0800 
 40 H       -3.0390     4.7510     3.2740 H     1 <1>   0.0800 
 41 H       -3.5760     3.0770     3.0680 H     1 <1>   0.0800 
 42 H       -3.1780     5.5990     0.0970 H     1 <1>   0.4000 
 43 H       -6.2090    -4.5150     1.5570 H     1 <1>   0.0800 
 44 H       -6.3960    -2.8160     1.9080 H     1 <1>   0.0800 
 45 H       -8.2110    -2.6000     0.3430 H     1 <1>   0.0800 
 46 H       -8.5450    -4.0320     1.2810 H     1 <1>   0.0800 
 47 H       -8.8770    -4.4470    -1.1570 H     1 <1>   0.0800 
 48 H       -7.5540    -5.4270    -0.5500 H     1 <1>   0.0800 
@<TRIPOS>BOND
  1   1   2  2   
  2   2   3  am  
  3   2   4  1   
  4   3   5  1   
  5   3  24  1   
  6   4   6  1   
  7   4   7  1   
  8   4  25  1   
  9   5   8  1   
 10   5  26  1   
 11   5  27  1   
 12   6   9  1   
 13   6  28  1   
 14   6  29  1   
 15   7  10  1   
 16   7  30  1   
 17   7  31  1   
 18   8  11  ar  
 19   8  12  ar  
 20   9  13  1   
 21   9  14  1   
 22   9  32  1   
 23  10  14  1   
 24  10  33  1   
 25  10  34  1   
 26  11  15  ar  
 27  11  35  1   
 28  12  16  ar  
 29  12  36  1   
 30  13  17  1   
 31  14  18  1   
 32  14  37  1   
 33  15  19  ar  
 34  15  20  1   
 35  16  19  ar  
 36  16  38  1   
 37  17  39  1   
 38  17  40  1   
 39  17  41  1   
 40  18  42  1   
 41  19  21  1   
 42  20  22  1   
 43  20  43  1   
 44  20  44  1   
 45  21  23  1   
 46  22  23  1   
 47  22  45  1   
 48  22  46  1   
 49  23  47  1   
 50  23  48  1   
@<TRIPOS>SUBSTRUCTURE
  1 ****   3 GROUP 4 **** **** 0

# MOE 2024.06 (io_trps.svl 2023.06)
