@<TRIPOS>MOLECULE
NONAME
51 53 1 0 0 
SMALL
USER_CHARGES


@<TRIPOS>ATOM
  1 O        1.0160     3.9780    -1.4660 O.3   1 <1>  -0.0190 
  2 N        2.1600     4.0160    -2.0770 N.2   1 <1>  -0.4100 
  3 C        0.9160     2.9370    -0.6860 C.2   1 <1>  -0.0400 
  4 C        2.7880     2.9500    -1.7310 C.2   1 <1>   0.1080 
  5 C        2.0360     2.2110    -0.8230 C.2   1 <1>  -0.1500 
  6 C       -0.3150     2.7520     0.1830 C.3   1 <1>   0.0200 
  7 C        4.1580     2.5620    -2.2450 C.3   1 <1>  -0.0590 
  8 C       -0.5410     3.9020     1.1930 C.3   1 <1>  -0.0800 
  9 C       -1.1280     5.1640     0.5470 C.3   1 <1>   0.2000 
 10 C        0.7570     4.3930     1.8430 C.3   1 <1>   0.3430 
 11 O       -2.0680     5.7090     1.4140 O.3   1 <1>  -0.6800 
 12 C        0.0340     6.1530     0.3700 C.3   1 <1>   0.3430 
 13 N        1.2350     5.5160     0.9960 N.4   1 <1>  -0.9590 
 14 C        2.1570     6.4720     1.6700 C.3   1 <1>   0.4860 
 15 C        2.5260     7.5740     0.6960 C.ar  1 <1>  -0.1430 
 16 C        3.4860     7.4040    -0.2980 C.ar  1 <1>  -0.1430 
 17 C        1.8650     8.7910     0.8100 C.ar  1 <1>  -0.1500 
 18 C        3.7490     8.4490    -1.1690 C.ar  1 <1>  -0.1500 
 19 C        4.2950     6.1260    -0.4860 C.3   1 <1>  -0.0970 
 20 C        2.1290     9.8320    -0.0610 C.ar  1 <1>  -0.1430 
 21 C        3.0750     9.6620    -1.0640 C.ar  1 <1>   0.0820 
 22 C        1.3870    11.1540     0.0830 C.3   1 <1>  -0.0970 
 23 O        3.2980    10.7080    -1.9030 O.3   1 <1>  -0.3620 
 24 C        4.2260    10.6300    -2.9620 C.3   1 <1>   0.0400 
 25 H        2.3260     1.2830    -0.3620 H     1 <1>   0.1500 
 26 H       -1.1810     2.6360    -0.4460 H     1 <1>   0.0800 
 27 H       -0.1990     1.8300     0.7270 H     1 <1>   0.0800 
 28 H        4.8670     2.5500    -1.4380 H     1 <1>   0.0800 
 29 H        4.4870     3.2670    -2.9880 H     1 <1>   0.0800 
 30 H        4.1160     1.5860    -2.6930 H     1 <1>   0.0800 
 31 H       -1.2100     3.5260     1.9490 H     1 <1>   0.0800 
 32 H       -1.6260     4.9700    -0.3890 H     1 <1>   0.0800 
 33 H        1.4910     3.6050     1.9090 H     1 <1>   0.0800 
 34 H        0.5390     4.7560     2.8350 H     1 <1>   0.0800 
 35 H       -1.7300     5.8460     2.3200 H     1 <1>   0.4000 
 36 H       -0.2080     7.0890     0.8440 H     1 <1>   0.0800 
 37 H        0.2210     6.3290    -0.6780 H     1 <1>   0.0800 
 38 H        1.7570     5.1190     0.1930 H     1 <1>   0.4500 
 39 H        1.6780     6.9020     2.5340 H     1 <1>   0.0800 
 40 H        3.0510     5.9650     1.9930 H     1 <1>   0.0800 
 41 H        1.1340     8.9400     1.5850 H     1 <1>   0.1500 
 42 H        4.4900     8.3070    -1.9320 H     1 <1>   0.1500 
 43 H        4.3630     5.8900    -1.5340 H     1 <1>   0.0800 
 44 H        3.8650     5.2790     0.0110 H     1 <1>   0.0800 
 45 H        5.2920     6.2740    -0.1100 H     1 <1>   0.0800 
 46 H        0.6950    11.1320     0.9050 H     1 <1>   0.0800 
 47 H        0.8420    11.3660    -0.8200 H     1 <1>   0.0800 
 48 H        2.0920    11.9490     0.2500 H     1 <1>   0.0800 
 49 H        4.2160    11.5700    -3.4840 H     1 <1>   0.0800 
 50 H        3.9300     9.8390    -3.6280 H     1 <1>   0.0800 
 51 H        5.2050    10.4490    -2.5560 H     1 <1>   0.0800 
@<TRIPOS>BOND
  1   1   2  1   
  2   1   3  1   
  3   2   4  2   
  4   3   5  2   
  5   3   6  1   
  6   4   5  1   
  7   4   7  1   
  8   5  25  1   
  9   6   8  1   
 10   6  26  1   
 11   6  27  1   
 12   7  28  1   
 13   7  29  1   
 14   7  30  1   
 15   8   9  1   
 16   8  10  1   
 17   8  31  1   
 18   9  11  1   
 19   9  12  1   
 20   9  32  1   
 21  10  13  1   
 22  10  33  1   
 23  10  34  1   
 24  11  35  1   
 25  12  13  1   
 26  12  36  1   
 27  12  37  1   
 28  13  14  1   
 29  13  38  1   
 30  14  15  1   
 31  14  39  1   
 32  14  40  1   
 33  15  16  ar  
 34  15  17  ar  
 35  16  18  ar  
 36  16  19  1   
 37  17  20  ar  
 38  17  41  1   
 39  18  21  ar  
 40  18  42  1   
 41  19  43  1   
 42  19  44  1   
 43  19  45  1   
 44  20  21  ar  
 45  20  22  1   
 46  21  23  1   
 47  22  46  1   
 48  22  47  1   
 49  22  48  1   
 50  23  24  1   
 51  24  49  1   
 52  24  50  1   
 53  24  51  1   
@<TRIPOS>SUBSTRUCTURE
  1 ****  13 GROUP 4 **** **** 0

# MOE 2024.06 (io_trps.svl 2023.06)
