@<TRIPOS>MOLECULE
NONAME
50 51 1 0 0 
SMALL
USER_CHARGES


@<TRIPOS>ATOM
  1 O       -0.3050     0.6920    -0.7080 O.2   1 <1>  -0.5700 
  2 C       -1.4790     0.4880    -0.4640 C.2   1 <1>   0.7800 
  3 O       -1.9680    -0.7460    -0.5290 O.3   1 <1>  -0.4300 
  4 N       -2.3420     1.4810    -0.1120 N.am  1 <1>  -0.6600 
  5 C       -1.1310    -1.8190    -0.8890 C.3   1 <1>   0.2640 
  6 C       -1.9490     2.8970     0.0500 C.3   1 <1>   0.1400 
  7 C       -3.7520     1.2730     0.2650 C.3   1 <1>   0.1400 
  8 C       -1.9540    -3.0960    -0.8680 C.ar  1 <1>  -0.1440 
  9 C       -3.0750     3.5220     0.8760 C.3   1 <1>   0.1900 
 10 C       -4.2980     2.6720     0.5380 C.3   1 <1>  -0.1600 
 11 C       -2.7570    -3.4260    -1.9500 C.ar  1 <1>  -0.1500 
 12 C       -1.9120    -3.9410     0.2310 C.ar  1 <1>  -0.1500 
 13 N       -3.2920     4.9260     0.5270 N.3   1 <1>  -0.9000 
 14 C       -3.5050    -4.5910    -1.9360 C.ar  1 <1>  -0.1500 
 15 C       -2.6610    -5.1060     0.2460 C.ar  1 <1>  -0.1500 
 16 C       -4.2690     5.6040     1.4190 C.3   1 <1>   0.1710 
 17 C       -3.4570    -5.4320    -0.8380 C.ar  1 <1>  -0.1500 
 18 C       -4.3660     7.1190     1.2170 C.2   1 <1>   0.6590 
 19 O       -3.5510     7.8580     1.7090 O.2   1 <1>  -0.5700 
 20 O       -5.3990     7.5390     0.4910 O.3   1 <1>  -0.4300 
 21 C       -5.7240     8.8660     0.1410 C.3   1 <1>   0.2800 
 22 C       -6.0160     9.6850     1.4040 C.3   1 <1>  -0.2400 
 23 C       -6.9930     8.7640    -0.7050 C.3   1 <1>  -0.2400 
 24 C       -4.5970     9.4770    -0.6990 C.3   1 <1>  -0.2400 
 25 H       -0.7410    -1.6310    -1.8740 H     1 <1>   0.0800 
 26 H       -0.3190    -1.8700    -0.1850 H     1 <1>   0.0800 
 27 H       -0.9990     2.9740     0.5500 H     1 <1>   0.0800 
 28 H       -1.8960     3.3550    -0.9230 H     1 <1>   0.0800 
 29 H       -4.2910     0.7860    -0.5310 H     1 <1>   0.0800 
 30 H       -3.7940     0.6660     1.1530 H     1 <1>   0.0800 
 31 H       -2.8280     3.4240     1.9210 H     1 <1>   0.0800 
 32 H       -5.0180     2.6590     1.3350 H     1 <1>   0.0800 
 33 H       -4.7610     3.0390    -0.3610 H     1 <1>   0.0800 
 34 H       -2.8030    -2.7730    -2.8040 H     1 <1>   0.1500 
 35 H       -1.3000    -3.6940     1.0800 H     1 <1>   0.1500 
 36 H       -2.3980     5.4300     0.6180 H     1 <1>   0.3600 
 37 H       -4.1260    -4.8410    -2.7790 H     1 <1>   0.1500 
 38 H       -2.6240    -5.7580     1.1010 H     1 <1>   0.1500 
 39 H       -5.2460     5.1830     1.2650 H     1 <1>   0.0800 
 40 H       -3.9900     5.4360     2.4440 H     1 <1>   0.0800 
 41 H       -4.0390    -6.3370    -0.8270 H     1 <1>   0.1500 
 42 H       -6.3800    10.6590     1.1320 H     1 <1>   0.0800 
 43 H       -5.1260     9.8230     1.9900 H     1 <1>   0.0800 
 44 H       -6.7630     9.1970     2.0030 H     1 <1>   0.0800 
 45 H       -7.3130     9.7410    -1.0180 H     1 <1>   0.0800 
 46 H       -7.7860     8.3130    -0.1360 H     1 <1>   0.0800 
 47 H       -6.8090     8.1690    -1.5820 H     1 <1>   0.0800 
 48 H       -4.8970    10.4400    -1.0700 H     1 <1>   0.0800 
 49 H       -4.3720     8.8440    -1.5390 H     1 <1>   0.0800 
 50 H       -3.7080     9.6160    -0.1130 H     1 <1>   0.0800 
@<TRIPOS>BOND
  1   1   2  2   
  2   2   3  1   
  3   2   4  am  
  4   3   5  1   
  5   4   6  1   
  6   4   7  1   
  7   5   8  1   
  8   5  25  1   
  9   5  26  1   
 10   6   9  1   
 11   6  27  1   
 12   6  28  1   
 13   7  10  1   
 14   7  29  1   
 15   7  30  1   
 16   8  11  ar  
 17   8  12  ar  
 18   9  10  1   
 19   9  13  1   
 20   9  31  1   
 21  10  32  1   
 22  10  33  1   
 23  11  14  ar  
 24  11  34  1   
 25  12  15  ar  
 26  12  35  1   
 27  13  16  1   
 28  13  36  1   
 29  14  17  ar  
 30  14  37  1   
 31  15  17  ar  
 32  15  38  1   
 33  16  18  1   
 34  16  39  1   
 35  16  40  1   
 36  17  41  1   
 37  18  19  2   
 38  18  20  1   
 39  20  21  1   
 40  21  22  1   
 41  21  23  1   
 42  21  24  1   
 43  22  42  1   
 44  22  43  1   
 45  22  44  1   
 46  23  45  1   
 47  23  46  1   
 48  23  47  1   
 49  24  48  1   
 50  24  49  1   
 51  24  50  1   
@<TRIPOS>SUBSTRUCTURE
  1 ****   7 GROUP 4 **** **** 0

# MOE 2024.06 (io_trps.svl 2023.06)
