@<TRIPOS>MOLECULE
NONAME
50 53 1 0 0 
SMALL
USER_CHARGES


@<TRIPOS>ATOM
  1 O        0.2220    -2.0560     1.3620 O.3   1 <1>  -0.5600 
  2 C        0.4120    -1.2750     0.2170 C.3   1 <1>   0.2000 
  3 C       -0.8190    -1.6460     2.1980 C.3   1 <1>   0.0400 
  4 C        1.8180    -1.5790    -0.3340 C.3   1 <1>   0.0000 
  5 C       -0.5690    -1.7140    -0.8800 C.3   1 <1>  -0.1600 
  6 C        2.8010    -1.8610     0.8280 C.3   1 <1>   0.3430 
  7 C        2.3270    -0.4020    -1.2010 C.3   1 <1>  -0.1600 
  8 C        1.5810    -2.8390    -1.1930 C.3   1 <1>  -0.1600 
  9 C        0.1890    -2.6750    -1.8020 C.3   1 <1>  -0.1600 
 10 N        4.2210    -1.4480     0.5510 N.4   1 <1>  -0.9590 
 11 C        3.7550    -0.6430    -1.7340 C.3   1 <1>  -0.1600 
 12 C        4.5900    -1.6070    -0.8830 C.3   1 <1>   0.3430 
 13 C        5.1590    -2.1350     1.4810 C.3   1 <1>   0.4860 
 14 C        6.5410    -1.5320     1.3260 C.ar  1 <1>  -0.1440 
 15 C        7.5310    -2.1380     0.5170 C.ar  1 <1>   0.0000 
 16 C        6.8600    -0.3670     1.9650 C.ar  1 <1>  -0.1500 
 17 C        8.7720    -1.4670     0.3920 C.ar  1 <1>   0.3100 
 18 C        7.3650    -3.3620    -0.1740 C.ar  1 <1>  -0.1500 
 19 C        8.1260     0.2040     1.7860 C.ar  1 <1>   0.1600 
 20 N        9.0450    -0.3030     1.0290 N.ar  1 <1>  -0.6200 
 21 C        9.7660    -2.0230    -0.4260 C.ar  1 <1>  -0.1500 
 22 C        8.3580    -3.8770    -0.9620 C.ar  1 <1>  -0.1500 
 23 C        9.5720    -3.2000    -1.0950 C.ar  1 <1>  -0.1500 
 24 H        0.2960    -0.2360     0.4800 H     1 <1>   0.0800 
 25 H       -0.8630    -2.3220     3.0350 H     1 <1>   0.0800 
 26 H       -1.7530    -1.6800     1.6650 H     1 <1>   0.0800 
 27 H       -0.6250    -0.6480     2.5510 H     1 <1>   0.0800 
 28 H       -1.4480    -2.1820    -0.4760 H     1 <1>   0.0800 
 29 H       -0.8750    -0.8530    -1.4480 H     1 <1>   0.0800 
 30 H        2.7560    -2.9130     1.0570 H     1 <1>   0.0800 
 31 H        2.4530    -1.3350     1.7030 H     1 <1>   0.0800 
 32 H        1.6620    -0.2160    -2.0280 H     1 <1>   0.0800 
 33 H        2.3330     0.4900    -0.5970 H     1 <1>   0.0800 
 34 H        2.3210    -2.9980    -1.9560 H     1 <1>   0.0800 
 35 H        1.5580    -3.7080    -0.5560 H     1 <1>   0.0800 
 36 H       -0.3140    -3.6250    -1.8730 H     1 <1>   0.0800 
 37 H        0.2630    -2.2500    -2.7890 H     1 <1>   0.0800 
 38 H        4.2940    -0.4420     0.7420 H     1 <1>   0.4500 
 39 H        4.2690     0.3000    -1.8130 H     1 <1>   0.0800 
 40 H        3.7010    -1.0460    -2.7310 H     1 <1>   0.0800 
 41 H        5.6370    -1.3990    -1.0380 H     1 <1>   0.0800 
 42 H        4.3980    -2.6220    -1.1920 H     1 <1>   0.0800 
 43 H        4.8280    -1.9940     2.4970 H     1 <1>   0.0800 
 44 H        5.1790    -3.1940     1.2840 H     1 <1>   0.0800 
 45 H        6.1710     0.1450     2.6120 H     1 <1>   0.1500 
 46 H        6.4510    -3.9170    -0.0870 H     1 <1>   0.1500 
 47 H        8.3490     1.1230     2.3040 H     1 <1>   0.1500 
 48 H       10.6960    -1.4890    -0.5090 H     1 <1>   0.1500 
 49 H        8.2270    -4.8090    -1.4870 H     1 <1>   0.1500 
 50 H       10.3460    -3.6160    -1.7190 H     1 <1>   0.1500 
@<TRIPOS>BOND
  1   1   2  1   
  2   1   3  1   
  3   2   4  1   
  4   2   5  1   
  5   2  24  1   
  6   3  25  1   
  7   3  26  1   
  8   3  27  1   
  9   4   6  1   
 10   4   7  1   
 11   4   8  1   
 12   5   9  1   
 13   5  28  1   
 14   5  29  1   
 15   6  10  1   
 16   6  30  1   
 17   6  31  1   
 18   7  11  1   
 19   7  32  1   
 20   7  33  1   
 21   8   9  1   
 22   8  34  1   
 23   8  35  1   
 24   9  36  1   
 25   9  37  1   
 26  10  12  1   
 27  10  13  1   
 28  10  38  1   
 29  11  12  1   
 30  11  39  1   
 31  11  40  1   
 32  12  41  1   
 33  12  42  1   
 34  13  14  1   
 35  13  43  1   
 36  13  44  1   
 37  14  15  ar  
 38  14  16  ar  
 39  15  17  ar  
 40  15  18  ar  
 41  16  19  ar  
 42  16  45  1   
 43  17  20  ar  
 44  17  21  ar  
 45  18  22  ar  
 46  18  46  1   
 47  19  20  ar  
 48  19  47  1   
 49  21  23  ar  
 50  21  48  1   
 51  22  23  ar  
 52  22  49  1   
 53  23  50  1   
@<TRIPOS>SUBSTRUCTURE
  1 ****  10 GROUP 4 **** **** 0

# MOE 2024.06 (io_trps.svl 2023.06)
