@<TRIPOS>MOLECULE
NONAME
47 49 1 0 0 
SMALL
USER_CHARGES


@<TRIPOS>ATOM
  1 S       -0.5100    -0.2280     0.0550 S.3   1 <1>  -0.3320 
  2 C       -0.2760     1.5530    -0.0850 C.ar  1 <1>   0.1020 
  3 C       -1.1650    -0.8090    -1.5850 C.3   1 <1>   0.1310 
  4 C        0.0910     2.2300     1.0620 C.ar  1 <1>  -0.1500 
  5 C       -0.4520     2.2280    -1.2840 C.ar  1 <1>  -0.1500 
  6 C       -1.4710    -2.3010    -1.5600 C.2   1 <1>   0.5690 
  7 C        0.2820     3.6020     1.0260 C.ar  1 <1>   0.0820 
  8 C       -0.2610     3.6000    -1.3220 C.ar  1 <1>  -0.1500 
  9 O       -0.8040    -3.0230    -2.2630 O.2   1 <1>  -0.5700 
 10 N       -2.4950    -2.8030    -0.8000 N.am  1 <1>  -0.6600 
 11 O        0.6390     4.2000     2.1900 O.3   1 <1>  -0.3630 
 12 C        0.1040     4.2860    -0.1750 C.ar  1 <1>  -0.1500 
 13 C       -3.3950    -2.0340     0.0970 C.3   1 <1>   0.1400 
 14 C       -2.7770    -4.2540    -0.7100 C.3   1 <1>   0.1400 
 15 C        0.8750     5.5890     2.2600 C.3   1 <1>   0.0400 
 16 C       -4.3710    -3.0700     0.6540 C.3   1 <1>   0.2000 
 17 C       -3.6550    -4.4140     0.5320 C.3   1 <1>  -0.0800 
 18 O       -4.6860    -2.8150     1.9790 O.3   1 <1>  -0.6800 
 19 C       -4.6240    -5.6050     0.4570 C.3   1 <1>  -0.0160 
 20 C       -3.8680    -6.9180     0.3280 C.ar  1 <1>  -0.1430 
 21 C       -3.3260    -7.5510     1.4270 C.ar  1 <1>  -0.1500 
 22 C       -3.6810    -7.5430    -0.8890 C.ar  1 <1>  -0.1500 
 23 C       -2.6410    -8.7430     1.2620 C.ar  1 <1>   0.1600 
 24 C       -2.9790    -8.7350    -0.9450 C.ar  1 <1>   0.1600 
 25 N       -2.4530    -9.3510     0.1020 N.ar  1 <1>  -0.6200 
 26 H       -2.0530    -0.2460    -1.7990 H     1 <1>   0.0800 
 27 H       -0.4070    -0.6040    -2.3170 H     1 <1>   0.0800 
 28 H        0.2280     1.6980     1.9840 H     1 <1>   0.1500 
 29 H       -0.7280     1.7150    -2.1830 H     1 <1>   0.1500 
 30 H       -0.3940     4.1350    -2.2470 H     1 <1>   0.1500 
 31 H        0.2440     5.3480    -0.2350 H     1 <1>   0.1500 
 32 H       -2.8170    -1.5950     0.8920 H     1 <1>   0.0800 
 33 H       -3.9180    -1.2710    -0.4510 H     1 <1>   0.0800 
 34 H       -3.3020    -4.5610    -1.5980 H     1 <1>   0.0800 
 35 H       -1.8640    -4.8210    -0.6240 H     1 <1>   0.0800 
 36 H        1.1480     5.8300     3.2710 H     1 <1>   0.0800 
 37 H       -0.0260     6.1110     1.9900 H     1 <1>   0.0800 
 38 H        1.6820     5.8400     1.5940 H     1 <1>   0.0800 
 39 H       -5.2830    -3.0580     0.0800 H     1 <1>   0.0800 
 40 H       -2.9940    -4.5440     1.3710 H     1 <1>   0.0800 
 41 H       -3.8740    -2.7940     2.5230 H     1 <1>   0.4000 
 42 H       -5.2910    -5.4860    -0.3790 H     1 <1>   0.0800 
 43 H       -5.2260    -5.6290     1.3490 H     1 <1>   0.0800 
 44 H       -3.4300    -7.1290     2.4100 H     1 <1>   0.1500 
 45 H       -4.0730    -7.1170    -1.7940 H     1 <1>   0.1500 
 46 H       -2.2240    -9.2230     2.1320 H     1 <1>   0.1500 
 47 H       -2.8410    -9.2080    -1.9030 H     1 <1>   0.1500 
@<TRIPOS>BOND
  1   1   2  1   
  2   1   3  1   
  3   2   4  ar  
  4   2   5  ar  
  5   3   6  1   
  6   3  26  1   
  7   3  27  1   
  8   4   7  ar  
  9   4  28  1   
 10   5   8  ar  
 11   5  29  1   
 12   6   9  2   
 13   6  10  am  
 14   7  11  1   
 15   7  12  ar  
 16   8  12  ar  
 17   8  30  1   
 18  10  13  1   
 19  10  14  1   
 20  11  15  1   
 21  12  31  1   
 22  13  16  1   
 23  13  32  1   
 24  13  33  1   
 25  14  17  1   
 26  14  34  1   
 27  14  35  1   
 28  15  36  1   
 29  15  37  1   
 30  15  38  1   
 31  16  17  1   
 32  16  18  1   
 33  16  39  1   
 34  17  19  1   
 35  17  40  1   
 36  18  41  1   
 37  19  20  1   
 38  19  42  1   
 39  19  43  1   
 40  20  21  ar  
 41  20  22  ar  
 42  21  23  ar  
 43  21  44  1   
 44  22  24  ar  
 45  22  45  1   
 46  23  25  ar  
 47  23  46  1   
 48  24  25  ar  
 49  24  47  1   
@<TRIPOS>SUBSTRUCTURE
  1 ****  10 GROUP 4 **** **** 0

# MOE 2024.06 (io_trps.svl 2023.06)
