@<TRIPOS>MOLECULE
NONAME
49 51 1 0 0 
SMALL
USER_CHARGES


@<TRIPOS>ATOM
  1 O        0.1660     0.7160     1.6420 O.3   1 <1>  -0.5320 
  2 C        1.2140     0.6490     0.7940 C.ar  1 <1>   0.0820 
  3 C        1.8110    -0.5800     0.5650 C.ar  1 <1>  -0.1440 
  4 C        1.6920     1.7890     0.1470 C.ar  1 <1>   0.1660 
  5 C        2.8710    -0.5970    -0.3350 C.ar  1 <1>  -0.1440 
  6 C        1.2810    -1.8030     1.3040 C.3   1 <1>   0.4870 
  7 N        2.7010     1.7750    -0.7020 N.ar  1 <1>  -0.6200 
  8 C        1.0590     3.1490     0.3860 C.3   1 <1>  -0.0960 
  9 C        3.2600     0.5990    -0.9220 C.ar  1 <1>   0.1600 
 10 C        3.6220    -1.8570    -0.7450 C.3   1 <1>   0.2640 
 11 N        0.5550    -2.7150     0.3840 N.4   1 <1>  -0.9590 
 12 O        3.9910    -2.5740     0.3810 O.3   1 <1>  -0.6800 
 13 C       -0.2560    -2.0740    -0.6950 C.3   1 <1>   0.3430 
 14 C       -0.2990    -3.7290     1.0470 C.3   1 <1>   0.3430 
 15 C       -1.5160    -2.9360    -0.8480 C.3   1 <1>   0.2000 
 16 C       -1.2380    -4.2190    -0.0590 C.3   1 <1>  -0.0800 
 17 O       -2.5930    -2.2840    -0.2580 O.3   1 <1>  -0.6800 
 18 C       -0.6310    -5.3410    -0.9480 C.3   1 <1>   0.0210 
 19 C        0.8510    -5.6040    -0.7250 C.2   1 <1>   0.1080 
 20 N        1.7910    -4.7830    -1.0870 N.2   1 <1>  -0.7070 
 21 C        1.3570    -6.7310    -0.0880 C.2   1 <1>  -0.1500 
 22 N        2.9380    -5.3800    -0.6860 N.pl3 1 <1>   0.3000 
 23 C        2.6940    -6.5550    -0.0740 C.2   1 <1>  -0.3320 
 24 C        3.7750    -7.4590     0.4910 C.3   1 <1>  -0.0600 
 25 H       -0.1470     1.6310     1.7910 H     1 <1>   0.4500 
 26 H        0.6150    -1.4800     2.0860 H     1 <1>   0.0800 
 27 H        2.0970    -2.3300     1.7680 H     1 <1>   0.0800 
 28 H        0.0130     3.1220     0.1430 H     1 <1>   0.0800 
 29 H        1.5280     3.8920    -0.2370 H     1 <1>   0.0800 
 30 H        1.1900     3.4420     1.4110 H     1 <1>   0.0800 
 31 H        4.0810     0.5980    -1.6210 H     1 <1>   0.1500 
 32 H        4.5180    -1.6200    -1.2950 H     1 <1>   0.0800 
 33 H        2.9980    -2.4800    -1.3610 H     1 <1>   0.0800 
 34 H        1.2770    -3.2800    -0.1160 H     1 <1>   0.4500 
 35 H        4.6410    -2.0520     0.8980 H     1 <1>   0.4000 
 36 H       -0.5270    -1.0620    -0.4410 H     1 <1>   0.0800 
 37 H        0.3070    -2.0740    -1.6130 H     1 <1>   0.0800 
 38 H        0.2890    -4.5320     1.4630 H     1 <1>   0.0800 
 39 H       -0.8760    -3.2640     1.8300 H     1 <1>   0.0800 
 40 H       -1.7700    -3.1090    -1.8810 H     1 <1>   0.0800 
 41 H       -2.1510    -4.5990     0.3680 H     1 <1>   0.0800 
 42 H       -2.4050    -1.9840     0.6520 H     1 <1>   0.4000 
 43 H       -0.7850    -5.1310    -1.9910 H     1 <1>   0.0800 
 44 H       -1.1580    -6.2570    -0.7440 H     1 <1>   0.0800 
 45 H        0.7880    -7.5580     0.3020 H     1 <1>   0.1500 
 46 H        3.8680    -4.9590    -0.8230 H     1 <1>   0.2700 
 47 H        3.3330    -8.3360     0.9320 H     1 <1>   0.0800 
 48 H        4.3370    -6.9430     1.2490 H     1 <1>   0.0800 
 49 H        4.4450    -7.7730    -0.2900 H     1 <1>   0.0800 
@<TRIPOS>BOND
  1   1   2  1   
  2   1  25  1   
  3   2   3  ar  
  4   2   4  ar  
  5   3   5  ar  
  6   3   6  1   
  7   4   7  ar  
  8   4   8  1   
  9   5   9  ar  
 10   5  10  1   
 11   6  11  1   
 12   6  26  1   
 13   6  27  1   
 14   7   9  ar  
 15   8  28  1   
 16   8  29  1   
 17   8  30  1   
 18   9  31  1   
 19  10  12  1   
 20  10  32  1   
 21  10  33  1   
 22  11  13  1   
 23  11  14  1   
 24  11  34  1   
 25  12  35  1   
 26  13  15  1   
 27  13  36  1   
 28  13  37  1   
 29  14  16  1   
 30  14  38  1   
 31  14  39  1   
 32  15  16  1   
 33  15  17  1   
 34  15  40  1   
 35  16  18  1   
 36  16  41  1   
 37  17  42  1   
 38  18  19  1   
 39  18  43  1   
 40  18  44  1   
 41  19  20  2   
 42  19  21  1   
 43  20  22  1   
 44  21  23  2   
 45  21  45  1   
 46  22  23  1   
 47  22  46  1   
 48  23  24  1   
 49  24  47  1   
 50  24  48  1   
 51  24  49  1   
@<TRIPOS>SUBSTRUCTURE
  1 ****  11 GROUP 4 **** **** 0

# MOE 2024.06 (io_trps.svl 2023.06)
