@<TRIPOS>MOLECULE
NONAME
44 45 1 0 0 
SMALL
USER_CHARGES


@<TRIPOS>ATOM
  1 CL      -0.7000    -0.0840    -1.6500 Cl    1 <1>  -0.1770 
  2 C       -1.8690    -0.7980    -0.5640 C.ar  1 <1>   0.1770 
  3 C       -2.7500     0.0100     0.1400 C.ar  1 <1>  -0.1440 
  4 C       -1.8850    -2.1720    -0.4330 C.ar  1 <1>  -0.1500 
  5 C       -3.6570    -0.5980     0.9940 C.ar  1 <1>  -0.1500 
  6 C       -2.7260     1.5230    -0.0090 C.3   1 <1>  -0.0960 
  7 C       -2.8000    -2.7950     0.4110 C.ar  1 <1>   0.0860 
  8 C       -3.6750    -1.9760     1.1270 C.ar  1 <1>  -0.1500 
  9 C       -2.8280    -4.2410     0.5370 C.2   1 <1>   0.5440 
 10 O       -1.7880    -4.8520     0.6880 O.2   1 <1>  -0.5700 
 11 N       -4.0050    -4.9500     0.4700 N.am  1 <1>  -0.6600 
 12 C       -5.2440    -4.4630    -0.1880 C.3   1 <1>   0.1400 
 13 C       -4.0440    -6.4260     0.6320 C.3   1 <1>   0.1400 
 14 C       -5.9390    -5.7290    -0.6790 C.3   1 <1>   0.2000 
 15 C       -5.4750    -6.8320     0.2670 C.3   1 <1>  -0.0800 
 16 O       -7.3180    -5.6130    -0.6360 O.3   1 <1>  -0.6800 
 17 C       -5.5930    -8.2310    -0.3610 C.3   1 <1>  -0.0550 
 18 S       -5.2010    -9.5500     0.7860 S.o2  1 <1>   1.3330 
 19 O       -6.1600    -9.4880     1.8660 O.2   1 <1>  -0.6500 
 20 O       -3.7870    -9.5150     1.0800 O.2   1 <1>  -0.6500 
 21 N       -5.5100   -10.9470    -0.1270 N.am  1 <1>  -0.8490 
 22 C       -4.3850   -11.3460    -0.9800 C.3   1 <1>   0.1160 
 23 C       -5.9240   -12.0770     0.7100 C.3   1 <1>   0.1160 
 24 H       -1.1830    -2.7690    -0.9880 H     1 <1>   0.1500 
 25 H       -4.3490    -0.0010     1.5630 H     1 <1>   0.1500 
 26 H       -3.4760     1.9860     0.6060 H     1 <1>   0.0800 
 27 H       -2.9110     1.7940    -1.0340 H     1 <1>   0.0800 
 28 H       -1.7630     1.9060     0.2810 H     1 <1>   0.0800 
 29 H       -4.3760    -2.4330     1.8050 H     1 <1>   0.1500 
 30 H       -5.8520    -3.9520     0.5380 H     1 <1>   0.0800 
 31 H       -5.0110    -3.8090    -1.0100 H     1 <1>   0.0800 
 32 H       -3.3280    -6.8720    -0.0380 H     1 <1>   0.0800 
 33 H       -3.7970    -6.7030     1.6440 H     1 <1>   0.0800 
 34 H       -5.6460    -5.9330    -1.6950 H     1 <1>   0.0800 
 35 H       -6.0590    -6.7950     1.1710 H     1 <1>   0.0800 
 36 H       -7.6290    -5.5180     0.2860 H     1 <1>   0.4000 
 37 H       -4.9510    -8.2950    -1.2170 H     1 <1>   0.0800 
 38 H       -6.6030    -8.3660    -0.7000 H     1 <1>   0.0800 
 39 H       -4.6680   -12.1800    -1.6000 H     1 <1>   0.0800 
 40 H       -3.5370   -11.6290    -0.3780 H     1 <1>   0.0800 
 41 H       -4.0970   -10.5310    -1.6210 H     1 <1>   0.0800 
 42 H       -6.1270   -12.9400     0.1000 H     1 <1>   0.0800 
 43 H       -6.8250   -11.8270     1.2470 H     1 <1>   0.0800 
 44 H       -5.1530   -12.3180     1.4230 H     1 <1>   0.0800 
@<TRIPOS>BOND
  1   1   2  1   
  2   2   3  ar  
  3   2   4  ar  
  4   3   5  ar  
  5   3   6  1   
  6   4   7  ar  
  7   4  24  1   
  8   5   8  ar  
  9   5  25  1   
 10   6  26  1   
 11   6  27  1   
 12   6  28  1   
 13   7   8  ar  
 14   7   9  1   
 15   8  29  1   
 16   9  10  2   
 17   9  11  am  
 18  11  12  1   
 19  11  13  1   
 20  12  14  1   
 21  12  30  1   
 22  12  31  1   
 23  13  15  1   
 24  13  32  1   
 25  13  33  1   
 26  14  15  1   
 27  14  16  1   
 28  14  34  1   
 29  15  17  1   
 30  15  35  1   
 31  16  36  1   
 32  17  18  1   
 33  17  37  1   
 34  17  38  1   
 35  18  19  2   
 36  18  20  2   
 37  18  21  am  
 38  21  22  1   
 39  21  23  1   
 40  22  39  1   
 41  22  40  1   
 42  22  41  1   
 43  23  42  1   
 44  23  43  1   
 45  23  44  1   
@<TRIPOS>SUBSTRUCTURE
  1 ****  11 GROUP 4 **** **** 0

# MOE 2024.06 (io_trps.svl 2023.06)
