@<TRIPOS>MOLECULE
NONAME
45 47 1 0 0 
SMALL
USER_CHARGES


@<TRIPOS>ATOM
  1 S        0.0570     0.2940    -1.0420 S.3   1 <1>  -0.0800 
  2 C        1.6880     0.3650    -0.4290 C.2   1 <1>  -0.1400 
  3 C       -0.4790     1.1820     0.3660 C.2   1 <1>   0.2280 
  4 C        1.6840     1.0360     0.7350 C.2   1 <1>   0.0460 
  5 C        2.7840    -0.2910    -1.2290 C.3   1 <1>   0.5230 
  6 N        0.4540     1.4780     1.1790 N.2   1 <1>  -0.5650 
  7 C        2.8680     1.3640     1.6250 C.3   1 <1>  -0.0590 
  8 N        2.9640    -1.6580    -0.6830 N.4   1 <1>  -0.9590 
  9 C        4.3380    -2.1850    -0.8560 C.3   1 <1>   0.4860 
 10 C        1.9060    -2.6180    -1.0740 C.3   1 <1>   0.5240 
 11 C        5.2130    -1.4180     0.1090 C.ar  1 <1>  -0.1440 
 12 C        1.9180    -3.7020    -0.0290 C.2   1 <1>  -0.1810 
 13 C        5.1570    -1.7130     1.4640 C.ar  1 <1>  -0.1500 
 14 C        6.0590    -0.4130    -0.3400 C.ar  1 <1>  -0.1500 
 15 C        1.5260    -3.6420     1.2550 C.2   1 <1>  -0.0400 
 16 C        2.3730    -5.0130    -0.1710 C.2   1 <1>   0.1080 
 17 C        5.9230    -0.9940     2.3640 C.ar  1 <1>  -0.1500 
 18 C        6.8240     0.3040     0.5630 C.ar  1 <1>  -0.1500 
 19 O        1.7640    -4.8050     1.7950 O.3   1 <1>  -0.0190 
 20 C        0.9090    -2.5520     2.1120 C.3   1 <1>  -0.0600 
 21 N        2.2800    -5.6390     0.9430 N.2   1 <1>  -0.4100 
 22 C        2.9030    -5.6650    -1.4330 C.3   1 <1>  -0.0590 
 23 C        6.7530     0.0160     1.9140 C.ar  1 <1>  -0.1500 
 24 H       -1.5290     1.4060     0.4430 H     1 <1>   0.1500 
 25 H        3.6880     0.2800    -1.0960 H     1 <1>   0.0800 
 26 H        2.5370    -0.3120    -2.2780 H     1 <1>   0.0800 
 27 H        3.7910     1.0180     1.2010 H     1 <1>   0.0800 
 28 H        2.7350     0.9100     2.5900 H     1 <1>   0.0800 
 29 H        2.9300     2.4290     1.7580 H     1 <1>   0.0800 
 30 H        2.8610    -1.5510     0.3340 H     1 <1>   0.4500 
 31 H        4.6790    -2.0580    -1.8710 H     1 <1>   0.0800 
 32 H        4.3770    -3.2320    -0.6010 H     1 <1>   0.0800 
 33 H        2.0900    -3.0230    -2.0550 H     1 <1>   0.0800 
 34 H        0.9400    -2.1420    -1.0670 H     1 <1>   0.0800 
 35 H        4.5260    -2.5050     1.8390 H     1 <1>   0.1500 
 36 H        6.1390    -0.1750    -1.3870 H     1 <1>   0.1500 
 37 H        5.8820    -1.2230     3.4170 H     1 <1>   0.1500 
 38 H        7.4810     1.0850     0.2180 H     1 <1>   0.1500 
 39 H        0.7100    -1.6660     1.5400 H     1 <1>   0.0800 
 40 H        1.5690    -2.3050     2.9250 H     1 <1>   0.0800 
 41 H       -0.0190    -2.9040     2.5270 H     1 <1>   0.0800 
 42 H        2.2290    -5.4990    -2.2530 H     1 <1>   0.0800 
 43 H        2.9880    -6.7270    -1.2800 H     1 <1>   0.0800 
 44 H        3.8750    -5.2810    -1.6770 H     1 <1>   0.0800 
 45 H        7.3520     0.5740     2.6150 H     1 <1>   0.1500 
@<TRIPOS>BOND
  1   1   2  1   
  2   1   3  1   
  3   2   4  2   
  4   2   5  1   
  5   3   6  2   
  6   3  24  1   
  7   4   6  1   
  8   4   7  1   
  9   5   8  1   
 10   5  25  1   
 11   5  26  1   
 12   7  27  1   
 13   7  28  1   
 14   7  29  1   
 15   8   9  1   
 16   8  10  1   
 17   8  30  1   
 18   9  11  1   
 19   9  31  1   
 20   9  32  1   
 21  10  12  1   
 22  10  33  1   
 23  10  34  1   
 24  11  13  ar  
 25  11  14  ar  
 26  12  15  2   
 27  12  16  1   
 28  13  17  ar  
 29  13  35  1   
 30  14  18  ar  
 31  14  36  1   
 32  15  19  1   
 33  15  20  1   
 34  16  21  2   
 35  16  22  1   
 36  17  23  ar  
 37  17  37  1   
 38  18  23  ar  
 39  18  38  1   
 40  19  21  1   
 41  20  39  1   
 42  20  40  1   
 43  20  41  1   
 44  22  42  1   
 45  22  43  1   
 46  22  44  1   
 47  23  45  1   
@<TRIPOS>SUBSTRUCTURE
  1 ****   8 GROUP 4 **** **** 0

# MOE 2024.06 (io_trps.svl 2023.06)
