@<TRIPOS>MOLECULE
NONAME
53 54 1 0 0 
SMALL
USER_CHARGES


@<TRIPOS>ATOM
  1 O        0.5520    -0.3350    -1.9810 O.2   1 <1>  -0.5700 
  2 C        1.2610    -0.9010    -1.1690 C.2   1 <1>   0.5440 
  3 N        2.0420    -0.1440    -0.3210 N.am  1 <1>  -0.6600 
  4 C        1.2700    -2.3480    -1.1440 C.ar  1 <1>   0.0860 
  5 C        2.0290     1.3510    -0.3780 C.3   1 <1>   0.2200 
  6 C        3.0470    -0.7480     0.6100 C.3   1 <1>   0.1400 
  7 C        0.7060    -3.0770    -0.0910 C.ar  1 <1>   0.0830 
  8 C        1.8290    -3.0650    -2.2010 C.ar  1 <1>  -0.1500 
  9 C        3.3890     1.9030     0.1070 C.3   1 <1>   0.1200 
 10 C        0.8180     1.8740     0.4210 C.3   1 <1>  -0.1600 
 11 C        3.3700     0.1850     1.7930 C.3   1 <1>   0.1200 
 12 O        0.1550    -2.4360     0.9590 O.3   1 <1>  -0.3630 
 13 C        0.7220    -4.4640    -0.0930 C.ar  1 <1>  -0.1500 
 14 C        1.8420    -4.4480    -2.2070 C.ar  1 <1>  -0.1500 
 15 O        3.7200     1.4930     1.4120 O.3   1 <1>  -0.5600 
 16 C        0.6690     3.4080     0.4820 C.3   1 <1>  -0.0800 
 17 C       -1.2570    -2.3990     1.0480 C.3   1 <1>   0.1200 
 18 C        1.2890    -5.1510    -1.1500 C.ar  1 <1>  -0.1500 
 19 C       -0.5770     3.7690     1.2990 C.3   1 <1>  -0.2400 
 20 C        0.5600     4.0330    -0.9160 C.3   1 <1>  -0.2400 
 21 C       -1.8080    -1.3560     0.0770 C.3   1 <1>   0.1200 
 22 O       -3.1830    -1.2560     0.2680 O.3   1 <1>  -0.5600 
 23 C       -3.7860    -0.3230    -0.5640 C.3   1 <1>   0.1200 
 24 C       -5.2750    -0.3160    -0.2440 C.3   1 <1>  -0.2400 
 25 H        1.9080     1.6460    -1.4060 H     1 <1>   0.0800 
 26 H        3.9530    -0.9530     0.0670 H     1 <1>   0.0800 
 27 H        2.6810    -1.6780     1.0030 H     1 <1>   0.0800 
 28 H        2.2520    -2.5210    -3.0280 H     1 <1>   0.1500 
 29 H        3.3960     2.9770     0.0900 H     1 <1>   0.0800 
 30 H        4.1670     1.5590    -0.5510 H     1 <1>   0.0800 
 31 H        0.8760     1.4990     1.4260 H     1 <1>   0.0800 
 32 H       -0.0720     1.4700    -0.0260 H     1 <1>   0.0800 
 33 H        4.1870    -0.2150     2.3670 H     1 <1>   0.0800 
 34 H        2.5120     0.2520     2.4380 H     1 <1>   0.0800 
 35 H        0.2940    -5.0020     0.7340 H     1 <1>   0.1500 
 36 H        2.2800    -4.9810    -3.0350 H     1 <1>   0.1500 
 37 H        1.5230     3.8280     0.9870 H     1 <1>   0.0800 
 38 H       -1.5080    -2.1260     2.0570 H     1 <1>   0.0800 
 39 H       -1.6500    -3.3750     0.8250 H     1 <1>   0.0800 
 40 H        1.3010    -6.2280    -1.1530 H     1 <1>   0.1500 
 41 H       -1.4640     3.3780     0.8330 H     1 <1>   0.0800 
 42 H       -0.6740     4.8370     1.3810 H     1 <1>   0.0800 
 43 H       -0.5030     3.3610     2.2920 H     1 <1>   0.0800 
 44 H       -0.2520     3.5890    -1.4650 H     1 <1>   0.0800 
 45 H        1.4690     3.8930    -1.4720 H     1 <1>   0.0800 
 46 H        0.3820     5.0910    -0.8380 H     1 <1>   0.0800 
 47 H       -1.6240    -1.6520    -0.9420 H     1 <1>   0.0800 
 48 H       -1.3640    -0.3970     0.2750 H     1 <1>   0.0800 
 49 H       -3.6170    -0.6100    -1.5890 H     1 <1>   0.0800 
 50 H       -3.3510     0.6440    -0.3760 H     1 <1>   0.0800 
 51 H       -5.6940    -1.2890    -0.4240 H     1 <1>   0.0800 
 52 H       -5.7780     0.3980    -0.8710 H     1 <1>   0.0800 
 53 H       -5.4290    -0.0420     0.7840 H     1 <1>   0.0800 
@<TRIPOS>BOND
  1   1   2  2   
  2   2   3  am  
  3   2   4  1   
  4   3   5  1   
  5   3   6  1   
  6   4   7  ar  
  7   4   8  ar  
  8   5   9  1   
  9   5  10  1   
 10   5  25  1   
 11   6  11  1   
 12   6  26  1   
 13   6  27  1   
 14   7  12  1   
 15   7  13  ar  
 16   8  14  ar  
 17   8  28  1   
 18   9  15  1   
 19   9  29  1   
 20   9  30  1   
 21  10  16  1   
 22  10  31  1   
 23  10  32  1   
 24  11  15  1   
 25  11  33  1   
 26  11  34  1   
 27  12  17  1   
 28  13  18  ar  
 29  13  35  1   
 30  14  18  ar  
 31  14  36  1   
 32  16  19  1   
 33  16  20  1   
 34  16  37  1   
 35  17  21  1   
 36  17  38  1   
 37  17  39  1   
 38  18  40  1   
 39  19  41  1   
 40  19  42  1   
 41  19  43  1   
 42  20  44  1   
 43  20  45  1   
 44  20  46  1   
 45  21  22  1   
 46  21  47  1   
 47  21  48  1   
 48  22  23  1   
 49  23  24  1   
 50  23  49  1   
 51  23  50  1   
 52  24  51  1   
 53  24  52  1   
 54  24  53  1   
@<TRIPOS>SUBSTRUCTURE
  1 ****   2 GROUP 4 **** **** 0

# MOE 2024.06 (io_trps.svl 2023.06)
