@<TRIPOS>MOLECULE
NONAME
37 38 1 0 0 
SMALL
USER_CHARGES


@<TRIPOS>ATOM
  1 O       -1.3530     0.1950    -1.1300 O.co2 1 <1>  -0.9000 
  2 C       -2.0670     1.2130    -1.0200 C.2   1 <1>   1.0330 
  3 O       -2.6810     1.5820    -2.0380 O.co2 1 <1>  -0.9000 
  4 C       -2.4670     1.6660     0.3200 C.2   1 <1>   0.0560 
  5 N       -2.4720     2.8790     0.8510 N.2   1 <1>  -0.7070 
  6 C       -2.9770     0.7450     1.2500 C.2   1 <1>  -0.1810 
  7 N       -2.9600     2.7370     2.0880 N.pl3 1 <1>   0.3000 
  8 C       -3.2780     1.4560     2.3570 C.2   1 <1>  -0.3020 
  9 C       -3.1000    -0.7390     0.9600 C.3   1 <1>   0.5240 
 10 N       -4.4350    -1.0360     0.3580 N.4   1 <1>  -0.9590 
 11 C       -4.6250    -2.5190     0.2800 C.3   1 <1>   0.3430 
 12 C       -4.5640    -0.3930    -0.9930 C.3   1 <1>   0.3430 
 13 C       -5.9720    -2.9130    -0.3640 C.3   1 <1>   0.2200 
 14 C       -5.9120    -0.7380    -1.6320 C.3   1 <1>  -0.1600 
 15 N       -6.0430    -4.3780    -0.5380 N.am  1 <1>  -0.7300 
 16 C       -6.1350    -2.2540    -1.7360 C.3   1 <1>  -0.1600 
 17 C       -6.8250    -5.2820     0.0920 C.2   1 <1>   0.5690 
 18 O       -6.7310    -6.4430    -0.1950 O.2   1 <1>  -0.5700 
 19 C       -7.8090    -4.8630     1.1560 C.3   1 <1>  -0.1790 
 20 H       -3.0590     3.5380     2.7240 H     1 <1>   0.2700 
 21 H       -3.6820     1.1470     3.3040 H     1 <1>   0.1500 
 22 H       -2.9960    -1.2730     1.8890 H     1 <1>   0.0800 
 23 H       -2.3100    -1.0680     0.3060 H     1 <1>   0.0800 
 24 H       -5.1280    -0.5930     0.9680 H     1 <1>   0.4500 
 25 H       -4.5730    -2.9460     1.2670 H     1 <1>   0.0800 
 26 H       -3.8310    -2.9380    -0.3160 H     1 <1>   0.0800 
 27 H       -3.7590    -0.7160    -1.6380 H     1 <1>   0.0800 
 28 H       -4.4940     0.6800    -0.9020 H     1 <1>   0.0800 
 29 H       -6.7690    -2.5870     0.2810 H     1 <1>   0.0800 
 30 H       -5.9360    -0.3050    -2.6170 H     1 <1>   0.0800 
 31 H       -6.7010    -0.2790    -1.0630 H     1 <1>   0.0800 
 32 H       -5.4710    -4.7770    -1.2890 H     1 <1>   0.3700 
 33 H       -7.1230    -2.4470    -2.1190 H     1 <1>   0.0800 
 34 H       -5.4160    -2.6630    -2.4260 H     1 <1>   0.0800 
 35 H       -7.2980    -4.3730     1.9620 H     1 <1>   0.0800 
 36 H       -8.3090    -5.7320     1.5430 H     1 <1>   0.0800 
 37 H       -8.5460    -4.2060     0.7340 H     1 <1>   0.0800 
@<TRIPOS>BOND
  1   1   2  ar  
  2   2   3  ar  
  3   2   4  1   
  4   4   5  2   
  5   4   6  1   
  6   5   7  1   
  7   6   8  2   
  8   6   9  1   
  9   7   8  1   
 10   7  20  1   
 11   8  21  1   
 12   9  10  1   
 13   9  22  1   
 14   9  23  1   
 15  10  11  1   
 16  10  12  1   
 17  10  24  1   
 18  11  13  1   
 19  11  25  1   
 20  11  26  1   
 21  12  14  1   
 22  12  27  1   
 23  12  28  1   
 24  13  15  1   
 25  13  16  1   
 26  13  29  1   
 27  14  16  1   
 28  14  30  1   
 29  14  31  1   
 30  15  17  am  
 31  15  32  1   
 32  16  33  1   
 33  16  34  1   
 34  17  18  2   
 35  17  19  1   
 36  19  35  1   
 37  19  36  1   
 38  19  37  1   
@<TRIPOS>SUBSTRUCTURE
  1 ****  10 GROUP 4 **** **** 0

# MOE 2024.06 (io_trps.svl 2023.06)
