@<TRIPOS>MOLECULE
NONAME
60 62 1 0 0 
SMALL
USER_CHARGES


@<TRIPOS>ATOM
  1 O       -2.2450     1.1180    -2.3080 O.2   1 <1>  -0.5700 
  2 C       -2.6120     1.4180    -1.1890 C.2   1 <1>   0.5440 
  3 N       -3.2260     0.4540    -0.4190 N.am  1 <1>  -0.6600 
  4 C       -2.4180     2.7770    -0.6910 C.ar  1 <1>   0.0860 
  5 C       -4.1990    -0.5330    -1.0080 C.3   1 <1>   0.2200 
  6 C       -2.3770    -0.1460     0.6560 C.3   1 <1>   0.0600 
  7 C       -2.0580     3.8080    -1.5570 C.ar  1 <1>  -0.1500 
  8 C       -2.6080     3.1320     0.6460 C.ar  1 <1>  -0.1500 
  9 C       -5.0860     0.0090    -2.1440 C.3   1 <1>  -0.1600 
 10 C       -5.2410    -0.9480     0.0370 C.3   1 <1>  -0.1600 
 11 C       -1.9120     5.1130    -1.1240 C.ar  1 <1>  -0.1500 
 12 C       -2.4600     4.4350     1.0830 C.ar  1 <1>  -0.1500 
 13 C       -6.4110     0.5050    -1.5380 C.3   1 <1>  -0.0800 
 14 C       -6.4060     0.0440    -0.0740 C.3   1 <1>  -0.0800 
 15 C       -2.1150     5.4580     0.2080 C.ar  1 <1>  -0.1430 
 16 C       -6.5230     2.0310    -1.5050 C.3   1 <1>  -0.1600 
 17 C       -6.2300     1.3150     0.7800 C.3   1 <1>  -0.1600 
 18 C       -1.9500     6.8980     0.7430 C.3   1 <1>   0.1430 
 19 C       -5.8350     2.4110    -0.2040 C.3   1 <1>   0.4230 
 20 C       -1.5760     7.9110    -0.3520 C.3   1 <1>  -0.2400 
 21 C       -0.8350     6.9250     1.7990 C.3   1 <1>  -0.2400 
 22 C       -3.2650     7.3710     1.3800 C.3   1 <1>  -0.2400 
 23 N       -6.1280     3.7930     0.2810 N.4   1 <1>  -0.9590 
 24 C       -7.5800     4.1080     0.4770 C.3   1 <1>   0.2630 
 25 C       -5.4930     4.7990    -0.6260 C.3   1 <1>   0.2630 
 26 H       -3.6430    -1.3890    -1.3560 H     1 <1>   0.0800 
 27 H       -2.8770    -0.0800     1.6060 H     1 <1>   0.0800 
 28 H       -1.4340     0.3710     0.7250 H     1 <1>   0.0800 
 29 H       -2.1730    -1.1800     0.4360 H     1 <1>   0.0800 
 30 H       -1.8830     3.5790    -2.5960 H     1 <1>   0.1500 
 31 H       -2.8710     2.3800     1.3660 H     1 <1>   0.1500 
 32 H       -4.6090     0.7350    -2.7730 H     1 <1>   0.0800 
 33 H       -5.3200    -0.8290    -2.7780 H     1 <1>   0.0800 
 34 H       -5.6100    -1.9190    -0.2470 H     1 <1>   0.0800 
 35 H       -4.8570    -1.0350     1.0360 H     1 <1>   0.0800 
 36 H       -1.6250     5.8470    -1.8560 H     1 <1>   0.1500 
 37 H       -2.6030     4.6470     2.1290 H     1 <1>   0.1500 
 38 H       -7.2380     0.0780    -2.0820 H     1 <1>   0.0800 
 39 H       -7.3320    -0.4440     0.1850 H     1 <1>   0.0800 
 40 H       -7.5650     2.2880    -1.4840 H     1 <1>   0.0800 
 41 H       -6.0560     2.4840    -2.3610 H     1 <1>   0.0800 
 42 H       -5.4760     1.1860     1.5350 H     1 <1>   0.0800 
 43 H       -7.1700     1.5340     1.2510 H     1 <1>   0.0800 
 44 H       -4.7780     2.3190    -0.3690 H     1 <1>   0.0800 
 45 H       -1.4760     8.8980     0.0630 H     1 <1>   0.0800 
 46 H       -2.3330     7.9470    -1.1150 H     1 <1>   0.0800 
 47 H       -0.6350     7.6490    -0.8040 H     1 <1>   0.0800 
 48 H       -0.6740     7.9260     2.1570 H     1 <1>   0.0800 
 49 H        0.0850     6.5650     1.3720 H     1 <1>   0.0800 
 50 H       -1.0790     6.3060     2.6420 H     1 <1>   0.0800 
 51 H       -3.1620     8.3780     1.7450 H     1 <1>   0.0800 
 52 H       -3.5430     6.7490     2.2100 H     1 <1>   0.0800 
 53 H       -4.0560     7.3560     0.6540 H     1 <1>   0.0800 
 54 H       -5.6580     3.8730     1.1940 H     1 <1>   0.4500 
 55 H       -8.1040     4.0610    -0.4630 H     1 <1>   0.0800 
 56 H       -7.6940     5.1010     0.8820 H     1 <1>   0.0800 
 57 H       -8.0310     3.4080     1.1600 H     1 <1>   0.0800 
 58 H       -5.9450     4.7600    -1.6040 H     1 <1>   0.0800 
 59 H       -4.4400     4.5970    -0.7290 H     1 <1>   0.0800 
 60 H       -5.6120     5.7930    -0.2280 H     1 <1>   0.0800 
@<TRIPOS>BOND
  1   1   2  2   
  2   2   3  am  
  3   2   4  1   
  4   3   5  1   
  5   3   6  1   
  6   4   7  ar  
  7   4   8  ar  
  8   5   9  1   
  9   5  10  1   
 10   5  26  1   
 11   6  27  1   
 12   6  28  1   
 13   6  29  1   
 14   7  11  ar  
 15   7  30  1   
 16   8  12  ar  
 17   8  31  1   
 18   9  13  1   
 19   9  32  1   
 20   9  33  1   
 21  10  14  1   
 22  10  34  1   
 23  10  35  1   
 24  11  15  ar  
 25  11  36  1   
 26  12  15  ar  
 27  12  37  1   
 28  13  14  1   
 29  13  16  1   
 30  13  38  1   
 31  14  17  1   
 32  14  39  1   
 33  15  18  1   
 34  16  19  1   
 35  16  40  1   
 36  16  41  1   
 37  17  19  1   
 38  17  42  1   
 39  17  43  1   
 40  18  20  1   
 41  18  21  1   
 42  18  22  1   
 43  19  23  1   
 44  19  44  1   
 45  20  45  1   
 46  20  46  1   
 47  20  47  1   
 48  21  48  1   
 49  21  49  1   
 50  21  50  1   
 51  22  51  1   
 52  22  52  1   
 53  22  53  1   
 54  23  24  1   
 55  23  25  1   
 56  23  54  1   
 57  24  55  1   
 58  24  56  1   
 59  24  57  1   
 60  25  58  1   
 61  25  59  1   
 62  25  60  1   
@<TRIPOS>SUBSTRUCTURE
  1 ****   4 GROUP 4 **** **** 0

# MOE 2024.06 (io_trps.svl 2023.06)
