@<TRIPOS>MOLECULE
NONAME
48 49 1 0 0 
SMALL
USER_CHARGES


@<TRIPOS>ATOM
  1 O       -2.2710    -0.8810     1.6650 O.3   1 <1>  -0.3630 
  2 C       -2.3160     0.0140     0.6530 C.ar  1 <1>   0.3920 
  3 C       -1.0630    -1.1230     2.3680 C.3   1 <1>   0.0400 
  4 N       -1.1860     0.5880     0.2650 N.ar  1 <1>  -0.6200 
  5 C       -3.5570     0.2630     0.0770 C.ar  1 <1>  -0.1430 
  6 C       -1.2940     1.4590    -0.7230 C.ar  1 <1>   0.1600 
  7 C       -3.6530     1.1800    -0.9520 C.ar  1 <1>  -0.1500 
  8 C       -4.7660    -0.4790     0.6030 C.3   1 <1>   0.4870 
  9 C       -2.4810     1.7870    -1.3540 C.ar  1 <1>  -0.1500 
 10 N       -5.2770    -1.4370    -0.4260 N.4   1 <1>  -0.9590 
 11 C       -4.2160    -2.4240    -0.8720 C.3   1 <1>   0.3430 
 12 C       -6.5430    -2.0780     0.0200 C.3   1 <1>   0.3430 
 13 C       -4.3940    -3.8850    -0.3790 C.3   1 <1>   0.0000 
 14 C       -6.3000    -3.0660     1.1690 C.3   1 <1>  -0.1600 
 15 C       -4.9590    -3.8130     1.0610 C.3   1 <1>   0.2000 
 16 C       -5.3520    -4.6850    -1.3060 C.3   1 <1>   0.1200 
 17 C       -3.0150    -4.6080    -0.4290 C.3   1 <1>  -0.1600 
 18 O       -5.1190    -5.0730     1.6090 O.3   1 <1>  -0.6800 
 19 O       -5.1710    -4.3070    -2.6280 O.3   1 <1>  -0.6800 
 20 C       -1.8780    -3.9950     0.4090 C.3   1 <1>  -0.1600 
 21 C       -0.6120    -4.8490     0.3050 C.3   1 <1>  -0.2400 
 22 H       -1.2520    -1.8510     3.1350 H     1 <1>   0.0800 
 23 H       -0.7250    -0.2010     2.8090 H     1 <1>   0.0800 
 24 H       -0.3240    -1.4960     1.6800 H     1 <1>   0.0800 
 25 H       -0.3850     1.9400    -1.0480 H     1 <1>   0.1500 
 26 H       -4.5850     1.4300    -1.4290 H     1 <1>   0.1500 
 27 H       -5.5330     0.2360     0.8510 H     1 <1>   0.0800 
 28 H       -4.5080    -1.0120     1.5030 H     1 <1>   0.0800 
 29 H       -2.4820     2.5120    -2.1490 H     1 <1>   0.1500 
 30 H       -5.4850    -0.8700    -1.2580 H     1 <1>   0.4500 
 31 H       -4.1620    -2.4280    -1.9480 H     1 <1>   0.0800 
 32 H       -3.2600    -2.0710    -0.5310 H     1 <1>   0.0800 
 33 H       -7.2580    -1.3310     0.3260 H     1 <1>   0.0800 
 34 H       -6.9700    -2.6110    -0.8150 H     1 <1>   0.0800 
 35 H       -7.1210    -3.7610     1.1810 H     1 <1>   0.0800 
 36 H       -6.3240    -2.5350     2.1040 H     1 <1>   0.0800 
 37 H       -4.2450    -3.3020     1.6850 H     1 <1>   0.0800 
 38 H       -6.3880    -4.5280    -1.0690 H     1 <1>   0.0800 
 39 H       -5.1520    -5.7420    -1.2300 H     1 <1>   0.0800 
 40 H       -3.1470    -5.6260    -0.1030 H     1 <1>   0.0800 
 41 H       -2.6860    -4.6540    -1.4540 H     1 <1>   0.0800 
 42 H       -5.7720    -5.6130     1.1250 H     1 <1>   0.4000 
 43 H       -5.5550    -4.9710    -3.2410 H     1 <1>   0.4000 
 44 H       -1.6360    -3.0060     0.0650 H     1 <1>   0.0800 
 45 H       -2.1600    -3.9410     1.4460 H     1 <1>   0.0800 
 46 H       -0.2810    -4.9150    -0.7170 H     1 <1>   0.0800 
 47 H       -0.7950    -5.8430     0.6740 H     1 <1>   0.0800 
 48 H        0.1780    -4.4110     0.8890 H     1 <1>   0.0800 
@<TRIPOS>BOND
  1   1   2  1   
  2   1   3  1   
  3   2   4  ar  
  4   2   5  ar  
  5   3  22  1   
  6   3  23  1   
  7   3  24  1   
  8   4   6  ar  
  9   5   7  ar  
 10   5   8  1   
 11   6   9  ar  
 12   6  25  1   
 13   7   9  ar  
 14   7  26  1   
 15   8  10  1   
 16   8  27  1   
 17   8  28  1   
 18   9  29  1   
 19  10  11  1   
 20  10  12  1   
 21  10  30  1   
 22  11  13  1   
 23  11  31  1   
 24  11  32  1   
 25  12  14  1   
 26  12  33  1   
 27  12  34  1   
 28  13  15  1   
 29  13  16  1   
 30  13  17  1   
 31  14  15  1   
 32  14  35  1   
 33  14  36  1   
 34  15  18  1   
 35  15  37  1   
 36  16  19  1   
 37  16  38  1   
 38  16  39  1   
 39  17  20  1   
 40  17  40  1   
 41  17  41  1   
 42  18  42  1   
 43  19  43  1   
 44  20  21  1   
 45  20  44  1   
 46  20  45  1   
 47  21  46  1   
 48  21  47  1   
 49  21  48  1   
@<TRIPOS>SUBSTRUCTURE
  1 ****  11 GROUP 4 **** **** 0

# MOE 2024.06 (io_trps.svl 2023.06)
