@<TRIPOS>MOLECULE
NONAME
50 53 1 0 0 
SMALL
USER_CHARGES


@<TRIPOS>ATOM
  1 S        1.2660     1.2850     0.1510 S.o2  1 <1>   1.4470 
  2 O        2.4380     2.1140     0.0300 O.2   1 <1>  -0.6500 
  3 O        0.1600     1.6810     0.9860 O.2   1 <1>  -0.6500 
  4 N        0.6070     1.3600    -1.3640 N.am  1 <1>  -0.9780 
  5 C        1.6940    -0.4660     0.3580 C.ar  1 <1>  -0.0090 
  6 C        0.8340    -1.3500     0.9920 C.ar  1 <1>  -0.1500 
  7 C        2.8890    -0.9720    -0.1380 C.ar  1 <1>  -0.1500 
  8 C        1.1240    -2.7050     1.1470 C.ar  1 <1>   0.0860 
  9 C        3.2140    -2.3080     0.0030 C.ar  1 <1>  -0.1500 
 10 C        2.3410    -3.1810     0.6470 C.ar  1 <1>   0.0830 
 11 C        0.1720    -3.5600     1.8230 C.2   1 <1>   0.5440 
 12 O        2.6280    -4.4940     0.8130 O.3   1 <1>  -0.3630 
 13 O       -0.0180    -3.3880     3.0130 O.2   1 <1>  -0.5700 
 14 N       -0.5690    -4.5190     1.1580 N.am  1 <1>  -0.6600 
 15 C        3.8690    -5.0590     0.4530 C.3   1 <1>   0.0400 
 16 C       -1.5040    -5.4310     1.8710 C.3   1 <1>   0.1400 
 17 C       -0.5000    -4.7630    -0.3090 C.3   1 <1>   0.1400 
 18 C       -1.0510    -6.8740     1.6530 C.3   1 <1>  -0.1600 
 19 C       -0.0450    -6.2030    -0.5570 C.3   1 <1>  -0.1600 
 20 C       -0.9440    -7.2160     0.1600 C.3   1 <1>   0.4610 
 21 O       -2.2220    -7.0910    -0.4410 O.3   1 <1>  -0.5600 
 22 C       -0.4100    -8.6360    -0.0430 C.2   1 <1>  -0.1810 
 23 C       -3.1400    -8.1490    -0.2930 C.3   1 <1>   0.1200 
 24 C       -1.1850    -9.5980    -0.5590 C.2   1 <1>  -0.1400 
 25 C        0.9120    -9.0950     0.2770 C.2   1 <1>  -0.1500 
 26 C       -2.6240    -9.4300    -0.9670 C.3   1 <1>   0.0200 
 27 S       -0.3300   -11.1190    -0.7060 S.3   1 <1>  -0.0800 
 28 C        1.1160   -10.3940    -0.0170 C.2   1 <1>  -0.1100 
 29 H        1.0690     2.1660    -1.7760 H     1 <1>   0.4200 
 30 H       -0.3520     1.6470    -1.1830 H     1 <1>   0.4200 
 31 H       -0.0980    -0.9850     1.3920 H     1 <1>   0.1500 
 32 H        3.5740    -0.3080    -0.6400 H     1 <1>   0.1500 
 33 H        4.1520    -2.6490    -0.3940 H     1 <1>   0.1500 
 34 H        3.8560    -6.0970     0.7330 H     1 <1>   0.0800 
 35 H        4.6530    -4.5480     0.9830 H     1 <1>   0.0800 
 36 H        3.9990    -4.9700    -0.6110 H     1 <1>   0.0800 
 37 H       -2.4980    -5.2900     1.4830 H     1 <1>   0.0800 
 38 H       -1.5240    -5.2140     2.9250 H     1 <1>   0.0800 
 39 H        0.1790    -4.0810    -0.7870 H     1 <1>   0.0800 
 40 H       -1.4780    -4.6120    -0.7350 H     1 <1>   0.0800 
 41 H       -1.7230    -7.5520     2.1430 H     1 <1>   0.0800 
 42 H       -0.0880    -6.9960     2.1130 H     1 <1>   0.0800 
 43 H        0.9640    -6.3050    -0.2070 H     1 <1>   0.0800 
 44 H       -0.0470    -6.4130    -1.6110 H     1 <1>   0.0800 
 45 H       -4.0690    -7.8420    -0.7410 H     1 <1>   0.0800 
 46 H       -3.3020    -8.3170     0.7560 H     1 <1>   0.0800 
 47 H        1.6420    -8.4350     0.7110 H     1 <1>   0.1500 
 48 H       -2.6950    -9.3450    -2.0370 H     1 <1>   0.0800 
 49 H       -3.2070   -10.2730    -0.6450 H     1 <1>   0.0800 
 50 H        1.9770   -11.0280     0.0970 H     1 <1>   0.1500 
@<TRIPOS>BOND
  1   1   2  2   
  2   1   3  2   
  3   1   4  am  
  4   1   5  1   
  5   4  29  1   
  6   4  30  1   
  7   5   6  ar  
  8   5   7  ar  
  9   6   8  ar  
 10   6  31  1   
 11   7   9  ar  
 12   7  32  1   
 13   8  10  ar  
 14   8  11  1   
 15   9  10  ar  
 16   9  33  1   
 17  10  12  1   
 18  11  13  2   
 19  11  14  am  
 20  12  15  1   
 21  14  16  1   
 22  14  17  1   
 23  15  34  1   
 24  15  35  1   
 25  15  36  1   
 26  16  18  1   
 27  16  37  1   
 28  16  38  1   
 29  17  19  1   
 30  17  39  1   
 31  17  40  1   
 32  18  20  1   
 33  18  41  1   
 34  18  42  1   
 35  19  20  1   
 36  19  43  1   
 37  19  44  1   
 38  20  21  1   
 39  20  22  1   
 40  21  23  1   
 41  22  24  2   
 42  22  25  1   
 43  23  26  1   
 44  23  45  1   
 45  23  46  1   
 46  24  26  1   
 47  24  27  1   
 48  25  28  2   
 49  25  47  1   
 50  26  48  1   
 51  26  49  1   
 52  27  28  1   
 53  28  50  1   
@<TRIPOS>SUBSTRUCTURE
  1 ****  17 GROUP 4 **** **** 0

# MOE 2024.06 (io_trps.svl 2023.06)
