@<TRIPOS>MOLECULE
NONAME
52 55 1 0 0 
SMALL
USER_CHARGES


@<TRIPOS>ATOM
  1 O        1.5610    -2.1990     2.0470 O.2   1 <1>  -0.5700 
  2 C        1.2820    -2.0370     0.8770 C.2   1 <1>   0.6900 
  3 N        0.1840    -2.5330     0.2330 N.am  1 <1>  -0.4770 
  4 N        2.0790    -1.3620     0.0330 N.am  1 <1>  -0.7300 
  5 C       -0.8550    -3.3110     0.7610 C.ar  1 <1>   0.1170 
  6 C        0.2760    -2.2210    -1.2130 C.3   1 <1>   0.1400 
  7 C        1.6070    -1.4630    -1.3560 C.3   1 <1>   0.1400 
  8 C       -1.7600    -2.8050     1.6970 C.ar  1 <1>  -0.1430 
  9 C       -0.9960    -4.6230     0.3330 C.ar  1 <1>  -0.1500 
 10 C       -2.7730    -3.6190     2.1730 C.ar  1 <1>  -0.1500 
 11 C       -1.6570    -1.3740     2.2090 C.3   1 <1>  -0.0970 
 12 C       -2.0060    -5.4580     0.8000 C.ar  1 <1>   0.0860 
 13 C       -2.8980    -4.9220     1.7300 C.ar  1 <1>  -0.1500 
 14 C       -2.1140    -6.8270     0.3300 C.2   1 <1>   0.5440 
 15 O       -1.7530    -7.1340    -0.7900 O.2   1 <1>  -0.5700 
 16 N       -2.6210    -7.8050     1.1360 N.am  1 <1>  -0.7300 
 17 C       -2.7640    -9.2300     0.7640 C.3   1 <1>   0.2200 
 18 C       -4.2240    -9.5200     0.4640 C.3   1 <1>  -0.0800 
 19 C       -2.5180   -10.1070     1.9860 C.3   1 <1>   0.1200 
 20 C       -4.7960    -9.7760     1.8620 C.3   1 <1>   0.1200 
 21 C       -4.3790   -10.7390    -0.4650 C.3   1 <1>  -0.0170 
 22 O       -3.7280   -10.1510     2.6840 O.3   1 <1>  -0.5600 
 23 C       -5.8410   -11.0050    -0.7920 C.ar  1 <1>  -0.1430 
 24 C       -6.5400   -10.2120    -1.6790 C.ar  1 <1>  -0.1500 
 25 C       -6.5430   -12.0490    -0.2230 C.ar  1 <1>  -0.1500 
 26 C       -7.8710   -10.4880    -1.9420 C.ar  1 <1>   0.1600 
 27 C       -7.8750   -12.2390    -0.5550 C.ar  1 <1>   0.1600 
 28 N       -8.5560   -11.4820    -1.4000 N.ar  1 <1>  -0.6200 
 29 H        3.0420    -1.1560     0.2970 H     1 <1>   0.3700 
 30 H        0.2810    -3.1240    -1.7970 H     1 <1>   0.0800 
 31 H       -0.5530    -1.6020    -1.5070 H     1 <1>   0.0800 
 32 H        1.4570    -0.4860    -1.7800 H     1 <1>   0.0800 
 33 H        2.3070    -2.0240    -1.9530 H     1 <1>   0.0800 
 34 H       -0.2950    -5.0170    -0.3800 H     1 <1>   0.1500 
 35 H       -3.4750    -3.2380     2.8940 H     1 <1>   0.1500 
 36 H       -2.5560    -1.0790     2.7190 H     1 <1>   0.0800 
 37 H       -1.4950    -0.6940     1.3920 H     1 <1>   0.0800 
 38 H       -0.8320    -1.2930     2.8940 H     1 <1>   0.0800 
 39 H       -3.7020    -5.5270     2.1080 H     1 <1>   0.1500 
 40 H       -2.8740    -7.5930     2.1030 H     1 <1>   0.3700 
 41 H       -2.1040    -9.4740    -0.0520 H     1 <1>   0.0800 
 42 H       -4.7000    -8.6720     0.0010 H     1 <1>   0.0800 
 43 H       -1.7430    -9.7210     2.6250 H     1 <1>   0.0800 
 44 H       -2.2760   -11.1120     1.6900 H     1 <1>   0.0800 
 45 H       -5.5410   -10.5520     1.8800 H     1 <1>   0.0800 
 46 H       -5.2150    -8.8720     2.2700 H     1 <1>   0.0800 
 47 H       -3.9450   -11.6130    -0.0120 H     1 <1>   0.0800 
 48 H       -3.8510   -10.5540    -1.3850 H     1 <1>   0.0800 
 49 H       -6.0630    -9.3820    -2.1670 H     1 <1>   0.1500 
 50 H       -6.0710   -12.7150     0.4750 H     1 <1>   0.1500 
 51 H       -8.4010    -9.8580    -2.6360 H     1 <1>   0.1500 
 52 H       -8.4070   -13.0570    -0.1010 H     1 <1>   0.1500 
@<TRIPOS>BOND
  1   1   2  2   
  2   2   3  am  
  3   2   4  am  
  4   3   5  1   
  5   3   6  1   
  6   4   7  1   
  7   4  29  1   
  8   5   8  ar  
  9   5   9  ar  
 10   6   7  1   
 11   6  30  1   
 12   6  31  1   
 13   7  32  1   
 14   7  33  1   
 15   8  10  ar  
 16   8  11  1   
 17   9  12  ar  
 18   9  34  1   
 19  10  13  ar  
 20  10  35  1   
 21  11  36  1   
 22  11  37  1   
 23  11  38  1   
 24  12  13  ar  
 25  12  14  1   
 26  13  39  1   
 27  14  15  2   
 28  14  16  am  
 29  16  17  1   
 30  16  40  1   
 31  17  18  1   
 32  17  19  1   
 33  17  41  1   
 34  18  20  1   
 35  18  21  1   
 36  18  42  1   
 37  19  22  1   
 38  19  43  1   
 39  19  44  1   
 40  20  22  1   
 41  20  45  1   
 42  20  46  1   
 43  21  23  1   
 44  21  47  1   
 45  21  48  1   
 46  23  24  ar  
 47  23  25  ar  
 48  24  26  ar  
 49  24  49  1   
 50  25  27  ar  
 51  25  50  1   
 52  26  28  ar  
 53  26  51  1   
 54  27  28  ar  
 55  27  52  1   
@<TRIPOS>SUBSTRUCTURE
  1 ****  14 GROUP 4 **** **** 0

# MOE 2024.06 (io_trps.svl 2023.06)
