@<TRIPOS>MOLECULE
NONAME
49 52 1 0 0 
SMALL
USER_CHARGES


@<TRIPOS>ATOM
  1 F       -4.0920     0.9030    -1.9480 F     1 <1>  -0.3400 
  2 C       -4.5730     0.4500    -0.7920 C.3   1 <1>   0.8560 
  3 F       -3.7600     0.9450     0.1380 F     1 <1>  -0.3400 
  4 N       -4.5450    -1.0520    -0.7630 N.pl3 1 <1>   0.3140 
  5 N       -5.5920    -1.7960    -0.3370 N.2   1 <1>  -0.7070 
  6 C       -3.5310    -1.8490    -1.1630 C.2   1 <1>  -0.3020 
  7 C       -5.2390    -3.0650    -0.4870 C.2   1 <1>   0.2030 
  8 C       -3.9350    -3.1220    -0.9990 C.2   1 <1>  -0.1500 
  9 C       -6.0070    -4.2770    -0.1810 C.2   1 <1>   0.7160 
 10 O       -5.3970    -5.3280    -0.0530 O.2   1 <1>  -0.5700 
 11 N       -7.3890    -4.3260    -0.0310 N.am  1 <1>  -0.6600 
 12 C       -8.3340    -3.2240    -0.3930 C.3   1 <1>   0.1400 
 13 C       -8.0900    -5.5380     0.4880 C.3   1 <1>   0.1400 
 14 C       -9.1440    -2.7780     0.8380 C.3   1 <1>   0.1430 
 15 C       -8.9580    -5.1670     1.7000 C.3   1 <1>  -0.1600 
 16 C      -10.0570    -1.6440     0.4130 C.ar  1 <1>   0.1670 
 17 C       -9.9110    -3.9940     1.3990 C.3   1 <1>  -0.1600 
 18 C       -8.2580    -2.1060     1.9240 C.3   1 <1>  -0.1600 
 19 N      -11.1090    -1.7680    -0.3580 N.ar  1 <1>  -0.6200 
 20 C       -9.6360    -0.4470     0.9080 C.ar  1 <1>  -0.1430 
 21 C       -8.3830    -0.5860     1.7340 C.3   1 <1>  -0.0170 
 22 C      -11.7560    -0.6310    -0.6230 C.ar  1 <1>   0.7200 
 23 C      -10.3700     0.6670     0.5910 C.ar  1 <1>   0.1600 
 24 N      -11.4320     0.5870    -0.1750 N.ar  1 <1>  -0.6200 
 25 N      -12.8630    -0.7220    -1.4440 N.pl3 1 <1>  -0.8380 
 26 C      -13.5230    -2.0230    -1.7400 C.3   1 <1>   0.1290 
 27 C      -13.5020     0.4790    -2.0480 C.3   1 <1>   0.1290 
 28 H       -5.5580     0.8510    -0.6430 H     1 <1>   0.0800 
 29 H       -2.5960    -1.4660    -1.5350 H     1 <1>   0.1500 
 30 H       -3.3970    -4.0310    -1.2080 H     1 <1>   0.1500 
 31 H       -9.0190    -3.5940    -1.1370 H     1 <1>   0.0800 
 32 H       -7.8360    -2.3850    -0.8320 H     1 <1>   0.0800 
 33 H       -7.3860    -6.3000     0.7760 H     1 <1>   0.0800 
 34 H       -8.7100    -5.9410    -0.2940 H     1 <1>   0.0800 
 35 H       -8.3110    -4.9140     2.5210 H     1 <1>   0.0800 
 36 H       -9.5320    -6.0270     1.9970 H     1 <1>   0.0800 
 37 H      -10.6350    -4.3140     0.6690 H     1 <1>   0.0800 
 38 H      -10.4520    -3.7150     2.2860 H     1 <1>   0.0800 
 39 H       -7.2330    -2.4250     1.8790 H     1 <1>   0.0800 
 40 H       -8.6400    -2.3500     2.8990 H     1 <1>   0.0800 
 41 H       -7.5410    -0.2060     1.1830 H     1 <1>   0.0800 
 42 H       -8.4670    -0.0750     2.6780 H     1 <1>   0.0800 
 43 H      -10.0820     1.6340     0.9640 H     1 <1>   0.1500 
 44 H      -13.3700    -2.7180    -0.9320 H     1 <1>   0.0800 
 45 H      -13.1080    -2.4390    -2.6420 H     1 <1>   0.0800 
 46 H      -14.5820    -1.8820    -1.8670 H     1 <1>   0.0800 
 47 H      -12.7750     1.2580    -2.2020 H     1 <1>   0.0800 
 48 H      -14.2710     0.8450    -1.3900 H     1 <1>   0.0800 
 49 H      -13.9350     0.2290    -3.0000 H     1 <1>   0.0800 
@<TRIPOS>BOND
  1   1   2  1   
  2   2   3  1   
  3   2   4  1   
  4   2  28  1   
  5   4   5  1   
  6   4   6  1   
  7   5   7  2   
  8   6   8  2   
  9   6  29  1   
 10   7   8  1   
 11   7   9  1   
 12   8  30  1   
 13   9  10  2   
 14   9  11  am  
 15  11  12  1   
 16  11  13  1   
 17  12  14  1   
 18  12  31  1   
 19  12  32  1   
 20  13  15  1   
 21  13  33  1   
 22  13  34  1   
 23  14  16  1   
 24  14  17  1   
 25  14  18  1   
 26  15  17  1   
 27  15  35  1   
 28  15  36  1   
 29  16  19  ar  
 30  16  20  ar  
 31  17  37  1   
 32  17  38  1   
 33  18  21  1   
 34  18  39  1   
 35  18  40  1   
 36  19  22  ar  
 37  20  21  1   
 38  20  23  ar  
 39  21  41  1   
 40  21  42  1   
 41  22  24  ar  
 42  22  25  1   
 43  23  24  ar  
 44  23  43  1   
 45  25  26  1   
 46  25  27  1   
 47  26  44  1   
 48  26  45  1   
 49  26  46  1   
 50  27  47  1   
 51  27  48  1   
 52  27  49  1   
@<TRIPOS>SUBSTRUCTURE
  1 ****  12 GROUP 4 **** **** 0

# MOE 2024.06 (io_trps.svl 2023.06)
