@<TRIPOS>MOLECULE
NONAME
44 46 1 0 0 
SMALL
USER_CHARGES


@<TRIPOS>ATOM
  1 O        1.0050    -0.0550     0.9100 O.2   1 <1>  -0.5700 
  2 C        1.6330    -0.5140    -0.0130 C.2   1 <1>   0.5690 
  3 N        2.4020     0.2740    -0.8070 N.am  1 <1>  -0.7300 
  4 C        1.5690    -2.0100    -0.3100 C.3   1 <1>  -0.0190 
  5 C        2.5400     1.7410    -0.6440 C.3   1 <1>   0.1400 
  6 C        0.4040    -2.6590     0.4650 C.3   1 <1>   0.0960 
  7 C        2.9170    -2.6920     0.0060 C.3   1 <1>  -0.2400 
  8 C        3.6610     2.0600     0.3470 C.3   1 <1>   0.0210 
  9 N        0.1480    -4.0430     0.0210 N.pl3 1 <1>   0.3140 
 10 C        3.8180     3.5600     0.4980 C.2   1 <1>  -0.1810 
 11 N        0.6370    -5.1090     0.6390 N.2   1 <1>  -0.7070 
 12 C       -0.5780    -4.4520    -1.0230 C.2   1 <1>   0.0360 
 13 C        2.9470     4.4220     1.1550 C.2   1 <1>   0.1390 
 14 C        4.8000     4.3610     0.0400 C.2   1 <1>  -0.3020 
 15 C        0.1740    -6.0810    -0.0760 C.2   1 <1>   0.3660 
 16 N       -0.5860    -5.7320    -1.1220 N.2   1 <1>  -0.5650 
 17 N        3.3460     5.6520     1.1070 N.2   1 <1>  -0.7070 
 18 N        4.5160     5.6350     0.4150 N.pl3 1 <1>   0.5930 
 19 C        5.2840     6.8030     0.1330 C.ar  1 <1>  -0.0230 
 20 C        4.6580     8.0310    -0.0670 C.ar  1 <1>  -0.1500 
 21 C        6.6740     6.7470     0.0470 C.ar  1 <1>  -0.1500 
 22 C        5.3950     9.1660    -0.3540 C.ar  1 <1>  -0.1500 
 23 C        7.4130     7.8820    -0.2400 C.ar  1 <1>  -0.1500 
 24 C        6.7740     9.0920    -0.4420 C.ar  1 <1>  -0.1500 
 25 H        2.9610    -0.1480    -1.5520 H     1 <1>   0.3700 
 26 H        1.3680    -2.1100    -1.3620 H     1 <1>   0.0800 
 27 H        1.6120     2.1490    -0.2770 H     1 <1>   0.0800 
 28 H        2.7520     2.1920    -1.5980 H     1 <1>   0.0800 
 29 H       -0.4970    -2.0910     0.3190 H     1 <1>   0.0800 
 30 H        0.6230    -2.6720     1.5180 H     1 <1>   0.0800 
 31 H        3.1320    -2.6240     1.0580 H     1 <1>   0.0800 
 32 H        3.7180    -2.2230    -0.5370 H     1 <1>   0.0800 
 33 H        2.8940    -3.7330    -0.2690 H     1 <1>   0.0800 
 34 H        4.5850     1.6400    -0.0060 H     1 <1>   0.0800 
 35 H        3.4280     1.6300     1.3060 H     1 <1>   0.0800 
 36 H       -1.0870    -3.7770    -1.6860 H     1 <1>   0.1500 
 37 H        2.0400     4.1120     1.6500 H     1 <1>   0.1500 
 38 H        5.6750     4.1150    -0.5290 H     1 <1>   0.1500 
 39 H        0.3730    -7.1200     0.1380 H     1 <1>   0.1500 
 40 H        3.5850     8.0950     0.0050 H     1 <1>   0.1500 
 41 H        7.1880     5.8170     0.2100 H     1 <1>   0.1500 
 42 H        4.8950    10.1070    -0.5060 H     1 <1>   0.1500 
 43 H        8.4860     7.8260    -0.3040 H     1 <1>   0.1500 
 44 H        7.3470     9.9750    -0.6650 H     1 <1>   0.1500 
@<TRIPOS>BOND
  1   1   2  2   
  2   2   3  am  
  3   2   4  1   
  4   3   5  1   
  5   3  25  1   
  6   4   6  1   
  7   4   7  1   
  8   4  26  1   
  9   5   8  1   
 10   5  27  1   
 11   5  28  1   
 12   6   9  1   
 13   6  29  1   
 14   6  30  1   
 15   7  31  1   
 16   7  32  1   
 17   7  33  1   
 18   8  10  1   
 19   8  34  1   
 20   8  35  1   
 21   9  11  1   
 22   9  12  1   
 23  10  13  1   
 24  10  14  2   
 25  11  15  2   
 26  12  16  2   
 27  12  36  1   
 28  13  17  2   
 29  13  37  1   
 30  14  18  1   
 31  14  38  1   
 32  15  16  1   
 33  15  39  1   
 34  17  18  1   
 35  18  19  1   
 36  19  20  ar  
 37  19  21  ar  
 38  20  22  ar  
 39  20  40  1   
 40  21  23  ar  
 41  21  41  1   
 42  22  24  ar  
 43  22  42  1   
 44  23  24  ar  
 45  23  43  1   
 46  24  44  1   
@<TRIPOS>SUBSTRUCTURE
  1 ****   5 GROUP 4 **** **** 0

# MOE 2024.06 (io_trps.svl 2023.06)
