@<TRIPOS>MOLECULE
NONAME
45 48 1 0 0 
SMALL
USER_CHARGES


@<TRIPOS>ATOM
  1 O       -0.6940     0.3770     0.5730 O.2   1 <1>  -0.5700 
  2 C       -1.7570     0.9180     0.3830 C.2   1 <1>   0.6300 
  3 N       -2.9350     0.2160     0.3980 N.am  1 <1>  -0.6600 
  4 C       -1.7430     2.4150     0.0830 C.3   1 <1>  -0.0950 
  5 C       -2.9780    -1.2410     0.7440 C.3   1 <1>   0.1400 
  6 C       -4.2720     0.7530    -0.0040 C.3   1 <1>   0.1400 
  7 C       -1.0300     3.3270     1.0460 C.3   1 <1>  -0.2000 
  8 C       -2.5270     3.3540     0.9640 C.3   1 <1>  -0.2000 
  9 C       -1.5850     2.6260    -1.4300 C.3   1 <1>   0.2150 
 10 C       -3.7240    -2.0510    -0.3350 C.3   1 <1>   0.3440 
 11 C       -4.9410    -0.1640    -1.0480 C.3   1 <1>   0.2950 
 12 O       -1.7520     3.9590    -1.7690 O.3   1 <1>  -0.6800 
 13 O       -4.9830    -1.4820    -0.5860 O.3   1 <1>  -0.5600 
 14 C       -3.8960    -3.5010     0.1080 C.ar  1 <1>  -0.1440 
 15 C       -6.3800     0.2720    -1.3340 C.3   1 <1>  -0.1950 
 16 C       -4.9960    -3.9050     0.8540 C.ar  1 <1>  -0.1500 
 17 C       -2.9300    -4.4400    -0.2280 C.ar  1 <1>  -0.1500 
 18 C       -7.0610    -0.0970    -2.6150 C.3   1 <1>  -0.2000 
 19 C       -6.6790     1.3320    -2.3490 C.3   1 <1>  -0.2000 
 20 C       -5.1270    -5.2220     1.2580 C.ar  1 <1>  -0.1500 
 21 C       -3.0600    -5.7570     0.1760 C.ar  1 <1>  -0.1500 
 22 C       -4.1580    -6.1490     0.9200 C.ar  1 <1>  -0.1500 
 23 H       -1.9840    -1.6370     0.8520 H     1 <1>   0.0800 
 24 H       -3.4830    -1.3660     1.6860 H     1 <1>   0.0800 
 25 H       -4.9020     0.8150     0.8660 H     1 <1>   0.0800 
 26 H       -4.1870     1.7390    -0.4220 H     1 <1>   0.0800 
 27 H       -0.5640     2.8850     1.9110 H     1 <1>   0.1000 
 28 H       -0.4780     4.1730     0.6780 H     1 <1>   0.1000 
 29 H       -3.0080     4.2130     0.5280 H     1 <1>   0.1000 
 30 H       -3.0830     2.9540     1.7940 H     1 <1>   0.1000 
 31 H       -2.3240     2.0620    -1.9720 H     1 <1>   0.0800 
 32 H       -0.6050     2.3140    -1.7500 H     1 <1>   0.0800 
 33 H       -3.1630    -2.0280    -1.2530 H     1 <1>   0.0800 
 34 H       -4.3740    -0.1480    -1.9630 H     1 <1>   0.0800 
 35 H       -1.1660     4.5110    -1.2150 H     1 <1>   0.4000 
 36 H       -6.9850     0.2650    -0.4440 H     1 <1>   0.1000 
 37 H       -5.7570    -3.1910     1.1190 H     1 <1>   0.1500 
 38 H       -2.0690    -4.1510    -0.8050 H     1 <1>   0.1500 
 39 H       -6.5100    -0.6620    -3.3480 H     1 <1>   0.1000 
 40 H       -8.0990    -0.3780    -2.5770 H     1 <1>   0.1000 
 41 H       -7.4610     2.0420    -2.1430 H     1 <1>   0.1000 
 42 H       -5.8780     1.7590    -2.9280 H     1 <1>   0.1000 
 43 H       -5.9840    -5.5230     1.8340 H     1 <1>   0.1500 
 44 H       -2.3060    -6.4780    -0.0890 H     1 <1>   0.1500 
 45 H       -4.2600    -7.1730     1.2330 H     1 <1>   0.1500 
@<TRIPOS>BOND
  1   1   2  2   
  2   2   3  am  
  3   2   4  1   
  4   3   5  1   
  5   3   6  1   
  6   4   7  1   
  7   4   8  1   
  8   4   9  1   
  9   5  10  1   
 10   5  23  1   
 11   5  24  1   
 12   6  11  1   
 13   6  25  1   
 14   6  26  1   
 15   7   8  1   
 16   7  27  1   
 17   7  28  1   
 18   8  29  1   
 19   8  30  1   
 20   9  12  1   
 21   9  31  1   
 22   9  32  1   
 23  10  13  1   
 24  10  14  1   
 25  10  33  1   
 26  11  13  1   
 27  11  15  1   
 28  11  34  1   
 29  12  35  1   
 30  14  16  ar  
 31  14  17  ar  
 32  15  18  1   
 33  15  19  1   
 34  15  36  1   
 35  16  20  ar  
 36  16  37  1   
 37  17  21  ar  
 38  17  38  1   
 39  18  19  1   
 40  18  39  1   
 41  18  40  1   
 42  19  41  1   
 43  19  42  1   
 44  20  22  ar  
 45  20  43  1   
 46  21  22  ar  
 47  21  44  1   
 48  22  45  1   
@<TRIPOS>SUBSTRUCTURE
  1 ****   3 GROUP 4 **** **** 0

# MOE 2024.06 (io_trps.svl 2023.06)
