@<TRIPOS>MOLECULE
NONAME
53 55 1 0 0 
SMALL
USER_CHARGES


@<TRIPOS>ATOM
  1 F        2.2070    -1.4600    -2.1550 F     1 <1>  -0.1900 
  2 C        2.5760    -1.4630    -0.9010 C.ar  1 <1>   0.1900 
  3 C        1.8580    -2.2130     0.0180 C.ar  1 <1>  -0.1440 
  4 C        3.6800    -0.7090    -0.5480 C.ar  1 <1>  -0.1500 
  5 C        2.2810    -2.1910     1.3390 C.ar  1 <1>  -0.1500 
  6 C        0.6470    -3.0330    -0.4010 C.3   1 <1>  -0.0960 
  7 C        4.0920    -0.6960     0.7750 C.ar  1 <1>  -0.1430 
  8 C        3.3860    -1.4400     1.7110 C.ar  1 <1>  -0.1500 
  9 C        5.3090     0.1260     1.1870 C.3   1 <1>   0.1270 
 10 C        6.6340    -0.4320     0.6530 C.ar  1 <1>  -0.1430 
 11 C        7.7200     0.4240     0.4170 C.ar  1 <1>   0.0860 
 12 C        6.7670    -1.7940     0.4120 C.ar  1 <1>  -0.1500 
 13 C        7.6690     1.8550     0.6540 C.2   1 <1>   0.5440 
 14 C        8.9040    -0.1320    -0.0680 C.ar  1 <1>  -0.1500 
 15 C        7.9500    -2.3200    -0.0720 C.ar  1 <1>  -0.1500 
 16 O        7.3310     2.3060     1.7310 O.2   1 <1>  -0.5700 
 17 N        8.0130     2.7180    -0.3470 N.am  1 <1>  -0.7300 
 18 C        9.0230    -1.4860    -0.3140 C.ar  1 <1>  -0.1500 
 19 C        8.0830     4.2000    -0.2260 C.3   1 <1>   0.1400 
 20 C        9.5400     4.7200    -0.2250 C.3   1 <1>   0.0000 
 21 C        9.4960     6.2560    -0.0300 C.3   1 <1>  -0.1600 
 22 C       10.3290     4.0900     0.9570 C.3   1 <1>  -0.1600 
 23 C       10.1720     4.3490    -1.5950 C.3   1 <1>   0.1200 
 24 C       10.8670     6.9000     0.2600 C.3   1 <1>   0.1200 
 25 C       11.3400     5.0400     1.6180 C.3   1 <1>   0.1200 
 26 O       11.5030     4.7120    -1.6690 O.3   1 <1>  -0.6800 
 27 O       11.8050     5.9490     0.6730 O.3   1 <1>  -0.5600 
 28 H        4.2040    -0.1490    -1.3000 H     1 <1>   0.1500 
 29 H        1.7530    -2.7580     2.0860 H     1 <1>   0.1500 
 30 H        0.9360    -3.7610    -1.1380 H     1 <1>   0.0800 
 31 H       -0.1010    -2.3890    -0.8260 H     1 <1>   0.0800 
 32 H        0.2190    -3.5480     0.4400 H     1 <1>   0.0800 
 33 H        3.6950    -1.4400     2.7430 H     1 <1>   0.1500 
 34 H        5.3690     0.1870     2.2590 H     1 <1>   0.0800 
 35 H        5.1520     1.1260     0.8240 H     1 <1>   0.0800 
 36 H        5.9470    -2.4670     0.5980 H     1 <1>   0.1500 
 37 H        9.7500     0.5080    -0.2470 H     1 <1>   0.1500 
 38 H        8.0340    -3.3770    -0.2560 H     1 <1>   0.1500 
 39 H        8.2450     2.3290    -1.2620 H     1 <1>   0.3700 
 40 H        9.9470    -1.8920    -0.6890 H     1 <1>   0.1500 
 41 H        7.5950     4.5030     0.6860 H     1 <1>   0.0800 
 42 H        7.5370     4.6400    -1.0430 H     1 <1>   0.0800 
 43 H        8.8590     6.4830     0.8070 H     1 <1>   0.0800 
 44 H        9.0590     6.7350    -0.8880 H     1 <1>   0.0800 
 45 H       10.8420     3.2050     0.6240 H     1 <1>   0.0800 
 46 H        9.6520     3.7730     1.7300 H     1 <1>   0.0800 
 47 H        9.6560     4.8410    -2.4010 H     1 <1>   0.0800 
 48 H       10.1330     3.2870    -1.7600 H     1 <1>   0.0800 
 49 H       10.7840     7.6520     1.0260 H     1 <1>   0.0800 
 50 H       11.2580     7.3610    -0.6320 H     1 <1>   0.0800 
 51 H       12.1830     4.4910     2.0000 H     1 <1>   0.0800 
 52 H       10.8870     5.5900     2.4260 H     1 <1>   0.0800 
 53 H       11.7630     5.1460    -0.8110 H     1 <1>   0.4000 
@<TRIPOS>BOND
  1   1   2  1   
  2   2   3  ar  
  3   2   4  ar  
  4   3   5  ar  
  5   3   6  1   
  6   4   7  ar  
  7   4  28  1   
  8   5   8  ar  
  9   5  29  1   
 10   6  30  1   
 11   6  31  1   
 12   6  32  1   
 13   7   8  ar  
 14   7   9  1   
 15   8  33  1   
 16   9  10  1   
 17   9  34  1   
 18   9  35  1   
 19  10  11  ar  
 20  10  12  ar  
 21  11  13  1   
 22  11  14  ar  
 23  12  15  ar  
 24  12  36  1   
 25  13  16  2   
 26  13  17  am  
 27  14  18  ar  
 28  14  37  1   
 29  15  18  ar  
 30  15  38  1   
 31  17  19  1   
 32  17  39  1   
 33  18  40  1   
 34  19  20  1   
 35  19  41  1   
 36  19  42  1   
 37  20  21  1   
 38  20  22  1   
 39  20  23  1   
 40  21  24  1   
 41  21  43  1   
 42  21  44  1   
 43  22  25  1   
 44  22  45  1   
 45  22  46  1   
 46  23  26  1   
 47  23  47  1   
 48  23  48  1   
 49  24  27  1   
 50  24  49  1   
 51  24  50  1   
 52  25  27  1   
 53  25  51  1   
 54  25  52  1   
 55  26  53  1   
@<TRIPOS>SUBSTRUCTURE
  1 ****  13 GROUP 4 **** **** 0

# MOE 2024.06 (io_trps.svl 2023.06)
