@<TRIPOS>MOLECULE
NONAME
36 38 1 0 0 
SMALL
USER_CHARGES


@<TRIPOS>ATOM
  1 N        1.3290    -1.2560     0.3220 N.ar  1 <1>  -0.6200 
  2 C        1.7960    -0.2330    -0.3680 C.ar  1 <1>   0.1660 
  3 C        0.6620    -2.1680    -0.3720 C.ar  1 <1>   0.4700 
  4 C        1.5730    -0.1310    -1.7260 C.ar  1 <1>  -0.1500 
  5 C        2.5710     0.8300     0.4320 C.3   1 <1>   0.5660 
  6 N        0.3950    -2.1630    -1.6650 N.ar  1 <1>  -0.6200 
  7 C        0.8590    -1.1340    -2.3360 C.ar  1 <1>   0.1600 
  8 N        1.6830     1.9770     0.8200 N.4   1 <1>  -0.9590 
  9 C        3.8090     1.3250    -0.3220 C.3   1 <1>  -0.2400 
 10 C        2.3570     3.0060     1.6840 C.3   1 <1>   0.5240 
 11 C        0.3940     1.5210     1.4300 C.3   1 <1>   0.2630 
 12 C        2.8370     4.1850     0.8270 C.2   1 <1>   0.3350 
 13 N        3.7580     5.0130     1.2080 N.2   1 <1>  -0.7070 
 14 N        2.3040     4.3770    -0.3840 N.2   1 <1>  -0.5650 
 15 N        3.8370     5.8400     0.1670 N.pl3 1 <1>   0.6010 
 16 C        2.9500     5.4270    -0.7850 C.2   1 <1>   0.3120 
 17 C        4.6270     6.9460    -0.0560 C.2   1 <1>  -0.1810 
 18 N        2.7930     6.0550    -1.9940 N.2   1 <1>  -0.5760 
 19 C        4.4800     7.5840    -1.2480 C.2   1 <1>  -0.1360 
 20 C        3.5370     7.0940    -2.1980 C.2   1 <1>   0.3760 
 21 H        0.2900    -3.0150     0.1830 H     1 <1>   0.1500 
 22 H        1.9320     0.6950    -2.3120 H     1 <1>   0.1500 
 23 H        2.9100     0.3410     1.3310 H     1 <1>   0.0800 
 24 H        0.6630    -1.0960    -3.3960 H     1 <1>   0.1500 
 25 H        1.4720     2.4990    -0.0510 H     1 <1>   0.4500 
 26 H        3.5410     1.9350    -1.1660 H     1 <1>   0.0800 
 27 H        4.3650     0.4770    -0.6840 H     1 <1>   0.0800 
 28 H        4.4640     1.8790     0.3250 H     1 <1>   0.0800 
 29 H        3.1930     2.5780     2.2100 H     1 <1>   0.0800 
 30 H        1.6610     3.3910     2.4090 H     1 <1>   0.0800 
 31 H        0.5820     0.9520     2.3270 H     1 <1>   0.0800 
 32 H       -0.1490     0.8940     0.7400 H     1 <1>   0.0800 
 33 H       -0.2270     2.3680     1.6760 H     1 <1>   0.0800 
 34 H        5.3060     7.2300     0.7270 H     1 <1>   0.1500 
 35 H        5.0540     8.4560    -1.5090 H     1 <1>   0.1500 
 36 H        3.4490     7.6240    -3.1300 H     1 <1>   0.0600 
@<TRIPOS>BOND
  1   1   2  ar  
  2   1   3  ar  
  3   2   4  ar  
  4   2   5  1   
  5   3   6  ar  
  6   3  21  1   
  7   4   7  ar  
  8   4  22  1   
  9   5   8  1   
 10   5   9  1   
 11   5  23  1   
 12   6   7  ar  
 13   7  24  1   
 14   8  10  1   
 15   8  11  1   
 16   8  25  1   
 17   9  26  1   
 18   9  27  1   
 19   9  28  1   
 20  10  12  1   
 21  10  29  1   
 22  10  30  1   
 23  11  31  1   
 24  11  32  1   
 25  11  33  1   
 26  12  13  2   
 27  12  14  1   
 28  13  15  1   
 29  14  16  2   
 30  15  16  1   
 31  15  17  1   
 32  16  18  1   
 33  17  19  2   
 34  17  34  1   
 35  18  20  2   
 36  19  20  1   
 37  19  35  1   
 38  20  36  1   
@<TRIPOS>SUBSTRUCTURE
  1 ****   8 GROUP 4 **** **** 0

# MOE 2024.06 (io_trps.svl 2023.06)
