@<TRIPOS>MOLECULE
NONAME
47 49 1 0 0 
SMALL
USER_CHARGES


@<TRIPOS>ATOM
  1 O       -0.4150    -1.3670     2.5420 O.2   1 <1>  -0.5700 
  2 C        0.0810    -2.0670     1.7080 C.2   1 <1>   0.8520 
  3 N       -0.4620    -3.2270     1.2810 N.pl3 1 <1>  -0.8600 
  4 C        1.3940    -1.8570     0.9360 C.3   1 <1>   0.3890 
  5 C        0.2860    -3.8030     0.3600 C.cat 1 <1>   1.2000 
  6 N        1.3580    -3.0830     0.1070 N.pl3 1 <1>  -0.8440 
  7 C        1.3670    -0.6160     0.0340 C.3   1 <1>  -0.1600 
  8 C        2.6330    -1.8800     1.8400 C.3   1 <1>  -0.1600 
  9 N       -0.0140    -4.9620    -0.2270 N.pl3 1 <1>  -0.7220 
 10 C        2.6590    -0.4740    -0.7660 C.3   1 <1>   0.2090 
 11 C        3.9190    -1.7370     1.0320 C.3   1 <1>   0.2090 
 12 C        0.8350    -5.6160    -1.2730 C.3   1 <1>   0.0880 
 13 C       -1.2380    -5.7720     0.0740 C.3   1 <1>   0.0880 
 14 N        3.8150    -0.5440     0.1560 N.pl3 1 <1>  -0.8380 
 15 C        5.0050    -0.0030    -0.3610 C.ar  1 <1>   0.4100 
 16 N        5.9450    -0.9010    -0.6140 N.ar  1 <1>  -0.6200 
 17 C        5.1700     1.4050    -0.6290 C.ar  1 <1>   0.4100 
 18 C        7.0390    -0.3630    -1.1350 C.ar  1 <1>   0.1600 
 19 N        6.2750     1.9030    -1.1610 N.ar  1 <1>  -0.6200 
 20 N        4.1720     2.3540    -0.3320 N.pl3 1 <1>  -0.8380 
 21 C        7.1970     0.9820    -1.4000 C.ar  1 <1>   0.1600 
 22 C        3.8390     2.5310     1.1050 C.3   1 <1>   0.1290 
 23 C        4.1230     3.6210    -1.1140 C.3   1 <1>   0.1290 
 24 H       -1.3350    -3.5690     1.6540 H     1 <1>   0.4500 
 25 H        2.0960    -3.3070    -0.5550 H     1 <1>   0.4500 
 26 H        1.2590     0.2630     0.6450 H     1 <1>   0.0800 
 27 H        0.5270    -0.6470    -0.6360 H     1 <1>   0.0800 
 28 H        2.6670    -2.7840     2.4210 H     1 <1>   0.0800 
 29 H        2.5810    -1.0560     2.5310 H     1 <1>   0.0800 
 30 H        2.6570     0.4700    -1.2860 H     1 <1>   0.0800 
 31 H        2.7460    -1.2540    -1.5020 H     1 <1>   0.0800 
 32 H        4.0960    -2.6110     0.4270 H     1 <1>   0.0800 
 33 H        4.7570    -1.6190     1.6990 H     1 <1>   0.0800 
 34 H        0.2690    -5.7360    -2.1820 H     1 <1>   0.0800 
 35 H        1.1460    -6.5910    -0.9340 H     1 <1>   0.0800 
 36 H        1.7160    -5.0410    -1.4990 H     1 <1>   0.0800 
 37 H       -0.9510    -6.7500     0.4260 H     1 <1>   0.0800 
 38 H       -1.8280    -5.8900    -0.8200 H     1 <1>   0.0800 
 39 H       -1.8550    -5.3120     0.8260 H     1 <1>   0.0800 
 40 H        7.8490    -1.0340    -1.3630 H     1 <1>   0.1500 
 41 H        8.1210     1.3240    -1.8290 H     1 <1>   0.1500 
 42 H        4.0800     1.6420     1.6620 H     1 <1>   0.0800 
 43 H        2.7870     2.7300     1.2110 H     1 <1>   0.0800 
 44 H        4.4000     3.3530     1.5130 H     1 <1>   0.0800 
 45 H        4.3010     3.4150    -2.1560 H     1 <1>   0.0800 
 46 H        4.8810     4.2980    -0.7610 H     1 <1>   0.0800 
 47 H        3.1560     4.0800    -1.0120 H     1 <1>   0.0800 
@<TRIPOS>BOND
  1   1   2  2   
  2   2   3  1   
  3   2   4  1   
  4   3   5  ar  
  5   3  24  1   
  6   4   6  1   
  7   4   7  1   
  8   4   8  1   
  9   5   6  ar  
 10   5   9  ar  
 11   6  25  1   
 12   7  10  1   
 13   7  26  1   
 14   7  27  1   
 15   8  11  1   
 16   8  28  1   
 17   8  29  1   
 18   9  12  1   
 19   9  13  1   
 20  10  14  1   
 21  10  30  1   
 22  10  31  1   
 23  11  14  1   
 24  11  32  1   
 25  11  33  1   
 26  12  34  1   
 27  12  35  1   
 28  12  36  1   
 29  13  37  1   
 30  13  38  1   
 31  13  39  1   
 32  14  15  1   
 33  15  16  ar  
 34  15  17  ar  
 35  16  18  ar  
 36  17  19  ar  
 37  17  20  1   
 38  18  21  ar  
 39  18  40  1   
 40  19  21  ar  
 41  20  22  1   
 42  20  23  1   
 43  21  41  1   
 44  22  42  1   
 45  22  43  1   
 46  22  44  1   
 47  23  45  1   
 48  23  46  1   
 49  23  47  1   
@<TRIPOS>SUBSTRUCTURE
  1 ****  10 GROUP 4 **** **** 0

# MOE 2024.06 (io_trps.svl 2023.06)
