@<TRIPOS>MOLECULE
Untitled Document
52 54 1 0 0 
SMALL
USER_CHARGES


@<TRIPOS>ATOM
  1 CL       0.1980     1.0130     1.1110 Cl    1 <1>  -0.1770 
  2 C        1.7670     1.6450     0.6840 C.ar  1 <1>   0.1770 
  3 C        2.3820     1.2090    -0.4740 C.ar  1 <1>  -0.1500 
  4 C        2.3730     2.5710     1.5110 C.ar  1 <1>  -0.1500 
  5 C        3.6270     1.7130    -0.8110 C.ar  1 <1>  -0.1500 
  6 C        3.6180     3.0720     1.1700 C.ar  1 <1>  -0.1500 
  7 C        4.2490     2.6470     0.0080 C.ar  1 <1>  -0.1430 
  8 C        5.6130     3.1980    -0.3630 C.3   1 <1>   0.2140 
  9 S        6.8870     2.1100     0.4140 S.3   1 <1>  -0.3610 
 10 C        8.4530     2.7480    -0.0240 C.cat 1 <1>   0.8400 
 11 N        8.5740     3.7820    -0.8090 N.pl3 1 <1>  -0.7940 
 12 N        9.4840     2.1290     0.4610 N.pl3 1 <1>  -0.7940 
 13 C        9.8840     4.3110    -1.1610 C.3   1 <1>   0.5990 
 14 C       10.8440     2.5710     0.2140 C.3   1 <1>   0.5990 
 15 N       10.7630     4.0060    -0.0410 N.3   1 <1>  -0.8100 
 16 C       12.0940     4.6060    -0.2510 C.3   1 <1>   0.1100 
 17 C       12.8650     4.7520     1.0650 C.3   1 <1>  -0.0170 
 18 C       14.1740     5.4680     0.7870 C.ar  1 <1>  -0.1430 
 19 C       15.2820     4.7570     0.3600 C.ar  1 <1>  -0.1500 
 20 C       14.2730     6.8400     0.9430 C.ar  1 <1>  -0.1500 
 21 C       16.4820     5.3890     0.0780 C.ar  1 <1>   0.0830 
 22 C       15.4600     7.4910     0.6600 C.ar  1 <1>  -0.1500 
 23 O       17.4800     4.5510    -0.3260 O.3   1 <1>  -0.3630 
 24 C       16.5760     6.7850     0.2150 C.ar  1 <1>   0.0830 
 25 C       18.8380     4.8550    -0.1010 C.3   1 <1>   0.0400 
 26 O       17.7380     7.4270    -0.1020 O.3   1 <1>  -0.3630 
 27 C       17.8440     8.8340    -0.1100 C.3   1 <1>   0.0400 
 28 H        1.8890     0.4850    -1.0980 H     1 <1>   0.1500 
 29 H        1.8730     2.8920     2.4080 H     1 <1>   0.1500 
 30 H        4.1050     1.3680    -1.7120 H     1 <1>   0.1500 
 31 H        4.0900     3.7900     1.8190 H     1 <1>   0.1500 
 32 H        5.7490     4.1930     0.0220 H     1 <1>   0.0800 
 33 H        5.7640     3.1780    -1.4280 H     1 <1>   0.0800 
 34 H        7.7790     4.2820    -1.1950 H     1 <1>   0.4500 
 35 H        9.3600     1.3220     1.0730 H     1 <1>   0.4500 
 36 H        9.8220     5.3810    -1.2910 H     1 <1>   0.0800 
 37 H       10.2440     3.8600    -2.0730 H     1 <1>   0.0800 
 38 H       11.2650     2.0470    -0.6300 H     1 <1>   0.0800 
 39 H       11.4460     2.3840     1.0890 H     1 <1>   0.0800 
 40 H       11.9820     5.5960    -0.6630 H     1 <1>   0.0800 
 41 H       12.6710     4.0240    -0.9520 H     1 <1>   0.0800 
 42 H       13.0810     3.7940     1.5000 H     1 <1>   0.0800 
 43 H       12.2830     5.3230     1.7680 H     1 <1>   0.0800 
 44 H       15.2340     3.6900     0.2380 H     1 <1>   0.1500 
 45 H       13.4270     7.4120     1.2830 H     1 <1>   0.1500 
 46 H       15.4880     8.5550     0.7930 H     1 <1>   0.1500 
 47 H       19.4040     3.9460    -0.1900 H     1 <1>   0.0800 
 48 H       18.9480     5.2640     0.8880 H     1 <1>   0.0800 
 49 H       19.1630     5.5600    -0.8450 H     1 <1>   0.0800 
 50 H       18.8340     9.0920    -0.4410 H     1 <1>   0.0800 
 51 H       17.6860     9.2020     0.8880 H     1 <1>   0.0800 
 52 H       17.1150     9.2350    -0.7920 H     1 <1>   0.0800 
@<TRIPOS>BOND
  1   1   2  1   
  2   2   3  ar  
  3   2   4  ar  
  4   3   5  ar  
  5   3  28  1   
  6   4   6  ar  
  7   4  29  1   
  8   5   7  ar  
  9   5  30  1   
 10   6   7  ar  
 11   6  31  1   
 12   7   8  1   
 13   8   9  1   
 14   8  32  1   
 15   8  33  1   
 16   9  10  1   
 17  10  11  ar  
 18  10  12  ar  
 19  11  13  1   
 20  11  34  1   
 21  12  14  1   
 22  12  35  1   
 23  13  15  1   
 24  13  36  1   
 25  13  37  1   
 26  14  15  1   
 27  14  38  1   
 28  14  39  1   
 29  15  16  1   
 30  16  17  1   
 31  16  40  1   
 32  16  41  1   
 33  17  18  1   
 34  17  42  1   
 35  17  43  1   
 36  18  19  ar  
 37  18  20  ar  
 38  19  21  ar  
 39  19  44  1   
 40  20  22  ar  
 41  20  45  1   
 42  21  23  1   
 43  21  24  ar  
 44  22  24  ar  
 45  22  46  1   
 46  23  25  1   
 47  24  26  1   
 48  25  47  1   
 49  25  48  1   
 50  25  49  1   
 51  26  27  1   
 52  27  50  1   
 53  27  51  1   
 54  27  52  1   
@<TRIPOS>SUBSTRUCTURE
  1 ****  15 GROUP 4 **** **** 0

# MOE 2024.06 (io_trps.svl 2023.06)
