@<TRIPOS>MOLECULE
NONAME
43 45 1 0 0 
SMALL
USER_CHARGES


@<TRIPOS>ATOM
  1 CL      -2.3650    -0.3670    -2.8380 Cl    1 <1>  -0.1770 
  2 C       -2.8990     0.6870    -1.5520 C.ar  1 <1>   0.1770 
  3 C       -3.2300     0.1720    -0.3010 C.ar  1 <1>   0.0860 
  4 C       -2.9690     2.0390    -1.8230 C.ar  1 <1>  -0.1500 
  5 C       -3.1740    -1.2400     0.0030 C.2   1 <1>   0.5440 
  6 C       -3.6200     1.0840     0.6800 C.ar  1 <1>  -0.1500 
  7 C       -3.3710     2.9190    -0.8350 C.ar  1 <1>  -0.1500 
  8 O       -2.4360    -1.6290     0.8860 O.2   1 <1>  -0.5700 
  9 N       -3.9770    -2.1540    -0.6350 N.am  1 <1>  -0.6600 
 10 C       -3.7030     2.4520     0.4340 C.ar  1 <1>  -0.1430 
 11 C       -5.1500    -1.8410    -1.4900 C.3   1 <1>   0.1400 
 12 C       -3.9340    -3.6120    -0.3470 C.3   1 <1>   0.1400 
 13 C       -4.1370     3.4330     1.5380 C.3   1 <1>   1.1640 
 14 C       -6.1090    -3.0010    -1.2350 C.3   1 <1>   0.2000 
 15 C       -5.1710    -4.1960    -1.0390 C.3   1 <1>  -0.0800 
 16 F       -4.8990     2.8630     2.4640 F     1 <1>  -0.3400 
 17 F       -4.8360     4.4560     1.0620 F     1 <1>  -0.3400 
 18 F       -3.0980     3.9540     2.1750 F     1 <1>  -0.3400 
 19 O       -6.7850    -2.7410    -0.0520 O.3   1 <1>  -0.6800 
 20 C       -5.7790    -5.4060    -0.3070 C.3   1 <1>   0.0210 
 21 C       -4.7620    -6.5220    -0.1780 C.2   1 <1>   0.1080 
 22 N       -4.2750    -7.1510    -1.2030 N.2   1 <1>  -0.7070 
 23 C       -4.2340    -6.9840     1.0230 C.2   1 <1>  -0.1500 
 24 N       -3.4140    -8.0420    -0.6760 N.pl3 1 <1>   0.3000 
 25 C       -3.3710    -7.9590     0.6700 C.2   1 <1>  -0.3320 
 26 C       -2.4930    -8.8290     1.5510 C.3   1 <1>  -0.0600 
 27 H       -2.7060     2.3990    -2.8030 H     1 <1>   0.1500 
 28 H       -3.8570     0.6920     1.6570 H     1 <1>   0.1500 
 29 H       -3.4190     3.9740    -1.0590 H     1 <1>   0.1500 
 30 H       -5.5970    -0.8940    -1.2440 H     1 <1>   0.0800 
 31 H       -4.8420    -1.8430    -2.5210 H     1 <1>   0.0800 
 32 H       -3.0280    -4.0490    -0.7330 H     1 <1>   0.0800 
 33 H       -3.9740    -3.7650     0.7180 H     1 <1>   0.0800 
 34 H       -6.8290    -3.1420    -2.0230 H     1 <1>   0.0800 
 35 H       -4.8590    -4.5270    -2.0150 H     1 <1>   0.0800 
 36 H       -6.1240    -2.5200     0.6360 H     1 <1>   0.4000 
 37 H       -6.6260    -5.7720    -0.8590 H     1 <1>   0.0800 
 38 H       -6.1190    -5.1260     0.6740 H     1 <1>   0.0800 
 39 H       -4.4790    -6.6220     2.0050 H     1 <1>   0.1500 
 40 H       -2.8720    -8.6880    -1.2610 H     1 <1>   0.2700 
 41 H       -2.6370    -8.5720     2.5850 H     1 <1>   0.0800 
 42 H       -1.4560    -8.6830     1.3030 H     1 <1>   0.0800 
 43 H       -2.7440    -9.8670     1.4180 H     1 <1>   0.0800 
@<TRIPOS>BOND
  1   1   2  1   
  2   2   3  ar  
  3   2   4  ar  
  4   3   5  1   
  5   3   6  ar  
  6   4   7  ar  
  7   4  27  1   
  8   5   8  2   
  9   5   9  am  
 10   6  10  ar  
 11   6  28  1   
 12   7  10  ar  
 13   7  29  1   
 14   9  11  1   
 15   9  12  1   
 16  10  13  1   
 17  11  14  1   
 18  11  30  1   
 19  11  31  1   
 20  12  15  1   
 21  12  32  1   
 22  12  33  1   
 23  13  16  1   
 24  13  17  1   
 25  13  18  1   
 26  14  15  1   
 27  14  19  1   
 28  14  34  1   
 29  15  20  1   
 30  15  35  1   
 31  19  36  1   
 32  20  21  1   
 33  20  37  1   
 34  20  38  1   
 35  21  22  2   
 36  21  23  1   
 37  22  24  1   
 38  23  25  2   
 39  23  39  1   
 40  24  25  1   
 41  24  40  1   
 42  25  26  1   
 43  26  41  1   
 44  26  42  1   
 45  26  43  1   
@<TRIPOS>SUBSTRUCTURE
  1 ****   9 GROUP 4 **** **** 0

# MOE 2024.06 (io_trps.svl 2023.06)
