@<TRIPOS>MOLECULE
NONAME
35 36 1 0 0 
SMALL
USER_CHARGES


@<TRIPOS>ATOM
  1 O       -0.7730     0.6330    -0.1340 O.3   1 <1>  -0.5600 
  2 C       -1.2440     1.9090     0.1480 C.3   1 <1>   0.1200 
  3 C       -0.3230    -0.0650     0.9840 C.3   1 <1>   0.0400 
  4 C       -1.7510     2.5150    -1.1580 C.3   1 <1>   0.0960 
  5 N       -2.1370     3.9220    -0.9350 N.pl3 1 <1>   0.0480 
  6 C       -1.3690     5.0320    -0.9840 C.2   1 <1>  -0.3320 
  7 C       -3.3650     4.3670    -0.5850 C.2   1 <1>   0.0360 
  8 C       -2.1790     6.0650    -0.6510 C.2   1 <1>   0.0770 
  9 C        0.1060     5.0330    -1.3380 C.3   1 <1>   0.3890 
 10 N       -3.4320     5.6440    -0.4060 N.2   1 <1>  -0.5650 
 11 N        0.5140     6.4020    -1.6700 N.pl3 1 <1>  -0.8690 
 12 C        1.1560     7.1990    -0.7770 C.ar  1 <1>   0.4100 
 13 N        0.6080     8.3760    -0.5970 N.ar  1 <1>  -0.6200 
 14 C        2.3000     6.8210    -0.1030 C.ar  1 <1>  -0.1500 
 15 C        1.2090     9.1580     0.2790 C.ar  1 <1>   0.4770 
 16 C        2.8370     7.7170     0.7790 C.ar  1 <1>   0.1600 
 17 N        2.2960     8.9020     0.9870 N.ar  1 <1>  -0.6200 
 18 C        0.5770    10.5120     0.4950 C.3   1 <1>  -0.0970 
 19 H       -0.4320     2.4910     0.5490 H     1 <1>   0.0800 
 20 H       -2.0430     1.8350     0.8660 H     1 <1>   0.0800 
 21 H        0.0220    -1.0310     0.6590 H     1 <1>   0.0800 
 22 H       -1.1350    -0.1870     1.6790 H     1 <1>   0.0800 
 23 H        0.4900     0.4750     1.4390 H     1 <1>   0.0800 
 24 H       -2.6090     1.9680    -1.5040 H     1 <1>   0.0800 
 25 H       -0.9830     2.4740    -1.9070 H     1 <1>   0.0800 
 26 H       -4.2010     3.7010    -0.4660 H     1 <1>   0.1500 
 27 H       -1.9180     7.1090    -0.5700 H     1 <1>   0.1500 
 28 H        0.2810     4.4080    -2.1970 H     1 <1>   0.0800 
 29 H        0.6810     4.6540    -0.5110 H     1 <1>   0.0800 
 30 H       -0.2530     6.9040    -2.1230 H     1 <1>   0.4000 
 31 H        2.7460     5.8640    -0.2770 H     1 <1>   0.1500 
 32 H        3.7290     7.4710     1.3300 H     1 <1>   0.1500 
 33 H       -0.4920    10.4300     0.4420 H     1 <1>   0.0800 
 34 H        0.9190    11.1860    -0.2660 H     1 <1>   0.0800 
 35 H        0.8490    10.9000     1.4590 H     1 <1>   0.0800 
@<TRIPOS>BOND
  1   1   2  1   
  2   1   3  1   
  3   2   4  1   
  4   2  19  1   
  5   2  20  1   
  6   3  21  1   
  7   3  22  1   
  8   3  23  1   
  9   4   5  1   
 10   4  24  1   
 11   4  25  1   
 12   5   6  1   
 13   5   7  1   
 14   6   8  2   
 15   6   9  1   
 16   7  10  2   
 17   7  26  1   
 18   8  10  1   
 19   8  27  1   
 20   9  11  1   
 21   9  28  1   
 22   9  29  1   
 23  11  12  1   
 24  11  30  1   
 25  12  13  ar  
 26  12  14  ar  
 27  13  15  ar  
 28  14  16  ar  
 29  14  31  1   
 30  15  17  ar  
 31  15  18  1   
 32  16  17  ar  
 33  16  32  1   
 34  18  33  1   
 35  18  34  1   
 36  18  35  1   
@<TRIPOS>SUBSTRUCTURE
  1 ****   9 GROUP 4 **** **** 0

# MOE 2024.06 (io_trps.svl 2023.06)
