@<TRIPOS>MOLECULE
NONAME
46 48 1 0 0 
SMALL
USER_CHARGES


@<TRIPOS>ATOM
  1 O       -2.1700     1.3460    -0.3990 O.3   1 <1>  -0.5600 
  2 C       -2.1910     2.4290    -1.2920 C.3   1 <1>   0.2000 
  3 C       -1.6330     0.1380    -0.8710 C.3   1 <1>   0.2640 
  4 C       -0.7590     2.9390    -1.5710 C.3   1 <1>   0.3430 
  5 C       -2.9790     3.5530    -0.5990 C.3   1 <1>  -0.1600 
  6 C       -0.3040    -0.1470    -0.1720 C.ar  1 <1>   0.1660 
  7 N       -0.0010     3.1560    -0.2900 N.4   1 <1>  -0.9590 
  8 C       -2.0910     4.4090     0.3350 C.3   1 <1>  -0.1600 
  9 N        0.7990     0.3680    -0.7100 N.ar  1 <1>  -0.6200 
 10 C       -0.3090    -0.9260     0.9760 C.ar  1 <1>  -0.1500 
 11 C       -0.8590     3.6480     0.8450 C.3   1 <1>   0.3430 
 12 C        1.2220     3.9740    -0.5270 C.3   1 <1>   0.3430 
 13 C        1.9360     0.0420    -0.1100 C.ar  1 <1>   0.1600 
 14 C        0.8790    -1.2270     1.6060 C.ar  1 <1>  -0.1500 
 15 C        2.2260     3.8560     0.6220 C.3   1 <1>  -0.0170 
 16 C        2.0290    -0.7320     1.0330 C.ar  1 <1>  -0.1500 
 17 C        3.4600     4.6660     0.2820 C.ar  1 <1>   0.1670 
 18 N        3.2330     5.8860    -0.1790 N.ar  1 <1>  -0.6200 
 19 C        4.7240     4.1230     0.4600 C.ar  1 <1>  -0.1500 
 20 C        4.3120     6.5980    -0.4720 C.ar  1 <1>   0.1600 
 21 C        5.8370     4.8740     0.1460 C.ar  1 <1>  -0.1500 
 22 C        5.6130     6.1460    -0.3330 C.ar  1 <1>  -0.1500 
 23 H       -2.6920     2.1240    -2.1960 H     1 <1>   0.0800 
 24 H       -1.5020     0.1720    -1.9380 H     1 <1>   0.0800 
 25 H       -2.3410    -0.6390    -0.6410 H     1 <1>   0.0800 
 26 H       -0.8280     3.8660    -2.1150 H     1 <1>   0.0800 
 27 H       -0.2350     2.2290    -2.1900 H     1 <1>   0.0800 
 28 H       -3.7960     3.1190    -0.0470 H     1 <1>   0.0800 
 29 H       -3.4090     4.1980    -1.3460 H     1 <1>   0.0800 
 30 H        0.2990     2.1910    -0.0420 H     1 <1>   0.4500 
 31 H       -2.6770     4.7360     1.1770 H     1 <1>   0.0800 
 32 H       -1.7590     5.2930    -0.1810 H     1 <1>   0.0800 
 33 H       -1.2350    -1.3010     1.3760 H     1 <1>   0.1500 
 34 H       -0.2880     4.2770     1.5060 H     1 <1>   0.0800 
 35 H       -1.2040     2.7970     1.4110 H     1 <1>   0.0800 
 36 H        0.9520     5.0090    -0.6580 H     1 <1>   0.0800 
 37 H        1.7060     3.6440    -1.4310 H     1 <1>   0.0800 
 38 H        2.8480     0.4080    -0.5520 H     1 <1>   0.1500 
 39 H        0.9070    -1.8320     2.4970 H     1 <1>   0.1500 
 40 H        2.4910     2.8270     0.7760 H     1 <1>   0.0800 
 41 H        1.8120     4.2550     1.5290 H     1 <1>   0.0800 
 42 H        2.9890    -0.9490     1.4670 H     1 <1>   0.1500 
 43 H        4.8490     3.1260     0.8420 H     1 <1>   0.1500 
 44 H        4.1530     7.5960    -0.8440 H     1 <1>   0.1500 
 45 H        6.8340     4.4870     0.2700 H     1 <1>   0.1500 
 46 H        6.4370     6.7850    -0.5940 H     1 <1>   0.1500 
@<TRIPOS>BOND
  1   1   2  1   
  2   1   3  1   
  3   2   4  1   
  4   2   5  1   
  5   2  23  1   
  6   3   6  1   
  7   3  24  1   
  8   3  25  1   
  9   4   7  1   
 10   4  26  1   
 11   4  27  1   
 12   5   8  1   
 13   5  28  1   
 14   5  29  1   
 15   6   9  ar  
 16   6  10  ar  
 17   7  11  1   
 18   7  12  1   
 19   7  30  1   
 20   8  11  1   
 21   8  31  1   
 22   8  32  1   
 23   9  13  ar  
 24  10  14  ar  
 25  10  33  1   
 26  11  34  1   
 27  11  35  1   
 28  12  15  1   
 29  12  36  1   
 30  12  37  1   
 31  13  16  ar  
 32  13  38  1   
 33  14  16  ar  
 34  14  39  1   
 35  15  17  1   
 36  15  40  1   
 37  15  41  1   
 38  16  42  1   
 39  17  18  ar  
 40  17  19  ar  
 41  18  20  ar  
 42  19  21  ar  
 43  19  43  1   
 44  20  22  ar  
 45  20  44  1   
 46  21  22  ar  
 47  21  45  1   
 48  22  46  1   
@<TRIPOS>SUBSTRUCTURE
  1 ****   7 GROUP 4 **** **** 0

# MOE 2024.06 (io_trps.svl 2023.06)
