@<TRIPOS>MOLECULE
NONAME
56 59 1 0 0 
SMALL
USER_CHARGES


@<TRIPOS>ATOM
  1 S       -2.1670    -0.4630     2.0530 S.3   1 <1>  -0.0800 
  2 C       -1.6930    -1.3930     0.6380 C.2   1 <1>  -0.1400 
  3 C       -1.7350     1.0450     1.2680 C.2   1 <1>  -0.1100 
  4 C       -1.2460    -0.5690    -0.3320 C.2   1 <1>  -0.1500 
  5 C       -1.8590    -2.9000     0.7290 C.3   1 <1>   0.3800 
  6 C       -1.2710     0.8160     0.0260 C.2   1 <1>  -0.1500 
  7 O       -1.2020    -3.4720    -0.3440 O.3   1 <1>  -0.6800 
  8 C       -3.3430    -3.3350     0.6990 C.3   1 <1>  -0.0800 
  9 C       -3.4920    -4.8650     0.8340 C.3   1 <1>  -0.1600 
 10 C       -4.0800    -2.8340    -0.5640 C.3   1 <1>  -0.1600 
 11 C       -4.9480    -5.3130     0.7350 C.3   1 <1>   0.3430 
 12 C       -5.5200    -3.3330    -0.6320 C.3   1 <1>   0.3430 
 13 N       -5.5270    -4.8170    -0.5450 N.4   1 <1>  -0.9590 
 14 C       -6.8890    -5.4090    -0.8030 C.3   1 <1>   0.4860 
 15 C       -6.8280    -6.9300    -0.9900 C.ar  1 <1>   0.4770 
 16 N       -7.6060    -7.6580    -0.2380 N.ar  1 <1>  -0.6200 
 17 N       -5.9660    -7.3740    -1.8630 N.ar  1 <1>  -0.6200 
 18 C       -7.4730    -8.9550    -0.4210 C.ar  1 <1>   0.7200 
 19 C       -5.9310    -8.6790    -1.9430 C.ar  1 <1>   0.7200 
 20 N       -6.6470    -9.5170    -1.2630 N.ar  1 <1>  -0.6200 
 21 N       -8.2970    -9.7210     0.3480 N.pl3 1 <1>  -0.6000 
 22 N       -5.0680    -9.2000    -2.8120 N.pl3 1 <1>  -0.9000 
 23 C       -8.4050   -11.1070     0.5230 C.ar  1 <1>   0.1000 
 24 C       -9.6570   -11.6550     0.7780 C.ar  1 <1>  -0.1500 
 25 C       -7.3070   -11.9590     0.4780 C.ar  1 <1>  -0.1500 
 26 C       -9.8200   -13.0150     0.9780 C.ar  1 <1>  -0.1430 
 27 C       -7.4590   -13.3190     0.6760 C.ar  1 <1>  -0.1500 
 28 C       -8.7130   -13.8470     0.9250 C.ar  1 <1>  -0.1500 
 29 C      -11.1930   -13.6020     1.2540 C.3   1 <1>  -0.0960 
 30 H       -1.8760     1.9540     1.8260 H     1 <1>   0.1500 
 31 H       -0.8970    -0.8730    -1.3040 H     1 <1>   0.1500 
 32 H       -1.3830    -3.2580     1.6270 H     1 <1>   0.0800 
 33 H       -0.9380     1.5720    -0.6640 H     1 <1>   0.1500 
 34 H       -0.2970    -3.1060    -0.3860 H     1 <1>   0.4000 
 35 H       -3.8190    -2.8860     1.5550 H     1 <1>   0.0800 
 36 H       -3.0940    -5.1820     1.7820 H     1 <1>   0.0800 
 37 H       -2.9260    -5.3670     0.0670 H     1 <1>   0.0800 
 38 H       -3.5580    -3.1520    -1.4500 H     1 <1>   0.0800 
 39 H       -4.0930    -1.7580    -0.5730 H     1 <1>   0.0800 
 40 H       -5.5070    -4.9210     1.5700 H     1 <1>   0.0800 
 41 H       -4.9900    -6.3910     0.7720 H     1 <1>   0.0800 
 42 H       -5.9650    -3.0110    -1.5610 H     1 <1>   0.0800 
 43 H       -6.0870    -2.9130     0.1830 H     1 <1>   0.0800 
 44 H       -4.9190    -5.1860    -1.2950 H     1 <1>   0.4500 
 45 H       -7.3050    -4.9830    -1.7000 H     1 <1>   0.0800 
 46 H       -7.5500    -5.1860     0.0160 H     1 <1>   0.0800 
 47 H       -9.0060    -9.1670     0.8180 H     1 <1>   0.4000 
 48 H       -5.1570   -10.1960    -3.0100 H     1 <1>   0.4000 
 49 H       -4.7040    -8.6200    -3.5630 H     1 <1>   0.4000 
 50 H      -10.5130   -11.0070     0.8170 H     1 <1>   0.1500 
 51 H       -6.3260   -11.5610     0.2940 H     1 <1>   0.1500 
 52 H       -6.6010   -13.9670     0.6370 H     1 <1>   0.1500 
 53 H       -8.8240   -14.9060     1.0790 H     1 <1>   0.1500 
 54 H      -11.9660   -12.9020     0.9950 H     1 <1>   0.0800 
 55 H      -11.2810   -13.8470     2.2970 H     1 <1>   0.0800 
 56 H      -11.3360   -14.4960     0.6730 H     1 <1>   0.0800 
@<TRIPOS>BOND
  1   1   2  1   
  2   1   3  1   
  3   2   4  2   
  4   2   5  1   
  5   3   6  2   
  6   3  30  1   
  7   4   6  1   
  8   4  31  1   
  9   5   7  1   
 10   5   8  1   
 11   5  32  1   
 12   6  33  1   
 13   7  34  1   
 14   8   9  1   
 15   8  10  1   
 16   8  35  1   
 17   9  11  1   
 18   9  36  1   
 19   9  37  1   
 20  10  12  1   
 21  10  38  1   
 22  10  39  1   
 23  11  13  1   
 24  11  40  1   
 25  11  41  1   
 26  12  13  1   
 27  12  42  1   
 28  12  43  1   
 29  13  14  1   
 30  13  44  1   
 31  14  15  1   
 32  14  45  1   
 33  14  46  1   
 34  15  16  ar  
 35  15  17  ar  
 36  16  18  ar  
 37  17  19  ar  
 38  18  20  ar  
 39  18  21  1   
 40  19  20  ar  
 41  19  22  1   
 42  21  23  1   
 43  21  47  1   
 44  22  48  1   
 45  22  49  1   
 46  23  24  ar  
 47  23  25  ar  
 48  24  26  ar  
 49  24  50  1   
 50  25  27  ar  
 51  25  51  1   
 52  26  28  ar  
 53  26  29  1   
 54  27  28  ar  
 55  27  52  1   
 56  28  53  1   
 57  29  54  1   
 58  29  55  1   
 59  29  56  1   
@<TRIPOS>SUBSTRUCTURE
  1 ****  15 GROUP 4 **** **** 0

# MOE 2024.06 (io_trps.svl 2023.06)
