@<TRIPOS>MOLECULE
NONAME
51 54 1 0 0 
SMALL
USER_CHARGES


@<TRIPOS>ATOM
  1 O       -2.0220    -0.8280    -1.9250 O.3   1 <1>  -0.3630 
  2 C       -2.4890     0.1920    -1.1510 C.ar  1 <1>   0.0830 
  3 C       -1.0520    -0.6290    -2.9300 C.3   1 <1>   0.0400 
  4 C       -3.4090    -0.1370    -0.1190 C.ar  1 <1>   0.3100 
  5 C       -2.1000     1.5010    -1.3460 C.ar  1 <1>  -0.1500 
  6 N       -3.7850    -1.4340     0.0780 N.ar  1 <1>  -0.6200 
  7 C       -3.9220     0.9050     0.6860 C.ar  1 <1>   0.0000 
  8 C       -2.6080     2.5200    -0.5380 C.ar  1 <1>  -0.1500 
  9 C       -4.6400    -1.7040     1.0210 C.ar  1 <1>   0.1660 
 10 C       -4.8440     0.5780     1.6950 C.ar  1 <1>  -0.1500 
 11 C       -3.5010     2.2280     0.4560 C.ar  1 <1>  -0.1500 
 12 C       -5.2000    -0.7260     1.8570 C.ar  1 <1>  -0.1500 
 13 C       -5.0420    -3.1680     1.2060 C.3   1 <1>   0.4860 
 14 N       -4.8670    -3.8990    -0.0870 N.4   1 <1>  -0.9590 
 15 C       -5.9870    -3.5940    -1.0210 C.3   1 <1>   0.3430 
 16 C       -4.8330    -5.3760     0.1020 C.3   1 <1>   0.3430 
 17 C       -6.9760    -4.7500    -0.8500 C.3   1 <1>   0.2000 
 18 C       -6.0480    -5.9490    -0.6400 C.3   1 <1>  -0.0800 
 19 O       -7.7280    -4.5180     0.3010 O.3   1 <1>  -0.6800 
 20 C       -6.6630    -7.1650     0.0780 C.3   1 <1>   0.0210 
 21 C       -5.6530    -8.2890     0.2120 C.2   1 <1>   0.1080 
 22 N       -4.5560    -8.1700     0.8950 N.2   1 <1>  -0.7070 
 23 C       -5.7820    -9.5470    -0.3640 C.2   1 <1>  -0.1500 
 24 N       -3.9530    -9.3730     0.7790 N.pl3 1 <1>   0.3000 
 25 C       -4.6760   -10.2190     0.0170 C.2   1 <1>  -0.3320 
 26 C       -4.2610   -11.6440    -0.3010 C.3   1 <1>  -0.0600 
 27 H       -0.8270    -1.5830    -3.3720 H     1 <1>   0.0800 
 28 H       -0.1640    -0.2160    -2.4830 H     1 <1>   0.0800 
 29 H       -1.4520     0.0330    -3.6770 H     1 <1>   0.0800 
 30 H       -1.4050     1.7810    -2.1160 H     1 <1>   0.1500 
 31 H       -2.2890     3.5340    -0.7100 H     1 <1>   0.1500 
 32 H       -5.2480     1.3590     2.3170 H     1 <1>   0.1500 
 33 H       -3.8940     3.0130     1.0780 H     1 <1>   0.1500 
 34 H       -5.9040    -1.0090     2.6200 H     1 <1>   0.1500 
 35 H       -6.0640    -3.2380     1.5400 H     1 <1>   0.0800 
 36 H       -4.4030    -3.6020     1.9550 H     1 <1>   0.0800 
 37 H       -3.9900    -3.5030    -0.4730 H     1 <1>   0.4500 
 38 H       -6.4470    -2.6410    -0.8140 H     1 <1>   0.0800 
 39 H       -5.6150    -3.5920    -2.0320 H     1 <1>   0.0800 
 40 H       -3.9220    -5.8020    -0.2880 H     1 <1>   0.0800 
 41 H       -4.9010    -5.6220     1.1500 H     1 <1>   0.0800 
 42 H       -7.6410    -4.8520    -1.6910 H     1 <1>   0.0800 
 43 H       -5.7000    -6.2760    -1.6050 H     1 <1>   0.0800 
 44 H       -8.5070    -5.1130     0.3400 H     1 <1>   0.4000 
 45 H       -7.5160    -7.5210    -0.4700 H     1 <1>   0.0800 
 46 H       -6.9890    -6.8980     1.0680 H     1 <1>   0.0800 
 47 H       -6.5980    -9.8930    -0.9750 H     1 <1>   0.1500 
 48 H       -3.0570    -9.5890     1.2330 H     1 <1>   0.2700 
 49 H       -5.0020   -12.1160    -0.9220 H     1 <1>   0.0800 
 50 H       -4.1640   -12.2150     0.6060 H     1 <1>   0.0800 
 51 H       -3.3220   -11.6530    -0.8240 H     1 <1>   0.0800 
@<TRIPOS>BOND
  1   1   2  1   
  2   1   3  1   
  3   2   4  ar  
  4   2   5  ar  
  5   3  27  1   
  6   3  28  1   
  7   3  29  1   
  8   4   6  ar  
  9   4   7  ar  
 10   5   8  ar  
 11   5  30  1   
 12   6   9  ar  
 13   7  10  ar  
 14   7  11  ar  
 15   8  11  ar  
 16   8  31  1   
 17   9  12  ar  
 18   9  13  1   
 19  10  12  ar  
 20  10  32  1   
 21  11  33  1   
 22  12  34  1   
 23  13  14  1   
 24  13  35  1   
 25  13  36  1   
 26  14  15  1   
 27  14  16  1   
 28  14  37  1   
 29  15  17  1   
 30  15  38  1   
 31  15  39  1   
 32  16  18  1   
 33  16  40  1   
 34  16  41  1   
 35  17  18  1   
 36  17  19  1   
 37  17  42  1   
 38  18  20  1   
 39  18  43  1   
 40  19  44  1   
 41  20  21  1   
 42  20  45  1   
 43  20  46  1   
 44  21  22  2   
 45  21  23  1   
 46  22  24  1   
 47  23  25  2   
 48  23  47  1   
 49  24  25  1   
 50  24  48  1   
 51  25  26  1   
 52  26  49  1   
 53  26  50  1   
 54  26  51  1   
@<TRIPOS>SUBSTRUCTURE
  1 ****  14 GROUP 4 **** **** 0

# MOE 2024.06 (io_trps.svl 2023.06)
