@<TRIPOS>MOLECULE
NONAME
46 47 1 0 0 
SMALL
USER_CHARGES


@<TRIPOS>ATOM
  1 O       -0.6210    -0.2630     0.0910 O.2   1 <1>  -0.5700 
  2 C       -1.4650     0.5780     0.3380 C.2   1 <1>   0.5440 
  3 N       -2.6620     0.1770     0.8970 N.am  1 <1>  -0.6600 
  4 C       -1.1790     1.9630     0.0220 C.ar  1 <1>   0.0860 
  5 C       -2.9360    -1.2760     1.1660 C.3   1 <1>   0.3210 
  6 C       -3.8480     1.0900     1.0490 C.3   1 <1>   0.1400 
  7 C       -0.9280     2.3530    -1.2930 C.ar  1 <1>  -0.1500 
  8 C       -1.1390     2.9540     1.0050 C.ar  1 <1>  -0.1500 
  9 C       -4.0830    -1.8050     0.3100 C.2   1 <1>   0.0460 
 10 C       -4.3280     1.1680     2.5050 C.3   1 <1>   0.1200 
 11 C       -0.6680     3.6710    -1.6150 C.ar  1 <1>  -0.1500 
 12 C       -0.8790     4.2750     0.6920 C.ar  1 <1>  -0.1500 
 13 N       -5.3540    -1.7980     0.7680 N.2   1 <1>  -0.5650 
 14 C       -4.0230    -2.3260    -0.9380 C.2   1 <1>  -0.3320 
 15 O       -3.2420     1.3990     3.3370 O.3   1 <1>  -0.6800 
 16 C       -0.6430     4.6440    -0.6300 C.ar  1 <1>   0.0830 
 17 C       -6.0340    -2.3140    -0.2030 C.2   1 <1>   0.0360 
 18 N       -5.2840    -2.6570    -1.2700 N.pl3 1 <1>   0.0330 
 19 C       -2.8360    -2.5300    -1.8650 C.3   1 <1>  -0.0600 
 20 O       -0.3850     5.9100    -1.0250 O.3   1 <1>  -0.3630 
 21 C       -0.3000     6.9740    -0.1040 C.3   1 <1>   0.1200 
 22 C        0.0170     8.2530    -0.8780 C.3   1 <1>  -0.1600 
 23 C        0.1250     9.4610     0.0590 C.3   1 <1>  -0.2400 
 24 H       -3.1850    -1.4090     2.2030 H     1 <1>   0.0800 
 25 H       -2.0630    -1.8730     0.9720 H     1 <1>   0.0800 
 26 H       -4.6550     0.7410     0.4300 H     1 <1>   0.0800 
 27 H       -3.6150     2.0830     0.7130 H     1 <1>   0.0800 
 28 H       -0.9380     1.6030    -2.0650 H     1 <1>   0.1500 
 29 H       -1.3150     2.6800     2.0310 H     1 <1>   0.1500 
 30 H       -4.7930     0.2420     2.7970 H     1 <1>   0.0800 
 31 H       -5.0350     1.9690     2.6350 H     1 <1>   0.0800 
 32 H       -0.4780     3.9570    -2.6340 H     1 <1>   0.1500 
 33 H       -0.8630     5.0000     1.4840 H     1 <1>   0.1500 
 34 H       -2.5220     0.7900     3.0690 H     1 <1>   0.4000 
 35 H       -7.0990    -2.4660    -0.1820 H     1 <1>   0.1500 
 36 H       -5.6090    -3.0790    -2.1440 H     1 <1>   0.2700 
 37 H       -1.9320    -2.1690    -1.4070 H     1 <1>   0.0800 
 38 H       -2.9850    -1.9920    -2.7830 H     1 <1>   0.0800 
 39 H       -2.7120    -3.5750    -2.0860 H     1 <1>   0.0800 
 40 H        0.4820     6.7510     0.6010 H     1 <1>   0.0800 
 41 H       -1.2460     7.0610     0.4020 H     1 <1>   0.0800 
 42 H       -0.7620     8.4320    -1.5990 H     1 <1>   0.0800 
 43 H        0.9490     8.1260    -1.4020 H     1 <1>   0.0800 
 44 H       -0.8030     9.6170     0.5830 H     1 <1>   0.0800 
 45 H        0.3470    10.3470    -0.5090 H     1 <1>   0.0800 
 46 H        0.9110     9.3120     0.7790 H     1 <1>   0.0800 
@<TRIPOS>BOND
  1   1   2  2   
  2   2   3  am  
  3   2   4  1   
  4   3   5  1   
  5   3   6  1   
  6   4   7  ar  
  7   4   8  ar  
  8   5   9  1   
  9   5  24  1   
 10   5  25  1   
 11   6  10  1   
 12   6  26  1   
 13   6  27  1   
 14   7  11  ar  
 15   7  28  1   
 16   8  12  ar  
 17   8  29  1   
 18   9  13  1   
 19   9  14  2   
 20  10  15  1   
 21  10  30  1   
 22  10  31  1   
 23  11  16  ar  
 24  11  32  1   
 25  12  16  ar  
 26  12  33  1   
 27  13  17  2   
 28  14  18  1   
 29  14  19  1   
 30  15  34  1   
 31  16  20  1   
 32  17  18  1   
 33  17  35  1   
 34  18  36  1   
 35  19  37  1   
 36  19  38  1   
 37  19  39  1   
 38  20  21  1   
 39  21  22  1   
 40  21  40  1   
 41  21  41  1   
 42  22  23  1   
 43  22  42  1   
 44  22  43  1   
 45  23  44  1   
 46  23  45  1   
 47  23  46  1   
@<TRIPOS>SUBSTRUCTURE
  1 ****   4 GROUP 4 **** **** 0

# MOE 2024.06 (io_trps.svl 2023.06)
