@<TRIPOS>MOLECULE
NONAME
50 52 1 0 0 
SMALL
USER_CHARGES


@<TRIPOS>ATOM
  1 S       -0.6830     0.4270     1.3420 S.3   1 <1>  -0.0800 
  2 C       -1.6850     0.5100    -0.1010 C.2   1 <1>  -0.1400 
  3 C        0.6790     1.1340     0.4910 C.2   1 <1>  -0.1100 
  4 C       -0.9920     1.0450    -1.1230 C.2   1 <1>  -0.1500 
  5 C       -3.1120     0.0070     0.0010 C.3   1 <1>   0.0200 
  6 C        0.3540     1.4000    -0.7870 C.2   1 <1>  -0.1500 
  7 C       -3.1550    -1.5210     0.1330 C.3   1 <1>  -0.1600 
  8 C       -4.6030    -2.0430     0.2200 C.3   1 <1>  -0.0990 
  9 C       -4.7170    -3.5570     0.3680 C.2   1 <1>   0.5690 
 10 O       -3.7620    -4.2470     0.0980 O.2   1 <1>  -0.5700 
 11 N       -5.8970    -4.1230     0.7740 N.am  1 <1>  -0.6600 
 12 C       -5.9870    -5.5870     1.0520 C.3   1 <1>   0.1400 
 13 C       -7.2320    -3.4570     0.7360 C.3   1 <1>   0.1400 
 14 C       -6.7850    -6.2620    -0.0870 C.3   1 <1>   0.4230 
 15 C       -8.0730    -4.1200    -0.3660 C.3   1 <1>  -0.1600 
 16 N       -6.8580    -7.7590     0.0060 N.4   1 <1>  -0.9590 
 17 C       -8.2050    -5.6570    -0.1620 C.3   1 <1>  -0.1060 
 18 C       -7.5230    -8.3580    -1.1780 C.3   1 <1>   0.3430 
 19 C       -5.5780    -8.4390     0.3440 C.3   1 <1>   0.2630 
 20 C       -8.9440    -5.9680     1.1550 C.2   1 <1>   0.9060 
 21 C       -8.9600    -6.2600    -1.3710 C.3   1 <1>  -0.1600 
 22 C       -8.9380    -7.7960    -1.3390 C.3   1 <1>  -0.1600 
 23 O       -8.6920    -7.0300     1.7490 O.co2 1 <1>  -0.9000 
 24 O       -9.7520    -5.1560     1.6020 O.co2 1 <1>  -0.9000 
 25 H        1.5880     1.2770     1.0470 H     1 <1>   0.1500 
 26 H       -1.3700     1.2090    -2.1160 H     1 <1>   0.1500 
 27 H       -3.5850     0.4660     0.8520 H     1 <1>   0.0800 
 28 H       -3.6480     0.3060    -0.8820 H     1 <1>   0.0800 
 29 H        1.0090     1.8350    -1.5210 H     1 <1>   0.1500 
 30 H       -2.6630    -1.9620    -0.7180 H     1 <1>   0.0800 
 31 H       -2.6170    -1.8230     1.0150 H     1 <1>   0.0800 
 32 H       -5.1370    -1.7560    -0.6670 H     1 <1>   0.0800 
 33 H       -5.0780    -1.5870     1.0680 H     1 <1>   0.0800 
 34 H       -4.9970    -6.0010     1.1130 H     1 <1>   0.0800 
 35 H       -6.4710    -5.7370     2.0020 H     1 <1>   0.0800 
 36 H       -7.7160    -3.5690     1.6930 H     1 <1>   0.0800 
 37 H       -7.1440    -2.4050     0.5360 H     1 <1>   0.0800 
 38 H       -6.2720    -6.0160    -1.0010 H     1 <1>   0.0800 
 39 H       -9.0530    -3.6720    -0.3640 H     1 <1>   0.0800 
 40 H       -7.6230    -3.9030    -1.3190 H     1 <1>   0.0800 
 41 H       -7.5340    -7.8720     0.8100 H     1 <1>   0.4500 
 42 H       -6.9470    -8.1410    -2.0630 H     1 <1>   0.0800 
 43 H       -7.5810    -9.4280    -1.0610 H     1 <1>   0.0800 
 44 H       -4.8360    -8.2350    -0.4100 H     1 <1>   0.0800 
 45 H       -5.7310    -9.5030     0.4100 H     1 <1>   0.0800 
 46 H       -5.2140    -8.0910     1.2970 H     1 <1>   0.0800 
 47 H       -9.9820    -5.9160    -1.3600 H     1 <1>   0.0800 
 48 H       -8.5090    -5.9220    -2.2880 H     1 <1>   0.0800 
 49 H       -9.3690    -8.1780    -2.2480 H     1 <1>   0.0800 
 50 H       -9.5490    -8.1510    -0.5260 H     1 <1>   0.0800 
@<TRIPOS>BOND
  1   1   2  1   
  2   1   3  1   
  3   2   4  2   
  4   2   5  1   
  5   3   6  2   
  6   3  25  1   
  7   4   6  1   
  8   4  26  1   
  9   5   7  1   
 10   5  27  1   
 11   5  28  1   
 12   6  29  1   
 13   7   8  1   
 14   7  30  1   
 15   7  31  1   
 16   8   9  1   
 17   8  32  1   
 18   8  33  1   
 19   9  10  2   
 20   9  11  am  
 21  11  12  1   
 22  11  13  1   
 23  12  14  1   
 24  12  34  1   
 25  12  35  1   
 26  13  15  1   
 27  13  36  1   
 28  13  37  1   
 29  14  16  1   
 30  14  17  1   
 31  14  38  1   
 32  15  17  1   
 33  15  39  1   
 34  15  40  1   
 35  16  18  1   
 36  16  19  1   
 37  16  41  1   
 38  17  20  1   
 39  17  21  1   
 40  18  22  1   
 41  18  42  1   
 42  18  43  1   
 43  19  44  1   
 44  19  45  1   
 45  19  46  1   
 46  20  23  ar  
 47  20  24  ar  
 48  21  22  1   
 49  21  47  1   
 50  21  48  1   
 51  22  49  1   
 52  22  50  1   
@<TRIPOS>SUBSTRUCTURE
  1 ****   9 GROUP 4 **** **** 0

# MOE 2024.06 (io_trps.svl 2023.06)
