@<TRIPOS>MOLECULE
NONAME
41 43 1 0 0 
SMALL
USER_CHARGES


@<TRIPOS>ATOM
  1 O       -0.3740     0.1800    -0.2260 O.2   1 <1>  -0.5700 
  2 C       -1.3780     0.8020     0.0660 C.2   1 <1>   0.5440 
  3 N       -2.5430     0.1050     0.2890 N.am  1 <1>  -0.6600 
  4 C       -1.3260     2.2510     0.1450 C.ar  1 <1>   0.0860 
  5 C       -3.9070     0.6790     0.1560 C.3   1 <1>   0.1400 
  6 C       -2.5970    -1.3780     0.2310 C.3   1 <1>   0.1400 
  7 C       -0.6800     2.9880    -0.8460 C.ar  1 <1>  -0.1500 
  8 C       -1.9060     2.9550     1.2020 C.ar  1 <1>  -0.1500 
  9 C       -4.7800    -0.4950    -0.2830 C.3   1 <1>   0.2000 
 10 C       -4.0840    -1.7350     0.2700 C.3   1 <1>  -0.0800 
 11 C       -0.6390     4.3700    -0.7890 C.ar  1 <1>   0.0830 
 12 C       -1.8670     4.3380     1.2600 C.ar  1 <1>  -0.1500 
 13 O       -6.0650    -0.3950     0.2250 O.3   1 <1>  -0.6800 
 14 C       -4.4280    -3.0190    -0.4990 C.3   1 <1>   0.0210 
 15 O       -0.0170     5.0660    -1.7510 O.3   1 <1>  -0.5320 
 16 C       -1.2330     5.0500     0.2580 C.ar  1 <1>  -0.1500 
 17 C       -3.6430    -4.1980     0.0390 C.2   1 <1>   0.1080 
 18 N       -3.7880    -4.6460     1.2480 N.2   1 <1>  -0.7070 
 19 C       -2.6890    -4.9140    -0.6760 C.2   1 <1>  -0.1500 
 20 N       -2.9220    -5.6730     1.3360 N.pl3 1 <1>   0.3000 
 21 C       -2.2430    -5.8530     0.1830 C.2   1 <1>  -0.3320 
 22 C       -1.1930    -6.9280    -0.0280 C.3   1 <1>  -0.0600 
 23 H       -4.2280     1.0510     1.1130 H     1 <1>   0.0800 
 24 H       -3.9250     1.4650    -0.5780 H     1 <1>   0.0800 
 25 H       -2.1440    -1.7110    -0.6880 H     1 <1>   0.0800 
 26 H       -2.0670    -1.8120     1.0620 H     1 <1>   0.0800 
 27 H       -0.2120     2.4610    -1.6570 H     1 <1>   0.1500 
 28 H       -2.3880     2.4060     1.9920 H     1 <1>   0.1500 
 29 H       -4.8390    -0.5200    -1.3580 H     1 <1>   0.0800 
 30 H       -4.3470    -1.8660     1.3060 H     1 <1>   0.0800 
 31 H       -2.3230     4.8610     2.0820 H     1 <1>   0.1500 
 32 H       -6.0620    -0.5680     1.1870 H     1 <1>   0.4000 
 33 H       -4.2140    -2.8940    -1.5450 H     1 <1>   0.0800 
 34 H       -5.4780    -3.2290    -0.3960 H     1 <1>   0.0800 
 35 H        0.4040     4.5010    -2.4240 H     1 <1>   0.4500 
 36 H       -1.1920     6.1250     0.2840 H     1 <1>   0.1500 
 37 H       -2.3890    -4.7340    -1.6930 H     1 <1>   0.1500 
 38 H       -2.8180    -6.2280     2.1930 H     1 <1>   0.2700 
 39 H       -0.7970    -6.8660    -1.0270 H     1 <1>   0.0800 
 40 H       -1.6250    -7.9030     0.1090 H     1 <1>   0.0800 
 41 H       -0.3830    -6.8000     0.6680 H     1 <1>   0.0800 
@<TRIPOS>BOND
  1   1   2  2   
  2   2   3  am  
  3   2   4  1   
  4   3   5  1   
  5   3   6  1   
  6   4   7  ar  
  7   4   8  ar  
  8   5   9  1   
  9   5  23  1   
 10   5  24  1   
 11   6  10  1   
 12   6  25  1   
 13   6  26  1   
 14   7  11  ar  
 15   7  27  1   
 16   8  12  ar  
 17   8  28  1   
 18   9  10  1   
 19   9  13  1   
 20   9  29  1   
 21  10  14  1   
 22  10  30  1   
 23  11  15  1   
 24  11  16  ar  
 25  12  16  ar  
 26  12  31  1   
 27  13  32  1   
 28  14  17  1   
 29  14  33  1   
 30  14  34  1   
 31  15  35  1   
 32  16  36  1   
 33  17  18  2   
 34  17  19  1   
 35  18  20  1   
 36  19  21  2   
 37  19  37  1   
 38  20  21  1   
 39  20  38  1   
 40  21  22  1   
 41  22  39  1   
 42  22  40  1   
 43  22  41  1   
@<TRIPOS>SUBSTRUCTURE
  1 ****   3 GROUP 4 **** **** 0

# MOE 2024.06 (io_trps.svl 2023.06)
