@<TRIPOS>MOLECULE
NONAME
61 64 1 0 0 
SMALL
USER_CHARGES


@<TRIPOS>ATOM
  1 O        0.4280    -0.0290    -0.8810 O.3   1 <1>  -0.5600 
  2 C        1.6970    -0.6270    -0.9960 C.3   1 <1>   0.2000 
  3 C        0.3960     1.3560    -1.0530 C.3   1 <1>   0.1200 
  4 C        2.7120     0.0160    -0.0120 C.3   1 <1>   0.5660 
  5 C        1.5560    -2.1320    -0.7140 C.3   1 <1>   0.1200 
  6 C        1.2710     2.0390     0.0130 C.3   1 <1>   0.3430 
  7 N        2.6750     1.5140    -0.0110 N.4   1 <1>  -0.9590 
  8 C        4.1400    -0.4050    -0.3320 C.ar  1 <1>  -0.1440 
  9 O        1.3960    -2.3520     0.6530 O.3   1 <1>  -0.6800 
 10 C        3.5010     2.0750     1.0890 C.3   1 <1>   0.4870 
 11 C        4.8450    -1.1470     0.6050 C.ar  1 <1>  -0.1500 
 12 C        4.7580    -0.0600    -1.5290 C.ar  1 <1>  -0.1500 
 13 C        3.7370     3.5400     0.7860 C.ar  1 <1>  -0.1440 
 14 C        6.1530    -1.5310     0.3670 C.ar  1 <1>   0.0820 
 15 C        6.0700    -0.4310    -1.7690 C.ar  1 <1>  -0.1500 
 16 C        3.0290     4.5290     1.4540 C.ar  1 <1>  -0.1500 
 17 C        4.6720     3.9020    -0.1720 C.ar  1 <1>  -0.1500 
 18 O        6.7590    -2.2720     1.3250 O.3   1 <1>  -0.3620 
 19 C        6.7810    -1.1480    -0.8230 C.ar  1 <1>   0.0820 
 20 C        3.2460     5.8630     1.1580 C.ar  1 <1>  -0.1500 
 21 C        4.8850     5.2370    -0.4670 C.ar  1 <1>  -0.1500 
 22 C        7.1490    -3.5810     0.9680 C.3   1 <1>   0.0400 
 23 O        8.0710    -1.4440    -1.1090 O.3   1 <1>  -0.3630 
 24 C        4.1750     6.2260     0.1950 C.ar  1 <1>  -0.1440 
 25 C        9.0580    -0.8530    -0.2900 C.3   1 <1>   0.0400 
 26 C        4.4240     7.6960    -0.1380 C.3   1 <1>   0.2390 
 27 N        5.8500     8.0510     0.0270 N.pl3 1 <1>   0.3140 
 28 N        6.6610     8.2590    -1.0300 N.2   1 <1>  -0.7070 
 29 C        6.5140     8.2210     1.1890 C.2   1 <1>  -0.3020 
 30 C        7.8140     8.5550    -0.5130 C.2   1 <1>   0.1390 
 31 C        7.7850     8.5480     0.8760 C.2   1 <1>  -0.1500 
 32 H        2.0220    -0.4970    -2.0130 H     1 <1>   0.0800 
 33 H        0.7290     1.5950    -2.0480 H     1 <1>   0.0800 
 34 H       -0.6270     1.6730    -0.9480 H     1 <1>   0.0800 
 35 H        2.4640    -0.3350     0.9760 H     1 <1>   0.0800 
 36 H        2.4380    -2.6620    -1.0310 H     1 <1>   0.0800 
 37 H        0.7000    -2.5280    -1.2340 H     1 <1>   0.0800 
 38 H        0.8290     1.8590     0.9790 H     1 <1>   0.0800 
 39 H        1.2750     3.1040    -0.1570 H     1 <1>   0.0800 
 40 H        3.1220     1.8240    -0.8780 H     1 <1>   0.4500 
 41 H        1.0710    -3.2630     0.8200 H     1 <1>   0.4000 
 42 H        3.0000     1.9600     2.0370 H     1 <1>   0.0800 
 43 H        4.4530     1.5720     1.1420 H     1 <1>   0.0800 
 44 H        4.3910    -1.4490     1.5340 H     1 <1>   0.1500 
 45 H        4.2410     0.4970    -2.2920 H     1 <1>   0.1500 
 46 H        6.5570    -0.1650    -2.6910 H     1 <1>   0.1500 
 47 H        2.3080     4.2760     2.2140 H     1 <1>   0.1500 
 48 H        5.2520     3.1600    -0.6940 H     1 <1>   0.1500 
 49 H        2.6900     6.6190     1.6870 H     1 <1>   0.1500 
 50 H        5.6180     5.5090    -1.2120 H     1 <1>   0.1500 
 51 H        7.4970    -4.0820     1.8540 H     1 <1>   0.0800 
 52 H        7.9400    -3.5360     0.2410 H     1 <1>   0.0800 
 53 H        6.2990    -4.1000     0.5620 H     1 <1>   0.0800 
 54 H       10.0230    -1.1110    -0.6870 H     1 <1>   0.0800 
 55 H        8.9640    -1.2290     0.7130 H     1 <1>   0.0800 
 56 H        8.9280     0.2150    -0.3040 H     1 <1>   0.0800 
 57 H        3.8430     8.3350     0.4980 H     1 <1>   0.0800 
 58 H        4.1470     7.8880    -1.1590 H     1 <1>   0.0800 
 59 H        6.0540     8.1010     2.1530 H     1 <1>   0.1500 
 60 H        8.6880     8.7800    -1.1020 H     1 <1>   0.1500 
 61 H        8.6120     8.7600     1.5300 H     1 <1>   0.1500 
@<TRIPOS>BOND
  1   1   2  1   
  2   1   3  1   
  3   2   4  1   
  4   2   5  1   
  5   2  32  1   
  6   3   6  1   
  7   3  33  1   
  8   3  34  1   
  9   4   7  1   
 10   4   8  1   
 11   4  35  1   
 12   5   9  1   
 13   5  36  1   
 14   5  37  1   
 15   6   7  1   
 16   6  38  1   
 17   6  39  1   
 18   7  10  1   
 19   7  40  1   
 20   8  11  ar  
 21   8  12  ar  
 22   9  41  1   
 23  10  13  1   
 24  10  42  1   
 25  10  43  1   
 26  11  14  ar  
 27  11  44  1   
 28  12  15  ar  
 29  12  45  1   
 30  13  16  ar  
 31  13  17  ar  
 32  14  18  1   
 33  14  19  ar  
 34  15  19  ar  
 35  15  46  1   
 36  16  20  ar  
 37  16  47  1   
 38  17  21  ar  
 39  17  48  1   
 40  18  22  1   
 41  19  23  1   
 42  20  24  ar  
 43  20  49  1   
 44  21  24  ar  
 45  21  50  1   
 46  22  51  1   
 47  22  52  1   
 48  22  53  1   
 49  23  25  1   
 50  24  26  1   
 51  25  54  1   
 52  25  55  1   
 53  25  56  1   
 54  26  27  1   
 55  26  57  1   
 56  26  58  1   
 57  27  28  1   
 58  27  29  1   
 59  28  30  2   
 60  29  31  2   
 61  29  59  1   
 62  30  31  1   
 63  30  60  1   
 64  31  61  1   
@<TRIPOS>SUBSTRUCTURE
  1 ****  10 GROUP 4 **** **** 0

# MOE 2024.06 (io_trps.svl 2023.06)
