@<TRIPOS>MOLECULE
NONAME
52 55 1 0 0 
SMALL
USER_CHARGES


@<TRIPOS>ATOM
  1 O        1.2450    -0.5080     2.6300 O.3   1 <1>  -0.0190 
  2 N        1.6540     0.7260     2.5620 N.2   1 <1>  -0.4100 
  3 C        1.2920    -1.1020     1.4680 C.2   1 <1>  -0.0400 
  4 C        1.9760     0.9310     1.3320 C.2   1 <1>   0.1080 
  5 C        1.7640    -0.2190     0.5750 C.2   1 <1>  -0.1500 
  6 C        0.8470    -2.5480     1.3540 C.3   1 <1>   0.2900 
  7 C        2.5100     2.2540     0.7990 C.3   1 <1>   0.1010 
  8 N        0.6460    -2.9530    -0.0530 N.3   1 <1>  -0.8100 
  9 C        1.5540     2.8520    -0.2470 C.3   1 <1>  -0.1600 
 10 C        3.9230     2.0820     0.2150 C.3   1 <1>  -0.1600 
 11 C       -0.5190    -2.3040    -0.6800 C.3   1 <1>   0.1100 
 12 C        0.3680    -4.3900    -0.1610 C.3   1 <1>   0.1100 
 13 C        2.0930     4.1730    -0.8140 C.3   1 <1>  -0.1600 
 14 C        4.4630     3.4030    -0.3530 C.3   1 <1>  -0.1600 
 15 C       -1.7250    -3.2260    -0.4660 C.3   1 <1>   0.2000 
 16 C       -1.1420    -4.5480     0.0380 C.3   1 <1>  -0.0800 
 17 C        3.5030     3.9930    -1.3940 C.3   1 <1>  -0.1600 
 18 O       -2.5710    -2.7030     0.4980 O.3   1 <1>  -0.6800 
 19 C       -1.7350    -5.7680    -0.6850 C.3   1 <1>  -0.0170 
 20 C       -1.1810    -7.0720    -0.1350 C.ar  1 <1>   0.1670 
 21 N       -0.0280    -7.4840    -0.6390 N.ar  1 <1>  -0.6200 
 22 C       -1.8870    -7.7550     0.8450 C.ar  1 <1>  -0.1500 
 23 C        0.4390    -8.6220    -0.1500 C.ar  1 <1>   0.1600 
 24 C       -1.3880    -8.9380     1.3470 C.ar  1 <1>  -0.1500 
 25 C       -0.1890    -9.3750     0.8270 C.ar  1 <1>  -0.1500 
 26 H        1.9440    -0.3510    -0.4750 H     1 <1>   0.1500 
 27 H       -0.0610    -2.6850     1.9140 H     1 <1>   0.0800 
 28 H        1.6090    -3.1660     1.7980 H     1 <1>   0.0800 
 29 H        2.5720     2.9390     1.6270 H     1 <1>   0.0800 
 30 H        1.4190     2.1520    -1.0520 H     1 <1>   0.0800 
 31 H        0.5930     3.0210     0.2080 H     1 <1>   0.0800 
 32 H        4.5840     1.7230     0.9840 H     1 <1>   0.0800 
 33 H        3.9010     1.3460    -0.5700 H     1 <1>   0.0800 
 34 H       -0.6940    -1.3100    -0.3040 H     1 <1>   0.0800 
 35 H       -0.3270    -2.2360    -1.7370 H     1 <1>   0.0800 
 36 H        0.6400    -4.7160    -1.1520 H     1 <1>   0.0800 
 37 H        0.9340    -4.9710     0.5480 H     1 <1>   0.0800 
 38 H        1.4310     4.5330    -1.5820 H     1 <1>   0.0800 
 39 H        2.1220     4.9130    -0.0310 H     1 <1>   0.0800 
 40 H        4.5950     4.1080     0.4500 H     1 <1>   0.0800 
 41 H        5.4260     3.2340    -0.8040 H     1 <1>   0.0800 
 42 H       -2.2860    -3.3370    -1.3780 H     1 <1>   0.0800 
 43 H       -1.3240    -4.6540     1.0930 H     1 <1>   0.0800 
 44 H        3.8770     4.9440    -1.7310 H     1 <1>   0.0800 
 45 H        3.4560     3.3370    -2.2470 H     1 <1>   0.0800 
 46 H       -2.0540    -2.4280     1.2790 H     1 <1>   0.4000 
 47 H       -1.5230    -5.7130    -1.7380 H     1 <1>   0.0800 
 48 H       -2.8040    -5.7590    -0.5690 H     1 <1>   0.0800 
 49 H       -2.8180    -7.3670     1.2150 H     1 <1>   0.1500 
 50 H        1.3740    -8.9740    -0.5500 H     1 <1>   0.1500 
 51 H       -1.9090    -9.4940     2.1070 H     1 <1>   0.1500 
 52 H        0.2560   -10.2910     1.1720 H     1 <1>   0.1500 
@<TRIPOS>BOND
  1   1   2  1   
  2   1   3  1   
  3   2   4  2   
  4   3   5  2   
  5   3   6  1   
  6   4   5  1   
  7   4   7  1   
  8   5  26  1   
  9   6   8  1   
 10   6  27  1   
 11   6  28  1   
 12   7   9  1   
 13   7  10  1   
 14   7  29  1   
 15   8  11  1   
 16   8  12  1   
 17   9  13  1   
 18   9  30  1   
 19   9  31  1   
 20  10  14  1   
 21  10  32  1   
 22  10  33  1   
 23  11  15  1   
 24  11  34  1   
 25  11  35  1   
 26  12  16  1   
 27  12  36  1   
 28  12  37  1   
 29  13  17  1   
 30  13  38  1   
 31  13  39  1   
 32  14  17  1   
 33  14  40  1   
 34  14  41  1   
 35  15  16  1   
 36  15  18  1   
 37  15  42  1   
 38  16  19  1   
 39  16  43  1   
 40  17  44  1   
 41  17  45  1   
 42  18  46  1   
 43  19  20  1   
 44  19  47  1   
 45  19  48  1   
 46  20  21  ar  
 47  20  22  ar  
 48  21  23  ar  
 49  22  24  ar  
 50  22  49  1   
 51  23  25  ar  
 52  23  50  1   
 53  24  25  ar  
 54  24  51  1   
 55  25  52  1   
@<TRIPOS>SUBSTRUCTURE
  1 ****   8 GROUP 4 **** **** 0

# MOE 2024.06 (io_trps.svl 2023.06)
