@<TRIPOS>MOLECULE
NONAME
60 62 1 0 0 
SMALL
USER_CHARGES


@<TRIPOS>ATOM
  1 O        1.2540    -1.1790    -2.1020 O.2   1 <1>  -0.5700 
  2 C        1.8270    -0.2720    -1.5220 C.2   1 <1>   0.5440 
  3 N        1.6550     0.9670    -2.0750 N.am  1 <1>  -0.5470 
  4 C        2.6920    -0.5080    -0.3900 C.ar  1 <1>   0.0860 
  5 C        2.3300     2.1810    -1.8380 C.ar  1 <1>   0.1170 
  6 C        2.2440    -1.0920     0.8180 C.ar  1 <1>   0.4100 
  7 C        4.0330    -0.1530    -0.4740 C.ar  1 <1>  -0.1500 
  8 C        2.4160     2.7970    -0.5810 C.ar  1 <1>   0.0830 
  9 C        2.9450     2.7940    -2.9210 C.ar  1 <1>  -0.1500 
 10 N        3.0360    -1.2790     1.8750 N.ar  1 <1>  -0.6200 
 11 N        0.9380    -1.5250     1.0080 N.pl3 1 <1>  -0.8380 
 12 C        4.8430    -0.3660     0.6150 C.ar  1 <1>  -0.1500 
 13 O        1.7970     2.2090     0.4790 O.3   1 <1>  -0.3620 
 14 C        3.1090     3.9920    -0.4310 C.ar  1 <1>  -0.1500 
 15 C        3.6380     3.9800    -2.7680 C.ar  1 <1>  -0.1500 
 16 C        4.2970    -0.9240     1.7540 C.ar  1 <1>   0.1600 
 17 C        0.6670    -2.8220     1.6930 C.3   1 <1>   0.2090 
 18 C       -0.1620    -0.5300     1.1390 C.3   1 <1>   0.2090 
 19 C        2.3740     2.2910     1.7660 C.3   1 <1>   0.0400 
 20 C        3.7260     4.5860    -1.5270 C.ar  1 <1>   0.0830 
 21 C        0.1450    -3.8380     0.6740 C.3   1 <1>  -0.1600 
 22 C       -1.2870    -0.7890     0.1240 C.3   1 <1>  -0.1600 
 23 O        4.4240     5.7510    -1.4680 O.3   1 <1>  -0.3630 
 24 C       -0.6000    -3.1620    -0.4780 C.3   1 <1>   0.4230 
 25 C       -1.7570    -2.2530    -0.0140 C.3   1 <1>  -0.1600 
 26 C        4.5020     6.4960    -0.2720 C.3   1 <1>   0.0400 
 27 N       -1.0070    -4.1760    -1.4910 N.4   1 <1>  -0.9590 
 28 C       -1.1750    -3.5020    -2.8150 C.3   1 <1>   0.2630 
 29 C       -2.2000    -4.9950    -1.1120 C.3   1 <1>   0.2630 
 30 H        1.0820     0.9390    -2.9170 H     1 <1>   0.3700 
 31 H        4.4270     0.2840    -1.3750 H     1 <1>   0.1500 
 32 H        2.8890     2.3390    -3.8940 H     1 <1>   0.1500 
 33 H        5.8860    -0.1030     0.5870 H     1 <1>   0.1500 
 34 H        3.1550     4.4600     0.5300 H     1 <1>   0.1500 
 35 H        4.1150     4.4470    -3.6120 H     1 <1>   0.1500 
 36 H        4.9350    -1.0860     2.6080 H     1 <1>   0.1500 
 37 H       -0.0610    -2.6730     2.4720 H     1 <1>   0.0800 
 38 H        1.5560    -3.2120     2.1590 H     1 <1>   0.0800 
 39 H        0.2190     0.4620     0.9890 H     1 <1>   0.0800 
 40 H       -0.5580    -0.5680     2.1400 H     1 <1>   0.0800 
 41 H        1.9230     1.5370     2.3860 H     1 <1>   0.0800 
 42 H        2.1800     3.2650     2.1770 H     1 <1>   0.0800 
 43 H        3.4320     2.1070     1.6900 H     1 <1>   0.0800 
 44 H       -0.4790    -4.5480     1.1840 H     1 <1>   0.0800 
 45 H        0.9980    -4.3560     0.2760 H     1 <1>   0.0800 
 46 H       -0.9580    -0.4340    -0.8360 H     1 <1>   0.0800 
 47 H       -2.1270    -0.1770     0.4020 H     1 <1>   0.0800 
 48 H        0.1180    -2.5240    -0.9540 H     1 <1>   0.0800 
 49 H       -2.5560    -2.2600    -0.7310 H     1 <1>   0.0800 
 50 H       -2.1510    -2.5970     0.9260 H     1 <1>   0.0800 
 51 H        5.0710     7.3860    -0.4710 H     1 <1>   0.0800 
 52 H        4.9990     5.9040     0.4760 H     1 <1>   0.0800 
 53 H        3.5070     6.7600     0.0400 H     1 <1>   0.0800 
 54 H       -0.1940    -4.8010    -1.5810 H     1 <1>   0.4500 
 55 H       -2.0100    -2.8220    -2.7890 H     1 <1>   0.0800 
 56 H       -1.3450    -4.2310    -3.5900 H     1 <1>   0.0800 
 57 H       -0.2860    -2.9390    -3.0590 H     1 <1>   0.0800 
 58 H       -3.0730    -4.3700    -1.0270 H     1 <1>   0.0800 
 59 H       -2.0320    -5.4840    -0.1670 H     1 <1>   0.0800 
 60 H       -2.3870    -5.7480    -1.8600 H     1 <1>   0.0800 
@<TRIPOS>BOND
  1   1   2  2   
  2   2   3  am  
  3   2   4  1   
  4   3   5  1   
  5   3  30  1   
  6   4   6  ar  
  7   4   7  ar  
  8   5   8  ar  
  9   5   9  ar  
 10   6  10  ar  
 11   6  11  1   
 12   7  12  ar  
 13   7  31  1   
 14   8  13  1   
 15   8  14  ar  
 16   9  15  ar  
 17   9  32  1   
 18  10  16  ar  
 19  11  17  1   
 20  11  18  1   
 21  12  16  ar  
 22  12  33  1   
 23  13  19  1   
 24  14  20  ar  
 25  14  34  1   
 26  15  20  ar  
 27  15  35  1   
 28  16  36  1   
 29  17  21  1   
 30  17  37  1   
 31  17  38  1   
 32  18  22  1   
 33  18  39  1   
 34  18  40  1   
 35  19  41  1   
 36  19  42  1   
 37  19  43  1   
 38  20  23  1   
 39  21  24  1   
 40  21  44  1   
 41  21  45  1   
 42  22  25  1   
 43  22  46  1   
 44  22  47  1   
 45  23  26  1   
 46  24  25  1   
 47  24  27  1   
 48  24  48  1   
 49  25  49  1   
 50  25  50  1   
 51  26  51  1   
 52  26  52  1   
 53  26  53  1   
 54  27  28  1   
 55  27  29  1   
 56  27  54  1   
 57  28  55  1   
 58  28  56  1   
 59  28  57  1   
 60  29  58  1   
 61  29  59  1   
 62  29  60  1   
@<TRIPOS>SUBSTRUCTURE
  1 ****   4 GROUP 4 **** **** 0

# MOE 2024.06 (io_trps.svl 2023.06)
