@<TRIPOS>MOLECULE
NONAME
42 43 1 0 0 
SMALL
USER_CHARGES


@<TRIPOS>ATOM
  1 CL       1.2250     4.6280     1.9790 Cl    1 <1>  -0.1770 
  2 C        0.5510     3.6250     0.7140 C.ar  1 <1>   0.1770 
  3 C        1.2800     2.5730     0.1720 C.ar  1 <1>  -0.1440 
  4 C       -0.7280     3.9200     0.2780 C.ar  1 <1>  -0.1500 
  5 C        0.6860     1.8120    -0.8300 C.ar  1 <1>  -0.1500 
  6 C        2.6970     2.2650     0.6480 C.3   1 <1>   0.3640 
  7 C       -1.3040     3.1540    -0.7190 C.ar  1 <1>  -0.1500 
  8 C       -0.5950     2.1010    -1.2710 C.ar  1 <1>  -0.1500 
  9 N        2.8140     0.8060     0.8900 N.am  1 <1>  -0.7300 
 10 C        3.7640     2.7520    -0.3640 C.3   1 <1>   0.2610 
 11 C        3.8920     0.0730     0.5340 C.2   1 <1>   0.5690 
 12 O        5.0280     2.1650    -0.0770 O.3   1 <1>  -0.5600 
 13 C        3.8520     4.2780    -0.3320 C.2   1 <1>   0.5690 
 14 O        3.9370    -1.1080     0.7680 O.2   1 <1>  -0.5700 
 15 C        5.0520     0.7570    -0.2000 C.3   1 <1>   0.1810 
 16 O        3.0760     4.9280    -0.9890 O.2   1 <1>  -0.5700 
 17 N        4.8080     4.8750     0.4310 N.am  1 <1>  -0.7300 
 18 C        4.9510     6.3350     0.6420 C.3   1 <1>   0.1400 
 19 C        5.4860     6.9940    -0.6250 C.3   1 <1>  -0.0550 
 20 S        5.8550     8.7190    -0.3560 S.o2  1 <1>   1.3330 
 21 O        6.3970     9.3070    -1.5570 O.2   1 <1>  -0.6500 
 22 O        4.7650     9.3600     0.3360 O.2   1 <1>  -0.6500 
 23 N        7.0940     8.6830     0.7760 N.am  1 <1>  -0.9140 
 24 C        8.4470     8.6690     0.2210 C.3   1 <1>   0.1160 
 25 H       -1.2630     4.7430     0.7160 H     1 <1>   0.1500 
 26 H        1.2160     0.9880    -1.2770 H     1 <1>   0.1500 
 27 H        2.8850     2.7560     1.5860 H     1 <1>   0.0800 
 28 H       -2.2980     3.3770    -1.0660 H     1 <1>   0.1500 
 29 H       -1.0420     1.5040    -2.0470 H     1 <1>   0.1500 
 30 H        2.0470     0.3470     1.3840 H     1 <1>   0.3700 
 31 H        3.4810     2.4580    -1.3590 H     1 <1>   0.0800 
 32 H        5.0110     0.5070    -1.2440 H     1 <1>   0.0800 
 33 H        5.9840     0.4070     0.2050 H     1 <1>   0.0800 
 34 H        5.5050     4.2670     0.8760 H     1 <1>   0.3700 
 35 H        3.9900     6.7570     0.8910 H     1 <1>   0.0800 
 36 H        5.6220     6.5090     1.4670 H     1 <1>   0.0800 
 37 H        4.7470     6.9100    -1.3980 H     1 <1>   0.0800 
 38 H        6.3750     6.4870    -0.9450 H     1 <1>   0.0800 
 39 H        6.9650     9.5560     1.2910 H     1 <1>   0.4200 
 40 H        8.5830     7.8040    -0.4070 H     1 <1>   0.0800 
 41 H        9.1680     8.6320     1.0200 H     1 <1>   0.0800 
 42 H        8.6230     9.5570    -0.3650 H     1 <1>   0.0800 
@<TRIPOS>BOND
  1   1   2  1   
  2   2   3  ar  
  3   2   4  ar  
  4   3   5  ar  
  5   3   6  1   
  6   4   7  ar  
  7   4  25  1   
  8   5   8  ar  
  9   5  26  1   
 10   6   9  1   
 11   6  10  1   
 12   6  27  1   
 13   7   8  ar  
 14   7  28  1   
 15   8  29  1   
 16   9  11  am  
 17   9  30  1   
 18  10  12  1   
 19  10  13  1   
 20  10  31  1   
 21  11  14  2   
 22  11  15  1   
 23  12  15  1   
 24  13  16  2   
 25  13  17  am  
 26  15  32  1   
 27  15  33  1   
 28  17  18  1   
 29  17  34  1   
 30  18  19  1   
 31  18  35  1   
 32  18  36  1   
 33  19  20  1   
 34  19  37  1   
 35  19  38  1   
 36  20  21  2   
 37  20  22  2   
 38  20  23  am  
 39  23  24  1   
 40  23  39  1   
 41  24  40  1   
 42  24  41  1   
 43  24  42  1   
@<TRIPOS>SUBSTRUCTURE
  1 ****  13 GROUP 4 **** **** 0

# MOE 2024.06 (io_trps.svl 2023.06)
