@<TRIPOS>MOLECULE
NONAME
51 53 1 0 0 
SMALL
USER_CHARGES


@<TRIPOS>ATOM
  1 F       -1.2900    -0.8960     0.2780 F     1 <1>  -0.1900 
  2 C       -1.5230    -2.1840     0.2700 C.ar  1 <1>   0.1900 
  3 C       -0.6940    -3.0850    -0.4070 C.ar  1 <1>   0.0830 
  4 C       -2.6330    -2.6120     0.9710 C.ar  1 <1>  -0.1500 
  5 O        0.4220    -2.7870    -1.1320 O.3   1 <1>  -0.3630 
  6 C       -1.0240    -4.4290    -0.3490 C.ar  1 <1>  -0.1500 
  7 C       -2.9320    -3.9610     1.0070 C.ar  1 <1>  -0.1500 
  8 C        0.8670    -1.4670    -1.3540 C.3   1 <1>   0.0400 
  9 C       -2.1380    -4.9040     0.3490 C.ar  1 <1>   0.0530 
 10 C       -2.4430    -6.3180     0.3830 C.2   1 <1>   0.0870 
 11 O       -1.5630    -7.1940    -0.0530 O.3   1 <1>  -0.0190 
 12 C       -3.5290    -7.0340     0.7740 C.2   1 <1>  -0.2330 
 13 N       -1.9860    -8.4310     0.0200 N.2   1 <1>  -0.4100 
 14 C       -3.1550    -8.3520     0.5380 C.2   1 <1>   0.3720 
 15 C       -4.8510    -6.7010     1.1850 C.2   1 <1>   1.0330 
 16 N       -3.9760    -9.4380     0.8070 N.pl3 1 <1>  -0.8520 
 17 O       -5.5110    -5.8410     0.5920 O.co2 1 <1>  -0.9000 
 18 O       -5.4920    -7.4690     1.9290 O.co2 1 <1>  -0.9000 
 19 C       -4.5760   -10.1380    -0.3710 C.3   1 <1>   0.2090 
 20 C       -5.7570    -9.4040    -1.1010 C.3   1 <1>   0.5030 
 21 N       -6.7180    -8.7860    -0.1330 N.4   1 <1>  -0.9590 
 22 C       -5.2130    -8.3170    -2.0410 C.3   1 <1>  -0.2400 
 23 C       -6.5140   -10.4200    -1.9680 C.3   1 <1>  -0.2400 
 24 C       -7.4050    -9.6680     0.8450 C.3   1 <1>   0.3430 
 25 C       -7.6840    -7.7800    -0.6340 C.3   1 <1>   0.3430 
 26 C       -8.7410    -8.9970     1.1470 C.3   1 <1>  -0.1600 
 27 C       -8.6590    -7.6120     0.5140 C.3   1 <1>  -0.1600 
 28 H       -3.2570    -1.9000     1.4810 H     1 <1>   0.1500 
 29 H       -0.3890    -5.1240    -0.8680 H     1 <1>   0.1500 
 30 H       -3.8000    -4.2800     1.5560 H     1 <1>   0.1500 
 31 H        1.7380    -1.5080    -1.9810 H     1 <1>   0.0800 
 32 H        1.1200    -1.0190    -0.4090 H     1 <1>   0.0800 
 33 H        0.0880    -0.9130    -1.8480 H     1 <1>   0.0800 
 34 H       -4.6940    -9.1010     1.4770 H     1 <1>   0.4000 
 35 H       -4.9260   -11.0950    -0.0280 H     1 <1>   0.0800 
 36 H       -3.7940   -10.3400    -1.0830 H     1 <1>   0.0800 
 37 H       -6.1410    -8.1890     0.5030 H     1 <1>   0.4500 
 38 H       -4.8200    -7.4810    -1.4960 H     1 <1>   0.0800 
 39 H       -5.9720    -7.9550    -2.7100 H     1 <1>   0.0800 
 40 H       -4.4160    -8.7130    -2.6440 H     1 <1>   0.0800 
 41 H       -6.8690   -11.2510    -1.3870 H     1 <1>   0.0800 
 42 H       -5.8560   -10.8140    -2.7240 H     1 <1>   0.0800 
 43 H       -7.3470    -9.9590    -2.4670 H     1 <1>   0.0800 
 44 H       -6.8120    -9.7370     1.7430 H     1 <1>   0.0800 
 45 H       -7.5680   -10.6530     0.4440 H     1 <1>   0.0800 
 46 H       -8.1960    -8.1550    -1.5040 H     1 <1>   0.0800 
 47 H       -7.1910    -6.8470    -0.8640 H     1 <1>   0.0800 
 48 H       -8.9130    -8.9390     2.2080 H     1 <1>   0.0800 
 49 H       -9.5330    -9.5690     0.6960 H     1 <1>   0.0800 
 50 H       -9.6130    -7.2450     0.1820 H     1 <1>   0.0800 
 51 H       -8.2360    -6.9090     1.2150 H     1 <1>   0.0800 
@<TRIPOS>BOND
  1   1   2  1   
  2   2   3  ar  
  3   2   4  ar  
  4   3   5  1   
  5   3   6  ar  
  6   4   7  ar  
  7   4  28  1   
  8   5   8  1   
  9   6   9  ar  
 10   6  29  1   
 11   7   9  ar  
 12   7  30  1   
 13   8  31  1   
 14   8  32  1   
 15   8  33  1   
 16   9  10  1   
 17  10  11  1   
 18  10  12  2   
 19  11  13  1   
 20  12  14  1   
 21  12  15  1   
 22  13  14  2   
 23  14  16  1   
 24  15  17  ar  
 25  15  18  ar  
 26  16  19  1   
 27  16  34  1   
 28  19  20  1   
 29  19  35  1   
 30  19  36  1   
 31  20  21  1   
 32  20  22  1   
 33  20  23  1   
 34  21  24  1   
 35  21  25  1   
 36  21  37  1   
 37  22  38  1   
 38  22  39  1   
 39  22  40  1   
 40  23  41  1   
 41  23  42  1   
 42  23  43  1   
 43  24  26  1   
 44  24  44  1   
 45  24  45  1   
 46  25  27  1   
 47  25  46  1   
 48  25  47  1   
 49  26  27  1   
 50  26  48  1   
 51  26  49  1   
 52  27  50  1   
 53  27  51  1   
@<TRIPOS>SUBSTRUCTURE
  1 ****  12 GROUP 4 **** **** 0

# MOE 2024.06 (io_trps.svl 2023.06)
