@<TRIPOS>MOLECULE
NONAME
57 59 1 0 0 
SMALL
USER_CHARGES


@<TRIPOS>ATOM
  1 O        3.4490    -0.8870     0.8640 O.2   1 <1>  -0.5700 
  2 C        3.2560    -1.2650    -0.2700 C.2   1 <1>   0.5690 
  3 N        4.3540    -1.5440    -1.0440 N.am  1 <1>  -0.6600 
  4 C        1.7880    -1.3420    -0.7850 C.3   1 <1>   0.0610 
  5 C        5.5600    -2.2020    -0.4190 C.3   1 <1>   0.1400 
  6 C        4.6470    -0.8560    -2.3340 C.3   1 <1>   0.1400 
  7 C        0.8180    -1.7500     0.3560 C.3   1 <1>  -0.1600 
  8 C        1.3320     0.0370    -1.3110 C.3   1 <1>  -0.1600 
  9 C        1.6240    -2.4050    -1.8960 C.3   1 <1>  -0.2400 
 10 C        6.4360    -1.2320     0.4110 C.3   1 <1>   0.3430 
 11 C        5.1450     0.5770    -2.0870 C.3   1 <1>  -0.1600 
 12 C        0.6420    -0.6830     1.4420 C.3   1 <1>   0.3430 
 13 C        1.2420     1.0730    -0.1870 C.3   1 <1>   0.3430 
 14 N        6.0210     0.1840     0.1920 N.4   1 <1>  -0.9590 
 15 C        6.3560     0.7100    -1.1570 C.3   1 <1>   0.3430 
 16 N        0.2520     0.6190     0.8280 N.4   1 <1>  -0.9590 
 17 C        6.3550     1.1160     1.2960 C.3   1 <1>   0.5230 
 18 C        0.0770     1.6560     1.8880 C.3   1 <1>   0.2630 
 19 C        5.1960     2.0900     1.4470 C.2   1 <1>  -0.0400 
 20 O        4.8160     2.8150     0.4100 O.3   1 <1>  -0.2800 
 21 C        4.4260     2.3740     2.5210 C.2   1 <1>  -0.1500 
 22 C        3.8250     3.5910     0.7990 C.2   1 <1>  -0.0400 
 23 C        3.5310     3.3630     2.0960 C.2   1 <1>  -0.1500 
 24 C        3.2350     4.5710    -0.1920 C.3   1 <1>  -0.0600 
 25 H        6.1620    -2.6580    -1.1860 H     1 <1>   0.0800 
 26 H        5.2290    -2.9980     0.2260 H     1 <1>   0.0800 
 27 H        3.7690    -0.8150    -2.9500 H     1 <1>   0.0800 
 28 H        5.3890    -1.4140    -2.8810 H     1 <1>   0.0800 
 29 H        1.1780    -2.6510     0.8220 H     1 <1>   0.0800 
 30 H       -0.1550    -1.9740    -0.0450 H     1 <1>   0.0800 
 31 H        0.3700    -0.0460    -1.7860 H     1 <1>   0.0800 
 32 H        2.0190     0.3930    -2.0560 H     1 <1>   0.0800 
 33 H        1.9790    -3.3610    -1.5500 H     1 <1>   0.0800 
 34 H        2.1660    -2.1540    -2.7860 H     1 <1>   0.0800 
 35 H        0.5910    -2.5170    -2.1760 H     1 <1>   0.0800 
 36 H        7.4760    -1.3690     0.1670 H     1 <1>   0.0800 
 37 H        6.3060    -1.4830     1.4510 H     1 <1>   0.0800 
 38 H        4.3420     1.1810    -1.7090 H     1 <1>   0.0800 
 39 H        5.4170     0.9980    -3.0390 H     1 <1>   0.0800 
 40 H        1.5620    -0.5630     1.9920 H     1 <1>   0.0800 
 41 H       -0.1170    -1.0040     2.1370 H     1 <1>   0.0800 
 42 H        0.9370     2.0220    -0.5980 H     1 <1>   0.0800 
 43 H        2.2090     1.2010     0.2760 H     1 <1>   0.0800 
 44 H        4.9870     0.1230     0.2320 H     1 <1>   0.4500 
 45 H        6.6150     1.7550    -1.0840 H     1 <1>   0.0800 
 46 H        7.2020     0.1820    -1.5650 H     1 <1>   0.0800 
 47 H       -0.6510     0.4800     0.3510 H     1 <1>   0.4500 
 48 H        7.2660     1.6500     1.0800 H     1 <1>   0.0800 
 49 H        6.4770     0.5750     2.2190 H     1 <1>   0.0800 
 50 H        1.0100     1.8230     2.4030 H     1 <1>   0.0800 
 51 H       -0.6610     1.3370     2.6060 H     1 <1>   0.0800 
 52 H       -0.2480     2.5870     1.4530 H     1 <1>   0.0800 
 53 H        4.4660     1.9660     3.5180 H     1 <1>   0.1500 
 54 H        2.7900     3.8410     2.7150 H     1 <1>   0.1500 
 55 H        2.8430     4.0500    -1.0460 H     1 <1>   0.0800 
 56 H        3.9980     5.2530    -0.5230 H     1 <1>   0.0800 
 57 H        2.4460     5.1400     0.2670 H     1 <1>   0.0800 
@<TRIPOS>BOND
  1   1   2  2   
  2   2   3  am  
  3   2   4  1   
  4   3   5  1   
  5   3   6  1   
  6   4   7  1   
  7   4   8  1   
  8   4   9  1   
  9   5  10  1   
 10   5  25  1   
 11   5  26  1   
 12   6  11  1   
 13   6  27  1   
 14   6  28  1   
 15   7  12  1   
 16   7  29  1   
 17   7  30  1   
 18   8  13  1   
 19   8  31  1   
 20   8  32  1   
 21   9  33  1   
 22   9  34  1   
 23   9  35  1   
 24  10  14  1   
 25  10  36  1   
 26  10  37  1   
 27  11  15  1   
 28  11  38  1   
 29  11  39  1   
 30  12  16  1   
 31  12  40  1   
 32  12  41  1   
 33  13  16  1   
 34  13  42  1   
 35  13  43  1   
 36  14  15  1   
 37  14  17  1   
 38  14  44  1   
 39  15  45  1   
 40  15  46  1   
 41  16  18  1   
 42  16  47  1   
 43  17  19  1   
 44  17  48  1   
 45  17  49  1   
 46  18  50  1   
 47  18  51  1   
 48  18  52  1   
 49  19  20  1   
 50  19  21  2   
 51  20  22  1   
 52  21  23  1   
 53  21  53  1   
 54  22  23  2   
 55  22  24  1   
 56  23  54  1   
 57  24  55  1   
 58  24  56  1   
 59  24  57  1   
@<TRIPOS>SUBSTRUCTURE
  1 ****   1 GROUP 4 **** **** 0

# MOE 2024.06 (io_trps.svl 2023.06)
