@<TRIPOS>MOLECULE
NONAME
49 51 1 0 0 
SMALL
USER_CHARGES


@<TRIPOS>ATOM
  1 O       -1.4800     0.5260     2.6410 O.2   1 <1>  -0.5700 
  2 C       -1.5810     0.7230     1.4510 C.2   1 <1>   0.5690 
  3 N       -1.7420    -0.3270     0.5730 N.am  1 <1>  -0.6600 
  4 C       -1.5360     2.1950     1.0170 C.3   1 <1>  -0.0190 
  5 C       -1.9420    -1.7090     1.1040 C.3   1 <1>   0.2840 
  6 C       -1.8770    -0.2330    -0.9110 C.3   1 <1>   0.0600 
  7 C       -2.8420     2.6840     0.3530 C.3   1 <1>  -0.1600 
  8 C       -0.2610     2.5660     0.2180 C.3   1 <1>  -0.1600 
  9 C       -3.4080    -2.1080     0.9650 C.ar  1 <1>  -0.1440 
 10 C       -2.8410     4.2080     0.1110 C.3   1 <1>   0.2000 
 11 C       -0.4630     3.7620    -0.7300 C.3   1 <1>  -0.1600 
 12 C       -3.8780    -2.9360    -0.0910 C.ar  1 <1>   0.0000 
 13 C       -4.2760    -1.6280     1.9110 C.ar  1 <1>  -0.1500 
 14 O       -3.6360     4.4680    -1.0210 O.3   1 <1>  -0.5600 
 15 C       -1.4180     4.7890    -0.1170 C.3   1 <1>   0.2000 
 16 C       -5.2600    -3.2420    -0.1350 C.ar  1 <1>   0.0000 
 17 C       -3.0620    -3.4800    -1.1120 C.ar  1 <1>  -0.1500 
 18 C       -5.6370    -1.9370     1.8630 C.ar  1 <1>  -0.1500 
 19 C       -5.0110     4.4750    -0.7920 C.3   1 <1>   0.0400 
 20 O       -1.4980     5.8630    -0.9780 O.3   1 <1>  -0.6800 
 21 C       -6.1150    -2.7280     0.8590 C.ar  1 <1>  -0.1500 
 22 C       -5.7580    -4.0570    -1.1730 C.ar  1 <1>  -0.1500 
 23 C       -3.5710    -4.2680    -2.1070 C.ar  1 <1>  -0.1500 
 24 C       -4.9360    -4.5610    -2.1400 C.ar  1 <1>  -0.1500 
 25 H       -1.4700     2.7550     1.9350 H     1 <1>   0.0800 
 26 H       -1.2870    -2.3910     0.5990 H     1 <1>   0.0800 
 27 H       -1.6730    -1.7540     2.1450 H     1 <1>   0.0800 
 28 H       -1.2720    -0.9890    -1.3790 H     1 <1>   0.0800 
 29 H       -1.5600     0.7200    -1.2840 H     1 <1>   0.0800 
 30 H       -2.9050    -0.3880    -1.1900 H     1 <1>   0.0800 
 31 H       -3.6720     2.4270     0.9860 H     1 <1>   0.0800 
 32 H       -2.9790     2.1890    -0.5890 H     1 <1>   0.0800 
 33 H        0.5140     2.8070     0.9250 H     1 <1>   0.0800 
 34 H        0.1000     1.7280    -0.3510 H     1 <1>   0.0800 
 35 H       -3.2680     4.7170     0.9590 H     1 <1>   0.0800 
 36 H       -0.8810     3.4140    -1.6590 H     1 <1>   0.0800 
 37 H        0.4870     4.2230    -0.9360 H     1 <1>   0.0800 
 38 H       -3.9220    -0.9970     2.7100 H     1 <1>   0.1500 
 39 H       -1.0080     5.1420     0.8130 H     1 <1>   0.0800 
 40 H       -2.0100    -3.2780    -1.1180 H     1 <1>   0.1500 
 41 H       -6.2910    -1.5450     2.6220 H     1 <1>   0.1500 
 42 H       -5.5030     4.7020    -1.7220 H     1 <1>   0.0800 
 43 H       -5.2470     5.2330    -0.0650 H     1 <1>   0.0800 
 44 H       -5.3250     3.5060    -0.4470 H     1 <1>   0.0800 
 45 H       -2.3010     5.7030    -1.5260 H     1 <1>   0.4000 
 46 H       -7.1610    -2.9710     0.8130 H     1 <1>   0.1500 
 47 H       -6.8100    -4.2780    -1.1900 H     1 <1>   0.1500 
 48 H       -2.9330    -4.6730    -2.8740 H     1 <1>   0.1500 
 49 H       -5.3220    -5.1830    -2.9290 H     1 <1>   0.1500 
@<TRIPOS>BOND
  1   1   2  2   
  2   2   3  am  
  3   2   4  1   
  4   3   5  1   
  5   3   6  1   
  6   4   7  1   
  7   4   8  1   
  8   4  25  1   
  9   5   9  1   
 10   5  26  1   
 11   5  27  1   
 12   6  28  1   
 13   6  29  1   
 14   6  30  1   
 15   7  10  1   
 16   7  31  1   
 17   7  32  1   
 18   8  11  1   
 19   8  33  1   
 20   8  34  1   
 21   9  12  ar  
 22   9  13  ar  
 23  10  14  1   
 24  10  15  1   
 25  10  35  1   
 26  11  15  1   
 27  11  36  1   
 28  11  37  1   
 29  12  16  ar  
 30  12  17  ar  
 31  13  18  ar  
 32  13  38  1   
 33  14  19  1   
 34  15  20  1   
 35  15  39  1   
 36  16  21  ar  
 37  16  22  ar  
 38  17  23  ar  
 39  17  40  1   
 40  18  21  ar  
 41  18  41  1   
 42  19  42  1   
 43  19  43  1   
 44  19  44  1   
 45  20  45  1   
 46  21  46  1   
 47  22  24  ar  
 48  22  47  1   
 49  23  24  ar  
 50  23  48  1   
 51  24  49  1   
@<TRIPOS>SUBSTRUCTURE
  1 ****   3 GROUP 4 **** **** 0

# MOE 2024.06 (io_trps.svl 2023.06)
