@<TRIPOS>MOLECULE
NONAME
54 57 1 0 0 
SMALL
USER_CHARGES


@<TRIPOS>ATOM
  1 S        0.4500    -1.7040     0.0450 S.o2  1 <1>   1.0900 
  2 O        0.6380    -3.0850    -0.3370 O.2   1 <1>  -0.6500 
  3 O        0.2080    -0.6920    -0.9550 O.2   1 <1>  -0.6500 
  4 C       -0.8320    -1.6210     1.3020 C.3   1 <1>   0.0890 
  5 C        1.9130    -1.2110     0.9370 C.3   1 <1>  -0.1350 
  6 C       -2.2270    -1.9770     0.8020 C.ar  1 <1>  -0.1440 
  7 C       -2.5030    -3.2330     0.2800 C.ar  1 <1>   0.1600 
  8 C       -3.2510    -1.0510     0.8650 C.ar  1 <1>  -0.1500 
  9 N       -3.6850    -3.6310    -0.1560 N.ar  1 <1>  -0.6200 
 10 C       -4.4830    -1.4520     0.4060 C.ar  1 <1>  -0.1500 
 11 C       -4.6640    -2.7390    -0.0920 C.ar  1 <1>   0.4100 
 12 N       -5.9140    -3.1270    -0.5360 N.pl3 1 <1>  -0.8380 
 13 C       -7.0120    -3.2760     0.4480 C.3   1 <1>   0.2090 
 14 C       -6.0410    -3.9950    -1.7390 C.3   1 <1>   0.2090 
 15 C       -7.0990    -4.7350     0.8920 C.3   1 <1>  -0.1600 
 16 C       -6.1660    -5.4630    -1.3260 C.3   1 <1>  -0.1600 
 17 C       -7.2860    -5.6830    -0.3020 C.3   1 <1>   0.4240 
 18 O       -8.4780    -5.3280    -0.9680 O.3   1 <1>  -0.5600 
 19 C       -7.3100    -7.1580     0.1600 C.ar  1 <1>  -0.1430 
 20 C       -9.6730    -5.8350    -0.4620 C.3   1 <1>   0.1200 
 21 C       -8.4440    -7.9480    -0.0020 C.ar  1 <1>  -0.1430 
 22 C       -6.1900    -7.7240     0.7600 C.ar  1 <1>  -0.1500 
 23 C       -9.6810    -7.3490    -0.6420 C.3   1 <1>  -0.0170 
 24 C       -8.4520    -9.2700     0.4150 C.ar  1 <1>  -0.1500 
 25 C       -6.1980    -9.0410     1.1800 C.ar  1 <1>  -0.1500 
 26 C       -7.3250    -9.8250     1.0100 C.ar  1 <1>   0.0830 
 27 O       -7.2520   -11.1080     1.4460 O.3   1 <1>  -0.3620 
 28 C       -8.3370   -11.9960     1.3010 C.3   1 <1>   0.0400 
 29 H       -0.8580    -0.6300     1.7120 H     1 <1>   0.0800 
 30 H       -0.5880    -2.2930     2.1030 H     1 <1>   0.0800 
 31 H        2.7610    -1.2270     0.2790 H     1 <1>   0.0800 
 32 H        2.1060    -1.8820     1.7510 H     1 <1>   0.0800 
 33 H        1.8050    -0.2150     1.3210 H     1 <1>   0.0800 
 34 H       -1.7090    -3.9590     0.2150 H     1 <1>   0.1500 
 35 H       -3.1040    -0.0560     1.2490 H     1 <1>   0.1500 
 36 H       -5.3220    -0.7830     0.4150 H     1 <1>   0.1500 
 37 H       -7.9380    -2.9690    -0.0080 H     1 <1>   0.0800 
 38 H       -6.8280    -2.6470     1.3020 H     1 <1>   0.0800 
 39 H       -5.1790    -3.8670    -2.3720 H     1 <1>   0.0800 
 40 H       -6.9120    -3.6960    -2.2950 H     1 <1>   0.0800 
 41 H       -7.8990    -4.8610     1.5960 H     1 <1>   0.0800 
 42 H       -6.1860    -4.9790     1.4020 H     1 <1>   0.0800 
 43 H       -5.2240    -5.7690    -0.9150 H     1 <1>   0.0800 
 44 H       -6.3510    -6.0710    -2.1920 H     1 <1>   0.0800 
 45 H      -10.4810    -5.3860    -1.0130 H     1 <1>   0.0800 
 46 H       -9.7620    -5.5670     0.5760 H     1 <1>   0.0800 
 47 H       -5.2980    -7.1400     0.9080 H     1 <1>   0.1500 
 48 H       -9.6960    -7.5840    -1.6910 H     1 <1>   0.0800 
 49 H      -10.5680    -7.7550    -0.1900 H     1 <1>   0.0800 
 50 H       -9.3400    -9.8540     0.2700 H     1 <1>   0.1500 
 51 H       -5.3270    -9.4690     1.6410 H     1 <1>   0.1500 
 52 H       -8.0470   -12.9480     1.7060 H     1 <1>   0.0800 
 53 H       -8.5660   -12.0980     0.2550 H     1 <1>   0.0800 
 54 H       -9.1800   -11.6080     1.8450 H     1 <1>   0.0800 
@<TRIPOS>BOND
  1   1   2  2   
  2   1   3  2   
  3   1   4  1   
  4   1   5  1   
  5   4   6  1   
  6   4  29  1   
  7   4  30  1   
  8   5  31  1   
  9   5  32  1   
 10   5  33  1   
 11   6   7  ar  
 12   6   8  ar  
 13   7   9  ar  
 14   7  34  1   
 15   8  10  ar  
 16   8  35  1   
 17   9  11  ar  
 18  10  11  ar  
 19  10  36  1   
 20  11  12  1   
 21  12  13  1   
 22  12  14  1   
 23  13  15  1   
 24  13  37  1   
 25  13  38  1   
 26  14  16  1   
 27  14  39  1   
 28  14  40  1   
 29  15  17  1   
 30  15  41  1   
 31  15  42  1   
 32  16  17  1   
 33  16  43  1   
 34  16  44  1   
 35  17  18  1   
 36  17  19  1   
 37  18  20  1   
 38  19  21  ar  
 39  19  22  ar  
 40  20  23  1   
 41  20  45  1   
 42  20  46  1   
 43  21  23  1   
 44  21  24  ar  
 45  22  25  ar  
 46  22  47  1   
 47  23  48  1   
 48  23  49  1   
 49  24  26  ar  
 50  24  50  1   
 51  25  26  ar  
 52  25  51  1   
 53  26  27  1   
 54  27  28  1   
 55  28  52  1   
 56  28  53  1   
 57  28  54  1   
@<TRIPOS>SUBSTRUCTURE
  1 ****  16 GROUP 4 **** **** 0

# MOE 2024.06 (io_trps.svl 2023.06)
