@<TRIPOS>MOLECULE
NONAME
46 47 1 0 0 
SMALL
USER_CHARGES


@<TRIPOS>ATOM
  1 O       -0.2110    -0.6090    -1.0330 O.2   1 <1>  -0.5700 
  2 C       -0.0200    -1.5320    -0.2760 C.2   1 <1>   0.5690 
  3 N        1.2330    -1.9700     0.0160 N.am  1 <1>  -0.7300 
  4 C       -1.2560    -2.1940     0.3640 C.3   1 <1>   0.4040 
  5 C        2.4640    -1.4330    -0.5870 C.3   1 <1>   0.2780 
  6 N       -2.4850    -1.3150     0.3360 N.4   1 <1>  -0.9590 
  7 C        3.3900    -2.6090    -0.7990 C.2   1 <1>  -0.2880 
  8 C       -3.7630    -2.0510     0.5650 C.3   1 <1>   0.3430 
  9 C       -2.3420    -0.1140     1.2200 C.3   1 <1>   0.3430 
 10 C        4.5370    -2.8180    -0.1450 C.2   1 <1>  -0.3000 
 11 C       -4.9800    -1.1960     0.1360 C.3   1 <1>   0.0000 
 12 C       -3.6940     0.5740     1.4580 C.3   1 <1>  -0.1600 
 13 C       -6.2110    -1.7250     0.9080 C.3   1 <1>   0.2000 
 14 C       -4.6880     0.3230     0.3150 C.3   1 <1>  -0.1600 
 15 C       -5.3400    -1.5200    -1.3230 C.3   1 <1>  -0.1600 
 16 O       -7.2640    -0.8190     0.7810 O.3   1 <1>  -0.5600 
 17 C       -6.5960    -3.0130     0.1700 C.3   1 <1>  -0.1600 
 18 C       -6.1360    -2.8300    -1.2830 C.3   1 <1>  -0.1600 
 19 C       -8.2540    -0.9030     1.7590 C.3   1 <1>   0.0400 
 20 H        1.4220    -2.7580     0.6400 H     1 <1>   0.3700 
 21 H       -1.0220    -2.4610     1.3790 H     1 <1>   0.0800 
 22 H       -1.4540    -3.0990    -0.1840 H     1 <1>   0.0800 
 23 H        2.2530    -0.9450    -1.5250 H     1 <1>   0.0800 
 24 H        2.9110    -0.7180     0.0840 H     1 <1>   0.0800 
 25 H       -2.5210    -0.9310    -0.6240 H     1 <1>   0.4500 
 26 H        3.0260    -3.2830    -1.5560 H     1 <1>   0.1500 
 27 H       -3.7700    -2.9760     0.0120 H     1 <1>   0.0800 
 28 H       -3.8470    -2.2860     1.6130 H     1 <1>   0.0800 
 29 H       -1.9180    -0.3940     2.1710 H     1 <1>   0.0800 
 30 H       -1.6670     0.5850     0.7490 H     1 <1>   0.0800 
 31 H        5.1800    -3.6650    -0.3190 H     1 <1>   0.1500 
 32 H        4.9360    -2.1670     0.6150 H     1 <1>   0.1500 
 33 H       -4.1160     0.2190     2.3820 H     1 <1>   0.0800 
 34 H       -3.5310     1.6320     1.5750 H     1 <1>   0.0800 
 35 H       -6.0050    -1.8790     1.9540 H     1 <1>   0.0800 
 36 H       -4.2600     0.7150    -0.5930 H     1 <1>   0.0800 
 37 H       -5.5910     0.8830     0.4870 H     1 <1>   0.0800 
 38 H       -5.9890    -0.7470    -1.7030 H     1 <1>   0.0800 
 39 H       -4.4810    -1.5870    -1.9680 H     1 <1>   0.0800 
 40 H       -6.0740    -3.8470     0.6060 H     1 <1>   0.0800 
 41 H       -7.6520    -3.2130     0.2250 H     1 <1>   0.0800 
 42 H       -5.5290    -3.6630    -1.5930 H     1 <1>   0.0800 
 43 H       -6.9870    -2.7620    -1.9420 H     1 <1>   0.0800 
 44 H       -9.0110    -0.1730     1.5290 H     1 <1>   0.0800 
 45 H       -7.8250    -0.6850     2.7210 H     1 <1>   0.0800 
 46 H       -8.6910    -1.8860     1.7520 H     1 <1>   0.0800 
@<TRIPOS>BOND
  1   1   2  2   
  2   2   3  am  
  3   2   4  1   
  4   3   5  1   
  5   3  20  1   
  6   4   6  1   
  7   4  21  1   
  8   4  22  1   
  9   5   7  1   
 10   5  23  1   
 11   5  24  1   
 12   6   8  1   
 13   6   9  1   
 14   6  25  1   
 15   7  10  2   
 16   7  26  1   
 17   8  11  1   
 18   8  27  1   
 19   8  28  1   
 20   9  12  1   
 21   9  29  1   
 22   9  30  1   
 23  10  31  1   
 24  10  32  1   
 25  11  13  1   
 26  11  14  1   
 27  11  15  1   
 28  12  14  1   
 29  12  33  1   
 30  12  34  1   
 31  13  16  1   
 32  13  17  1   
 33  13  35  1   
 34  14  36  1   
 35  14  37  1   
 36  15  18  1   
 37  15  38  1   
 38  15  39  1   
 39  16  19  1   
 40  17  18  1   
 41  17  40  1   
 42  17  41  1   
 43  18  42  1   
 44  18  43  1   
 45  19  44  1   
 46  19  45  1   
 47  19  46  1   
@<TRIPOS>SUBSTRUCTURE
  1 ****   6 GROUP 4 **** **** 0

# MOE 2024.06 (io_trps.svl 2023.06)
