@<TRIPOS>MOLECULE
NONAME
57 60 1 0 0 
SMALL
USER_CHARGES


@<TRIPOS>ATOM
  1 O       -0.8720     1.3160    -0.2210 O.2   1 <1>  -0.5700 
  2 C       -1.3900     2.1570     0.4870 C.2   1 <1>   0.7800 
  3 O       -0.7280     3.2750     0.7810 O.3   1 <1>  -0.4300 
  4 N       -2.6590     2.0130     0.9910 N.am  1 <1>  -0.6600 
  5 C        0.5830     3.4850     0.3060 C.3   1 <1>   0.1200 
  6 C       -3.3370     3.0460     1.8010 C.3   1 <1>   0.1400 
  7 C       -3.4650     0.8020     0.7320 C.3   1 <1>   0.1400 
  8 C        1.0570     4.8440     0.8110 C.3   1 <1>  -0.2400 
  9 C       -4.5850     3.5040     1.0470 C.3   1 <1>  -0.1600 
 10 C       -4.7150     1.2130    -0.0460 C.3   1 <1>  -0.1600 
 11 C       -5.5040     2.3240     0.6730 C.3   1 <1>   0.4230 
 12 N       -6.6270     2.7960    -0.2060 N.4   1 <1>  -0.9590 
 13 C       -7.3930     3.9500     0.3970 C.3   1 <1>   0.3430 
 14 C       -7.5840     1.6970    -0.5610 C.3   1 <1>   0.3430 
 15 C       -8.4590     4.5240    -0.5510 C.3   1 <1>   0.1430 
 16 C       -8.6320     2.1950    -1.5610 C.3   1 <1>  -0.1600 
 17 C       -9.2280     5.5840     0.1990 C.ar  1 <1>   0.1670 
 18 C       -9.4100     3.4090    -1.0270 C.3   1 <1>  -0.1600 
 19 C       -7.8580     5.3260    -1.7380 C.3   1 <1>  -0.1600 
 20 N       -9.6930     5.4390     1.4180 N.ar  1 <1>  -0.6200 
 21 C       -9.3670     6.7240    -0.5300 C.ar  1 <1>  -0.1430 
 22 C       -8.7120     6.6020    -1.8830 C.3   1 <1>  -0.0170 
 23 C      -10.3350     6.5050     1.8800 C.ar  1 <1>   0.4770 
 24 C      -10.0440     7.7680     0.0490 C.ar  1 <1>   0.1600 
 25 N      -10.5350     7.6630     1.2670 N.ar  1 <1>  -0.6200 
 26 C      -10.9090     6.3970     3.2720 C.3   1 <1>  -0.0970 
 27 H        0.5650     3.4580    -0.7710 H     1 <1>   0.0800 
 28 H        1.2110     2.6930     0.6780 H     1 <1>   0.0800 
 29 H       -2.6880     3.8880     1.9790 H     1 <1>   0.0800 
 30 H       -3.6030     2.6270     2.7570 H     1 <1>   0.0800 
 31 H       -3.7310     0.3460     1.6700 H     1 <1>   0.0800 
 32 H       -2.9000     0.0810     0.1620 H     1 <1>   0.0800 
 33 H        0.4170     5.6230     0.4390 H     1 <1>   0.0800 
 34 H        2.0580     5.0290     0.4660 H     1 <1>   0.0800 
 35 H        1.0580     4.8600     1.8870 H     1 <1>   0.0800 
 36 H       -4.2660     4.0240     0.1600 H     1 <1>   0.0800 
 37 H       -5.0940     4.1970     1.6900 H     1 <1>   0.0800 
 38 H       -5.3140     0.3300    -0.1600 H     1 <1>   0.0800 
 39 H       -4.4030     1.5470    -1.0200 H     1 <1>   0.0800 
 40 H       -5.9120     1.9150     1.5840 H     1 <1>   0.0800 
 41 H       -6.2010     3.1290    -1.0800 H     1 <1>   0.4500 
 42 H       -6.7270     4.7520     0.6620 H     1 <1>   0.0800 
 43 H       -7.8850     3.6220     1.2990 H     1 <1>   0.0800 
 44 H       -8.0790     1.3450     0.3300 H     1 <1>   0.0800 
 45 H       -7.0580     0.8680    -1.0050 H     1 <1>   0.0800 
 46 H       -9.3270     1.3960    -1.7590 H     1 <1>   0.0800 
 47 H       -8.1520     2.4330    -2.4940 H     1 <1>   0.0800 
 48 H      -10.0780     3.7860    -1.7830 H     1 <1>   0.0800 
 49 H      -10.0190     3.0920    -0.1950 H     1 <1>   0.0800 
 50 H       -7.8390     4.7710    -2.6590 H     1 <1>   0.0800 
 51 H       -6.8530     5.6280    -1.5000 H     1 <1>   0.0800 
 52 H       -9.4680     6.4750    -2.6390 H     1 <1>   0.0800 
 53 H       -8.1090     7.4640    -2.1140 H     1 <1>   0.0800 
 54 H      -10.1870     8.6950    -0.4820 H     1 <1>   0.1500 
 55 H      -10.7150     5.4280     3.6920 H     1 <1>   0.0800 
 56 H      -11.9710     6.5550     3.2320 H     1 <1>   0.0800 
 57 H      -10.4680     7.1480     3.9000 H     1 <1>   0.0800 
@<TRIPOS>BOND
  1   1   2  2   
  2   2   3  1   
  3   2   4  am  
  4   3   5  1   
  5   4   6  1   
  6   4   7  1   
  7   5   8  1   
  8   5  27  1   
  9   5  28  1   
 10   6   9  1   
 11   6  29  1   
 12   6  30  1   
 13   7  10  1   
 14   7  31  1   
 15   7  32  1   
 16   8  33  1   
 17   8  34  1   
 18   8  35  1   
 19   9  11  1   
 20   9  36  1   
 21   9  37  1   
 22  10  11  1   
 23  10  38  1   
 24  10  39  1   
 25  11  12  1   
 26  11  40  1   
 27  12  13  1   
 28  12  14  1   
 29  12  41  1   
 30  13  15  1   
 31  13  42  1   
 32  13  43  1   
 33  14  16  1   
 34  14  44  1   
 35  14  45  1   
 36  15  17  1   
 37  15  18  1   
 38  15  19  1   
 39  16  18  1   
 40  16  46  1   
 41  16  47  1   
 42  17  20  ar  
 43  17  21  ar  
 44  18  48  1   
 45  18  49  1   
 46  19  22  1   
 47  19  50  1   
 48  19  51  1   
 49  20  23  ar  
 50  21  22  1   
 51  21  24  ar  
 52  22  52  1   
 53  22  53  1   
 54  23  25  ar  
 55  23  26  1   
 56  24  25  ar  
 57  24  54  1   
 58  26  55  1   
 59  26  56  1   
 60  26  57  1   
@<TRIPOS>SUBSTRUCTURE
  1 ****  13 GROUP 4 **** **** 0

# MOE 2024.06 (io_trps.svl 2023.06)
