@<TRIPOS>MOLECULE
NONAME
46 49 1 0 0 
SMALL
USER_CHARGES


@<TRIPOS>ATOM
  1 CL      -2.3290    -0.7480     0.7920 Cl    1 <1>  -0.1770 
  2 C       -2.2040     0.9620     0.4470 C.ar  1 <1>   0.1770 
  3 C       -2.8930     1.4930    -0.6450 C.ar  1 <1>  -0.1440 
  4 C       -1.4250     1.7460     1.2850 C.ar  1 <1>  -0.1500 
  5 C       -2.7970     2.8570    -0.9120 C.ar  1 <1>  -0.1500 
  6 C       -3.7300     0.5960    -1.5350 C.3   1 <1>   0.4870 
  7 C       -1.3550     3.0930     0.9950 C.ar  1 <1>   0.0830 
  8 C       -2.0190     3.6300    -0.0700 C.ar  1 <1>   0.0830 
  9 N       -4.8910     0.0710    -0.7600 N.4   1 <1>  -0.9590 
 10 O       -0.6800     4.0450     1.6430 O.3   1 <1>  -0.3630 
 11 O       -1.7900     4.9440    -0.1390 O.3   1 <1>  -0.3620 
 12 C       -5.5280    -1.0740    -1.4990 C.3   1 <1>   0.3430 
 13 C       -5.8250     1.1800    -0.3800 C.3   1 <1>   0.3430 
 14 C       -0.9080     5.2650     0.9380 C.3   1 <1>   0.4000 
 15 C       -6.5210    -1.8990    -0.6560 C.3   1 <1>   0.1400 
 16 C       -6.7960     0.7460     0.7040 C.3   1 <1>  -0.0990 
 17 N       -7.8290    -1.2040    -0.4540 N.am  1 <1>  -0.6600 
 18 C       -7.9710     0.0430     0.0790 C.2   1 <1>   0.5690 
 19 C       -9.0570    -2.0190    -0.7660 C.3   1 <1>   0.3200 
 20 O       -9.0170     0.6350     0.0450 O.2   1 <1>  -0.5700 
 21 C       -9.0570    -3.3350    -0.0030 C.2   1 <1>   0.2980 
 22 O       -9.3340    -3.3180     1.2760 O.3   1 <1>  -0.0190 
 23 N       -8.7800    -4.4790    -0.4920 N.2   1 <1>  -0.5650 
 24 N       -9.2300    -4.5610     1.6320 N.2   1 <1>  -0.4100 
 25 C       -8.9150    -5.2250     0.5940 C.2   1 <1>   0.3350 
 26 C       -8.7020    -6.7190     0.5480 C.3   1 <1>  -0.0590 
 27 H       -0.8960     1.3320     2.1240 H     1 <1>   0.1500 
 28 H       -3.2940     3.3290    -1.7420 H     1 <1>   0.1500 
 29 H       -3.1150    -0.2210    -1.8780 H     1 <1>   0.0800 
 30 H       -4.0740     1.1460    -2.3970 H     1 <1>   0.0800 
 31 H       -4.4800    -0.3010     0.1110 H     1 <1>   0.4500 
 32 H       -4.7500    -1.7460    -1.8240 H     1 <1>   0.0800 
 33 H       -6.0340    -0.7130    -2.3800 H     1 <1>   0.0800 
 34 H       -6.3730     1.5270    -1.2420 H     1 <1>   0.0800 
 35 H       -5.2530     2.0090     0.0040 H     1 <1>   0.0800 
 36 H        0.0230     5.6360     0.5460 H     1 <1>   0.0800 
 37 H       -1.3770     5.9800     1.5920 H     1 <1>   0.0800 
 38 H       -6.0910    -2.1560     0.2970 H     1 <1>   0.0800 
 39 H       -6.6960    -2.8220    -1.1840 H     1 <1>   0.0800 
 40 H       -7.1660     1.6250     1.2000 H     1 <1>   0.0800 
 41 H       -6.3260     0.1290     1.4460 H     1 <1>   0.0800 
 42 H       -9.0840    -2.2270    -1.8210 H     1 <1>   0.0800 
 43 H       -9.9550    -1.4810    -0.5150 H     1 <1>   0.0800 
 44 H       -9.3960    -7.1590    -0.1440 H     1 <1>   0.0800 
 45 H       -8.8590    -7.1440     1.5220 H     1 <1>   0.0800 
 46 H       -7.7000    -6.9330     0.2270 H     1 <1>   0.0800 
@<TRIPOS>BOND
  1   1   2  1   
  2   2   3  ar  
  3   2   4  ar  
  4   3   5  ar  
  5   3   6  1   
  6   4   7  ar  
  7   4  27  1   
  8   5   8  ar  
  9   5  28  1   
 10   6   9  1   
 11   6  29  1   
 12   6  30  1   
 13   7   8  ar  
 14   7  10  1   
 15   8  11  1   
 16   9  12  1   
 17   9  13  1   
 18   9  31  1   
 19  10  14  1   
 20  11  14  1   
 21  12  15  1   
 22  12  32  1   
 23  12  33  1   
 24  13  16  1   
 25  13  34  1   
 26  13  35  1   
 27  14  36  1   
 28  14  37  1   
 29  15  17  1   
 30  15  38  1   
 31  15  39  1   
 32  16  18  1   
 33  16  40  1   
 34  16  41  1   
 35  17  18  am  
 36  17  19  1   
 37  18  20  2   
 38  19  21  1   
 39  19  42  1   
 40  19  43  1   
 41  21  22  1   
 42  21  23  2   
 43  22  24  1   
 44  23  25  1   
 45  24  25  2   
 46  25  26  1   
 47  26  44  1   
 48  26  45  1   
 49  26  46  1   
@<TRIPOS>SUBSTRUCTURE
  1 ****   9 GROUP 4 **** **** 0

# MOE 2024.06 (io_trps.svl 2023.06)
