@<TRIPOS>MOLECULE
NONAME
54 57 1 0 0 
SMALL
USER_CHARGES


@<TRIPOS>ATOM
  1 O       -1.6520     1.4500    -1.5990 O.2   1 <1>  -0.5700 
  2 C       -1.0570     2.4600    -1.3280 C.2   1 <1>   0.5690 
  3 N       -1.5100     3.2880    -0.3610 N.am  1 <1>  -0.7300 
  4 C        0.2090     2.8370    -2.1100 C.3   1 <1>   0.1810 
  5 C       -0.7950     4.5090     0.0640 C.3   1 <1>   0.3640 
  6 O        0.9740     3.8660    -1.5070 O.3   1 <1>  -0.5600 
  7 C       -1.8110     5.6180     0.3380 C.ar  1 <1>  -0.1440 
  8 C        0.2190     4.9570    -1.0160 C.3   1 <1>   0.2610 
  9 C       -1.7760     6.3040     1.5440 C.ar  1 <1>  -0.1500 
 10 C       -2.7720     5.9620    -0.6040 C.ar  1 <1>  -0.1500 
 11 C        1.1450     6.0640    -0.5010 C.2   1 <1>   0.5690 
 12 C       -2.6820     7.3170     1.8050 C.ar  1 <1>  -0.1500 
 13 C       -3.6760     6.9780    -0.3460 C.ar  1 <1>  -0.1500 
 14 O        1.2240     6.3020     0.6840 O.2   1 <1>  -0.5700 
 15 N        1.8380     6.8050    -1.4150 N.am  1 <1>  -0.5790 
 16 C       -3.6320     7.6550     0.8590 C.ar  1 <1>  -0.1500 
 17 C        2.8220     7.8880    -1.1610 C.3   1 <1>   0.0540 
 18 C        3.3700     8.5520    -2.3840 C.3   1 <1>  -0.2000 
 19 C        4.2110     7.5770    -1.6150 C.3   1 <1>  -0.2000 
 20 C        2.6320     8.7280     0.1320 C.3   1 <1>   0.4380 
 21 N        1.5220     9.7290     0.0130 N.4   1 <1>  -0.9590 
 22 C        1.6670    10.7780     1.0620 C.3   1 <1>   0.3430 
 23 C        0.1740     9.0880     0.0750 C.3   1 <1>   0.3430 
 24 C        0.6140    11.8690     0.8600 C.3   1 <1>  -0.1600 
 25 C       -0.9120    10.1410    -0.1470 C.3   1 <1>  -0.1600 
 26 C       -0.8060    11.2900     0.8630 C.3   1 <1>  -0.1600 
 27 H       -2.3470     3.0240     0.1630 H     1 <1>   0.3700 
 28 H       -0.0700     3.1580    -3.0970 H     1 <1>   0.0800 
 29 H        0.8400     1.9710    -2.1980 H     1 <1>   0.0800 
 30 H       -0.2610     4.2810     0.9710 H     1 <1>   0.0800 
 31 H       -0.3300     5.3580    -1.8480 H     1 <1>   0.0800 
 32 H       -1.0430     6.0500     2.2930 H     1 <1>   0.1500 
 33 H       -2.8320     5.4350    -1.5420 H     1 <1>   0.1500 
 34 H       -2.6540     7.8360     2.7480 H     1 <1>   0.1500 
 35 H       -4.4220     7.2340    -1.0790 H     1 <1>   0.1500 
 36 H        1.8900     6.4250    -2.3650 H     1 <1>   0.3700 
 37 H       -4.3440     8.4380     1.0630 H     1 <1>   0.1500 
 38 H        3.0170     8.2590    -3.3580 H     1 <1>   0.1000 
 39 H        3.6810     9.5830    -2.3610 H     1 <1>   0.1000 
 40 H        5.0570     7.9630    -1.0730 H     1 <1>   0.1000 
 41 H        4.4160     6.6110    -2.0470 H     1 <1>   0.1000 
 42 H        3.5520     9.2620     0.3020 H     1 <1>   0.0800 
 43 H        2.4780     8.0850     0.9810 H     1 <1>   0.0800 
 44 H        1.6060    10.1780    -0.9060 H     1 <1>   0.4500 
 45 H        1.5410    10.3350     2.0370 H     1 <1>   0.0800 
 46 H        2.6510    11.2180     1.0130 H     1 <1>   0.0800 
 47 H        0.0850     8.3350    -0.6890 H     1 <1>   0.0800 
 48 H        0.0340     8.6120     1.0330 H     1 <1>   0.0800 
 49 H        0.7030    12.5950     1.6500 H     1 <1>   0.0800 
 50 H        0.8010    12.3810    -0.0680 H     1 <1>   0.0800 
 51 H       -0.8380    10.5240    -1.1500 H     1 <1>   0.0800 
 52 H       -1.8770     9.6740    -0.0540 H     1 <1>   0.0800 
 53 H       -1.5190    12.0600     0.6190 H     1 <1>   0.0800 
 54 H       -1.0440    10.9230     1.8480 H     1 <1>   0.0800 
@<TRIPOS>BOND
  1   1   2  2   
  2   2   3  am  
  3   2   4  1   
  4   3   5  1   
  5   3  27  1   
  6   4   6  1   
  7   4  28  1   
  8   4  29  1   
  9   5   7  1   
 10   5   8  1   
 11   5  30  1   
 12   6   8  1   
 13   7   9  ar  
 14   7  10  ar  
 15   8  11  1   
 16   8  31  1   
 17   9  12  ar  
 18   9  32  1   
 19  10  13  ar  
 20  10  33  1   
 21  11  14  2   
 22  11  15  am  
 23  12  16  ar  
 24  12  34  1   
 25  13  16  ar  
 26  13  35  1   
 27  15  17  1   
 28  15  36  1   
 29  16  37  1   
 30  17  18  1   
 31  17  19  1   
 32  17  20  1   
 33  18  19  1   
 34  18  38  1   
 35  18  39  1   
 36  19  40  1   
 37  19  41  1   
 38  20  21  1   
 39  20  42  1   
 40  20  43  1   
 41  21  22  1   
 42  21  23  1   
 43  21  44  1   
 44  22  24  1   
 45  22  45  1   
 46  22  46  1   
 47  23  25  1   
 48  23  47  1   
 49  23  48  1   
 50  24  26  1   
 51  24  49  1   
 52  24  50  1   
 53  25  26  1   
 54  25  51  1   
 55  25  52  1   
 56  26  53  1   
 57  26  54  1   
@<TRIPOS>SUBSTRUCTURE
  1 ****  11 GROUP 4 **** **** 0

# MOE 2024.06 (io_trps.svl 2023.06)
