@<TRIPOS>MOLECULE
NONAME
52 55 1 0 0 
SMALL
USER_CHARGES


@<TRIPOS>ATOM
  1 F       -1.5160    -0.5280     0.1790 F     1 <1>  -0.1900 
  2 C       -1.7720    -1.8030     0.0250 C.ar  1 <1>   0.1900 
  3 C       -0.8500    -2.7940     0.3810 C.ar  1 <1>   0.0830 
  4 C       -3.0030    -2.1220    -0.5140 C.ar  1 <1>  -0.1500 
  5 O        0.3900    -2.6050     0.9200 O.3   1 <1>  -0.3630 
  6 C       -1.2140    -4.1140     0.1730 C.ar  1 <1>  -0.1500 
  7 C       -3.3330    -3.4500    -0.7090 C.ar  1 <1>  -0.1500 
  8 C        0.8840    -1.3360     1.2840 C.3   1 <1>   0.0400 
  9 C       -2.4500    -4.4780    -0.3680 C.ar  1 <1>   0.0530 
 10 C       -2.7890    -5.8680    -0.5710 C.2   1 <1>   0.0870 
 11 O       -1.8460    -6.7760    -0.6580 O.3   1 <1>  -0.0190 
 12 C       -3.9710    -6.5220    -0.7010 C.2   1 <1>  -0.2330 
 13 N       -2.3160    -7.9820    -0.8450 N.2   1 <1>  -0.4100 
 14 C       -3.5940    -7.8570    -0.8950 C.2   1 <1>   0.3720 
 15 C       -5.2960    -6.0140    -0.5780 C.2   1 <1>   1.0330 
 16 N       -4.4220    -8.9710    -1.1130 N.pl3 1 <1>  -0.8210 
 17 O       -6.0540    -5.8960    -1.5550 O.co2 1 <1>  -0.9000 
 18 O       -5.7940    -5.8030     0.5410 O.co2 1 <1>  -0.9000 
 19 C       -5.4390    -8.8830    -2.1990 C.3   1 <1>   0.2090 
 20 C       -4.6510    -9.8970     0.0350 C.3   1 <1>   0.2090 
 21 C       -6.8670    -8.8840    -1.6420 C.3   1 <1>  -0.1600 
 22 C       -6.1190    -9.8930     0.5060 C.3   1 <1>  -0.1600 
 23 C       -6.8340    -8.7070    -0.1210 C.3   1 <1>   0.4230 
 24 N       -8.1520    -8.4130     0.4880 N.4   1 <1>  -0.9590 
 25 C       -9.3150    -9.2110     0.0560 C.3   1 <1>   0.3430 
 26 C       -8.4790    -6.9790     0.2360 C.3   1 <1>   0.3430 
 27 C      -10.5010    -8.3420     0.4420 C.3   1 <1>  -0.1600 
 28 C      -10.0010    -6.9010     0.3060 C.3   1 <1>  -0.1600 
 29 H       -3.6950    -1.3430    -0.7780 H     1 <1>   0.1500 
 30 H       -0.5150    -4.8830     0.4460 H     1 <1>   0.1500 
 31 H       -4.2920    -3.6880    -1.1360 H     1 <1>   0.1500 
 32 H        1.8540    -1.4690     1.7280 H     1 <1>   0.0800 
 33 H        0.2140    -0.8910     1.9990 H     1 <1>   0.0800 
 34 H        0.9690    -0.7260     0.4020 H     1 <1>   0.0800 
 35 H       -5.3030    -9.7120    -2.8720 H     1 <1>   0.0800 
 36 H       -5.2740    -7.9810    -2.7650 H     1 <1>   0.0800 
 37 H       -4.0140    -9.5950     0.8510 H     1 <1>   0.0800 
 38 H       -4.3560   -10.8920    -0.2540 H     1 <1>   0.0800 
 39 H       -7.3380    -9.8120    -1.9080 H     1 <1>   0.0800 
 40 H       -7.4040    -8.0810    -2.1120 H     1 <1>   0.0800 
 41 H       -6.1310    -9.8150     1.5770 H     1 <1>   0.0800 
 42 H       -6.5890   -10.8150     0.2190 H     1 <1>   0.0800 
 43 H       -6.2100    -7.8730     0.1030 H     1 <1>   0.0800 
 44 H       -8.0380    -8.4800     1.5030 H     1 <1>   0.4500 
 45 H       -9.3410   -10.1750     0.5370 H     1 <1>   0.0800 
 46 H       -9.2980    -9.3360    -1.0140 H     1 <1>   0.0800 
 47 H       -8.1380    -6.6750    -0.7410 H     1 <1>   0.0800 
 48 H       -8.0070    -6.3380     0.9660 H     1 <1>   0.0800 
 49 H      -10.7720    -8.5460     1.4630 H     1 <1>   0.0800 
 50 H      -11.3510    -8.5380    -0.1880 H     1 <1>   0.0800 
 51 H      -10.3660    -6.4460    -0.5990 H     1 <1>   0.0800 
 52 H      -10.3090    -6.2960     1.1400 H     1 <1>   0.0800 
@<TRIPOS>BOND
  1   1   2  1   
  2   2   3  ar  
  3   2   4  ar  
  4   3   5  1   
  5   3   6  ar  
  6   4   7  ar  
  7   4  29  1   
  8   5   8  1   
  9   6   9  ar  
 10   6  30  1   
 11   7   9  ar  
 12   7  31  1   
 13   8  32  1   
 14   8  33  1   
 15   8  34  1   
 16   9  10  1   
 17  10  11  1   
 18  10  12  2   
 19  11  13  1   
 20  12  14  1   
 21  12  15  1   
 22  13  14  2   
 23  14  16  1   
 24  15  17  ar  
 25  15  18  ar  
 26  16  19  1   
 27  16  20  1   
 28  19  21  1   
 29  19  35  1   
 30  19  36  1   
 31  20  22  1   
 32  20  37  1   
 33  20  38  1   
 34  21  23  1   
 35  21  39  1   
 36  21  40  1   
 37  22  23  1   
 38  22  41  1   
 39  22  42  1   
 40  23  24  1   
 41  23  43  1   
 42  24  25  1   
 43  24  26  1   
 44  24  44  1   
 45  25  27  1   
 46  25  45  1   
 47  25  46  1   
 48  26  28  1   
 49  26  47  1   
 50  26  48  1   
 51  27  28  1   
 52  27  49  1   
 53  27  50  1   
 54  28  51  1   
 55  28  52  1   
@<TRIPOS>SUBSTRUCTURE
  1 ****  12 GROUP 4 **** **** 0

# MOE 2024.06 (io_trps.svl 2023.06)
