@<TRIPOS>MOLECULE
NONAME
48 50 1 0 0 
SMALL
USER_CHARGES


@<TRIPOS>ATOM
  1 S        0.0250     0.1990    -1.2630 S.o2  1 <1>   1.3330 
  2 O       -0.7450    -1.0180    -1.1460 O.2   1 <1>  -0.6500 
  3 O        0.3780     0.7000    -2.5720 O.2   1 <1>  -0.6500 
  4 N        1.4650    -0.0290    -0.3890 N.am  1 <1>  -0.8490 
  5 C       -0.8140     1.5150    -0.3770 C.3   1 <1>  -0.0550 
  6 C        2.5270    -0.5980    -1.2250 C.3   1 <1>   0.1160 
  7 C        1.2880    -0.8570     0.8100 C.3   1 <1>   0.1160 
  8 C       -0.1430     2.9000    -0.5060 C.3   1 <1>  -0.0800 
  9 C       -0.9290     4.0350     0.1520 C.3   1 <1>   0.2000 
 10 C        1.2560     3.0000     0.1180 C.3   1 <1>   0.2090 
 11 O       -1.3230     3.6290     1.4200 O.3   1 <1>  -0.6800 
 12 C        0.1200     5.1310     0.3150 C.3   1 <1>   0.2090 
 13 N        1.3740     4.3910     0.6330 N.pl3 1 <1>  -0.8380 
 14 C        2.5870     5.0590     0.6360 C.ar  1 <1>   0.4100 
 15 N        2.5840     6.3310     0.3490 N.ar  1 <1>  -0.6200 
 16 C        3.7690     4.3600     0.9540 C.ar  1 <1>  -0.1500 
 17 C        3.7670     7.0070     0.3390 C.ar  1 <1>   0.3100 
 18 C        4.9670     4.9980     0.9540 C.ar  1 <1>  -0.1500 
 19 C        3.7990     8.3940     0.0230 C.ar  1 <1>   0.0820 
 20 C        4.9930     6.3660     0.6350 C.ar  1 <1>   0.0000 
 21 O        2.6130     9.0070    -0.2600 O.3   1 <1>  -0.3620 
 22 C        4.9950     9.0820     0.0070 C.ar  1 <1>  -0.1500 
 23 C        6.1910     7.1000     0.6090 C.ar  1 <1>  -0.1500 
 24 C        2.5180    10.3840    -0.5460 C.3   1 <1>   0.0400 
 25 C        6.1940     8.4320     0.3010 C.ar  1 <1>  -0.1500 
 26 H       -1.8110     1.5960    -0.7640 H     1 <1>   0.0800 
 27 H       -0.8990     1.2470     0.6570 H     1 <1>   0.0800 
 28 H        3.4280    -0.7260    -0.6510 H     1 <1>   0.0800 
 29 H        2.7440     0.0630    -2.0480 H     1 <1>   0.0800 
 30 H        2.2210    -1.5520    -1.6220 H     1 <1>   0.0800 
 31 H        2.2070    -0.9010     1.3690 H     1 <1>   0.0800 
 32 H        0.9960    -1.8580     0.5380 H     1 <1>   0.0800 
 33 H        0.5260    -0.4370     1.4440 H     1 <1>   0.0800 
 34 H       -0.0440     3.1380    -1.5520 H     1 <1>   0.0800 
 35 H       -1.7950     4.3470    -0.4040 H     1 <1>   0.0800 
 36 H        2.0190     2.7890    -0.6130 H     1 <1>   0.0800 
 37 H        1.3530     2.3180     0.9460 H     1 <1>   0.0800 
 38 H       -0.5330     3.6920     1.9980 H     1 <1>   0.4000 
 39 H       -0.1350     5.8280     1.0940 H     1 <1>   0.0800 
 40 H        0.2440     5.6630    -0.6130 H     1 <1>   0.0800 
 41 H        3.6960     3.3210     1.2030 H     1 <1>   0.1500 
 42 H        5.8830     4.4880     1.1940 H     1 <1>   0.1500 
 43 H        5.0460    10.1280    -0.2290 H     1 <1>   0.1500 
 44 H        7.1120     6.5940     0.8370 H     1 <1>   0.1500 
 45 H        1.4820    10.6170    -0.7150 H     1 <1>   0.0800 
 46 H        3.0890    10.5970    -1.4320 H     1 <1>   0.0800 
 47 H        2.8850    10.9410     0.2970 H     1 <1>   0.0800 
 48 H        7.1140     8.9910     0.2820 H     1 <1>   0.1500 
@<TRIPOS>BOND
  1   1   2  2   
  2   1   3  2   
  3   1   4  am  
  4   1   5  1   
  5   4   6  1   
  6   4   7  1   
  7   5   8  1   
  8   5  26  1   
  9   5  27  1   
 10   6  28  1   
 11   6  29  1   
 12   6  30  1   
 13   7  31  1   
 14   7  32  1   
 15   7  33  1   
 16   8   9  1   
 17   8  10  1   
 18   8  34  1   
 19   9  11  1   
 20   9  12  1   
 21   9  35  1   
 22  10  13  1   
 23  10  36  1   
 24  10  37  1   
 25  11  38  1   
 26  12  13  1   
 27  12  39  1   
 28  12  40  1   
 29  13  14  1   
 30  14  15  ar  
 31  14  16  ar  
 32  15  17  ar  
 33  16  18  ar  
 34  16  41  1   
 35  17  19  ar  
 36  17  20  ar  
 37  18  20  ar  
 38  18  42  1   
 39  19  21  1   
 40  19  22  ar  
 41  20  23  ar  
 42  21  24  1   
 43  22  25  ar  
 44  22  43  1   
 45  23  25  ar  
 46  23  44  1   
 47  24  45  1   
 48  24  46  1   
 49  24  47  1   
 50  25  48  1   
@<TRIPOS>SUBSTRUCTURE
  1 ****  13 GROUP 4 **** **** 0

# MOE 2024.06 (io_trps.svl 2023.06)
