@<TRIPOS>MOLECULE
NONAME
44 47 1 0 0 
SMALL
USER_CHARGES


@<TRIPOS>ATOM
  1 O       -1.2040    -1.7810    -1.5660 O.2   1 <1>  -0.5700 
  2 C       -0.2910    -2.3650    -1.0410 C.2   1 <1>   0.5690 
  3 N       -0.4890    -3.5020    -0.3430 N.am  1 <1>  -0.7300 
  4 C        1.1250    -1.8370    -1.1300 C.3   1 <1>  -0.0990 
  5 C        0.6000    -4.2310     0.3380 C.3   1 <1>   0.1400 
  6 C        2.1170    -2.9870    -1.3930 C.3   1 <1>  -0.0800 
  7 C        1.8510    -4.2650    -0.5630 C.3   1 <1>  -0.0800 
  8 C        3.5750    -2.5960    -1.1230 C.3   1 <1>  -0.1600 
  9 C        3.1430    -4.5240     0.2200 C.3   1 <1>  -0.1600 
 10 C        4.2490    -3.8690    -0.6100 C.3   1 <1>   0.2200 
 11 N        5.4910    -3.5620     0.1640 N.am  1 <1>  -0.6600 
 12 C        6.4930    -2.8070    -0.4150 C.2   1 <1>   0.5440 
 13 C        5.8280    -4.4660     1.3040 C.3   1 <1>   0.0600 
 14 O        6.5870    -2.8060    -1.6320 O.2   1 <1>  -0.5700 
 15 C        7.4420    -2.0560     0.3920 C.ar  1 <1>   0.0860 
 16 C        8.7520    -1.8130    -0.0620 C.ar  1 <1>  -0.1520 
 17 C        7.1250    -1.5390     1.6420 C.ar  1 <1>  -0.1500 
 18 N        9.3360    -2.1610    -1.2510 N.pl3 1 <1>   0.0330 
 19 C        9.6940    -1.1320     0.7020 C.ar  1 <1>   0.0000 
 20 C        8.0570    -0.8460     2.4190 C.ar  1 <1>  -0.1500 
 21 C       10.6300    -1.7210    -1.2390 C.2   1 <1>  -0.3020 
 22 C        9.3390    -0.6440     1.9600 C.ar  1 <1>  -0.1500 
 23 C       10.8790    -1.0940    -0.0650 C.2   1 <1>  -0.1500 
 24 H       -1.4490    -3.8410    -0.2530 H     1 <1>   0.3700 
 25 H        1.1880    -1.1060    -1.9150 H     1 <1>   0.0800 
 26 H        1.3480    -1.3520    -0.1980 H     1 <1>   0.0800 
 27 H        0.8180    -3.7230     1.2620 H     1 <1>   0.0800 
 28 H        0.2830    -5.2350     0.5670 H     1 <1>   0.0800 
 29 H        2.0290    -3.2600    -2.4320 H     1 <1>   0.0800 
 30 H        1.7220    -5.0760    -1.2610 H     1 <1>   0.0800 
 31 H        3.6240    -1.8420    -0.3570 H     1 <1>   0.0800 
 32 H        4.0500    -2.2290    -2.0160 H     1 <1>   0.0800 
 33 H        3.3130    -5.5770     0.3540 H     1 <1>   0.0800 
 34 H        3.0840    -4.0350     1.1770 H     1 <1>   0.0800 
 35 H        4.4960    -4.5030    -1.4460 H     1 <1>   0.0800 
 36 H        5.2260    -4.2190     2.1600 H     1 <1>   0.0800 
 37 H        6.8660    -4.3700     1.5730 H     1 <1>   0.0800 
 38 H        5.6510    -5.4900     1.0250 H     1 <1>   0.0800 
 39 H        6.1310    -1.6710     2.0290 H     1 <1>   0.1500 
 40 H        8.8280    -2.6300    -2.0140 H     1 <1>   0.2700 
 41 H        7.7640    -0.4680     3.3840 H     1 <1>   0.1500 
 42 H       11.2920    -1.8810    -2.0720 H     1 <1>   0.1500 
 43 H       10.0690    -0.1150     2.5460 H     1 <1>   0.1500 
 44 H       11.7940    -0.6340     0.2630 H     1 <1>   0.1500 
@<TRIPOS>BOND
  1   1   2  2   
  2   2   3  am  
  3   2   4  1   
  4   3   5  1   
  5   3  24  1   
  6   4   6  1   
  7   4  25  1   
  8   4  26  1   
  9   5   7  1   
 10   5  27  1   
 11   5  28  1   
 12   6   7  1   
 13   6   8  1   
 14   6  29  1   
 15   7   9  1   
 16   7  30  1   
 17   8  10  1   
 18   8  31  1   
 19   8  32  1   
 20   9  10  1   
 21   9  33  1   
 22   9  34  1   
 23  10  11  1   
 24  10  35  1   
 25  11  12  am  
 26  11  13  1   
 27  12  14  2   
 28  12  15  1   
 29  13  36  1   
 30  13  37  1   
 31  13  38  1   
 32  15  16  ar  
 33  15  17  ar  
 34  16  18  1   
 35  16  19  ar  
 36  17  20  ar  
 37  17  39  1   
 38  18  21  1   
 39  18  40  1   
 40  19  22  ar  
 41  19  23  1   
 42  20  22  ar  
 43  20  41  1   
 44  21  23  2   
 45  21  42  1   
 46  22  43  1   
 47  23  44  1   
@<TRIPOS>SUBSTRUCTURE
  1 ****  11 GROUP 4 **** **** 0

# MOE 2024.06 (io_trps.svl 2023.06)
