@<TRIPOS>MOLECULE
NONAME
55 57 1 0 0 
SMALL
USER_CHARGES


@<TRIPOS>ATOM
  1 O       -2.4120     0.6870    -2.4520 O.2   1 <1>  -0.5700 
  2 C       -2.1590     1.6150    -1.7020 C.2   1 <1>   0.5440 
  3 N       -2.9070     1.7090    -0.5390 N.am  1 <1>  -0.6600 
  4 C       -1.1050     2.5530    -2.0960 C.ar  1 <1>   0.3960 
  5 C       -3.7070     0.5590    -0.0170 C.3   1 <1>   0.1400 
  6 C       -2.9600     2.8840     0.3780 C.3   1 <1>   0.1400 
  7 N       -0.2660     3.0920    -1.1900 N.ar  1 <1>  -0.6200 
  8 C       -0.9860     2.8440    -3.4590 C.ar  1 <1>   0.1600 
  9 C       -3.3140     0.2530     1.4390 C.3   1 <1>   0.1200 
 10 C       -2.5710     2.4540     1.8000 C.3   1 <1>   0.1200 
 11 C        0.6690     3.8570    -1.7240 C.ar  1 <1>   0.4100 
 12 N       -0.0750     3.6380    -4.0050 N.ar  1 <1>  -0.6200 
 13 O       -3.3910     1.4050     2.2340 O.3   1 <1>  -0.5600 
 14 N        1.5820     4.4100    -0.8410 N.pl3 1 <1>  -0.8380 
 15 C        0.7520     4.1140    -3.1000 C.ar  1 <1>   0.1600 
 16 C        1.1350     5.6030    -0.0750 C.3   1 <1>   0.2090 
 17 C        2.3890     3.4260    -0.0580 C.3   1 <1>   0.1290 
 18 C        2.0780     6.7820    -0.3750 C.3   1 <1>   0.3430 
 19 N        1.6350     8.0940     0.2170 N.4   1 <1>  -0.9590 
 20 C        2.4320     9.2160    -0.3810 C.3   1 <1>   0.4230 
 21 C        1.6370     8.0630     1.7180 C.3   1 <1>   0.2630 
 22 C        3.8680     9.2930     0.1450 C.3   1 <1>  -0.1600 
 23 C        1.8260    10.5730    -0.0250 C.3   1 <1>  -0.1600 
 24 C        3.8770    10.2930     1.3080 C.3   1 <1>  -0.1600 
 25 C        2.5940    11.1210     1.1850 C.3   1 <1>  -0.1600 
 26 H       -3.5490    -0.3220    -0.6150 H     1 <1>   0.0800 
 27 H       -4.7540     0.8040    -0.0610 H     1 <1>   0.0800 
 28 H       -3.9650     3.2690     0.3950 H     1 <1>   0.0800 
 29 H       -2.3170     3.6760     0.0450 H     1 <1>   0.0800 
 30 H       -1.6890     2.3850    -4.1350 H     1 <1>   0.1500 
 31 H       -2.3090    -0.1290     1.4830 H     1 <1>   0.0800 
 32 H       -3.9800    -0.4800     1.8570 H     1 <1>   0.0800 
 33 H       -2.6980     3.2720     2.4860 H     1 <1>   0.0800 
 34 H       -1.5450     2.1270     1.8300 H     1 <1>   0.0800 
 35 H        1.5520     4.7440    -3.4400 H     1 <1>   0.1500 
 36 H        1.1340     5.3750     0.9760 H     1 <1>   0.0800 
 37 H        0.1320     5.8580    -0.3740 H     1 <1>   0.0800 
 38 H        2.6310     2.5770    -0.6760 H     1 <1>   0.0800 
 39 H        1.8270     3.0770     0.7920 H     1 <1>   0.0800 
 40 H        3.3070     3.8760     0.2780 H     1 <1>   0.0800 
 41 H        2.1380     6.8840    -1.4460 H     1 <1>   0.0800 
 42 H        3.0610     6.5350    -0.0120 H     1 <1>   0.0800 
 43 H        0.6660     8.2590    -0.0900 H     1 <1>   0.4500 
 44 H        2.4430     9.1030    -1.4540 H     1 <1>   0.0800 
 45 H        2.6340     7.8890     2.0890 H     1 <1>   0.0800 
 46 H        0.9920     7.2810     2.0830 H     1 <1>   0.0800 
 47 H        1.2840     9.0020     2.1120 H     1 <1>   0.0800 
 48 H        4.4800     9.7000    -0.6420 H     1 <1>   0.0800 
 49 H        4.2800     8.3400     0.4220 H     1 <1>   0.0800 
 50 H        0.7650    10.5330     0.1460 H     1 <1>   0.0800 
 51 H        2.0030    11.2370    -0.8550 H     1 <1>   0.0800 
 52 H        4.7490    10.9260     1.2580 H     1 <1>   0.0800 
 53 H        3.8950     9.7780     2.2530 H     1 <1>   0.0800 
 54 H        2.0070    11.0320     2.0830 H     1 <1>   0.0800 
 55 H        2.8260    12.1640     1.0420 H     1 <1>   0.0800 
@<TRIPOS>BOND
  1   1   2  2   
  2   2   3  am  
  3   2   4  1   
  4   3   5  1   
  5   3   6  1   
  6   4   7  ar  
  7   4   8  ar  
  8   5   9  1   
  9   5  26  1   
 10   5  27  1   
 11   6  10  1   
 12   6  28  1   
 13   6  29  1   
 14   7  11  ar  
 15   8  12  ar  
 16   8  30  1   
 17   9  13  1   
 18   9  31  1   
 19   9  32  1   
 20  10  13  1   
 21  10  33  1   
 22  10  34  1   
 23  11  14  1   
 24  11  15  ar  
 25  12  15  ar  
 26  14  16  1   
 27  14  17  1   
 28  15  35  1   
 29  16  18  1   
 30  16  36  1   
 31  16  37  1   
 32  17  38  1   
 33  17  39  1   
 34  17  40  1   
 35  18  19  1   
 36  18  41  1   
 37  18  42  1   
 38  19  20  1   
 39  19  21  1   
 40  19  43  1   
 41  20  22  1   
 42  20  23  1   
 43  20  44  1   
 44  21  45  1   
 45  21  46  1   
 46  21  47  1   
 47  22  24  1   
 48  22  48  1   
 49  22  49  1   
 50  23  25  1   
 51  23  50  1   
 52  23  51  1   
 53  24  25  1   
 54  24  52  1   
 55  24  53  1   
 56  25  54  1   
 57  25  55  1   
@<TRIPOS>SUBSTRUCTURE
  1 ****  16 GROUP 4 **** **** 0

# MOE 2024.06 (io_trps.svl 2023.06)
