@<TRIPOS>MOLECULE
NONAME
43 45 1 0 0 
SMALL
USER_CHARGES


@<TRIPOS>ATOM
  1 S        0.2010    -0.2900     1.8150 S.o2  1 <1>   1.4470 
  2 O       -0.3030     0.6490     2.7930 O.2   1 <1>  -0.6500 
  3 O        0.8600    -1.5050     2.2390 O.2   1 <1>  -0.6500 
  4 N        1.3470     0.5600     0.8800 N.am  1 <1>  -0.8490 
  5 C       -1.0330    -0.5560     0.5270 C.ar  1 <1>  -0.0090 
  6 C        1.9870     1.7230     1.5250 C.3   1 <1>   0.1960 
  7 C        2.2440    -0.3060     0.1050 C.3   1 <1>   0.1960 
  8 C       -1.7840    -1.7050     0.3640 C.ar  1 <1>   0.1900 
  9 C       -1.2150     0.4340    -0.4190 C.ar  1 <1>  -0.1500 
 10 C        2.6880     2.7410     0.5680 C.3   1 <1>   0.4230 
 11 C        2.7860     0.4020    -1.1550 C.3   1 <1>  -0.0800 
 12 F       -1.7020    -2.6590     1.2490 F     1 <1>  -0.1900 
 13 C       -2.6230    -1.8920    -0.7230 C.ar  1 <1>  -0.1500 
 14 C       -1.9650     0.2730    -1.5770 C.ar  1 <1>  -0.1790 
 15 N        2.1370     2.8600    -0.8440 N.4   1 <1>  -0.9590 
 16 C        4.2170     2.5310     0.5350 C.3   1 <1>   0.1200 
 17 C        4.2770     0.7580    -1.0550 C.3   1 <1>   0.1200 
 18 C        1.8970     1.5780    -1.5910 C.3   1 <1>   0.3430 
 19 C       -2.6990    -0.9080    -1.6970 C.ar  1 <1>  -0.1500 
 20 C       -1.8910     1.3040    -2.6010 C.2   1 <1>   0.9790 
 21 C        0.8610     3.6440    -0.8900 C.3   1 <1>   0.2630 
 22 O        4.5950     1.2270     0.2160 O.3   1 <1>  -0.5600 
 23 O       -2.7210     1.3760    -3.5150 O.co2 1 <1>  -0.9000 
 24 O       -0.9340     2.1110    -2.5770 O.co2 1 <1>  -0.9000 
 25 H        1.2330     2.2840     2.0480 H     1 <1>   0.0800 
 26 H        2.6840     1.3770     2.2700 H     1 <1>   0.0800 
 27 H        3.0420    -0.6730     0.7310 H     1 <1>   0.0800 
 28 H        1.6850    -1.1680    -0.2250 H     1 <1>   0.0800 
 29 H       -0.7280     1.3760    -0.2740 H     1 <1>   0.1500 
 30 H        2.5600     3.7050     1.0310 H     1 <1>   0.0800 
 31 H        2.7130    -0.3180    -1.9510 H     1 <1>   0.0800 
 32 H       -3.1960    -2.7970    -0.8120 H     1 <1>   0.1500 
 33 H        2.8210     3.3820    -1.4000 H     1 <1>   0.4500 
 34 H        4.6170     2.7280     1.5150 H     1 <1>   0.0800 
 35 H        4.6890     3.2080    -0.1550 H     1 <1>   0.0800 
 36 H        4.5770     1.4810    -1.7950 H     1 <1>   0.0800 
 37 H        4.8640    -0.1340    -1.2030 H     1 <1>   0.0800 
 38 H        0.8710     1.2780    -1.4700 H     1 <1>   0.0800 
 39 H        2.0330     1.7590    -2.6450 H     1 <1>   0.0800 
 40 H       -3.3210    -1.0400    -2.5690 H     1 <1>   0.1500 
 41 H        0.0950     3.1540    -0.3150 H     1 <1>   0.0800 
 42 H        0.5070     3.7240    -1.9070 H     1 <1>   0.0800 
 43 H        1.0060     4.6360    -0.4990 H     1 <1>   0.0800 
@<TRIPOS>BOND
  1   1   2  2   
  2   1   3  2   
  3   1   4  am  
  4   1   5  1   
  5   4   6  1   
  6   4   7  1   
  7   5   8  ar  
  8   5   9  ar  
  9   6  10  1   
 10   6  25  1   
 11   6  26  1   
 12   7  11  1   
 13   7  27  1   
 14   7  28  1   
 15   8  12  1   
 16   8  13  ar  
 17   9  14  ar  
 18   9  29  1   
 19  10  15  1   
 20  10  16  1   
 21  10  30  1   
 22  11  17  1   
 23  11  18  1   
 24  11  31  1   
 25  13  19  ar  
 26  13  32  1   
 27  14  19  ar  
 28  14  20  1   
 29  15  18  1   
 30  15  21  1   
 31  15  33  1   
 32  16  22  1   
 33  16  34  1   
 34  16  35  1   
 35  17  22  1   
 36  17  36  1   
 37  17  37  1   
 38  18  38  1   
 39  18  39  1   
 40  19  40  1   
 41  20  23  ar  
 42  20  24  ar  
 43  21  41  1   
 44  21  42  1   
 45  21  43  1   
@<TRIPOS>SUBSTRUCTURE
  1 ****   4 GROUP 4 **** **** 0

# MOE 2024.06 (io_trps.svl 2023.06)
