@<TRIPOS>MOLECULE
NONAME
39 42 1 0 0 
SMALL
USER_CHARGES


@<TRIPOS>ATOM
  1 O       -2.0870     0.7110    -1.9680 O.2   1 <1>  -0.5700 
  2 C       -2.1470    -0.1470    -1.1220 C.2   1 <1>   0.5690 
  3 N       -2.5350     0.1510     0.1380 N.am  1 <1>  -0.7300 
  4 C       -1.7630    -1.5780    -1.4620 C.3   1 <1>  -0.0190 
  5 C       -2.7670    -0.8870     1.1790 C.3   1 <1>   0.2200 
  6 C       -0.4940    -1.9980    -0.6960 C.3   1 <1>   0.1200 
  7 C       -2.9060    -2.6120    -1.3170 C.3   1 <1>   0.1100 
  8 C       -1.5300    -1.7860     1.4540 C.3   1 <1>   0.1200 
  9 C       -3.9990    -1.7460     0.8110 C.3   1 <1>   0.1100 
 10 O       -0.4380    -1.5250     0.6200 O.3   1 <1>  -0.5600 
 11 N       -4.1100    -2.1170    -0.6210 N.3   1 <1>  -0.8100 
 12 C       -5.3350    -2.8840    -0.9300 C.3   1 <1>   0.2900 
 13 C       -5.3540    -4.3120    -0.3900 C.2   1 <1>  -0.0400 
 14 O       -6.4440    -5.0250    -0.6640 O.3   1 <1>  -0.2800 
 15 C       -4.4800    -5.0440     0.3320 C.2   1 <1>  -0.1500 
 16 C       -6.2870    -6.2320    -0.1210 C.ar  1 <1>   0.1400 
 17 C       -5.0670    -6.3110     0.5240 C.ar  1 <1>   0.0000 
 18 C       -7.1710    -7.3010    -0.1540 C.ar  1 <1>  -0.1500 
 19 C       -4.7040    -7.4970     1.1630 C.ar  1 <1>  -0.1500 
 20 C       -6.8060    -8.4720     0.4800 C.ar  1 <1>  -0.1500 
 21 C       -5.5750    -8.5670     1.1360 C.ar  1 <1>  -0.1500 
 22 H       -2.8140     1.1130     0.3250 H     1 <1>   0.3700 
 23 H       -1.4920    -1.5890    -2.5010 H     1 <1>   0.0800 
 24 H       -2.9970    -0.3870     2.1040 H     1 <1>   0.0800 
 25 H        0.3640    -1.5810    -1.1960 H     1 <1>   0.0800 
 26 H       -0.3790    -3.0670    -0.6790 H     1 <1>   0.0800 
 27 H       -2.5450    -3.5000    -0.8320 H     1 <1>   0.0800 
 28 H       -3.1980    -2.8990    -2.3130 H     1 <1>   0.0800 
 29 H       -1.7740    -2.8310     1.3780 H     1 <1>   0.0800 
 30 H       -1.1960    -1.6070     2.4600 H     1 <1>   0.0800 
 31 H       -4.8740    -1.1750     1.0690 H     1 <1>   0.0800 
 32 H       -4.0140    -2.6270     1.4260 H     1 <1>   0.0800 
 33 H       -6.1850    -2.3570    -0.5330 H     1 <1>   0.0800 
 34 H       -5.4600    -2.9210    -1.9980 H     1 <1>   0.0800 
 35 H       -3.5150    -4.7770     0.7160 H     1 <1>   0.1500 
 36 H       -8.1100    -7.2000    -0.6660 H     1 <1>   0.1500 
 37 H       -3.7560    -7.5630     1.6660 H     1 <1>   0.1500 
 38 H       -7.4690    -9.3200     0.4730 H     1 <1>   0.1500 
 39 H       -5.3110    -9.4900     1.6240 H     1 <1>   0.1500 
@<TRIPOS>BOND
  1   1   2  2   
  2   2   3  am  
  3   2   4  1   
  4   3   5  1   
  5   3  22  1   
  6   4   6  1   
  7   4   7  1   
  8   4  23  1   
  9   5   8  1   
 10   5   9  1   
 11   5  24  1   
 12   6  10  1   
 13   6  25  1   
 14   6  26  1   
 15   7  11  1   
 16   7  27  1   
 17   7  28  1   
 18   8  10  1   
 19   8  29  1   
 20   8  30  1   
 21   9  11  1   
 22   9  31  1   
 23   9  32  1   
 24  11  12  1   
 25  12  13  1   
 26  12  33  1   
 27  12  34  1   
 28  13  14  1   
 29  13  15  2   
 30  14  16  1   
 31  15  17  1   
 32  15  35  1   
 33  16  17  ar  
 34  16  18  ar  
 35  17  19  ar  
 36  18  20  ar  
 37  18  36  1   
 38  19  21  ar  
 39  19  37  1   
 40  20  21  ar  
 41  20  38  1   
 42  21  39  1   
@<TRIPOS>SUBSTRUCTURE
  1 ****  11 GROUP 4 **** **** 0

# MOE 2024.06 (io_trps.svl 2023.06)
