@<TRIPOS>MOLECULE
NONAME
32 33 1 0 0 
SMALL
USER_CHARGES


@<TRIPOS>ATOM
  1 O        0.7290     1.6060     1.4080 O.co2 1 <1>  -0.9000 
  2 C       -0.1270     1.7300     0.5310 C.2   1 <1>   0.9060 
  3 O       -0.0380     1.1500    -0.5630 O.co2 1 <1>  -0.9000 
  4 C       -1.4420     2.4880     0.8760 C.3   1 <1>   0.4600 
  5 N       -2.7380     1.7940     0.4900 N.4   1 <1>  -0.8970 
  6 C       -1.5340     3.9100     0.3240 C.ar  1 <1>  -0.1430 
  7 C       -2.6870     0.2890     0.6290 C.3   1 <1>   0.4720 
  8 C       -2.8880     1.6060    -1.0050 C.3   1 <1>   0.4720 
  9 C       -2.2720     4.8550     1.0210 C.ar  1 <1>  -0.1500 
 10 C       -0.9160     4.2830    -0.8640 C.ar  1 <1>  -0.1500 
 11 C       -3.4410     0.1820    -0.7250 C.3   1 <1>   0.2580 
 12 C       -2.4110     6.1480     0.5440 C.ar  1 <1>   0.0830 
 13 C       -1.0450     5.5740    -1.3450 C.ar  1 <1>  -0.1500 
 14 O       -4.8420     0.1340    -0.5870 O.3   1 <1>  -0.6580 
 15 O       -3.1630     6.9920     1.2910 O.3   1 <1>  -0.3630 
 16 C       -1.7920     6.5080    -0.6490 C.ar  1 <1>  -0.1500 
 17 C       -3.2850     8.3570     0.9530 C.3   1 <1>   0.0400 
 18 H       -1.4200     2.5690     1.9480 H     1 <1>   0.0800 
 19 H       -3.5560     2.2360     0.9040 H     1 <1>   0.4500 
 20 H       -3.2490    -0.0640     1.4750 H     1 <1>   0.0000 
 21 H       -1.6850    -0.0930     0.5770 H     1 <1>   0.0000 
 22 H       -1.9460     1.6020    -1.5160 H     1 <1>   0.0000 
 23 H       -3.6100     2.2800    -1.4300 H     1 <1>   0.0000 
 24 H       -2.7520     4.6080     1.9510 H     1 <1>   0.1500 
 25 H       -0.3250     3.5760    -1.4270 H     1 <1>   0.1500 
 26 H       -3.0930    -0.5920    -1.3860 H     1 <1>   0.0000 
 27 H       -0.5590     5.8520    -2.2650 H     1 <1>   0.1500 
 28 H       -5.2010     0.9050    -0.1080 H     1 <1>   0.4000 
 29 H       -1.8760     7.5010    -1.0460 H     1 <1>   0.1500 
 30 H       -3.8890     8.8350     1.7030 H     1 <1>   0.0800 
 31 H       -3.7630     8.4380    -0.0070 H     1 <1>   0.0800 
 32 H       -2.3050     8.8010     0.9360 H     1 <1>   0.0800 
@<TRIPOS>BOND
  1   1   2  ar  
  2   2   3  ar  
  3   2   4  1   
  4   4   5  1   
  5   4   6  1   
  6   4  18  1   
  7   5   7  1   
  8   5   8  1   
  9   5  19  1   
 10   6   9  ar  
 11   6  10  ar  
 12   7  11  1   
 13   7  20  1   
 14   7  21  1   
 15   8  11  1   
 16   8  22  1   
 17   8  23  1   
 18   9  12  ar  
 19   9  24  1   
 20  10  13  ar  
 21  10  25  1   
 22  11  14  1   
 23  11  26  1   
 24  12  15  1   
 25  12  16  ar  
 26  13  16  ar  
 27  13  27  1   
 28  14  28  1   
 29  15  17  1   
 30  16  29  1   
 31  17  30  1   
 32  17  31  1   
 33  17  32  1   
@<TRIPOS>SUBSTRUCTURE
  1 ****   6 GROUP 4 **** **** 0

# MOE 2024.06 (io_trps.svl 2023.06)
