@<TRIPOS>MOLECULE
NONAME
44 45 1 0 0 
SMALL
USER_CHARGES


@<TRIPOS>ATOM
  1 CL      -1.8270    -1.3150     0.7470 Cl    1 <1>  -0.1770 
  2 C       -2.1640     0.2740     0.0970 C.ar  1 <1>   0.1770 
  3 C       -2.9770     0.3790    -1.0280 C.ar  1 <1>   0.0860 
  4 C       -1.6130     1.3860     0.7260 C.ar  1 <1>  -0.1440 
  5 C       -3.2140     1.6680    -1.4920 C.ar  1 <1>   0.1900 
  6 C       -3.5420    -0.7780    -1.6700 C.2   1 <1>   0.5440 
  7 C       -1.8760     2.6510     0.2200 C.ar  1 <1>  -0.1500 
  8 C       -0.7290     1.2330     1.9560 C.3   1 <1>  -0.0970 
  9 F       -3.9820     1.8430    -2.5330 F     1 <1>  -0.1900 
 10 C       -2.6820     2.7960    -0.8960 C.ar  1 <1>  -0.1500 
 11 O       -2.9280    -1.2930    -2.5850 O.2   1 <1>  -0.5700 
 12 N       -4.7540    -1.3050    -1.2750 N.am  1 <1>  -0.6600 
 13 C       -5.2610    -2.6080    -1.8170 C.3   1 <1>   0.1400 
 14 C       -5.6550    -0.6580    -0.2790 C.3   1 <1>   0.1400 
 15 C       -5.6240    -3.5800    -0.6820 C.3   1 <1>   0.2000 
 16 C       -5.9940    -1.6300     0.8530 C.3   1 <1>  -0.1600 
 17 O       -6.1760    -4.7350    -1.2120 O.3   1 <1>  -0.6800 
 18 C       -6.5610    -3.0140     0.4170 C.3   1 <1>  -0.1060 
 19 C       -6.4740    -3.9960     1.6080 C.2   1 <1>   0.9060 
 20 C       -8.0820    -2.9260     0.0500 C.3   1 <1>  -0.1600 
 21 O       -6.3990    -3.5620     2.7640 O.co2 1 <1>  -0.9000 
 22 O       -6.5170    -5.2160     1.3790 O.co2 1 <1>  -0.9000 
 23 C       -8.5150    -2.3920    -1.3270 C.3   1 <1>  -0.1600 
 24 C      -10.0420    -2.3230    -1.4250 C.3   1 <1>  -0.2400 
 25 H       -1.4580     3.5260     0.6890 H     1 <1>   0.1500 
 26 H       -0.3830     2.1880     2.3090 H     1 <1>   0.0800 
 27 H        0.1290     0.6270     1.7200 H     1 <1>   0.0800 
 28 H       -1.2790     0.7560     2.7480 H     1 <1>   0.0800 
 29 H       -2.8960     3.7700    -1.3010 H     1 <1>   0.1500 
 30 H       -6.1130    -2.4140    -2.4380 H     1 <1>   0.0800 
 31 H       -4.5090    -3.0740    -2.4270 H     1 <1>   0.0800 
 32 H       -5.1890     0.2100     0.1490 H     1 <1>   0.0800 
 33 H       -6.5460    -0.3230    -0.7720 H     1 <1>   0.0800 
 34 H       -4.6990    -3.8760    -0.2150 H     1 <1>   0.0800 
 35 H       -5.0850    -1.7950     1.4060 H     1 <1>   0.0800 
 36 H       -6.6800    -1.1600     1.5350 H     1 <1>   0.0800 
 37 H       -6.4190    -5.2800    -0.4090 H     1 <1>   0.4000 
 38 H       -8.4850    -3.9230     0.1220 H     1 <1>   0.0800 
 39 H       -8.5740    -2.3560     0.8180 H     1 <1>   0.0800 
 40 H       -8.1200    -1.4140    -1.5090 H     1 <1>   0.0800 
 41 H       -8.1580    -3.0570    -2.0940 H     1 <1>   0.0800 
 42 H      -10.4370    -1.6540    -0.6810 H     1 <1>   0.0800 
 43 H      -10.4690    -3.2990    -1.2750 H     1 <1>   0.0800 
 44 H      -10.3320    -1.9670    -2.3980 H     1 <1>   0.0800 
@<TRIPOS>BOND
  1   1   2  1   
  2   2   3  ar  
  3   2   4  ar  
  4   3   5  ar  
  5   3   6  1   
  6   4   7  ar  
  7   4   8  1   
  8   5   9  1   
  9   5  10  ar  
 10   6  11  2   
 11   6  12  am  
 12   7  10  ar  
 13   7  25  1   
 14   8  26  1   
 15   8  27  1   
 16   8  28  1   
 17  10  29  1   
 18  12  13  1   
 19  12  14  1   
 20  13  15  1   
 21  13  30  1   
 22  13  31  1   
 23  14  16  1   
 24  14  32  1   
 25  14  33  1   
 26  15  17  1   
 27  15  18  1   
 28  15  34  1   
 29  16  18  1   
 30  16  35  1   
 31  16  36  1   
 32  17  37  1   
 33  18  19  1   
 34  18  20  1   
 35  19  21  ar  
 36  19  22  ar  
 37  20  23  1   
 38  20  38  1   
 39  20  39  1   
 40  23  24  1   
 41  23  40  1   
 42  23  41  1   
 43  24  42  1   
 44  24  43  1   
 45  24  44  1   
@<TRIPOS>SUBSTRUCTURE
  1 ****  12 GROUP 4 **** **** 0

# MOE 2024.06 (io_trps.svl 2023.06)
