@<TRIPOS>MOLECULE
NONAME
51 53 1 0 0 
SMALL
USER_CHARGES


@<TRIPOS>ATOM
  1 O       -5.2300    -3.6340    -0.1610 O.co2 1 <1>  -0.9000 
  2 C       -5.1150    -2.6530    -0.9190 C.2   1 <1>   0.9060 
  3 O       -5.9460    -2.5290    -1.8240 O.co2 1 <1>  -0.9000 
  4 C       -4.0320    -1.5750    -0.7060 C.3   1 <1>   0.0140 
  5 O       -4.1280    -0.7610     0.4850 O.3   1 <1>  -0.3630 
  6 C       -5.3800    -0.5020     0.9310 C.ar  1 <1>   0.0830 
  7 C       -6.0610     0.6820     0.6510 C.ar  1 <1>   0.0820 
  8 C       -6.0200    -1.5330     1.5790 C.ar  1 <1>  -0.1500 
  9 O       -5.3710     1.7060     0.0770 O.3   1 <1>  -0.3630 
 10 C       -7.4220     0.7530     0.9480 C.ar  1 <1>  -0.1500 
 11 C       -7.3890    -1.5200     1.7260 C.ar  1 <1>  -0.1440 
 12 C       -6.0440     2.7660    -0.5620 C.3   1 <1>   0.0400 
 13 C       -8.0920    -0.3550     1.4520 C.ar  1 <1>  -0.1500 
 14 C       -8.0230    -2.8590     2.0200 C.3   1 <1>   0.4860 
 15 N       -7.8510    -3.6640     0.7770 N.4   1 <1>  -0.9590 
 16 C       -8.6020    -3.1460    -0.4090 C.3   1 <1>   0.3430 
 17 C       -8.0500    -5.1290     0.8660 C.3   1 <1>   0.3430 
 18 C       -9.3360    -4.3440    -1.0130 C.3   1 <1>   0.2000 
 19 C       -8.5810    -5.5680    -0.5020 C.3   1 <1>  -0.0800 
 20 O      -10.6360    -4.3920    -0.5150 O.3   1 <1>  -0.6800 
 21 C       -7.4380    -5.9680    -1.4530 C.3   1 <1>  -0.0170 
 22 C       -6.6760    -7.1610    -0.8950 C.ar  1 <1>  -0.1430 
 23 C       -7.2080    -8.4340    -0.8830 C.ar  1 <1>  -0.1500 
 24 C       -5.4080    -7.0260    -0.3670 C.ar  1 <1>  -0.1500 
 25 C       -6.4740    -9.4780    -0.3440 C.ar  1 <1>   0.1600 
 26 C       -4.7580    -8.1340     0.1480 C.ar  1 <1>   0.1600 
 27 N       -5.2650    -9.3570     0.1800 N.ar  1 <1>  -0.6200 
 28 H       -4.0660    -0.9070    -1.5440 H     1 <1>   0.0800 
 29 H       -3.0740    -2.0560    -0.6870 H     1 <1>   0.0800 
 30 H       -5.4360    -2.3910     1.8660 H     1 <1>   0.1500 
 31 H       -7.9770     1.6520     0.7640 H     1 <1>   0.1500 
 32 H       -5.3090     3.3760    -1.0550 H     1 <1>   0.0800 
 33 H       -6.5620     3.3480     0.1790 H     1 <1>   0.0800 
 34 H       -6.7270     2.3590    -1.2860 H     1 <1>   0.0800 
 35 H       -9.1570    -0.3040     1.6010 H     1 <1>   0.1500 
 36 H       -9.0660    -2.7460     2.2630 H     1 <1>   0.0800 
 37 H       -7.5080    -3.3290     2.8410 H     1 <1>   0.0800 
 38 H       -6.8410    -3.5500     0.4780 H     1 <1>   0.4500 
 39 H       -9.2960    -2.3690    -0.1410 H     1 <1>   0.0800 
 40 H       -7.9110    -2.7520    -1.1300 H     1 <1>   0.0800 
 41 H       -7.1240    -5.6280     1.1070 H     1 <1>   0.0800 
 42 H       -8.7820    -5.3530     1.6230 H     1 <1>   0.0800 
 43 H       -9.3900    -4.2850    -2.0880 H     1 <1>   0.0800 
 44 H       -9.2400    -6.4120    -0.3980 H     1 <1>   0.0800 
 45 H      -10.6490    -4.4950     0.4530 H     1 <1>   0.4000 
 46 H       -6.7630    -5.1420    -1.6060 H     1 <1>   0.0800 
 47 H       -7.8400    -6.2310    -2.4160 H     1 <1>   0.0800 
 48 H       -8.1840    -8.6270    -1.2900 H     1 <1>   0.1500 
 49 H       -4.9160    -6.0680    -0.3540 H     1 <1>   0.1500 
 50 H       -6.9040   -10.4650    -0.3430 H     1 <1>   0.1500 
 51 H       -3.7700    -8.0050     0.5540 H     1 <1>   0.1500 
@<TRIPOS>BOND
  1   1   2  ar  
  2   2   3  ar  
  3   2   4  1   
  4   4   5  1   
  5   4  28  1   
  6   4  29  1   
  7   5   6  1   
  8   6   7  ar  
  9   6   8  ar  
 10   7   9  1   
 11   7  10  ar  
 12   8  11  ar  
 13   8  30  1   
 14   9  12  1   
 15  10  13  ar  
 16  10  31  1   
 17  11  13  ar  
 18  11  14  1   
 19  12  32  1   
 20  12  33  1   
 21  12  34  1   
 22  13  35  1   
 23  14  15  1   
 24  14  36  1   
 25  14  37  1   
 26  15  16  1   
 27  15  17  1   
 28  15  38  1   
 29  16  18  1   
 30  16  39  1   
 31  16  40  1   
 32  17  19  1   
 33  17  41  1   
 34  17  42  1   
 35  18  19  1   
 36  18  20  1   
 37  18  43  1   
 38  19  21  1   
 39  19  44  1   
 40  20  45  1   
 41  21  22  1   
 42  21  46  1   
 43  21  47  1   
 44  22  23  ar  
 45  22  24  ar  
 46  23  25  ar  
 47  23  48  1   
 48  24  26  ar  
 49  24  49  1   
 50  25  27  ar  
 51  25  50  1   
 52  26  27  ar  
 53  26  51  1   
@<TRIPOS>SUBSTRUCTURE
  1 ****  15 GROUP 4 **** **** 0

# MOE 2024.06 (io_trps.svl 2023.06)
