@<TRIPOS>MOLECULE
NONAME
53 55 1 0 0 
SMALL
USER_CHARGES


@<TRIPOS>ATOM
  1 O        0.7820     0.1050    -1.0440 O.2   1 <1>  -0.5700 
  2 C        1.6730    -0.3650    -0.3610 C.2   1 <1>   0.5440 
  3 N        1.3840    -1.3990     0.5080 N.am  1 <1>  -0.6600 
  4 C        3.0120     0.1750    -0.4920 C.ar  1 <1>   0.0860 
  5 C       -0.0180    -1.8350     0.7670 C.3   1 <1>   0.1400 
  6 C        2.4180    -2.2690     1.1350 C.3   1 <1>   0.1400 
  7 C        3.6600     0.1920    -1.7250 C.ar  1 <1>  -0.1500 
  8 C        3.6960     0.7020     0.6030 C.ar  1 <1>  -0.1500 
  9 C       -0.2110    -3.2730     0.2740 C.3   1 <1>  -0.1600 
 10 C        2.2430    -3.7130     0.6500 C.3   1 <1>  -0.1600 
 11 C        4.9410     0.6950    -1.8590 C.ar  1 <1>  -0.1500 
 12 C        4.9780     1.2050     0.4760 C.ar  1 <1>  -0.1500 
 13 C        0.8180    -4.2270     0.8960 C.3   1 <1>  -0.1600 
 14 C        5.6110     1.2010    -0.7560 C.ar  1 <1>  -0.1430 
 15 C        7.0160     1.7610    -0.8910 C.3   1 <1>   0.3530 
 16 N        6.9010     3.2250    -1.0230 N.pl3 1 <1>  -0.8690 
 17 C        7.8030     4.0970    -0.4690 C.ar  1 <1>   0.4100 
 18 N        8.9780     3.6210    -0.1100 N.ar  1 <1>  -0.6200 
 19 C        7.4860     5.4230    -0.3030 C.ar  1 <1>  -0.1500 
 20 C        9.8030     4.5090     0.4080 C.ar  1 <1>   0.4700 
 21 C        8.4210     6.2630     0.2610 C.ar  1 <1>   0.4100 
 22 N        9.6060     5.7930     0.6170 N.ar  1 <1>  -0.6200 
 23 N        8.1730     7.6130     0.4770 N.pl3 1 <1>  -0.8380 
 24 C        9.2830     8.5900     0.6350 C.3   1 <1>   0.2090 
 25 C        6.7970     8.1790     0.5280 C.3   1 <1>   0.1290 
 26 C        9.5280     8.8450     2.1200 C.3   1 <1>  -0.2400 
 27 H       -0.7200    -1.1860     0.2710 H     1 <1>   0.0800 
 28 H       -0.2100    -1.7830     1.8240 H     1 <1>   0.0800 
 29 H        2.3080    -2.2280     2.2050 H     1 <1>   0.0800 
 30 H        3.4100    -1.9360     0.8860 H     1 <1>   0.0800 
 31 H        3.1400    -0.1950    -2.5850 H     1 <1>   0.1500 
 32 H        3.2080     0.7160     1.5620 H     1 <1>   0.1500 
 33 H       -0.1180    -3.2830    -0.7980 H     1 <1>   0.0800 
 34 H       -1.2060    -3.6010     0.5190 H     1 <1>   0.0800 
 35 H        2.9480    -4.3470     1.1560 H     1 <1>   0.0800 
 36 H        2.4630    -3.7520    -0.4030 H     1 <1>   0.0800 
 37 H        5.4140     0.6960    -2.8270 H     1 <1>   0.1500 
 38 H        5.4830     1.6080     1.3380 H     1 <1>   0.1500 
 39 H        0.7060    -5.2100     0.4720 H     1 <1>   0.0800 
 40 H        0.6420    -4.3000     1.9560 H     1 <1>   0.0800 
 41 H        7.5060     1.3620    -1.7620 H     1 <1>   0.0800 
 42 H        7.5970     1.5030    -0.0220 H     1 <1>   0.0800 
 43 H        5.9280     3.5290    -1.0890 H     1 <1>   0.4000 
 44 H        6.5330     5.7860    -0.6180 H     1 <1>   0.1500 
 45 H       10.7690     4.1330     0.7000 H     1 <1>   0.1500 
 46 H        9.0300     9.5100     0.1370 H     1 <1>   0.0800 
 47 H       10.1810     8.2060     0.1790 H     1 <1>   0.0800 
 48 H        6.1120     7.4530     0.9300 H     1 <1>   0.0800 
 49 H        6.4840     8.4580    -0.4630 H     1 <1>   0.0800 
 50 H        6.7740     9.0490     1.1600 H     1 <1>   0.0800 
 51 H        8.6560     9.2680     2.5820 H     1 <1>   0.0800 
 52 H       10.3480     9.5280     2.2390 H     1 <1>   0.0800 
 53 H        9.7780     7.9200     2.6090 H     1 <1>   0.0800 
@<TRIPOS>BOND
  1   1   2  2   
  2   2   3  am  
  3   2   4  1   
  4   3   5  1   
  5   3   6  1   
  6   4   7  ar  
  7   4   8  ar  
  8   5   9  1   
  9   5  27  1   
 10   5  28  1   
 11   6  10  1   
 12   6  29  1   
 13   6  30  1   
 14   7  11  ar  
 15   7  31  1   
 16   8  12  ar  
 17   8  32  1   
 18   9  13  1   
 19   9  33  1   
 20   9  34  1   
 21  10  13  1   
 22  10  35  1   
 23  10  36  1   
 24  11  14  ar  
 25  11  37  1   
 26  12  14  ar  
 27  12  38  1   
 28  13  39  1   
 29  13  40  1   
 30  14  15  1   
 31  15  16  1   
 32  15  41  1   
 33  15  42  1   
 34  16  17  1   
 35  16  43  1   
 36  17  18  ar  
 37  17  19  ar  
 38  18  20  ar  
 39  19  21  ar  
 40  19  44  1   
 41  20  22  ar  
 42  20  45  1   
 43  21  22  ar  
 44  21  23  1   
 45  23  24  1   
 46  23  25  1   
 47  24  26  1   
 48  24  46  1   
 49  24  47  1   
 50  25  48  1   
 51  25  49  1   
 52  25  50  1   
 53  26  51  1   
 54  26  52  1   
 55  26  53  1   
@<TRIPOS>SUBSTRUCTURE
  1 ****  12 GROUP 4 **** **** 0

# MOE 2024.06 (io_trps.svl 2023.06)
