@<TRIPOS>MOLECULE
NONAME
46 49 1 0 0 
SMALL
USER_CHARGES


@<TRIPOS>ATOM
  1 O        0.0380     0.0040    -2.2900 O.2   1 <1>  -0.5700 
  2 C       -0.7270     0.8320    -1.8530 C.2   1 <1>   0.5690 
  3 N       -1.8820     0.4570    -1.2140 N.am  1 <1>  -0.6600 
  4 C       -0.3760     2.2930    -2.0780 C.3   1 <1>   0.1570 
  5 C       -2.8940     1.3540    -0.5960 C.3   1 <1>   0.1400 
  6 C       -2.2060    -0.9630    -0.9370 C.3   1 <1>   0.1400 
  7 N       -0.2050     3.0140    -0.8000 N.pl3 1 <1>   0.0480 
  8 C       -4.0050     0.4180    -0.1260 C.3   1 <1>   0.2000 
  9 C       -3.3200    -0.9250     0.1120 C.3   1 <1>  -0.0800 
 10 C       -0.9610     4.0750    -0.3490 C.ar  1 <1>  -0.1520 
 11 C        0.6770     2.6820     0.1900 C.2   1 <1>  -0.3020 
 12 O       -4.6000     0.8690     1.0400 O.3   1 <1>  -0.6800 
 13 C       -4.2870    -2.1150     0.0320 C.3   1 <1>   0.0200 
 14 C       -0.5420     4.3920     0.9400 C.ar  1 <1>   0.0000 
 15 C       -1.9970     4.7970    -0.9530 C.ar  1 <1>  -0.1500 
 16 C        0.5010     3.4980     1.2550 C.2   1 <1>  -0.1500 
 17 C       -3.5480    -3.4300     0.1810 C.2   1 <1>  -0.0400 
 18 C       -1.1620     5.4300     1.6410 C.ar  1 <1>  -0.1500 
 19 C       -2.6000     5.8160    -0.2530 C.ar  1 <1>  -0.1500 
 20 O       -2.9010    -3.6950     1.2850 O.3   1 <1>  -0.0190 
 21 C       -3.3920    -4.4730    -0.6480 C.2   1 <1>  -0.1500 
 22 C       -2.1830     6.1330     1.0460 C.ar  1 <1>  -0.1500 
 23 N       -2.3170    -4.8570     1.2370 N.2   1 <1>  -0.4100 
 24 C       -2.5970    -5.3490     0.0840 C.2   1 <1>   0.1080 
 25 C       -2.1180    -6.6990    -0.4020 C.3   1 <1>  -0.0590 
 26 H       -1.1490     2.7560    -2.6570 H     1 <1>   0.0800 
 27 H        0.5450     2.3530    -2.6260 H     1 <1>   0.0800 
 28 H       -2.4530     1.8610     0.2460 H     1 <1>   0.0800 
 29 H       -3.2660     2.0660    -1.3110 H     1 <1>   0.0800 
 30 H       -2.5460    -1.4270    -1.8470 H     1 <1>   0.0800 
 31 H       -1.3410    -1.4930    -0.5710 H     1 <1>   0.0800 
 32 H       -4.7630     0.3420    -0.8870 H     1 <1>   0.0800 
 33 H       -2.8440    -0.9170     1.0780 H     1 <1>   0.0800 
 34 H        1.3810     1.8740     0.0770 H     1 <1>   0.1500 
 35 H       -3.9340     0.9690     1.7480 H     1 <1>   0.4000 
 36 H       -4.8040    -2.1060    -0.9110 H     1 <1>   0.0800 
 37 H       -5.0210    -2.0350     0.8150 H     1 <1>   0.0800 
 38 H       -2.3170     4.5640    -1.9520 H     1 <1>   0.1500 
 39 H        1.0340     3.4980     2.1890 H     1 <1>   0.1500 
 40 H       -0.8280     5.6630     2.6360 H     1 <1>   0.1500 
 41 H       -3.3990     6.3840    -0.6970 H     1 <1>   0.1500 
 42 H       -3.7700    -4.6300    -1.6410 H     1 <1>   0.1500 
 43 H       -2.6710     6.9340     1.5720 H     1 <1>   0.1500 
 44 H       -2.9620    -7.3260    -0.6270 H     1 <1>   0.0800 
 45 H       -1.5250    -7.1740     0.3580 H     1 <1>   0.0800 
 46 H       -1.5200    -6.5770    -1.2860 H     1 <1>   0.0800 
@<TRIPOS>BOND
  1   1   2  2   
  2   2   3  am  
  3   2   4  1   
  4   3   5  1   
  5   3   6  1   
  6   4   7  1   
  7   4  26  1   
  8   4  27  1   
  9   5   8  1   
 10   5  28  1   
 11   5  29  1   
 12   6   9  1   
 13   6  30  1   
 14   6  31  1   
 15   7  10  1   
 16   7  11  1   
 17   8   9  1   
 18   8  12  1   
 19   8  32  1   
 20   9  13  1   
 21   9  33  1   
 22  10  14  ar  
 23  10  15  ar  
 24  11  16  2   
 25  11  34  1   
 26  12  35  1   
 27  13  17  1   
 28  13  36  1   
 29  13  37  1   
 30  14  16  1   
 31  14  18  ar  
 32  15  19  ar  
 33  15  38  1   
 34  16  39  1   
 35  17  20  1   
 36  17  21  2   
 37  18  22  ar  
 38  18  40  1   
 39  19  22  ar  
 40  19  41  1   
 41  20  23  1   
 42  21  24  1   
 43  21  42  1   
 44  22  43  1   
 45  23  24  2   
 46  24  25  1   
 47  25  44  1   
 48  25  45  1   
 49  25  46  1   
@<TRIPOS>SUBSTRUCTURE
  1 ****   3 GROUP 4 **** **** 0

# MOE 2024.06 (io_trps.svl 2023.06)
