@<TRIPOS>MOLECULE
NONAME
43 45 1 0 0 
SMALL
USER_CHARGES


@<TRIPOS>ATOM
  1 S        0.3350    -0.2160     2.1650 S.o2  1 <1>   1.4470 
  2 O       -0.2260     0.8270     2.9960 O.2   1 <1>  -0.6500 
  3 O        0.9590    -1.3600     2.7930 O.2   1 <1>  -0.6500 
  4 N        1.5070     0.4960     1.1690 N.am  1 <1>  -0.8490 
  5 C       -0.9300    -0.7740     0.9880 C.ar  1 <1>  -0.0090 
  6 C        2.3620     1.4530     1.9060 C.3   1 <1>   0.1960 
  7 C        2.2760    -0.5040     0.4080 C.3   1 <1>   0.1960 
  8 C       -1.6630    -1.9300     1.2270 C.ar  1 <1>  -0.1500 
  9 C       -1.2100    -0.0570    -0.1730 C.ar  1 <1>  -0.1500 
 10 C        3.2540     2.3740     1.0290 C.3   1 <1>   0.2200 
 11 C        3.1040     0.0820    -0.7530 C.3   1 <1>  -0.0190 
 12 C       -2.6280    -2.3460     0.3290 C.ar  1 <1>   0.1900 
 13 C       -2.1770    -0.4790    -1.0710 C.ar  1 <1>  -0.1500 
 14 N        2.7430     2.5280    -0.3710 N.am  1 <1>  -0.6600 
 15 C        4.7320     1.9340     1.0300 C.3   1 <1>   0.1200 
 16 C        2.6150     1.4470    -1.2020 C.2   1 <1>   0.5690 
 17 C        4.6120     0.1050    -0.4690 C.3   1 <1>   0.1200 
 18 F       -3.2640    -3.4480     0.6340 F     1 <1>  -0.1900 
 19 C       -2.9080    -1.6330    -0.8420 C.ar  1 <1>   0.0830 
 20 C        2.2230     3.8740    -0.7380 C.3   1 <1>   0.0600 
 21 O        4.8890     0.5620     0.8180 O.3   1 <1>  -0.5600 
 22 O        2.1370     1.5360    -2.3090 O.2   1 <1>  -0.5700 
 23 O       -3.8280    -1.9440    -1.7970 O.3   1 <1>  -0.3630 
 24 C       -4.6790    -3.0650    -1.7130 C.3   1 <1>   0.0400 
 25 H        1.7280     2.1110     2.4740 H     1 <1>   0.0800 
 26 H        2.9700     0.9210     2.6200 H     1 <1>   0.0800 
 27 H        2.9130    -1.0630     1.0760 H     1 <1>   0.0800 
 28 H        1.5820    -1.2060    -0.0240 H     1 <1>   0.0800 
 29 H       -1.4810    -2.5100     2.1150 H     1 <1>   0.1500 
 30 H       -0.6610     0.8480    -0.3820 H     1 <1>   0.1500 
 31 H        3.2430     3.3460     1.4890 H     1 <1>   0.0800 
 32 H        2.9780    -0.5780    -1.5910 H     1 <1>   0.0800 
 33 H       -2.3690     0.0920    -1.9630 H     1 <1>   0.1500 
 34 H        5.1570     2.1420     1.9960 H     1 <1>   0.0800 
 35 H        5.2970     2.4770     0.2920 H     1 <1>   0.0800 
 36 H        5.1380     0.7140    -1.1850 H     1 <1>   0.0800 
 37 H        5.0000    -0.8970    -0.5280 H     1 <1>   0.0800 
 38 H        2.9990     4.6090    -0.6260 H     1 <1>   0.0800 
 39 H        1.3940     4.1270    -0.1010 H     1 <1>   0.0800 
 40 H        1.8850     3.8860    -1.7610 H     1 <1>   0.0800 
 41 H       -5.3120    -3.0700    -2.5810 H     1 <1>   0.0800 
 42 H       -5.2800    -2.9840    -0.8240 H     1 <1>   0.0800 
 43 H       -4.0810    -3.9590    -1.6940 H     1 <1>   0.0800 
@<TRIPOS>BOND
  1   1   2  2   
  2   1   3  2   
  3   1   4  am  
  4   1   5  1   
  5   4   6  1   
  6   4   7  1   
  7   5   8  ar  
  8   5   9  ar  
  9   6  10  1   
 10   6  25  1   
 11   6  26  1   
 12   7  11  1   
 13   7  27  1   
 14   7  28  1   
 15   8  12  ar  
 16   8  29  1   
 17   9  13  ar  
 18   9  30  1   
 19  10  14  1   
 20  10  15  1   
 21  10  31  1   
 22  11  16  1   
 23  11  17  1   
 24  11  32  1   
 25  12  18  1   
 26  12  19  ar  
 27  13  19  ar  
 28  13  33  1   
 29  14  16  am  
 30  14  20  1   
 31  15  21  1   
 32  15  34  1   
 33  15  35  1   
 34  16  22  2   
 35  17  21  1   
 36  17  36  1   
 37  17  37  1   
 38  19  23  1   
 39  20  38  1   
 40  20  39  1   
 41  20  40  1   
 42  23  24  1   
 43  24  41  1   
 44  24  42  1   
 45  24  43  1   
@<TRIPOS>SUBSTRUCTURE
  1 ****   4 GROUP 4 **** **** 0

# MOE 2024.06 (io_trps.svl 2023.06)
