@<TRIPOS>MOLECULE
NONAME
42 44 1 0 0 
SMALL
USER_CHARGES


@<TRIPOS>ATOM
  1 F       -0.6170    -0.1570    -0.2100 F     1 <1>  -0.1900 
  2 C       -1.6410    -0.9820    -0.1320 C.ar  1 <1>   0.1900 
  3 C       -2.9430    -0.5230     0.0710 C.ar  1 <1>   0.4100 
  4 C       -1.4190    -2.3240    -0.2680 C.ar  1 <1>   0.1600 
  5 N       -3.9360    -1.3930     0.1220 N.ar  1 <1>  -0.6200 
  6 N       -3.2790     0.8210     0.2280 N.pl3 1 <1>  -0.8380 
  7 N       -2.4070    -3.1970    -0.2110 N.ar  1 <1>  -0.6200 
  8 C       -3.6100    -2.6670    -0.0120 C.ar  1 <1>   0.7200 
  9 C       -2.4980     1.6990     1.1410 C.3   1 <1>   0.1290 
 10 C       -4.6510     1.3040    -0.0890 C.3   1 <1>   0.1290 
 11 N       -4.6670    -3.5090     0.0580 N.pl3 1 <1>  -0.8690 
 12 C       -4.6830    -4.8160    -0.6180 C.3   1 <1>   0.2090 
 13 C       -6.0240    -5.4910    -0.3500 C.3   1 <1>  -0.1600 
 14 C       -6.0600    -6.8900    -0.9760 C.3   1 <1>   0.0960 
 15 N       -7.3780    -7.5190    -0.7720 N.pl3 1 <1>   0.3140 
 16 N       -8.3400    -7.4650    -1.7200 N.2   1 <1>  -0.7070 
 17 C       -7.7960    -8.1980     0.3390 C.ar  1 <1>  -0.1520 
 18 C       -9.3440    -8.1000    -1.2150 C.2   1 <1>   0.1390 
 19 C       -9.0900    -8.5930     0.0750 C.ar  1 <1>   0.0000 
 20 C       -7.1810    -8.5110     1.5580 C.ar  1 <1>  -0.1500 
 21 C       -9.8070    -9.3220     1.0340 C.ar  1 <1>  -0.1500 
 22 C       -7.8910    -9.2260     2.4930 C.ar  1 <1>  -0.1500 
 23 C       -9.2070    -9.6320     2.2310 C.ar  1 <1>  -0.1500 
 24 H       -0.4200    -2.6880    -0.4260 H     1 <1>   0.1500 
 25 H       -1.7790     1.1230     1.6960 H     1 <1>   0.0800 
 26 H       -3.1570     2.1830     1.8410 H     1 <1>   0.0800 
 27 H       -1.9810     2.4470     0.5660 H     1 <1>   0.0800 
 28 H       -5.0680     0.7300    -0.9000 H     1 <1>   0.0800 
 29 H       -4.6190     2.3380    -0.3830 H     1 <1>   0.0800 
 30 H       -5.2830     1.1950     0.7750 H     1 <1>   0.0800 
 31 H       -5.5420    -2.9870     0.0400 H     1 <1>   0.4000 
 32 H       -3.8780    -5.4210    -0.2330 H     1 <1>   0.0800 
 33 H       -4.5340    -4.6740    -1.6760 H     1 <1>   0.0800 
 34 H       -6.8120    -4.8950    -0.7760 H     1 <1>   0.0800 
 35 H       -6.1730    -5.5710     0.7130 H     1 <1>   0.0800 
 36 H       -5.3080    -7.5210    -0.5390 H     1 <1>   0.0800 
 37 H       -5.8840    -6.8270    -2.0350 H     1 <1>   0.0800 
 38 H      -10.2820    -8.2410    -1.7240 H     1 <1>   0.1500 
 39 H       -6.1720    -8.1950     1.7540 H     1 <1>   0.1500 
 40 H      -10.8150    -9.6250     0.8170 H     1 <1>   0.1500 
 41 H       -7.4450    -9.4810     3.4390 H     1 <1>   0.1500 
 42 H       -9.7400   -10.1900     2.9800 H     1 <1>   0.1500 
@<TRIPOS>BOND
  1   1   2  1   
  2   2   3  ar  
  3   2   4  ar  
  4   3   5  ar  
  5   3   6  1   
  6   4   7  ar  
  7   4  24  1   
  8   5   8  ar  
  9   6   9  1   
 10   6  10  1   
 11   7   8  ar  
 12   8  11  1   
 13   9  25  1   
 14   9  26  1   
 15   9  27  1   
 16  10  28  1   
 17  10  29  1   
 18  10  30  1   
 19  11  12  1   
 20  11  31  1   
 21  12  13  1   
 22  12  32  1   
 23  12  33  1   
 24  13  14  1   
 25  13  34  1   
 26  13  35  1   
 27  14  15  1   
 28  14  36  1   
 29  14  37  1   
 30  15  16  1   
 31  15  17  1   
 32  16  18  2   
 33  17  19  ar  
 34  17  20  ar  
 35  18  19  1   
 36  18  38  1   
 37  19  21  ar  
 38  20  22  ar  
 39  20  39  1   
 40  21  23  ar  
 41  21  40  1   
 42  22  23  ar  
 43  22  41  1   
 44  23  42  1   
@<TRIPOS>SUBSTRUCTURE
  1 ****  12 GROUP 4 **** **** 0

# MOE 2024.06 (io_trps.svl 2023.06)
