@<TRIPOS>MOLECULE
NONAME
44 46 1 0 0 
SMALL
USER_CHARGES


@<TRIPOS>ATOM
  1 CL      -0.4100    -0.2320    -0.7120 Cl    1 <1>  -0.1770 
  2 C       -0.4720    -1.5330     0.4520 C.ar  1 <1>   0.1770 
  3 C       -1.5360    -2.4290     0.4870 C.ar  1 <1>  -0.0090 
  4 C        0.5900    -1.6170     1.3350 C.ar  1 <1>  -0.1500 
  5 S       -2.9270    -2.3100    -0.6640 S.o2  1 <1>   1.4470 
  6 C       -1.5000    -3.4290     1.4580 C.ar  1 <1>  -0.1500 
  7 C        0.5910    -2.6210     2.2800 C.ar  1 <1>   0.1770 
  8 O       -2.4220    -2.2230    -2.0180 O.2   1 <1>  -0.6500 
  9 O       -3.8460    -3.3810    -0.3480 O.2   1 <1>  -0.6500 
 10 N       -3.6390    -0.8260    -0.2390 N.am  1 <1>  -0.8490 
 11 C       -0.4460    -3.5310     2.3520 C.ar  1 <1>  -0.1500 
 12 CL       1.9200    -2.7440     3.4020 Cl    1 <1>  -0.1770 
 13 C       -4.7660    -0.8400     0.7160 C.3   1 <1>   0.1960 
 14 C       -3.7530     0.1810    -1.2920 C.3   1 <1>   0.1960 
 15 C       -6.1820    -0.8640     0.0710 C.3   1 <1>   0.0000 
 16 C       -5.0600     0.0040    -2.0610 C.3   1 <1>  -0.1600 
 17 C       -7.2670    -0.5000     1.1080 C.3   1 <1>   0.2000 
 18 C       -6.2600     0.1330    -1.1140 C.3   1 <1>  -0.1600 
 19 C       -6.6240    -2.2700    -0.3760 C.3   1 <1>  -0.1600 
 20 O       -6.9500    -1.0870     2.3380 O.3   1 <1>  -0.5600 
 21 C       -8.5660    -1.1220     0.5780 C.3   1 <1>  -0.1600 
 22 C       -8.1550    -2.2760    -0.3440 C.3   1 <1>  -0.1600 
 23 C       -7.5390    -0.4900     3.4510 C.3   1 <1>   0.0400 
 24 H        1.4000    -0.9130     1.2870 H     1 <1>   0.1500 
 25 H       -2.3090    -4.1410     1.5180 H     1 <1>   0.1500 
 26 H       -0.4270    -4.3070     3.0970 H     1 <1>   0.1500 
 27 H       -4.6590    -1.6660     1.3990 H     1 <1>   0.0800 
 28 H       -4.6940     0.0570     1.3060 H     1 <1>   0.0800 
 29 H       -3.7390     1.1570    -0.8380 H     1 <1>   0.0800 
 30 H       -2.9140     0.1310    -1.9660 H     1 <1>   0.0800 
 31 H       -5.1230     0.7600    -2.8230 H     1 <1>   0.0800 
 32 H       -5.0600    -0.9530    -2.5540 H     1 <1>   0.0800 
 33 H       -7.3460     0.5660     1.2410 H     1 <1>   0.0800 
 34 H       -7.1690    -0.0060    -1.6720 H     1 <1>   0.0800 
 35 H       -6.2710     1.1380    -0.7280 H     1 <1>   0.0800 
 36 H       -6.2390    -2.5500    -1.3400 H     1 <1>   0.0800 
 37 H       -6.2820    -2.9910     0.3470 H     1 <1>   0.0800 
 38 H       -9.2060    -1.4630     1.3710 H     1 <1>   0.0800 
 39 H       -9.0970    -0.3860     0.0000 H     1 <1>   0.0800 
 40 H       -8.5180    -3.2190     0.0270 H     1 <1>   0.0800 
 41 H       -8.5480    -2.1160    -1.3340 H     1 <1>   0.0800 
 42 H       -7.2380    -1.0430     4.3230 H     1 <1>   0.0800 
 43 H       -8.6100    -0.5220     3.3550 H     1 <1>   0.0800 
 44 H       -7.1960     0.5270     3.5310 H     1 <1>   0.0800 
@<TRIPOS>BOND
  1   1   2  1   
  2   2   3  ar  
  3   2   4  ar  
  4   3   5  1   
  5   3   6  ar  
  6   4   7  ar  
  7   4  24  1   
  8   5   8  2   
  9   5   9  2   
 10   5  10  am  
 11   6  11  ar  
 12   6  25  1   
 13   7  11  ar  
 14   7  12  1   
 15  10  13  1   
 16  10  14  1   
 17  11  26  1   
 18  13  15  1   
 19  13  27  1   
 20  13  28  1   
 21  14  16  1   
 22  14  29  1   
 23  14  30  1   
 24  15  17  1   
 25  15  18  1   
 26  15  19  1   
 27  16  18  1   
 28  16  31  1   
 29  16  32  1   
 30  17  20  1   
 31  17  21  1   
 32  17  33  1   
 33  18  34  1   
 34  18  35  1   
 35  19  22  1   
 36  19  36  1   
 37  19  37  1   
 38  20  23  1   
 39  21  22  1   
 40  21  38  1   
 41  21  39  1   
 42  22  40  1   
 43  22  41  1   
 44  23  42  1   
 45  23  43  1   
 46  23  44  1   
@<TRIPOS>SUBSTRUCTURE
  1 ****  10 GROUP 4 **** **** 0

# MOE 2024.06 (io_trps.svl 2023.06)
