@<TRIPOS>MOLECULE
NONAME
45 48 1 0 0 
SMALL
USER_CHARGES


@<TRIPOS>ATOM
  1 O       -0.5420     0.2820    -0.2560 O.2   1 <1>  -0.5700 
  2 C       -1.6330     0.8030    -0.2810 C.2   1 <1>   0.5770 
  3 N       -2.7730     0.0480    -0.3550 N.am  1 <1>  -0.6600 
  4 C       -1.7380     2.3270    -0.2400 C.3   1 <1>   0.0530 
  5 C       -4.1660     0.5540    -0.4120 C.3   1 <1>   0.1400 
  6 C       -2.7500    -1.4340    -0.3970 C.3   1 <1>   0.1400 
  7 C       -0.4170     3.1200    -0.0210 C.3   1 <1>   0.0000 
  8 C       -2.2070     2.9020     1.1230 C.3   1 <1>   0.0000 
  9 C       -5.0380    -0.6950    -0.5470 C.3   1 <1>   0.2000 
 10 C       -4.1790    -1.8580    -0.0540 C.3   1 <1>  -0.0800 
 11 C       -1.2400     4.0870     0.8680 C.3   1 <1>   0.0000 
 12 O       -6.1880    -0.5970     0.2200 O.3   1 <1>  -0.6800 
 13 C       -4.5940    -3.2050    -0.6680 C.3   1 <1>  -0.0160 
 14 C       -3.7140    -4.3360    -0.1660 C.ar  1 <1>   0.1670 
 15 N       -2.6260    -4.5860    -0.8290 N.ar  1 <1>  -0.6200 
 16 C       -4.1060    -5.0450     0.9810 C.ar  1 <1>  -0.1500 
 17 C       -1.8250    -5.5840    -0.3770 C.ar  1 <1>   0.3100 
 18 C       -3.3230    -6.0530     1.4550 C.ar  1 <1>  -0.1500 
 19 C       -2.1340    -6.3510     0.7680 C.ar  1 <1>   0.0000 
 20 C       -0.6380    -5.8680    -1.0700 C.ar  1 <1>  -0.1500 
 21 C       -1.2470    -7.3690     1.1710 C.ar  1 <1>  -0.1500 
 22 C        0.2120    -6.8620    -0.6620 C.ar  1 <1>  -0.1500 
 23 C       -0.0980    -7.6210     0.4710 C.ar  1 <1>  -0.1500 
 24 H       -2.3050     2.7300    -1.0630 H     1 <1>   0.0000 
 25 H       -4.3920     1.0820     0.4980 H     1 <1>   0.0800 
 26 H       -4.2950     1.2010    -1.2620 H     1 <1>   0.0800 
 27 H       -2.4800    -1.7530    -1.3900 H     1 <1>   0.0800 
 28 H       -2.0370    -1.8330     0.3050 H     1 <1>   0.0800 
 29 H        0.3270     2.5870     0.5480 H     1 <1>   0.0000 
 30 H       -0.0290     3.5760    -0.9140 H     1 <1>   0.0000 
 31 H       -3.2440     3.1870     1.1440 H     1 <1>   0.0000 
 32 H       -1.9090     2.2970     1.9630 H     1 <1>   0.0000 
 33 H       -5.3250    -0.8280    -1.5770 H     1 <1>   0.0800 
 34 H       -4.2390    -1.9220     1.0180 H     1 <1>   0.0800 
 35 H       -1.6960     4.8830     0.3050 H     1 <1>   0.0000 
 36 H       -0.7190     4.4210     1.7470 H     1 <1>   0.0000 
 37 H       -5.9600    -0.5140     1.1660 H     1 <1>   0.4000 
 38 H       -4.5220    -3.1570    -1.7410 H     1 <1>   0.0800 
 39 H       -5.6210    -3.4120    -0.4230 H     1 <1>   0.0800 
 40 H       -5.0230    -4.7800     1.4750 H     1 <1>   0.1500 
 41 H       -3.5900    -6.6180     2.3300 H     1 <1>   0.1500 
 42 H       -0.4170    -5.2730    -1.9370 H     1 <1>   0.1500 
 43 H       -1.4910    -7.9480     2.0430 H     1 <1>   0.1500 
 44 H        1.1200    -7.0680    -1.2030 H     1 <1>   0.1500 
 45 H        0.5790    -8.3990     0.7810 H     1 <1>   0.1500 
@<TRIPOS>BOND
  1   1   2  2   
  2   2   3  am  
  3   2   4  1   
  4   3   5  1   
  5   3   6  1   
  6   4   7  1   
  7   4   8  1   
  8   4  24  1   
  9   5   9  1   
 10   5  25  1   
 11   5  26  1   
 12   6  10  1   
 13   6  27  1   
 14   6  28  1   
 15   7  11  1   
 16   7  29  1   
 17   7  30  1   
 18   8  11  1   
 19   8  31  1   
 20   8  32  1   
 21   9  10  1   
 22   9  12  1   
 23   9  33  1   
 24  10  13  1   
 25  10  34  1   
 26  11  35  1   
 27  11  36  1   
 28  12  37  1   
 29  13  14  1   
 30  13  38  1   
 31  13  39  1   
 32  14  15  ar  
 33  14  16  ar  
 34  15  17  ar  
 35  16  18  ar  
 36  16  40  1   
 37  17  19  ar  
 38  17  20  ar  
 39  18  19  ar  
 40  18  41  1   
 41  19  21  ar  
 42  20  22  ar  
 43  20  42  1   
 44  21  23  ar  
 45  21  43  1   
 46  22  23  ar  
 47  22  44  1   
 48  23  45  1   
@<TRIPOS>SUBSTRUCTURE
  1 ****   6 GROUP 4 **** **** 0

# MOE 2024.06 (io_trps.svl 2023.06)
