@<TRIPOS>MOLECULE
NONAME
46 48 1 0 0 
SMALL
USER_CHARGES


@<TRIPOS>ATOM
  1 O       -1.9080    -1.0820     3.0650 O.2   1 <1>  -0.5700 
  2 C       -2.6250    -1.4320     2.1560 C.2   1 <1>   0.6900 
  3 N       -3.9720    -1.3740     2.2680 N.am  1 <1>  -0.4900 
  4 N       -2.1010    -1.8960     0.9870 N.am  1 <1>  -0.5390 
  5 C       -4.8090    -1.7610     1.2680 C.2   1 <1>   0.6160 
  6 C       -2.8810    -2.3130    -0.0770 C.2   1 <1>  -0.0290 
  7 O       -6.0030    -1.6570     1.4670 O.2   1 <1>  -0.5700 
  8 C       -4.2360    -2.2590     0.0460 C.2   1 <1>  -0.1240 
  9 C       -2.0890    -2.7990    -1.2810 C.3   1 <1>  -0.1020 
 10 C       -5.2010    -2.7040    -1.0580 C.3   1 <1>   0.0390 
 11 C       -5.2730    -4.2190    -1.1950 C.2   1 <1>   0.5690 
 12 O       -4.6640    -4.7230    -2.1100 O.2   1 <1>  -0.5700 
 13 N       -6.0080    -4.9870    -0.3330 N.am  1 <1>  -0.6600 
 14 C       -6.8760    -4.5190     0.7790 C.3   1 <1>   0.1400 
 15 C       -6.1100    -6.4590    -0.4870 C.3   1 <1>   0.1400 
 16 C       -7.7500    -5.7250     1.1210 C.3   1 <1>   0.2000 
 17 C       -6.9280    -6.9430     0.7110 C.3   1 <1>  -0.0800 
 18 O       -8.0490    -5.7780     2.4720 O.3   1 <1>  -0.6800 
 19 C       -7.7910    -8.1780     0.4100 C.3   1 <1>   0.0210 
 20 C       -6.9410    -9.3250    -0.0990 C.2   1 <1>   0.1080 
 21 N       -6.0580    -9.9260     0.6360 N.2   1 <1>  -0.7070 
 22 C       -6.9980    -9.8480    -1.3870 C.2   1 <1>  -0.1500 
 23 N       -5.5220   -10.8610    -0.1720 N.pl3 1 <1>   0.3000 
 24 C       -6.0750   -10.8320    -1.4030 C.2   1 <1>  -0.3320 
 25 C       -5.6790   -11.7600    -2.5370 C.3   1 <1>  -0.0600 
 26 H       -4.3690    -1.0100     3.1260 H     1 <1>   0.3700 
 27 H       -1.0810    -1.9240     0.9560 H     1 <1>   0.3700 
 28 H       -1.3800    -2.0490    -1.5820 H     1 <1>   0.0800 
 29 H       -2.7150    -3.0160    -2.1250 H     1 <1>   0.0800 
 30 H       -1.5550    -3.6970    -1.0260 H     1 <1>   0.0800 
 31 H       -4.8740    -2.2960    -1.9960 H     1 <1>   0.0800 
 32 H       -6.1900    -2.3180    -0.9010 H     1 <1>   0.0800 
 33 H       -6.2600    -4.2530     1.6190 H     1 <1>   0.0800 
 34 H       -7.4820    -3.6830     0.4770 H     1 <1>   0.0800 
 35 H       -6.6130    -6.6780    -1.4140 H     1 <1>   0.0800 
 36 H       -5.1330    -6.9130    -0.5020 H     1 <1>   0.0800 
 37 H       -8.6740    -5.6690     0.5710 H     1 <1>   0.0800 
 38 H       -6.2280    -7.1880     1.4910 H     1 <1>   0.0800 
 39 H       -7.2390    -5.9410     2.9930 H     1 <1>   0.4000 
 40 H       -8.5390    -7.9370    -0.3240 H     1 <1>   0.0800 
 41 H       -8.2930    -8.4920     1.3070 H     1 <1>   0.0800 
 42 H       -7.6460    -9.5200    -2.1790 H     1 <1>   0.1500 
 43 H       -4.7840   -11.5000     0.1460 H     1 <1>   0.2700 
 44 H       -6.2600   -11.5390    -3.4150 H     1 <1>   0.0800 
 45 H       -5.8540   -12.7840    -2.2590 H     1 <1>   0.0800 
 46 H       -4.6380   -11.6330    -2.7760 H     1 <1>   0.0800 
@<TRIPOS>BOND
  1   1   2  2   
  2   2   3  am  
  3   2   4  am  
  4   3   5  am  
  5   3  26  1   
  6   4   6  1   
  7   4  27  1   
  8   5   7  2   
  9   5   8  1   
 10   6   8  2   
 11   6   9  1   
 12   8  10  1   
 13   9  28  1   
 14   9  29  1   
 15   9  30  1   
 16  10  11  1   
 17  10  31  1   
 18  10  32  1   
 19  11  12  2   
 20  11  13  am  
 21  13  14  1   
 22  13  15  1   
 23  14  16  1   
 24  14  33  1   
 25  14  34  1   
 26  15  17  1   
 27  15  35  1   
 28  15  36  1   
 29  16  17  1   
 30  16  18  1   
 31  16  37  1   
 32  17  19  1   
 33  17  38  1   
 34  18  39  1   
 35  19  20  1   
 36  19  40  1   
 37  19  41  1   
 38  20  21  2   
 39  20  22  1   
 40  21  23  1   
 41  22  24  2   
 42  22  42  1   
 43  23  24  1   
 44  23  43  1   
 45  24  25  1   
 46  25  44  1   
 47  25  45  1   
 48  25  46  1   
@<TRIPOS>SUBSTRUCTURE
  1 ****  13 GROUP 4 **** **** 0

# MOE 2024.06 (io_trps.svl 2023.06)
