@<TRIPOS>MOLECULE
NONAME
43 44 1 0 0 
SMALL
USER_CHARGES


@<TRIPOS>ATOM
  1 O       -1.6540     6.8910    -1.0430 O.co2 1 <1>  -0.9000 
  2 C       -2.1380     6.0100    -0.2940 C.2   1 <1>   0.9790 
  3 O       -3.3710     5.8570    -0.2780 O.co2 1 <1>  -0.9000 
  4 C       -1.2370     5.1780     0.5040 C.ar  1 <1>   0.1310 
  5 N        0.0560     5.4760     0.5360 N.ar  1 <1>  -0.6200 
  6 C       -1.6720     4.0690     1.2060 C.ar  1 <1>  -0.1500 
  7 C        0.8820     4.6720     1.1700 C.ar  1 <1>   0.7200 
  8 C       -0.7440     3.3040     1.8730 C.ar  1 <1>   0.1660 
  9 N        0.5370     3.5870     1.8550 N.ar  1 <1>  -0.6200 
 10 N        2.2180     5.0150     1.0580 N.pl3 1 <1>  -0.8380 
 11 C       -1.1640     2.0810     2.6590 C.3   1 <1>  -0.0970 
 12 C        2.6350     6.3330     0.4640 C.3   1 <1>   0.2090 
 13 C        3.2870     4.2270     1.7290 C.3   1 <1>   0.2090 
 14 C        2.3060     6.4640    -1.0500 C.3   1 <1>   0.3430 
 15 C        4.0250     3.4070     0.6760 C.3   1 <1>  -0.2400 
 16 N        1.1050     7.3020    -1.4170 N.4   1 <1>  -0.9590 
 17 C        0.8370     7.2530    -2.8940 C.3   1 <1>   0.3430 
 18 C        1.1230     8.6960    -0.8660 C.3   1 <1>   0.3430 
 19 C       -0.1750     8.3080    -3.3880 C.3   1 <1>   0.1200 
 20 C        0.0470     9.6050    -1.4880 C.3   1 <1>   0.1200 
 21 O        0.1480     9.5700    -2.8810 O.3   1 <1>  -0.5600 
 22 H       -2.7190     3.8260     1.2100 H     1 <1>   0.1500 
 23 H       -2.2280     1.9390     2.6090 H     1 <1>   0.0800 
 24 H       -0.8750     2.1990     3.6870 H     1 <1>   0.0800 
 25 H       -0.6760     1.2120     2.2580 H     1 <1>   0.0800 
 26 H        3.6990     6.4340     0.5750 H     1 <1>   0.0800 
 27 H        2.1770     7.1280     1.0240 H     1 <1>   0.0800 
 28 H        2.8760     3.5670     2.4740 H     1 <1>   0.0800 
 29 H        3.9700     4.8900     2.2320 H     1 <1>   0.0800 
 30 H        2.1740     5.4680    -1.4380 H     1 <1>   0.0800 
 31 H        3.1670     6.8900    -1.5340 H     1 <1>   0.0800 
 32 H        3.3340     2.7450     0.1840 H     1 <1>   0.0800 
 33 H        4.7840     2.8120     1.1510 H     1 <1>   0.0800 
 34 H        4.4920     4.0460    -0.0490 H     1 <1>   0.0800 
 35 H        0.2390     6.8660    -0.9920 H     1 <1>   0.4500 
 36 H        0.4670     6.2750    -3.1540 H     1 <1>   0.0800 
 37 H        1.7580     7.4100    -3.4270 H     1 <1>   0.0800 
 38 H        2.0830     9.1440    -1.0500 H     1 <1>   0.0800 
 39 H        0.9660     8.6590     0.1990 H     1 <1>   0.0800 
 40 H       -1.1790     8.0560    -3.0910 H     1 <1>   0.0800 
 41 H       -0.1500     8.3680    -4.4610 H     1 <1>   0.0800 
 42 H        0.1920    10.6220    -1.1710 H     1 <1>   0.0800 
 43 H       -0.9420     9.2920    -1.1950 H     1 <1>   0.0800 
@<TRIPOS>BOND
  1   1   2  ar  
  2   2   3  ar  
  3   2   4  1   
  4   4   5  ar  
  5   4   6  ar  
  6   5   7  ar  
  7   6   8  ar  
  8   6  22  1   
  9   7   9  ar  
 10   7  10  1   
 11   8   9  ar  
 12   8  11  1   
 13  10  12  1   
 14  10  13  1   
 15  11  23  1   
 16  11  24  1   
 17  11  25  1   
 18  12  14  1   
 19  12  26  1   
 20  12  27  1   
 21  13  15  1   
 22  13  28  1   
 23  13  29  1   
 24  14  16  1   
 25  14  30  1   
 26  14  31  1   
 27  15  32  1   
 28  15  33  1   
 29  15  34  1   
 30  16  17  1   
 31  16  18  1   
 32  16  35  1   
 33  17  19  1   
 34  17  36  1   
 35  17  37  1   
 36  18  20  1   
 37  18  38  1   
 38  18  39  1   
 39  19  21  1   
 40  19  40  1   
 41  19  41  1   
 42  20  21  1   
 43  20  42  1   
 44  20  43  1   
@<TRIPOS>SUBSTRUCTURE
  1 ****   5 GROUP 4 **** **** 0

# MOE 2024.06 (io_trps.svl 2023.06)
