@<TRIPOS>MOLECULE
NONAME
42 44 1 0 0 
SMALL
USER_CHARGES


@<TRIPOS>ATOM
  1 S       -1.8780     0.2840    -1.4030 S.3   1 <1>  -0.0800 
  2 C       -1.7380    -1.1310    -0.3530 C.2   1 <1>  -0.0450 
  3 C       -1.3550     1.3770    -0.1400 C.2   1 <1>  -0.1400 
  4 C       -2.0670    -2.4300    -0.8830 C.2   1 <1>   0.7150 
  5 C       -1.3120    -0.7160     0.8690 C.2   1 <1>  -0.1500 
  6 C       -1.0980     0.6890     0.9880 C.2   1 <1>  -0.1500 
  7 C       -1.2800     2.8490    -0.5080 C.3   1 <1>   0.0200 
  8 O       -2.3890    -2.5980    -2.0440 O.2   1 <1>  -0.5700 
  9 N       -2.0360    -3.5180    -0.0630 N.am  1 <1>  -0.7300 
 10 C       -0.8130     3.7170     0.6640 C.3   1 <1>  -0.2400 
 11 C       -2.3820    -4.8980    -0.4680 C.3   1 <1>   0.2200 
 12 C       -3.8340    -5.1720    -0.1140 C.3   1 <1>  -0.0800 
 13 C       -1.6540    -5.8900     0.4300 C.3   1 <1>   0.1200 
 14 C       -3.7410    -5.6020     1.3560 C.3   1 <1>   0.1200 
 15 C       -4.4350    -6.2710    -1.0100 C.3   1 <1>  -0.0170 
 16 O       -2.4140    -5.9740     1.5970 O.3   1 <1>  -0.5600 
 17 C       -5.8990    -6.5180    -0.6800 C.ar  1 <1>  -0.1430 
 18 C       -6.3210    -7.6400     0.0030 C.ar  1 <1>  -0.1500 
 19 C       -6.8840    -5.6250    -1.0530 C.ar  1 <1>  -0.1500 
 20 C       -7.6680    -7.8080     0.2780 C.ar  1 <1>   0.1600 
 21 C       -8.2040    -5.8880    -0.7290 C.ar  1 <1>   0.1600 
 22 N       -8.6200    -6.9570    -0.0700 N.ar  1 <1>  -0.6200 
 23 H       -1.1340    -1.3600     1.7110 H     1 <1>   0.1500 
 24 H       -0.7600     1.1170     1.9160 H     1 <1>   0.1500 
 25 H       -0.6000     2.9670    -1.3330 H     1 <1>   0.0800 
 26 H       -2.2530     3.1770    -0.8290 H     1 <1>   0.0800 
 27 H       -1.8710    -3.3930     0.9350 H     1 <1>   0.3700 
 28 H        0.1690     3.4140     0.9830 H     1 <1>   0.0800 
 29 H       -1.4950     3.6250     1.4900 H     1 <1>   0.0800 
 30 H       -0.7730     4.7490     0.3640 H     1 <1>   0.0800 
 31 H       -2.1590    -5.0500    -1.5110 H     1 <1>   0.0800 
 32 H       -4.4320    -4.2830    -0.2170 H     1 <1>   0.0800 
 33 H       -0.6520    -5.5790     0.6700 H     1 <1>   0.0800 
 34 H       -1.6340    -6.8680    -0.0180 H     1 <1>   0.0800 
 35 H       -4.3830    -6.4320     1.5930 H     1 <1>   0.0800 
 36 H       -3.9710    -4.7780     2.0090 H     1 <1>   0.0800 
 37 H       -3.8800    -7.1870    -0.9020 H     1 <1>   0.0800 
 38 H       -4.3630    -5.9670    -2.0410 H     1 <1>   0.0800 
 39 H       -5.6180    -8.3860     0.3260 H     1 <1>   0.1500 
 40 H       -6.6370    -4.7290    -1.5930 H     1 <1>   0.1500 
 41 H       -7.9790    -8.6890     0.8130 H     1 <1>   0.1500 
 42 H       -8.9590    -5.1800    -1.0270 H     1 <1>   0.1500 
@<TRIPOS>BOND
  1   1   2  1   
  2   1   3  1   
  3   2   4  1   
  4   2   5  2   
  5   3   6  2   
  6   3   7  1   
  7   4   8  2   
  8   4   9  am  
  9   5   6  1   
 10   5  23  1   
 11   6  24  1   
 12   7  10  1   
 13   7  25  1   
 14   7  26  1   
 15   9  11  1   
 16   9  27  1   
 17  10  28  1   
 18  10  29  1   
 19  10  30  1   
 20  11  12  1   
 21  11  13  1   
 22  11  31  1   
 23  12  14  1   
 24  12  15  1   
 25  12  32  1   
 26  13  16  1   
 27  13  33  1   
 28  13  34  1   
 29  14  16  1   
 30  14  35  1   
 31  14  36  1   
 32  15  17  1   
 33  15  37  1   
 34  15  38  1   
 35  17  18  ar  
 36  17  19  ar  
 37  18  20  ar  
 38  18  39  1   
 39  19  21  ar  
 40  19  40  1   
 41  20  22  ar  
 42  20  41  1   
 43  21  22  ar  
 44  21  42  1   
@<TRIPOS>SUBSTRUCTURE
  1 ****   9 GROUP 4 **** **** 0

# MOE 2024.06 (io_trps.svl 2023.06)
