@<TRIPOS>MOLECULE
NONAME
48 50 1 0 0 
SMALL
USER_CHARGES


@<TRIPOS>ATOM
  1 O       -0.6090    -0.0670    -0.1160 O.2   1 <1>  -0.5700 
  2 C       -1.6780     0.4860    -0.2250 C.2   1 <1>   0.5690 
  3 N       -2.8100    -0.2160    -0.5250 N.am  1 <1>  -0.6600 
  4 C       -1.7640     1.9900    -0.0320 C.3   1 <1>  -0.0990 
  5 C       -4.1640     0.3460    -0.7530 C.3   1 <1>   0.1400 
  6 C       -2.8060    -1.6840    -0.7180 C.3   1 <1>   0.1400 
  7 C       -0.4360     2.6010     0.4100 C.3   1 <1>   0.1200 
  8 C       -4.9990    -0.8320    -1.2560 C.3   1 <1>   0.2000 
  9 C       -4.2800    -2.0880    -0.7680 C.3   1 <1>  -0.0800 
 10 O       -0.6310     3.9680     0.5720 O.3   1 <1>  -0.5600 
 11 O       -6.2880    -0.7960    -0.7480 O.3   1 <1>  -0.6800 
 12 C       -4.5490    -3.3130    -1.6580 C.3   1 <1>  -0.0170 
 13 C        0.5090     4.6520     0.9680 C.3   1 <1>   0.1200 
 14 C       -3.8490    -4.5540    -1.1120 C.ar  1 <1>  -0.1440 
 15 C        0.1380     6.1240     1.1020 C.3   1 <1>  -0.2400 
 16 C       -4.3610    -5.2930    -0.0190 C.ar  1 <1>   0.0000 
 17 C       -2.6830    -4.9850    -1.6730 C.ar  1 <1>  -0.1500 
 18 C       -3.6180    -6.4150     0.4210 C.ar  1 <1>   0.3100 
 19 C       -5.5640    -4.9870     0.6600 C.ar  1 <1>  -0.1500 
 20 C       -2.0300    -6.1140    -1.1640 C.ar  1 <1>   0.1600 
 21 N       -2.4590    -6.8120    -0.1620 N.ar  1 <1>  -0.6200 
 22 C       -4.0950    -7.1600     1.5120 C.ar  1 <1>  -0.1500 
 23 C       -6.0020    -5.7360     1.7180 C.ar  1 <1>  -0.1500 
 24 C       -5.2590    -6.8360     2.1530 C.ar  1 <1>  -0.1500 
 25 H       -2.0590     2.4390    -0.9610 H     1 <1>   0.0800 
 26 H       -2.5040     2.1990     0.7170 H     1 <1>   0.0800 
 27 H       -4.5520     0.7250     0.1770 H     1 <1>   0.0800 
 28 H       -4.1300     1.1290    -1.4910 H     1 <1>   0.0800 
 29 H       -2.3080    -1.9090    -1.6450 H     1 <1>   0.0800 
 30 H       -2.2890    -2.1760     0.0900 H     1 <1>   0.0800 
 31 H        0.3220     2.4410    -0.3390 H     1 <1>   0.0800 
 32 H       -0.1180     2.1780     1.3480 H     1 <1>   0.0800 
 33 H       -5.0570    -0.8040    -2.3310 H     1 <1>   0.0800 
 34 H       -4.5800    -2.2990     0.2430 H     1 <1>   0.0800 
 35 H       -6.2710    -0.8360     0.2270 H     1 <1>   0.4000 
 36 H       -4.2010    -3.1120    -2.6560 H     1 <1>   0.0800 
 37 H       -5.6080    -3.4930    -1.7310 H     1 <1>   0.0800 
 38 H        0.8430     4.2560     1.9130 H     1 <1>   0.0800 
 39 H        1.2730     4.5190     0.2200 H     1 <1>   0.0800 
 40 H       -0.6350     6.2420     1.8410 H     1 <1>   0.0800 
 41 H       -0.2080     6.5040     0.1580 H     1 <1>   0.0800 
 42 H        0.9970     6.6900     1.4090 H     1 <1>   0.0800 
 43 H       -2.2350    -4.4780    -2.5080 H     1 <1>   0.1500 
 44 H       -6.1550    -4.1500     0.3400 H     1 <1>   0.1500 
 45 H       -1.1120    -6.4190    -1.6360 H     1 <1>   0.1500 
 46 H       -3.5070    -8.0030     1.8270 H     1 <1>   0.1500 
 47 H       -6.9190    -5.4920     2.2270 H     1 <1>   0.1500 
 48 H       -5.6120    -7.4170     2.9880 H     1 <1>   0.1500 
@<TRIPOS>BOND
  1   1   2  2   
  2   2   3  am  
  3   2   4  1   
  4   3   5  1   
  5   3   6  1   
  6   4   7  1   
  7   4  25  1   
  8   4  26  1   
  9   5   8  1   
 10   5  27  1   
 11   5  28  1   
 12   6   9  1   
 13   6  29  1   
 14   6  30  1   
 15   7  10  1   
 16   7  31  1   
 17   7  32  1   
 18   8   9  1   
 19   8  11  1   
 20   8  33  1   
 21   9  12  1   
 22   9  34  1   
 23  10  13  1   
 24  11  35  1   
 25  12  14  1   
 26  12  36  1   
 27  12  37  1   
 28  13  15  1   
 29  13  38  1   
 30  13  39  1   
 31  14  16  ar  
 32  14  17  ar  
 33  15  40  1   
 34  15  41  1   
 35  15  42  1   
 36  16  18  ar  
 37  16  19  ar  
 38  17  20  ar  
 39  17  43  1   
 40  18  21  ar  
 41  18  22  ar  
 42  19  23  ar  
 43  19  44  1   
 44  20  21  ar  
 45  20  45  1   
 46  22  24  ar  
 47  22  46  1   
 48  23  24  ar  
 49  23  47  1   
 50  24  48  1   
@<TRIPOS>SUBSTRUCTURE
  1 ****   6 GROUP 4 **** **** 0

# MOE 2024.06 (io_trps.svl 2023.06)
