@<TRIPOS>MOLECULE
NONAME
58 60 1 0 0 
SMALL
USER_CHARGES


@<TRIPOS>ATOM
  1 O       -2.1480     0.6300     2.2090 O.2   1 <1>  -0.5700 
  2 C       -1.9530     0.9540     1.0540 C.2   1 <1>   0.5440 
  3 N       -1.9800    -0.0050     0.0670 N.am  1 <1>  -0.6600 
  4 C       -1.7200     2.3500     0.7350 C.ar  1 <1>   0.0860 
  5 C       -2.0830    -1.4690     0.4030 C.3   1 <1>   0.3640 
  6 C       -2.2370     0.3590    -1.3640 C.3   1 <1>   0.1400 
  7 C       -0.5720     2.7580     0.0550 C.ar  1 <1>  -0.1500 
  8 C       -2.6420     3.3290     1.0960 C.ar  1 <1>  -0.1500 
  9 C       -0.7850    -2.2310     0.0750 C.ar  1 <1>  -0.1430 
 10 C       -3.3200    -2.1220    -0.2950 C.3   1 <1>   0.2000 
 11 C       -2.7130    -0.8390    -2.1980 C.3   1 <1>   0.1200 
 12 C       -0.3510     4.0850    -0.2800 C.ar  1 <1>  -0.1440 
 13 C       -2.4370     4.6560     0.7710 C.ar  1 <1>  -0.1500 
 14 C       -0.6930    -3.5610     0.4700 C.ar  1 <1>  -0.1500 
 15 C        0.3050    -1.6630    -0.5790 C.ar  1 <1>  -0.1500 
 16 O       -3.7160    -1.5140    -1.5070 O.3   1 <1>  -0.5600 
 17 C       -4.5440    -2.1060     0.6280 C.3   1 <1>   0.1200 
 18 C       -1.2980     5.0320     0.0820 C.ar  1 <1>  -0.1500 
 19 C        0.9190     4.4800    -1.0300 C.3   1 <1>   0.0630 
 20 C        0.4320    -4.3200     0.1970 C.ar  1 <1>   0.0830 
 21 C        1.4440    -2.4060    -0.8410 C.ar  1 <1>  -0.1500 
 22 O       -4.4070    -3.0750     1.6190 O.3   1 <1>  -0.6800 
 23 C        1.7580     5.4640    -0.2070 C.3   1 <1>  -0.2400 
 24 C        0.5800     5.0690    -2.4030 C.3   1 <1>  -0.2400 
 25 O        0.4090    -5.6220     0.5740 O.3   1 <1>  -0.3630 
 26 C        1.5240    -3.7290    -0.4460 C.ar  1 <1>   0.0830 
 27 C        0.4820    -6.5810    -0.4590 C.3   1 <1>   0.0400 
 28 O        2.6800    -4.3890    -0.6990 O.3   1 <1>  -0.3630 
 29 C        3.4410    -4.7630     0.4280 C.3   1 <1>   0.0400 
 30 H       -2.2180    -1.5840     1.4650 H     1 <1>   0.0800 
 31 H       -2.9950     1.1220    -1.4020 H     1 <1>   0.0800 
 32 H       -1.3420     0.7620    -1.8030 H     1 <1>   0.0800 
 33 H        0.1550     2.0100    -0.2050 H     1 <1>   0.1500 
 34 H       -3.5240     3.0360     1.6380 H     1 <1>   0.1500 
 35 H       -3.0990    -3.1460    -0.5370 H     1 <1>   0.0800 
 36 H       -1.9070    -1.5230    -2.4030 H     1 <1>   0.0800 
 37 H       -3.1230    -0.5020    -3.1340 H     1 <1>   0.0800 
 38 H       -3.1630     5.3980     1.0560 H     1 <1>   0.1500 
 39 H       -1.5040    -4.0300     0.9990 H     1 <1>   0.1500 
 40 H        0.2920    -0.6350    -0.8850 H     1 <1>   0.1500 
 41 H       -5.4420    -2.3200     0.0750 H     1 <1>   0.0800 
 42 H       -4.6350    -1.1460     1.1090 H     1 <1>   0.0800 
 43 H       -1.1520     6.0690    -0.1650 H     1 <1>   0.1500 
 44 H        1.5170     3.5990    -1.1890 H     1 <1>   0.0800 
 45 H        2.2820    -1.9590    -1.3430 H     1 <1>   0.1500 
 46 H       -4.6170    -3.9620     1.2670 H     1 <1>   0.4000 
 47 H        1.2320     6.3910    -0.0620 H     1 <1>   0.0800 
 48 H        2.6860     5.6720    -0.7080 H     1 <1>   0.0800 
 49 H        1.9770     5.0410     0.7570 H     1 <1>   0.0800 
 50 H        0.0220     5.9820    -2.3010 H     1 <1>   0.0800 
 51 H       -0.0090     4.3680    -2.9670 H     1 <1>   0.0800 
 52 H        1.4820     5.2780    -2.9510 H     1 <1>   0.0800 
 53 H        0.3100    -7.5510    -0.0300 H     1 <1>   0.0800 
 54 H        1.4570    -6.5480    -0.9100 H     1 <1>   0.0800 
 55 H       -0.2760    -6.3610    -1.1910 H     1 <1>   0.0800 
 56 H        4.3630    -5.1940     0.0840 H     1 <1>   0.0800 
 57 H        2.8920    -5.4850     1.0060 H     1 <1>   0.0800 
 58 H        3.6400    -3.8860     1.0190 H     1 <1>   0.0800 
@<TRIPOS>BOND
  1   1   2  2   
  2   2   3  am  
  3   2   4  1   
  4   3   5  1   
  5   3   6  1   
  6   4   7  ar  
  7   4   8  ar  
  8   5   9  1   
  9   5  10  1   
 10   5  30  1   
 11   6  11  1   
 12   6  31  1   
 13   6  32  1   
 14   7  12  ar  
 15   7  33  1   
 16   8  13  ar  
 17   8  34  1   
 18   9  14  ar  
 19   9  15  ar  
 20  10  16  1   
 21  10  17  1   
 22  10  35  1   
 23  11  16  1   
 24  11  36  1   
 25  11  37  1   
 26  12  18  ar  
 27  12  19  1   
 28  13  18  ar  
 29  13  38  1   
 30  14  20  ar  
 31  14  39  1   
 32  15  21  ar  
 33  15  40  1   
 34  17  22  1   
 35  17  41  1   
 36  17  42  1   
 37  18  43  1   
 38  19  23  1   
 39  19  24  1   
 40  19  44  1   
 41  20  25  1   
 42  20  26  ar  
 43  21  26  ar  
 44  21  45  1   
 45  22  46  1   
 46  23  47  1   
 47  23  48  1   
 48  23  49  1   
 49  24  50  1   
 50  24  51  1   
 51  24  52  1   
 52  25  27  1   
 53  26  28  1   
 54  27  53  1   
 55  27  54  1   
 56  27  55  1   
 57  28  29  1   
 58  29  56  1   
 59  29  57  1   
 60  29  58  1   
@<TRIPOS>SUBSTRUCTURE
  1 ****   3 GROUP 4 **** **** 0

# MOE 2024.06 (io_trps.svl 2023.06)
