@<TRIPOS>MOLECULE
NONAME
53 56 1 0 0 
SMALL
USER_CHARGES


@<TRIPOS>ATOM
  1 O        0.5530    -3.0010     1.3310 O.3   1 <1>  -0.6800 
  2 C        0.5000    -1.7530     0.7290 C.3   1 <1>   0.2000 
  3 C        1.7730    -1.5530    -0.1170 C.3   1 <1>   0.0000 
  4 C       -0.6640    -1.7460    -0.2610 C.3   1 <1>  -0.1600 
  5 C        3.0030    -2.1730     0.5940 C.3   1 <1>   0.3430 
  6 C        2.0070    -0.0470    -0.3890 C.3   1 <1>  -0.1600 
  7 C        1.4280    -2.3000    -1.4240 C.3   1 <1>  -0.1600 
  8 C       -0.0850    -2.1530    -1.6210 C.3   1 <1>  -0.1600 
  9 N        4.2990    -1.4490     0.3350 N.4   1 <1>  -0.9590 
 10 C        3.3010     0.2110    -1.1900 C.3   1 <1>  -0.1600 
 11 C        4.3590    -0.8890    -1.0450 C.3   1 <1>   0.3430 
 12 C        5.4620    -2.3200     0.6700 C.3   1 <1>   0.4860 
 13 C        6.7460    -1.5290     0.5590 C.ar  1 <1>  -0.1440 
 14 C        7.5970    -1.6900    -0.5090 C.ar  1 <1>   0.1600 
 15 C        7.1190    -0.6150     1.5150 C.ar  1 <1>   0.1600 
 16 N        8.6960    -0.9920    -0.6340 N.ar  1 <1>  -0.6200 
 17 N        8.2130     0.0950     1.4100 N.ar  1 <1>  -0.6200 
 18 C        8.9780    -0.1170     0.3360 C.ar  1 <1>   0.6200 
 19 C       10.1860     0.6760     0.2100 C.ar  1 <1>   0.0000 
 20 C       11.4740     0.1210     0.2300 C.ar  1 <1>  -0.1440 
 21 C       10.0780     2.0600     0.0650 C.ar  1 <1>  -0.1500 
 22 C       12.5880     0.9330     0.0940 C.ar  1 <1>  -0.1500 
 23 C       11.6800    -1.3780     0.4060 C.3   1 <1>  -0.0970 
 24 C       11.1920     2.8660    -0.0680 C.ar  1 <1>  -0.1500 
 25 C       12.4520     2.3010    -0.0560 C.ar  1 <1>  -0.1500 
 26 H       -0.3300    -3.2410     1.6800 H     1 <1>   0.4000 
 27 H        0.3820    -1.0120     1.5030 H     1 <1>   0.0800 
 28 H       -1.4680    -2.3940     0.0450 H     1 <1>   0.0800 
 29 H       -1.0520    -0.7450    -0.3370 H     1 <1>   0.0800 
 30 H        3.0820    -3.2020     0.2870 H     1 <1>   0.0800 
 31 H        2.8140    -2.1760     1.6560 H     1 <1>   0.0800 
 32 H        1.1710     0.3840    -0.9140 H     1 <1>   0.0800 
 33 H        2.0810     0.4650     0.5560 H     1 <1>   0.0800 
 34 H        1.9640    -1.9450    -2.2860 H     1 <1>   0.0800 
 35 H        1.6400    -3.3500    -1.3050 H     1 <1>   0.0800 
 36 H       -0.5140    -3.0810    -1.9610 H     1 <1>   0.0800 
 37 H       -0.2970    -1.3900    -2.3520 H     1 <1>   0.0800 
 38 H        4.3190    -0.6360     0.9620 H     1 <1>   0.4500 
 39 H        3.7230     1.1550    -0.8910 H     1 <1>   0.0800 
 40 H        3.0610     0.3010    -2.2360 H     1 <1>   0.0800 
 41 H        5.3330    -0.4730    -1.2530 H     1 <1>   0.0800 
 42 H        4.1650    -1.6730    -1.7590 H     1 <1>   0.0800 
 43 H        5.3620    -2.6950     1.6760 H     1 <1>   0.0800 
 44 H        5.4940    -3.1640     0.0000 H     1 <1>   0.0800 
 45 H        7.3800    -2.4030    -1.2890 H     1 <1>   0.1500 
 46 H        6.5130    -0.4490     2.3910 H     1 <1>   0.1500 
 47 H        9.1010     2.5090     0.0580 H     1 <1>   0.1500 
 48 H       13.5760     0.5060     0.1040 H     1 <1>   0.1500 
 49 H       12.7140    -1.6070     0.5940 H     1 <1>   0.0800 
 50 H       11.3740    -1.8960    -0.4860 H     1 <1>   0.0800 
 51 H       11.1010    -1.7390     1.2360 H     1 <1>   0.0800 
 52 H       11.0800     3.9300    -0.1810 H     1 <1>   0.1500 
 53 H       13.3250     2.9220    -0.1610 H     1 <1>   0.1500 
@<TRIPOS>BOND
  1   1   2  1   
  2   1  26  1   
  3   2   3  1   
  4   2   4  1   
  5   2  27  1   
  6   3   5  1   
  7   3   6  1   
  8   3   7  1   
  9   4   8  1   
 10   4  28  1   
 11   4  29  1   
 12   5   9  1   
 13   5  30  1   
 14   5  31  1   
 15   6  10  1   
 16   6  32  1   
 17   6  33  1   
 18   7   8  1   
 19   7  34  1   
 20   7  35  1   
 21   8  36  1   
 22   8  37  1   
 23   9  11  1   
 24   9  12  1   
 25   9  38  1   
 26  10  11  1   
 27  10  39  1   
 28  10  40  1   
 29  11  41  1   
 30  11  42  1   
 31  12  13  1   
 32  12  43  1   
 33  12  44  1   
 34  13  14  ar  
 35  13  15  ar  
 36  14  16  ar  
 37  14  45  1   
 38  15  17  ar  
 39  15  46  1   
 40  16  18  ar  
 41  17  18  ar  
 42  18  19  1   
 43  19  20  ar  
 44  19  21  ar  
 45  20  22  ar  
 46  20  23  1   
 47  21  24  ar  
 48  21  47  1   
 49  22  25  ar  
 50  22  48  1   
 51  23  49  1   
 52  23  50  1   
 53  23  51  1   
 54  24  25  ar  
 55  24  52  1   
 56  25  53  1   
@<TRIPOS>SUBSTRUCTURE
  1 ****  13 GROUP 4 **** **** 0

# MOE 2024.06 (io_trps.svl 2023.06)
