@<TRIPOS>MOLECULE
NONAME
52 56 1 0 0 
SMALL
USER_CHARGES


@<TRIPOS>ATOM
  1 O       -0.4430     0.3530     0.8560 O.2   1 <1>  -0.5700 
  2 C       -1.4410     0.9780     0.5530 C.2   1 <1>   0.5440 
  3 N       -2.5690     0.2810     0.1860 N.am  1 <1>  -0.6600 
  4 C       -1.4170     2.4260     0.5730 C.ar  1 <1>   0.0860 
  5 C       -3.7700     0.8550    -0.4740 C.3   1 <1>   0.1400 
  6 C       -2.6050    -1.2030     0.1030 C.3   1 <1>   0.1400 
  7 C       -2.3010     3.1680     1.3540 C.ar  1 <1>  -0.1500 
  8 C       -0.4960     3.1380    -0.1920 C.ar  1 <1>  -0.1500 
  9 C       -4.7780    -0.2910    -0.4730 C.3   1 <1>   0.2000 
 10 C       -3.9000    -1.5330    -0.6490 C.3   1 <1>  -0.0800 
 11 C       -2.2800     4.5500     1.3520 C.ar  1 <1>  -0.1500 
 12 C       -0.4740     4.5190    -0.1940 C.ar  1 <1>  -0.1500 
 13 O       -5.3810    -0.3220     0.7760 O.3   1 <1>  -0.6800 
 14 C       -4.5430    -2.8660    -0.2250 C.3   1 <1>   0.0210 
 15 C       -1.3690     5.2670     0.5740 C.ar  1 <1>   0.0540 
 16 C       -3.5880    -4.0200    -0.4560 C.2   1 <1>   0.1080 
 17 C       -1.3570     6.7200     0.5700 C.2   1 <1>   0.4620 
 18 N       -3.1870    -4.3750    -1.6370 N.2   1 <1>  -0.7070 
 19 C       -3.0320    -4.8070     0.5470 C.2   1 <1>  -0.1500 
 20 N       -2.1290     7.4780     1.2660 N.2   1 <1>  -0.4100 
 21 N       -0.5160     7.4310    -0.1870 N.2   1 <1>  -0.5650 
 22 N       -2.3560    -5.4110    -1.4170 N.pl3 1 <1>   0.3000 
 23 C       -2.2440    -5.6910    -0.1010 C.2   1 <1>  -0.3320 
 24 O       -1.8240     8.7080     0.9970 O.3   1 <1>  -0.0190 
 25 C       -0.8550     8.6130     0.1250 C.2   1 <1>   0.3930 
 26 C       -1.3780    -6.8010     0.4650 C.3   1 <1>  -0.0600 
 27 C       -0.2460     9.8960    -0.4200 C.3   1 <1>  -0.0150 
 28 C        1.1770     9.9550    -0.8880 C.3   1 <1>  -0.2000 
 29 C        0.7730    10.6500     0.3780 C.3   1 <1>  -0.2000 
 30 H       -4.1540     1.7160     0.0440 H     1 <1>   0.0800 
 31 H       -3.5190     1.1230    -1.4860 H     1 <1>   0.0800 
 32 H       -1.7430    -1.5820    -0.4210 H     1 <1>   0.0800 
 33 H       -2.6190    -1.6100     1.0990 H     1 <1>   0.0800 
 34 H       -3.0100     2.6460     1.9730 H     1 <1>   0.1500 
 35 H        0.2120     2.5870    -0.7890 H     1 <1>   0.1500 
 36 H       -5.5420    -0.1920    -1.2250 H     1 <1>   0.0800 
 37 H       -3.6480    -1.6080    -1.6930 H     1 <1>   0.0800 
 38 H       -2.9810     5.0860     1.9680 H     1 <1>   0.1500 
 39 H        0.2530     5.0300    -0.8020 H     1 <1>   0.1500 
 40 H       -4.6770    -0.2900     1.4550 H     1 <1>   0.4000 
 41 H       -5.4330    -3.0360    -0.8040 H     1 <1>   0.0800 
 42 H       -4.8210    -2.8420     0.8130 H     1 <1>   0.0800 
 43 H       -3.2090    -4.7090     1.6030 H     1 <1>   0.1500 
 44 H       -1.8820    -5.9040    -2.1830 H     1 <1>   0.2700 
 45 H       -1.4580    -6.8210     1.5370 H     1 <1>   0.0800 
 46 H       -0.3480    -6.6400     0.2010 H     1 <1>   0.0800 
 47 H       -1.6960    -7.7530     0.0800 H     1 <1>   0.0800 
 48 H       -0.9670    10.4720    -0.9730 H     1 <1>   0.1000 
 49 H        1.7790     9.0640    -0.8210 H     1 <1>   0.1000 
 50 H        1.4080    10.5450    -1.7580 H     1 <1>   0.1000 
 51 H        0.7270    11.7250     0.3900 H     1 <1>   0.1000 
 52 H        1.1050    10.2400     1.3170 H     1 <1>   0.1000 
@<TRIPOS>BOND
  1   1   2  2   
  2   2   3  am  
  3   2   4  1   
  4   3   5  1   
  5   3   6  1   
  6   4   7  ar  
  7   4   8  ar  
  8   5   9  1   
  9   5  30  1   
 10   5  31  1   
 11   6  10  1   
 12   6  32  1   
 13   6  33  1   
 14   7  11  ar  
 15   7  34  1   
 16   8  12  ar  
 17   8  35  1   
 18   9  10  1   
 19   9  13  1   
 20   9  36  1   
 21  10  14  1   
 22  10  37  1   
 23  11  15  ar  
 24  11  38  1   
 25  12  15  ar  
 26  12  39  1   
 27  13  40  1   
 28  14  16  1   
 29  14  41  1   
 30  14  42  1   
 31  15  17  1   
 32  16  18  2   
 33  16  19  1   
 34  17  20  2   
 35  17  21  1   
 36  18  22  1   
 37  19  23  2   
 38  19  43  1   
 39  20  24  1   
 40  21  25  2   
 41  22  23  1   
 42  22  44  1   
 43  23  26  1   
 44  24  25  1   
 45  25  27  1   
 46  26  45  1   
 47  26  46  1   
 48  26  47  1   
 49  27  28  1   
 50  27  29  1   
 51  27  48  1   
 52  28  29  1   
 53  28  49  1   
 54  28  50  1   
 55  29  51  1   
 56  29  52  1   
@<TRIPOS>SUBSTRUCTURE
  1 ****   4 GROUP 4 **** **** 0

# MOE 2024.06 (io_trps.svl 2023.06)
