@<TRIPOS>MOLECULE
NONAME
44 46 1 0 0 
SMALL
USER_CHARGES


@<TRIPOS>ATOM
  1 F       -2.2990     1.9700    -1.5540 F     1 <1>  -0.1900 
  2 C       -1.4260     2.4530    -0.7110 C.ar  1 <1>   0.1900 
  3 C       -1.8120     2.7050     0.6050 C.ar  1 <1>   0.0860 
  4 C       -0.1480     2.6910    -1.1830 C.ar  1 <1>  -0.1500 
  5 C       -3.1530     2.4630     1.0840 C.2   1 <1>   0.5440 
  6 C       -0.8320     3.2030     1.4620 C.ar  1 <1>  -0.1500 
  7 C        0.8010     3.1960    -0.3130 C.ar  1 <1>  -0.1500 
  8 O       -3.3260     1.5610     1.8810 O.2   1 <1>  -0.5700 
  9 N       -4.2220     3.2480     0.7030 N.am  1 <1>  -0.6600 
 10 C        0.4530     3.4460     1.0050 C.ar  1 <1>   0.0830 
 11 C       -5.6260     2.9270     1.1130 C.3   1 <1>   0.1400 
 12 C       -4.1220     4.4500    -0.1680 C.3   1 <1>   0.1400 
 13 O        1.3850     3.9270     1.8400 O.3   1 <1>  -0.5320 
 14 C       -6.5160     2.6770    -0.1300 C.3   1 <1>   0.0000 
 15 C       -4.9740     4.2480    -1.4260 C.3   1 <1>  -0.1600 
 16 C       -7.9710     2.3800     0.2740 C.3   1 <1>   0.2000 
 17 C       -6.4300     3.8930    -1.0780 C.3   1 <1>  -0.1600 
 18 C       -6.1120     1.3630    -0.8220 C.3   1 <1>  -0.1600 
 19 O       -8.3920     3.2060     1.3200 O.3   1 <1>  -0.5600 
 20 C       -7.9950     0.9030     0.6810 C.3   1 <1>  -0.1600 
 21 C       -6.7960     0.2510    -0.0210 C.3   1 <1>  -0.1600 
 22 C       -9.7660     3.2130     1.5450 C.3   1 <1>   0.0400 
 23 H        0.0970     2.4810    -2.2090 H     1 <1>   0.1500 
 24 H       -1.0950     3.3920     2.4880 H     1 <1>   0.1500 
 25 H        1.8060     3.3940    -0.6430 H     1 <1>   0.1500 
 26 H       -5.6470     2.0680     1.7600 H     1 <1>   0.0800 
 27 H       -6.0120     3.7600     1.6750 H     1 <1>   0.0800 
 28 H       -4.4850     5.3030     0.3790 H     1 <1>   0.0800 
 29 H       -3.1030     4.6460    -0.4470 H     1 <1>   0.0800 
 30 H        1.0700     4.0300     2.7560 H     1 <1>   0.4500 
 31 H       -4.9560     5.1490    -2.0130 H     1 <1>   0.0800 
 32 H       -4.5400     3.4650    -2.0220 H     1 <1>   0.0800 
 33 H       -8.6120     2.5350    -0.5770 H     1 <1>   0.0800 
 34 H       -6.9810     3.7010    -1.9830 H     1 <1>   0.0800 
 35 H       -6.8870     4.7390    -0.5930 H     1 <1>   0.0800 
 36 H       -6.4940     1.3510    -1.8280 H     1 <1>   0.0800 
 37 H       -5.0460     1.2220    -0.8620 H     1 <1>   0.0800 
 38 H       -7.8780     0.8080     1.7470 H     1 <1>   0.0800 
 39 H       -8.9160     0.4410     0.3740 H     1 <1>   0.0800 
 40 H       -6.1110    -0.1330     0.7170 H     1 <1>   0.0800 
 41 H       -7.1000    -0.5570    -0.6640 H     1 <1>   0.0800 
 42 H       -9.9670     3.8960     2.3510 H     1 <1>   0.0800 
 43 H      -10.0900     2.2250     1.8210 H     1 <1>   0.0800 
 44 H      -10.2710     3.5440     0.6550 H     1 <1>   0.0800 
@<TRIPOS>BOND
  1   1   2  1   
  2   2   3  ar  
  3   2   4  ar  
  4   3   5  1   
  5   3   6  ar  
  6   4   7  ar  
  7   4  23  1   
  8   5   8  2   
  9   5   9  am  
 10   6  10  ar  
 11   6  24  1   
 12   7  10  ar  
 13   7  25  1   
 14   9  11  1   
 15   9  12  1   
 16  10  13  1   
 17  11  14  1   
 18  11  26  1   
 19  11  27  1   
 20  12  15  1   
 21  12  28  1   
 22  12  29  1   
 23  13  30  1   
 24  14  16  1   
 25  14  17  1   
 26  14  18  1   
 27  15  17  1   
 28  15  31  1   
 29  15  32  1   
 30  16  19  1   
 31  16  20  1   
 32  16  33  1   
 33  17  34  1   
 34  17  35  1   
 35  18  21  1   
 36  18  36  1   
 37  18  37  1   
 38  19  22  1   
 39  20  21  1   
 40  20  38  1   
 41  20  39  1   
 42  21  40  1   
 43  21  41  1   
 44  22  42  1   
 45  22  43  1   
 46  22  44  1   
@<TRIPOS>SUBSTRUCTURE
  1 ****   9 GROUP 4 **** **** 0

# MOE 2024.06 (io_trps.svl 2023.06)
