@<TRIPOS>MOLECULE
NONAME
34 36 1 0 0 
SMALL
USER_CHARGES


@<TRIPOS>ATOM
  1 O       -0.6430     0.1430     0.0410 O.2   1 <1>  -0.5700 
  2 C       -1.7000     0.7440    -0.0620 C.2   1 <1>   0.7160 
  3 N       -2.8380    -0.0110    -0.2860 N.am  1 <1>  -0.6600 
  4 C       -1.6980     2.1990     0.0550 C.2   1 <1>   0.2030 
  5 C       -4.2220     0.5040    -0.4470 C.3   1 <1>   0.1400 
  6 C       -2.8240    -1.4930    -0.3610 C.3   1 <1>   0.1400 
  7 N       -2.7100     3.0200     0.0170 N.2   1 <1>  -0.4100 
  8 C       -0.5480     2.9570     0.2380 C.2   1 <1>  -0.1500 
  9 C       -5.0890    -0.7370    -0.6660 C.3   1 <1>   0.2000 
 10 C       -4.2760    -1.9110    -0.1250 C.3   1 <1>  -0.0800 
 11 O       -2.3080     4.2590     0.1610 O.3   1 <1>  -0.0190 
 12 C       -1.0030     4.2110     0.2930 C.2   1 <1>  -0.0100 
 13 O       -6.2940    -0.6490     0.0130 O.3   1 <1>  -0.6800 
 14 C       -4.6620    -3.2490    -0.7780 C.3   1 <1>  -0.0170 
 15 C       -3.8570    -4.4050    -0.2050 C.ar  1 <1>   0.1670 
 16 N       -2.6650    -4.6160    -0.7390 N.ar  1 <1>  -0.6200 
 17 C       -4.3830    -5.1730     0.8320 C.ar  1 <1>   0.1600 
 18 C       -2.0400    -5.6340    -0.1710 C.ar  1 <1>   0.1600 
 19 N       -3.7590    -6.1900     1.4020 N.ar  1 <1>  -0.6200 
 20 C       -2.5690    -6.3950     0.8650 C.ar  1 <1>   0.1600 
 21 H       -4.5150     1.0280     0.4460 H     1 <1>   0.0800 
 22 H       -4.2790     1.1620    -1.2970 H     1 <1>   0.0800 
 23 H       -2.4910    -1.7920    -1.3410 H     1 <1>   0.0800 
 24 H       -2.1660    -1.9170     0.3790 H     1 <1>   0.0800 
 25 H        0.4530     2.5730     0.3110 H     1 <1>   0.1500 
 26 H       -5.2980    -0.8550    -1.7160 H     1 <1>   0.0800 
 27 H       -4.4140    -1.9810     0.9400 H     1 <1>   0.0800 
 28 H       -0.4680     5.1340     0.4250 H     1 <1>   0.1500 
 29 H       -6.1390    -0.4710     0.9610 H     1 <1>   0.4000 
 30 H       -4.4990    -3.2020    -1.8410 H     1 <1>   0.0800 
 31 H       -5.7100    -3.4290    -0.6200 H     1 <1>   0.0800 
 32 H       -5.3620    -4.9340     1.2080 H     1 <1>   0.1500 
 33 H       -1.0600    -5.8790    -0.5420 H     1 <1>   0.1500 
 34 H       -1.9830    -7.2040     1.2630 H     1 <1>   0.1500 
@<TRIPOS>BOND
  1   1   2  2   
  2   2   3  am  
  3   2   4  1   
  4   3   5  1   
  5   3   6  1   
  6   4   7  2   
  7   4   8  1   
  8   5   9  1   
  9   5  21  1   
 10   5  22  1   
 11   6  10  1   
 12   6  23  1   
 13   6  24  1   
 14   7  11  1   
 15   8  12  2   
 16   8  25  1   
 17   9  10  1   
 18   9  13  1   
 19   9  26  1   
 20  10  14  1   
 21  10  27  1   
 22  11  12  1   
 23  12  28  1   
 24  13  29  1   
 25  14  15  1   
 26  14  30  1   
 27  14  31  1   
 28  15  16  ar  
 29  15  17  ar  
 30  16  18  ar  
 31  17  19  ar  
 32  17  32  1   
 33  18  20  ar  
 34  18  33  1   
 35  19  20  ar  
 36  20  34  1   
@<TRIPOS>SUBSTRUCTURE
  1 ****   6 GROUP 4 **** **** 0

# MOE 2024.06 (io_trps.svl 2023.06)
