@<TRIPOS>MOLECULE
NONAME
46 47 1 0 0 
SMALL
USER_CHARGES


@<TRIPOS>ATOM
  1 O        0.0850    -0.1470    -0.5310 O.2   1 <1>  -0.5700 
  2 C        1.0890    -0.6920    -0.1100 C.2   1 <1>   0.5440 
  3 N        2.1030     0.0610     0.4250 N.am  1 <1>  -0.4930 
  4 C        1.2130    -2.1340    -0.1590 C.ar  1 <1>   0.0860 
  5 C        2.2260     1.4680     0.5530 C.2   1 <1>   0.0630 
  6 C        2.4500    -2.7750    -0.2790 C.ar  1 <1>  -0.1500 
  7 C        0.0840    -2.9530    -0.0840 C.ar  1 <1>  -0.1500 
  8 C        1.2940     2.4100     0.9980 C.2   1 <1>   0.1080 
  9 C        3.3400     2.1860     0.2860 C.2   1 <1>  -0.3320 
 10 C        2.5490    -4.1520    -0.3020 C.ar  1 <1>  -0.1500 
 11 C        0.1830    -4.3300    -0.1070 C.ar  1 <1>  -0.1500 
 12 N        1.7800     3.6120     1.0100 N.2   1 <1>  -0.7070 
 13 C       -0.1230     2.1310     1.4460 C.3   1 <1>  -0.0590 
 14 N        3.0400     3.4810     0.5630 N.pl3 1 <1>   0.3140 
 15 C        4.6890     1.7130    -0.2360 C.3   1 <1>  -0.0600 
 16 C        1.4200    -4.9570    -0.2130 C.ar  1 <1>   0.1000 
 17 C        3.9160     4.6620     0.4160 C.3   1 <1>   0.0960 
 18 N        1.5400    -6.3400    -0.2350 N.pl3 1 <1>  -0.8380 
 19 C        3.7990     5.2610    -0.9930 C.3   1 <1>  -0.1600 
 20 C        0.5590    -7.1880    -0.9610 C.3   1 <1>   0.1290 
 21 C        2.3900    -7.0340     0.7670 C.3   1 <1>   0.1290 
 22 C        4.7150     6.4780    -1.1620 C.3   1 <1>  -0.2400 
 23 H        2.9140    -0.4530     0.7570 H     1 <1>   0.3700 
 24 H        3.3490    -2.1930    -0.3700 H     1 <1>   0.1500 
 25 H       -0.8860    -2.4920    -0.0040 H     1 <1>   0.1500 
 26 H        3.5080    -4.6270    -0.4030 H     1 <1>   0.1500 
 27 H       -0.7040    -4.9310    -0.0360 H     1 <1>   0.1500 
 28 H       -0.1830     1.1650     1.9110 H     1 <1>   0.0800 
 29 H       -0.7760     2.1540     0.5940 H     1 <1>   0.0800 
 30 H       -0.4380     2.8790     2.1490 H     1 <1>   0.0800 
 31 H        4.6720     0.6560    -0.4290 H     1 <1>   0.0800 
 32 H        5.4590     1.9160     0.4870 H     1 <1>   0.0800 
 33 H        4.9280     2.2170    -1.1550 H     1 <1>   0.0800 
 34 H        4.9280     4.3710     0.6200 H     1 <1>   0.0800 
 35 H        3.6160     5.3900     1.1480 H     1 <1>   0.0800 
 36 H        2.7770     5.5590    -1.1620 H     1 <1>   0.0800 
 37 H        4.0590     4.5160    -1.7250 H     1 <1>   0.0800 
 38 H        0.0610    -6.6100    -1.7200 H     1 <1>   0.0800 
 39 H       -0.1730    -7.5730    -0.2720 H     1 <1>   0.0800 
 40 H        1.0690    -8.0080    -1.4350 H     1 <1>   0.0800 
 41 H        2.8950    -6.3160     1.3890 H     1 <1>   0.0800 
 42 H        3.1230    -7.6390     0.2630 H     1 <1>   0.0800 
 43 H        1.7800    -7.6620     1.3920 H     1 <1>   0.0800 
 44 H        4.4550     7.2450    -0.4540 H     1 <1>   0.0800 
 45 H        4.6080     6.8810    -2.1540 H     1 <1>   0.0800 
 46 H        5.7440     6.2020    -1.0150 H     1 <1>   0.0800 
@<TRIPOS>BOND
  1   1   2  2   
  2   2   3  am  
  3   2   4  1   
  4   3   5  1   
  5   3  23  1   
  6   4   6  ar  
  7   4   7  ar  
  8   5   8  1   
  9   5   9  2   
 10   6  10  ar  
 11   6  24  1   
 12   7  11  ar  
 13   7  25  1   
 14   8  12  2   
 15   8  13  1   
 16   9  14  1   
 17   9  15  1   
 18  10  16  ar  
 19  10  26  1   
 20  11  16  ar  
 21  11  27  1   
 22  12  14  1   
 23  13  28  1   
 24  13  29  1   
 25  13  30  1   
 26  14  17  1   
 27  15  31  1   
 28  15  32  1   
 29  15  33  1   
 30  16  18  1   
 31  17  19  1   
 32  17  34  1   
 33  17  35  1   
 34  18  20  1   
 35  18  21  1   
 36  19  22  1   
 37  19  36  1   
 38  19  37  1   
 39  20  38  1   
 40  20  39  1   
 41  20  40  1   
 42  21  41  1   
 43  21  42  1   
 44  21  43  1   
 45  22  44  1   
 46  22  45  1   
 47  22  46  1   
@<TRIPOS>SUBSTRUCTURE
  1 ****   3 GROUP 4 **** **** 0

# MOE 2024.06 (io_trps.svl 2023.06)
