@<TRIPOS>MOLECULE
NONAME
30 31 1 0 0 
SMALL
USER_CHARGES


@<TRIPOS>ATOM
  1 O        0.5060    -0.1640     0.6900 O.2   1 <1>  -0.5700 
  2 C        1.6850    -0.1070     0.4170 C.2   1 <1>   0.5690 
  3 N        2.4630     1.0110     0.5350 N.am  1 <1>  -0.4770 
  4 C        2.5170    -1.2790    -0.1430 C.3   1 <1>   0.2040 
  5 C        3.7510     0.7470     0.0790 C.ar  1 <1>   0.1170 
  6 C        1.9920     2.3270     1.0230 C.3   1 <1>   0.0600 
  7 C        3.8530    -0.5670    -0.3380 C.ar  1 <1>  -0.1440 
  8 C        2.7030    -2.4340     0.8700 C.3   1 <1>  -0.1600 
  9 C        1.9860    -1.7640    -1.5040 C.3   1 <1>  -0.2400 
 10 C        4.8440     1.6000     0.0050 C.ar  1 <1>  -0.1500 
 11 C        5.0460    -1.0550    -0.8420 C.ar  1 <1>  -0.1500 
 12 C        1.4330    -3.2390     1.1940 C.3   1 <1>  -0.2400 
 13 C        6.0420     1.1190    -0.4960 C.ar  1 <1>  -0.1500 
 14 C        6.1360    -0.2030    -0.9170 C.ar  1 <1>   0.0820 
 15 O        7.2950    -0.6740    -1.4050 O.3   1 <1>  -0.5320 
 16 H        0.9570     2.2640     1.3120 H     1 <1>   0.0800 
 17 H        2.0940     3.0580     0.2410 H     1 <1>   0.0800 
 18 H        2.5770     2.6260     1.8750 H     1 <1>   0.0800 
 19 H        3.0880    -2.0220     1.7870 H     1 <1>   0.0800 
 20 H        3.4450    -3.1130     0.4900 H     1 <1>   0.0800 
 21 H        1.9910    -0.9520    -2.2100 H     1 <1>   0.0800 
 22 H        0.9750    -2.1160    -1.4080 H     1 <1>   0.0800 
 23 H        2.6000    -2.5580    -1.8880 H     1 <1>   0.0800 
 24 H        4.7560     2.6190     0.3330 H     1 <1>   0.1500 
 25 H        5.1400    -2.0730    -1.1730 H     1 <1>   0.1500 
 26 H        0.6650    -2.6000     1.5940 H     1 <1>   0.0800 
 27 H        1.6570    -3.9920     1.9280 H     1 <1>   0.0800 
 28 H        1.0520    -3.7300     0.3160 H     1 <1>   0.0800 
 29 H        6.8940     1.7710    -0.5580 H     1 <1>   0.1500 
 30 H        8.0010    -0.0030    -1.4190 H     1 <1>   0.4500 
@<TRIPOS>BOND
  1   1   2  2   
  2   2   3  am  
  3   2   4  1   
  4   3   5  1   
  5   3   6  1   
  6   4   7  1   
  7   4   8  1   
  8   4   9  1   
  9   5   7  ar  
 10   5  10  ar  
 11   6  16  1   
 12   6  17  1   
 13   6  18  1   
 14   7  11  ar  
 15   8  12  1   
 16   8  19  1   
 17   8  20  1   
 18   9  21  1   
 19   9  22  1   
 20   9  23  1   
 21  10  13  ar  
 22  10  24  1   
 23  11  14  ar  
 24  11  25  1   
 25  12  26  1   
 26  12  27  1   
 27  12  28  1   
 28  13  14  ar  
 29  13  29  1   
 30  14  15  1   
 31  15  30  1   
@<TRIPOS>SUBSTRUCTURE
  1 ****   7 GROUP 4 **** **** 0

# MOE 2024.06 (io_trps.svl 2023.06)
