@<TRIPOS>MOLECULE
NONAME
49 51 1 0 0 
SMALL
USER_CHARGES


@<TRIPOS>ATOM
  1 F       -2.2280    -1.2200    -1.9810 F     1 <1>  -0.1900 
  2 C       -1.6890    -2.3070    -1.4980 C.ar  1 <1>   0.1900 
  3 C       -2.1630    -2.8050    -0.2980 C.ar  1 <1>  -0.1500 
  4 C       -0.6700    -2.9160    -2.2030 C.ar  1 <1>  -0.1500 
  5 C       -1.5990    -3.9640     0.2160 C.ar  1 <1>  -0.1440 
  6 C       -0.1060    -4.0680    -1.6820 C.ar  1 <1>  -0.1500 
  7 C       -0.5680    -4.5840    -0.4800 C.ar  1 <1>  -0.1500 
  8 C       -2.1010    -4.5540     1.5320 C.3   1 <1>   0.0450 
  9 C       -2.4370    -6.0380     1.4300 C.2   1 <1>   0.5690 
 10 O       -1.8200    -6.7970     2.1400 O.2   1 <1>  -0.5700 
 11 N       -3.4070    -6.5160     0.5780 N.am  1 <1>  -0.6600 
 12 C       -3.5860    -7.9820     0.3780 C.3   1 <1>   0.1400 
 13 C       -4.3590    -5.6730    -0.1990 C.3   1 <1>   0.1400 
 14 C       -5.0250    -8.3960     0.7560 C.3   1 <1>   0.4230 
 15 C       -5.7910    -6.0670     0.1870 C.3   1 <1>  -0.1600 
 16 N       -5.2570    -9.9030     0.7330 N.4   1 <1>  -0.9590 
 17 C       -6.0990    -7.5780    -0.0220 C.3   1 <1>   0.0000 
 18 C       -6.7020   -10.3000     0.6820 C.3   1 <1>   0.3430 
 19 C       -4.4840   -10.6600    -0.3070 C.3   1 <1>   0.2630 
 20 C       -7.5060    -7.8860     0.5710 C.3   1 <1>  -0.1600 
 21 C       -6.0560    -7.9340    -1.5360 C.3   1 <1>   0.1200 
 22 C       -7.5870    -9.2300     1.3190 C.3   1 <1>  -0.1600 
 23 O       -6.8480    -7.0810    -2.2850 O.3   1 <1>  -0.6800 
 24 H       -2.9540    -2.2850     0.2100 H     1 <1>   0.1500 
 25 H       -0.3290    -2.4970    -3.1320 H     1 <1>   0.1500 
 26 H        0.6930    -4.5620    -2.2080 H     1 <1>   0.1500 
 27 H       -0.1140    -5.4790    -0.0860 H     1 <1>   0.1500 
 28 H       -2.9690    -4.0280     1.8800 H     1 <1>   0.0800 
 29 H       -1.3330    -4.4270     2.2740 H     1 <1>   0.0800 
 30 H       -3.3730    -8.2070    -0.6500 H     1 <1>   0.0800 
 31 H       -2.8920    -8.5290     0.9900 H     1 <1>   0.0800 
 32 H       -4.2170    -4.6290     0.0120 H     1 <1>   0.0800 
 33 H       -4.1940    -5.8170    -1.2540 H     1 <1>   0.0800 
 34 H       -5.1360    -8.0930     1.7840 H     1 <1>   0.0800 
 35 H       -5.9270    -5.8040     1.2220 H     1 <1>   0.0800 
 36 H       -6.4780    -5.4590    -0.3760 H     1 <1>   0.0800 
 37 H       -4.9090   -10.2270     1.6480 H     1 <1>   0.4500 
 38 H       -7.0100   -10.4290    -0.3430 H     1 <1>   0.0800 
 39 H       -6.8420   -11.2410     1.1900 H     1 <1>   0.0800 
 40 H       -4.7650   -10.3400    -1.2970 H     1 <1>   0.0800 
 41 H       -4.6810   -11.7170    -0.2210 H     1 <1>   0.0800 
 42 H       -3.4250   -10.5050    -0.1810 H     1 <1>   0.0800 
 43 H       -7.8030    -7.1160     1.2640 H     1 <1>   0.0800 
 44 H       -8.2460    -7.8780    -0.2120 H     1 <1>   0.0800 
 45 H       -6.4020    -8.9350    -1.7180 H     1 <1>   0.0800 
 46 H       -5.0600    -7.8430    -1.9320 H     1 <1>   0.0800 
 47 H       -8.6090    -9.5710     1.3220 H     1 <1>   0.0800 
 48 H       -7.2980    -9.1010     2.3490 H     1 <1>   0.0800 
 49 H       -7.7960    -7.1540    -2.0560 H     1 <1>   0.4000 
@<TRIPOS>BOND
  1   1   2  1   
  2   2   3  ar  
  3   2   4  ar  
  4   3   5  ar  
  5   3  24  1   
  6   4   6  ar  
  7   4  25  1   
  8   5   7  ar  
  9   5   8  1   
 10   6   7  ar  
 11   6  26  1   
 12   7  27  1   
 13   8   9  1   
 14   8  28  1   
 15   8  29  1   
 16   9  10  2   
 17   9  11  am  
 18  11  12  1   
 19  11  13  1   
 20  12  14  1   
 21  12  30  1   
 22  12  31  1   
 23  13  15  1   
 24  13  32  1   
 25  13  33  1   
 26  14  16  1   
 27  14  17  1   
 28  14  34  1   
 29  15  17  1   
 30  15  35  1   
 31  15  36  1   
 32  16  18  1   
 33  16  19  1   
 34  16  37  1   
 35  17  20  1   
 36  17  21  1   
 37  18  22  1   
 38  18  38  1   
 39  18  39  1   
 40  19  40  1   
 41  19  41  1   
 42  19  42  1   
 43  20  22  1   
 44  20  43  1   
 45  20  44  1   
 46  21  23  1   
 47  21  45  1   
 48  21  46  1   
 49  22  47  1   
 50  22  48  1   
 51  23  49  1   
@<TRIPOS>SUBSTRUCTURE
  1 ****  13 GROUP 4 **** **** 0

# MOE 2024.06 (io_trps.svl 2023.06)
