@<TRIPOS>MOLECULE
NONAME
18 18 1 0 0 
SMALL
USER_CHARGES


@<TRIPOS>ATOM
  1 O       -5.9260     2.5340    -0.3180 O.co2 1 <1>  -0.9000 
  2 C       -5.9990     1.3530    -0.6960 C.2   1 <1>   0.9060 
  3 O       -6.7520     0.9510    -1.5820 O.co2 1 <1>  -0.9000 
  4 C       -5.0560     0.3920     0.0520 C.3   1 <1>   0.3970 
  5 N       -4.0950     1.1810     0.8820 N.4   1 <1>  -0.8530 
  6 C       -5.8330    -0.5340     0.9700 C.3   1 <1>   0.1200 
  7 C       -4.2740    -0.6280    -0.7660 C.3   1 <1>  -0.1600 
  8 O       -4.8880    -1.4970     1.3210 O.3   1 <1>  -0.5600 
  9 C       -4.1430    -1.8250     0.1850 C.3   1 <1>   0.1200 
 10 H       -4.5950     2.0930     0.9640 H     1 <1>   0.4500 
 11 H       -3.2340     1.3600     0.3710 H     1 <1>   0.4500 
 12 H       -3.9500     0.7190     1.7820 H     1 <1>   0.4500 
 13 H       -6.6390    -1.0170     0.4400 H     1 <1>   0.0800 
 14 H       -6.2150    -0.0440     1.8490 H     1 <1>   0.0800 
 15 H       -3.3270    -0.2650    -1.1190 H     1 <1>   0.0800 
 16 H       -4.8580    -0.9310    -1.6190 H     1 <1>   0.0800 
 17 H       -3.1240    -2.0010     0.4850 H     1 <1>   0.0800 
 18 H       -4.5580    -2.7200    -0.2490 H     1 <1>   0.0800 
@<TRIPOS>BOND
  1   1   2  ar  
  2   2   3  ar  
  3   2   4  1   
  4   4   5  1   
  5   4   6  1   
  6   4   7  1   
  7   5  10  1   
  8   5  11  1   
  9   5  12  1   
 10   6   8  1   
 11   6  13  1   
 12   6  14  1   
 13   7   9  1   
 14   7  15  1   
 15   7  16  1   
 16   8   9  1   
 17   9  17  1   
 18   9  18  1   
@<TRIPOS>SUBSTRUCTURE
  1 ****   4 GROUP 4 **** **** 0

# MOE 2024.06 (io_trps.svl 2023.06)
