@<TRIPOS>MOLECULE
NONAME
40 42 1 0 0 
SMALL
USER_CHARGES


@<TRIPOS>ATOM
  1 O       -0.1450     0.8530    -0.4360 O.2   1 <1>  -0.5700 
  2 C       -0.0820     2.0380    -0.2280 C.2   1 <1>   0.5690 
  3 N       -1.0870     2.6800     0.4070 N.am  1 <1>  -0.7300 
  4 C        1.1270     2.8400    -0.7190 C.3   1 <1>   0.1810 
  5 C       -1.0760     4.1340     0.6990 C.3   1 <1>   0.3640 
  6 O        1.2390     4.1100    -0.1120 O.3   1 <1>  -0.5600 
  7 C       -2.4470     4.7140     0.3560 C.ar  1 <1>  -0.1440 
  8 C        0.0390     4.8680    -0.0900 C.3   1 <1>   0.2610 
  9 C       -3.1060     4.3710    -0.8190 C.ar  1 <1>  -0.1500 
 10 C       -3.0490     5.6130     1.2250 C.ar  1 <1>  -0.1500 
 11 C        0.2960     6.2770     0.4720 C.2   1 <1>   0.5690 
 12 C       -4.3440     4.9160    -1.1150 C.ar  1 <1>  -0.1500 
 13 C       -4.2860     6.1580     0.9300 C.ar  1 <1>  -0.1500 
 14 O        0.0410     6.4990     1.6370 O.2   1 <1>  -0.5700 
 15 N        0.8020     7.2730    -0.3300 N.am  1 <1>  -0.6600 
 16 C       -4.9350     5.8100    -0.2410 C.ar  1 <1>  -0.1500 
 17 C        0.9780     8.6550     0.2080 C.3   1 <1>   0.3210 
 18 C        1.3700     7.0630    -1.6940 C.3   1 <1>   0.0600 
 19 C        2.4150     8.8800     0.6540 C.2   1 <1>   0.1080 
 20 N        3.2280     9.7140     0.1040 N.2   1 <1>  -0.4100 
 21 C        3.0330     8.2100     1.7070 C.2   1 <1>  -0.1500 
 22 O        4.3490     9.6110     0.7600 O.3   1 <1>  -0.0190 
 23 C        4.2700     8.7280     1.7180 C.2   1 <1>  -0.0100 
 24 H       -1.8930     2.1450     0.7330 H     1 <1>   0.3700 
 25 H        1.0550     2.9770    -1.7820 H     1 <1>   0.0800 
 26 H        2.0270     2.2930    -0.5010 H     1 <1>   0.0800 
 27 H       -0.8970     4.2510     1.7540 H     1 <1>   0.0800 
 28 H       -0.2900     4.9760    -1.1060 H     1 <1>   0.0800 
 29 H       -2.6640     3.6750    -1.5110 H     1 <1>   0.1500 
 30 H       -2.5550     5.9000     2.1400 H     1 <1>   0.1500 
 31 H       -4.8490     4.6420    -2.0250 H     1 <1>   0.1500 
 32 H       -4.7420     6.8550     1.6110 H     1 <1>   0.1500 
 33 H       -5.8970     6.2330    -0.4700 H     1 <1>   0.1500 
 34 H        0.7250     9.3700    -0.5540 H     1 <1>   0.0800 
 35 H        0.3210     8.8220     1.0440 H     1 <1>   0.0800 
 36 H        2.2690     7.6440    -1.8120 H     1 <1>   0.0800 
 37 H        0.6550     7.3720    -2.4370 H     1 <1>   0.0800 
 38 H        1.6240     6.0300    -1.8530 H     1 <1>   0.0800 
 39 H        2.5840     7.4590     2.3320 H     1 <1>   0.1500 
 40 H        5.1240     8.5380     2.3410 H     1 <1>   0.1500 
@<TRIPOS>BOND
  1   1   2  2   
  2   2   3  am  
  3   2   4  1   
  4   3   5  1   
  5   3  24  1   
  6   4   6  1   
  7   4  25  1   
  8   4  26  1   
  9   5   7  1   
 10   5   8  1   
 11   5  27  1   
 12   6   8  1   
 13   7   9  ar  
 14   7  10  ar  
 15   8  11  1   
 16   8  28  1   
 17   9  12  ar  
 18   9  29  1   
 19  10  13  ar  
 20  10  30  1   
 21  11  14  2   
 22  11  15  am  
 23  12  16  ar  
 24  12  31  1   
 25  13  16  ar  
 26  13  32  1   
 27  15  17  1   
 28  15  18  1   
 29  16  33  1   
 30  17  19  1   
 31  17  34  1   
 32  17  35  1   
 33  18  36  1   
 34  18  37  1   
 35  18  38  1   
 36  19  20  2   
 37  19  21  1   
 38  20  22  1   
 39  21  23  2   
 40  21  39  1   
 41  22  23  1   
 42  23  40  1   
@<TRIPOS>SUBSTRUCTURE
  1 ****  11 GROUP 4 **** **** 0

# MOE 2024.06 (io_trps.svl 2023.06)
