@<TRIPOS>MOLECULE
NONAME
51 54 1 0 0 
SMALL
USER_CHARGES


@<TRIPOS>ATOM
  1 O       -0.2330    -0.3910     0.1220 O.2   1 <1>  -0.5700 
  2 C       -1.2220     0.2690     0.3790 C.2   1 <1>   0.7160 
  3 N       -2.2690    -0.3450     0.9920 N.am  1 <1>  -0.7300 
  4 C       -1.3130     1.6580     0.0400 C.2   1 <1>  -0.0860 
  5 C       -2.5460    -1.7920     1.0180 C.3   1 <1>   0.1400 
  6 C       -2.4970     2.4090    -0.0270 C.2   1 <1>   0.3720 
  7 C       -0.3560     2.5600    -0.3180 C.2   1 <1>   0.0870 
  8 C       -3.8660    -2.0100     0.2870 C.3   1 <1>  -0.1600 
  9 N       -2.2630     3.6180    -0.3980 N.2   1 <1>  -0.4100 
 10 N       -3.7860     1.9220     0.2450 N.pl3 1 <1>  -0.8210 
 11 O       -0.9710     3.6880    -0.5690 O.3   1 <1>  -0.0190 
 12 C        1.0790     2.5020    -0.4480 C.ar  1 <1>   0.0530 
 13 C       -4.3070    -3.4780     0.2630 C.3   1 <1>   0.0080 
 14 C       -4.6650     2.8030     1.0650 C.3   1 <1>   0.2090 
 15 C       -4.5410     1.5000    -0.9720 C.3   1 <1>   0.2090 
 16 C        1.7290     3.2060    -1.4630 C.ar  1 <1>  -0.1500 
 17 C        1.8770     1.7660     0.4290 C.ar  1 <1>  -0.1500 
 18 C       -5.6470    -3.5940    -0.4250 C.2   1 <1>   0.5700 
 19 C       -6.0690     2.6030     0.5160 C.3   1 <1>  -0.1600 
 20 C       -5.8450     2.2850    -0.9540 C.3   1 <1>  -0.1600 
 21 C        3.1040     3.1720    -1.5990 C.ar  1 <1>  -0.1500 
 22 C        3.2520     1.7240     0.2990 C.ar  1 <1>  -0.1500 
 23 N       -6.7630    -3.6380     0.2080 N.2   1 <1>  -0.6190 
 24 N       -5.7850    -3.6190    -1.7050 N.2   1 <1>  -0.6190 
 25 C        3.8790     2.4310    -0.7230 C.ar  1 <1>   0.0820 
 26 N       -7.6620    -3.6970    -0.7110 N.2   1 <1>  -0.2500 
 27 N       -7.0690    -3.6860    -1.8730 N.2   1 <1>  -0.2500 
 28 O        5.2180     2.4450    -0.9230 O.3   1 <1>  -0.3620 
 29 C        6.0900     1.6850    -0.1160 C.3   1 <1>   0.0400 
 30 H       -3.1070     0.2530     1.0560 H     1 <1>   0.3700 
 31 H       -2.6220    -2.1220     2.0400 H     1 <1>   0.0800 
 32 H       -1.7520    -2.3360     0.5330 H     1 <1>   0.0800 
 33 H       -3.7690    -1.6740    -0.7310 H     1 <1>   0.0800 
 34 H       -4.6420    -1.4350     0.7640 H     1 <1>   0.0800 
 35 H       -4.4040    -3.8610     1.2620 H     1 <1>   0.0800 
 36 H       -3.5960    -4.0780    -0.2730 H     1 <1>   0.0800 
 37 H       -4.3760     3.8350     0.9580 H     1 <1>   0.0800 
 38 H       -4.6110     2.5270     2.1040 H     1 <1>   0.0800 
 39 H       -4.7530     0.4470    -0.9090 H     1 <1>   0.0800 
 40 H       -3.9850     1.6930    -1.8740 H     1 <1>   0.0800 
 41 H        1.1450     3.7870    -2.1550 H     1 <1>   0.1500 
 42 H        1.4120     1.2180     1.2280 H     1 <1>   0.1500 
 43 H       -6.6850     3.4730     0.6600 H     1 <1>   0.0800 
 44 H       -6.5240     1.7600     1.0080 H     1 <1>   0.0800 
 45 H       -6.6540     1.7180    -1.3810 H     1 <1>   0.0800 
 46 H       -5.7130     3.1940    -1.5140 H     1 <1>   0.0800 
 47 H        3.5880     3.7200    -2.3870 H     1 <1>   0.1500 
 48 H        3.8170     1.1380     0.9980 H     1 <1>   0.1500 
 49 H        7.0930     1.8400    -0.4700 H     1 <1>   0.0800 
 50 H        5.8270     0.6460    -0.2010 H     1 <1>   0.0800 
 51 H        6.0050     2.0220     0.9020 H     1 <1>   0.0800 
@<TRIPOS>BOND
  1   1   2  2   
  2   2   3  am  
  3   2   4  1   
  4   3   5  1   
  5   3  30  1   
  6   4   6  1   
  7   4   7  2   
  8   5   8  1   
  9   5  31  1   
 10   5  32  1   
 11   6   9  2   
 12   6  10  1   
 13   7  11  1   
 14   7  12  1   
 15   8  13  1   
 16   8  33  1   
 17   8  34  1   
 18   9  11  1   
 19  10  14  1   
 20  10  15  1   
 21  12  16  ar  
 22  12  17  ar  
 23  13  18  1   
 24  13  35  1   
 25  13  36  1   
 26  14  19  1   
 27  14  37  1   
 28  14  38  1   
 29  15  20  1   
 30  15  39  1   
 31  15  40  1   
 32  16  21  ar  
 33  16  41  1   
 34  17  22  ar  
 35  17  42  1   
 36  18  23  1   
 37  18  24  2   
 38  19  20  1   
 39  19  43  1   
 40  19  44  1   
 41  20  45  1   
 42  20  46  1   
 43  21  25  ar  
 44  21  47  1   
 45  22  25  ar  
 46  22  48  1   
 47  23  26  1   
 48  24  27  1   
 49  25  28  1   
 50  26  27  2   
 51  28  29  1   
 52  29  49  1   
 53  29  50  1   
 54  29  51  1   
@<TRIPOS>SUBSTRUCTURE
  1 ****   2 GROUP 4 **** **** 0

# MOE 2024.06 (io_trps.svl 2023.06)
