@<TRIPOS>MOLECULE
NONAME
54 57 1 0 0 
SMALL
USER_CHARGES


@<TRIPOS>ATOM
  1 CL      -0.9680    -1.1090    -1.5550 Cl    1 <1>  -0.1770 
  2 C       -0.8290    -2.8130    -1.1810 C.ar  1 <1>   0.1770 
  3 C       -1.5830    -3.3870    -0.1650 C.ar  1 <1>  -0.1440 
  4 C        0.0590    -3.5520    -1.9410 C.ar  1 <1>  -0.1500 
  5 C       -1.4470    -4.7600     0.0690 C.ar  1 <1>   0.1170 
  6 C       -2.5280    -2.5180     0.6660 C.3   1 <1>  -0.0960 
  7 C        0.2060    -4.9030    -1.6910 C.ar  1 <1>  -0.1500 
  8 N       -2.1720    -5.4500     1.0500 N.am  1 <1>  -0.5470 
  9 C       -0.5440    -5.4950    -0.6920 C.ar  1 <1>  -0.1500 
 10 C       -3.5250    -5.5980     1.1480 C.2   1 <1>   0.5690 
 11 O       -4.3120    -5.0870     0.3870 O.2   1 <1>  -0.5700 
 12 C       -4.0710    -6.4760     2.2370 C.3   1 <1>  -0.0380 
 13 C       -3.9310    -7.9060     1.7800 C.2   1 <1>   0.5690 
 14 O       -3.0370    -8.5440     2.2760 O.2   1 <1>  -0.5700 
 15 N       -4.7510    -8.4670     0.8270 N.am  1 <1>  -0.6600 
 16 C       -5.7910    -7.7070     0.0460 C.3   1 <1>   0.1400 
 17 C       -4.4290    -9.8480     0.3280 C.3   1 <1>   0.1400 
 18 C       -7.0610    -8.5320    -0.2900 C.3   1 <1>   0.4230 
 19 C       -5.5960   -10.5280    -0.4130 C.3   1 <1>   0.3430 
 20 N       -6.9170    -9.9980     0.0610 N.4   1 <1>  -0.9590 
 21 C       -7.4470    -8.3420    -1.7770 C.3   1 <1>   0.1200 
 22 C       -8.1160   -10.7680    -0.4030 C.3   1 <1>   0.5180 
 23 O       -8.5730    -9.1070    -2.1020 O.3   1 <1>  -0.5600 
 24 C       -7.9200   -12.2630    -0.1260 C.3   1 <1>  -0.1950 
 25 C       -8.4410   -10.4860    -1.8860 C.3   1 <1>   0.1200 
 26 C       -9.0670   -13.0910     0.3650 C.3   1 <1>  -0.2000 
 27 C       -7.9030   -12.8090     1.2700 C.3   1 <1>  -0.2000 
 28 H        0.6260    -3.0710    -2.7170 H     1 <1>   0.1500 
 29 H       -2.6820    -2.9330     1.6440 H     1 <1>   0.0800 
 30 H       -3.4780    -2.4420     0.1690 H     1 <1>   0.0800 
 31 H       -2.1280    -1.5290     0.8010 H     1 <1>   0.0800 
 32 H        0.8990    -5.4880    -2.2730 H     1 <1>   0.1500 
 33 H       -1.6090    -6.0420     1.6650 H     1 <1>   0.3700 
 34 H       -0.4300    -6.5480    -0.5060 H     1 <1>   0.1500 
 35 H       -5.0960    -6.2370     2.4420 H     1 <1>   0.0800 
 36 H       -3.5080    -6.3240     3.1380 H     1 <1>   0.0800 
 37 H       -6.1120    -6.8350     0.5860 H     1 <1>   0.0800 
 38 H       -5.3340    -7.3510    -0.8620 H     1 <1>   0.0800 
 39 H       -3.5700    -9.8030    -0.3190 H     1 <1>   0.0800 
 40 H       -4.1570   -10.4660     1.1680 H     1 <1>   0.0800 
 41 H       -7.8700    -8.1210     0.2910 H     1 <1>   0.0800 
 42 H       -5.5290   -11.5910    -0.2490 H     1 <1>   0.0800 
 43 H       -5.4920   -10.3520    -1.4710 H     1 <1>   0.0800 
 44 H       -6.8920   -10.0590     1.0860 H     1 <1>   0.4500 
 45 H       -6.6420    -8.6230    -2.4330 H     1 <1>   0.0800 
 46 H       -7.6930    -7.3110    -1.9660 H     1 <1>   0.0800 
 47 H       -8.9680   -10.4430     0.1720 H     1 <1>   0.0800 
 48 H       -7.3000   -12.7450    -0.8630 H     1 <1>   0.1000 
 49 H       -9.3760   -10.9480    -2.1500 H     1 <1>   0.0800 
 50 H       -7.6750   -10.8680    -2.5370 H     1 <1>   0.0800 
 51 H      -10.0130   -12.6300     0.6000 H     1 <1>   0.1000 
 52 H       -9.1890   -14.0950    -0.0070 H     1 <1>   0.1000 
 53 H       -7.2450   -13.6280     1.5110 H     1 <1>   0.1000 
 54 H       -8.0810   -12.1700     2.1190 H     1 <1>   0.1000 
@<TRIPOS>BOND
  1   1   2  1   
  2   2   3  ar  
  3   2   4  ar  
  4   3   5  ar  
  5   3   6  1   
  6   4   7  ar  
  7   4  28  1   
  8   5   8  1   
  9   5   9  ar  
 10   6  29  1   
 11   6  30  1   
 12   6  31  1   
 13   7   9  ar  
 14   7  32  1   
 15   8  10  am  
 16   8  33  1   
 17   9  34  1   
 18  10  11  2   
 19  10  12  1   
 20  12  13  1   
 21  12  35  1   
 22  12  36  1   
 23  13  14  2   
 24  13  15  am  
 25  15  16  1   
 26  15  17  1   
 27  16  18  1   
 28  16  37  1   
 29  16  38  1   
 30  17  19  1   
 31  17  39  1   
 32  17  40  1   
 33  18  20  1   
 34  18  21  1   
 35  18  41  1   
 36  19  20  1   
 37  19  42  1   
 38  19  43  1   
 39  20  22  1   
 40  20  44  1   
 41  21  23  1   
 42  21  45  1   
 43  21  46  1   
 44  22  24  1   
 45  22  25  1   
 46  22  47  1   
 47  23  25  1   
 48  24  26  1   
 49  24  27  1   
 50  24  48  1   
 51  25  49  1   
 52  25  50  1   
 53  26  27  1   
 54  26  51  1   
 55  26  52  1   
 56  27  53  1   
 57  27  54  1   
@<TRIPOS>SUBSTRUCTURE
  1 ****  16 GROUP 4 **** **** 0

# MOE 2024.06 (io_trps.svl 2023.06)
