@<TRIPOS>MOLECULE
NONAME
48 49 1 0 0 
SMALL
USER_CHARGES


@<TRIPOS>ATOM
  1 O       -2.0940     1.3830    -1.6090 O.2   1 <1>  -0.5700 
  2 C       -2.2990     1.2150    -0.4210 C.2   1 <1>   0.5440 
  3 N       -1.6020     1.9890     0.4900 N.am  1 <1>  -0.6600 
  4 C       -3.2500     0.2090    -0.0110 C.ar  1 <1>   0.0860 
  5 C       -1.3770     1.5930     1.9080 C.3   1 <1>   0.0600 
  6 C       -0.8310     3.1870     0.0560 C.3   1 <1>   0.0600 
  7 C       -3.2470    -1.0470    -0.6110 C.ar  1 <1>   0.1600 
  8 C       -4.2080     0.4290     0.9740 C.ar  1 <1>  -0.1500 
  9 N       -4.0510    -2.0540    -0.3150 N.ar  1 <1>  -0.6200 
 10 C       -5.0560    -0.6040     1.2930 C.ar  1 <1>  -0.1500 
 11 C       -4.9500    -1.8260     0.6350 C.ar  1 <1>   0.4100 
 12 N       -5.7980    -2.8430     0.9730 N.pl3 1 <1>  -0.8690 
 13 C       -6.0620    -3.9970     0.0990 C.3   1 <1>   0.4330 
 14 C       -7.5630    -4.2970     0.1890 C.ar  1 <1>  -0.1430 
 15 C       -5.1800    -5.1740     0.5450 C.3   1 <1>  -0.1600 
 16 C       -8.4100    -4.1980    -0.9140 C.ar  1 <1>  -0.1430 
 17 C       -8.1030    -4.6690     1.4150 C.ar  1 <1>  -0.1500 
 18 C       -5.4030    -6.4440    -0.2920 C.3   1 <1>  -0.2400 
 19 C       -9.7610    -4.4790    -0.7710 C.ar  1 <1>  -0.1500 
 20 C       -7.9020    -3.7840    -2.2890 C.3   1 <1>  -0.0970 
 21 C       -9.4510    -4.9470     1.5480 C.ar  1 <1>  -0.1500 
 22 C      -10.2890    -4.8550     0.4520 C.ar  1 <1>  -0.1430 
 23 C      -11.7700    -5.1560     0.5850 C.3   1 <1>  -0.0970 
 24 H       -1.6770     0.5730     2.0750 H     1 <1>   0.0800 
 25 H       -1.9400     2.2390     2.5580 H     1 <1>   0.0800 
 26 H       -0.3320     1.6780     2.1480 H     1 <1>   0.0800 
 27 H       -1.1790     3.5340    -0.9030 H     1 <1>   0.0800 
 28 H        0.2120     2.9370    -0.0250 H     1 <1>   0.0800 
 29 H       -0.9540     3.9820     0.7710 H     1 <1>   0.0800 
 30 H       -2.5220    -1.2200    -1.3890 H     1 <1>   0.1500 
 31 H       -4.2770     1.3860     1.4610 H     1 <1>   0.1500 
 32 H       -5.8080    -0.4830     2.0490 H     1 <1>   0.1500 
 33 H       -6.6530    -2.5810     1.4630 H     1 <1>   0.4000 
 34 H       -5.7900    -3.7460    -0.9100 H     1 <1>   0.0800 
 35 H       -5.3640    -5.3950     1.5800 H     1 <1>   0.0800 
 36 H       -4.1520    -4.8740     0.4490 H     1 <1>   0.0800 
 37 H       -7.4720    -4.7470     2.2820 H     1 <1>   0.1500 
 38 H       -6.4160    -6.7940    -0.1880 H     1 <1>   0.0800 
 39 H       -4.7380    -7.2230     0.0380 H     1 <1>   0.0800 
 40 H       -5.2110    -6.2460    -1.3320 H     1 <1>   0.0800 
 41 H      -10.4160    -4.4040    -1.6200 H     1 <1>   0.1500 
 42 H       -7.4430    -2.8130    -2.2360 H     1 <1>   0.0800 
 43 H       -8.7060    -3.7350    -3.0010 H     1 <1>   0.0800 
 44 H       -7.1810    -4.4960    -2.6460 H     1 <1>   0.0800 
 45 H       -9.8430    -5.2340     2.5070 H     1 <1>   0.1500 
 46 H      -12.1300    -5.6520    -0.2980 H     1 <1>   0.0800 
 47 H      -12.3160    -4.2400     0.7180 H     1 <1>   0.0800 
 48 H      -11.9520    -5.7950     1.4300 H     1 <1>   0.0800 
@<TRIPOS>BOND
  1   1   2  2   
  2   2   3  am  
  3   2   4  1   
  4   3   5  1   
  5   3   6  1   
  6   4   7  ar  
  7   4   8  ar  
  8   5  24  1   
  9   5  25  1   
 10   5  26  1   
 11   6  27  1   
 12   6  28  1   
 13   6  29  1   
 14   7   9  ar  
 15   7  30  1   
 16   8  10  ar  
 17   8  31  1   
 18   9  11  ar  
 19  10  11  ar  
 20  10  32  1   
 21  11  12  1   
 22  12  13  1   
 23  12  33  1   
 24  13  14  1   
 25  13  15  1   
 26  13  34  1   
 27  14  16  ar  
 28  14  17  ar  
 29  15  18  1   
 30  15  35  1   
 31  15  36  1   
 32  16  19  ar  
 33  16  20  1   
 34  17  21  ar  
 35  17  37  1   
 36  18  38  1   
 37  18  39  1   
 38  18  40  1   
 39  19  22  ar  
 40  19  41  1   
 41  20  42  1   
 42  20  43  1   
 43  20  44  1   
 44  21  22  ar  
 45  21  45  1   
 46  22  23  1   
 47  23  46  1   
 48  23  47  1   
 49  23  48  1   
@<TRIPOS>SUBSTRUCTURE
  1 ****  11 GROUP 4 **** **** 0

# MOE 2024.06 (io_trps.svl 2023.06)
