@<TRIPOS>MOLECULE
NONAME
50 53 1 0 0 
SMALL
USER_CHARGES


@<TRIPOS>ATOM
  1 O        0.9480    -0.1060     0.2860 O.3   1 <1>  -0.5600 
  2 C        1.9920    -0.9780    -0.0950 C.3   1 <1>   0.4240 
  3 C       -0.3390    -0.4060    -0.1440 C.3   1 <1>   0.1200 
  4 C        1.5410    -2.4670    -0.0330 C.ar  1 <1>  -0.1440 
  5 C        3.1090    -0.6770     0.9160 C.3   1 <1>  -0.1600 
  6 C        2.4420    -0.5520    -1.5040 C.3   1 <1>  -0.1600 
  7 C       -0.7830    -1.6770     0.5620 C.3   1 <1>  -0.0160 
  8 C        2.4190    -3.5270    -0.3000 C.ar  1 <1>   0.0820 
  9 C        0.2210    -2.7790     0.2940 C.ar  1 <1>  -0.1440 
 10 C        3.5650     0.7810     0.8500 C.3   1 <1>   0.2090 
 11 C        2.8950     0.9070    -1.5380 C.3   1 <1>   0.2090 
 12 O        3.7030    -3.2470    -0.6480 O.3   1 <1>  -0.3630 
 13 C        1.9760    -4.8460    -0.2160 C.ar  1 <1>  -0.1500 
 14 C       -0.2080    -4.0930     0.3760 C.ar  1 <1>  -0.1500 
 15 N        3.9790     1.1250    -0.5410 N.pl3 1 <1>  -0.8210 
 16 C        4.6700    -4.2440    -0.8900 C.3   1 <1>   0.0400 
 17 C        0.6690    -5.1270     0.1230 C.ar  1 <1>  -0.1500 
 18 C        4.7500     2.2800    -0.7070 C.2   1 <1>   0.5990 
 19 N        4.8310     2.9730    -1.7800 N.2   1 <1>  -0.4100 
 20 N        5.4950     2.7640     0.2810 N.2   1 <1>  -0.5650 
 21 O        5.6530     3.9590    -1.5390 O.3   1 <1>  -0.0190 
 22 C        6.0110     3.7690    -0.2940 C.2   1 <1>   0.2980 
 23 C        6.9850     4.7430     0.3420 C.3   1 <1>   0.0200 
 24 C        8.3800     4.6440    -0.2920 C.3   1 <1>  -0.1600 
 25 C        9.3690     5.6150     0.3630 C.3   1 <1>  -0.2400 
 26 H       -0.3410    -0.5300    -1.2120 H     1 <1>   0.0800 
 27 H       -0.9770     0.4180     0.1210 H     1 <1>   0.0800 
 28 H        3.9690    -1.2880     0.7320 H     1 <1>   0.0800 
 29 H        2.7580    -0.9050     1.9050 H     1 <1>   0.0800 
 30 H        1.6490    -0.7100    -2.2080 H     1 <1>   0.0800 
 31 H        3.2700    -1.1520    -1.8260 H     1 <1>   0.0800 
 32 H       -1.7550    -1.9590     0.2010 H     1 <1>   0.0800 
 33 H       -0.8520    -1.4960     1.6200 H     1 <1>   0.0800 
 34 H        4.3900     0.9120     1.5290 H     1 <1>   0.0800 
 35 H        2.7680     1.4370     1.1570 H     1 <1>   0.0800 
 36 H        2.0690     1.5620    -1.3160 H     1 <1>   0.0800 
 37 H        3.2520     1.1350    -2.5280 H     1 <1>   0.0800 
 38 H        2.6310    -5.6720    -0.4120 H     1 <1>   0.1500 
 39 H       -1.2270    -4.3170     0.6380 H     1 <1>   0.1500 
 40 H        5.5990    -3.7550    -1.1230 H     1 <1>   0.0800 
 41 H        4.3530    -4.8420    -1.7260 H     1 <1>   0.0800 
 42 H        4.7840    -4.8420    -0.0040 H     1 <1>   0.0800 
 43 H        0.3330    -6.1480     0.1890 H     1 <1>   0.1500 
 44 H        7.0510     4.5260     1.3930 H     1 <1>   0.0800 
 45 H        6.5980     5.7400     0.2290 H     1 <1>   0.0800 
 46 H        8.3140     4.8620    -1.3450 H     1 <1>   0.0800 
 47 H        8.7450     3.6360    -0.1860 H     1 <1>   0.0800 
 48 H        9.0350     6.6310     0.2490 H     1 <1>   0.0800 
 49 H       10.3360     5.5210    -0.1000 H     1 <1>   0.0800 
 50 H        9.4730     5.3980     1.4120 H     1 <1>   0.0800 
@<TRIPOS>BOND
  1   1   2  1   
  2   1   3  1   
  3   2   4  1   
  4   2   5  1   
  5   2   6  1   
  6   3   7  1   
  7   3  26  1   
  8   3  27  1   
  9   4   8  ar  
 10   4   9  ar  
 11   5  10  1   
 12   5  28  1   
 13   5  29  1   
 14   6  11  1   
 15   6  30  1   
 16   6  31  1   
 17   7   9  1   
 18   7  32  1   
 19   7  33  1   
 20   8  12  1   
 21   8  13  ar  
 22   9  14  ar  
 23  10  15  1   
 24  10  34  1   
 25  10  35  1   
 26  11  15  1   
 27  11  36  1   
 28  11  37  1   
 29  12  16  1   
 30  13  17  ar  
 31  13  38  1   
 32  14  17  ar  
 33  14  39  1   
 34  15  18  1   
 35  16  40  1   
 36  16  41  1   
 37  16  42  1   
 38  17  43  1   
 39  18  19  2   
 40  18  20  1   
 41  19  21  1   
 42  20  22  2   
 43  21  22  1   
 44  22  23  1   
 45  23  24  1   
 46  23  44  1   
 47  23  45  1   
 48  24  25  1   
 49  24  46  1   
 50  24  47  1   
 51  25  48  1   
 52  25  49  1   
 53  25  50  1   
@<TRIPOS>SUBSTRUCTURE
  1 ****   5 GROUP 4 **** **** 0

# MOE 2024.06 (io_trps.svl 2023.06)
