@<TRIPOS>MOLECULE
NONAME
38 39 1 0 0 
SMALL
USER_CHARGES


@<TRIPOS>ATOM
  1 O       -0.3110    -0.0490    -0.4190 O.2   1 <1>  -0.5700 
  2 C       -0.8890    -0.9500     0.1560 C.2   1 <1>   0.7800 
  3 O       -0.2690    -2.1080     0.4080 O.3   1 <1>  -0.4300 
  4 N       -2.1940    -0.8430     0.5600 N.am  1 <1>  -0.6600 
  5 C        1.0630    -2.4540     0.0940 C.3   1 <1>   0.2800 
  6 C       -2.9110    -1.9460     1.2620 C.3   1 <1>   0.1400 
  7 C       -3.0120     0.3650     0.2300 C.3   1 <1>   0.1400 
  8 C        1.2730    -2.4440    -1.4240 C.3   1 <1>  -0.2400 
  9 C        1.2370    -3.8800     0.6170 C.3   1 <1>  -0.2400 
 10 C        2.0390    -1.5260     0.8280 C.3   1 <1>  -0.2400 
 11 C       -3.7680    -2.7580     0.2860 C.3   1 <1>   0.0960 
 12 C       -3.9610     0.0860    -0.9370 C.3   1 <1>   0.0200 
 13 N       -5.0080    -2.0320    -0.0430 N.pl3 1 <1>   0.0480 
 14 C       -5.1420    -0.7820    -0.5130 C.2   1 <1>  -0.3320 
 15 C       -6.2660    -2.4480     0.1990 C.2   1 <1>   0.0360 
 16 C       -6.4780    -0.4700    -0.5190 C.2   1 <1>  -0.0060 
 17 N       -7.1680    -1.5710    -0.0670 N.2   1 <1>  -0.5650 
 18 C       -7.0990     0.8160    -0.9050 C.2   1 <1>   1.0330 
 19 O       -8.1840     0.8860    -1.5190 O.co2 1 <1>  -0.9000 
 20 O       -6.5190     1.8950    -0.6470 O.co2 1 <1>  -0.9000 
 21 H       -3.5310    -1.5380     2.0430 H     1 <1>   0.0800 
 22 H       -2.1970    -2.6020     1.7290 H     1 <1>   0.0800 
 23 H       -2.3660     1.1840    -0.0370 H     1 <1>   0.0800 
 24 H       -3.5850     0.6710     1.0890 H     1 <1>   0.0800 
 25 H        0.5280    -3.0480    -1.9100 H     1 <1>   0.0800 
 26 H        2.2430    -2.8400    -1.6630 H     1 <1>   0.0800 
 27 H        1.2270    -1.4440    -1.8160 H     1 <1>   0.0800 
 28 H        0.5450    -4.5430     0.1300 H     1 <1>   0.0800 
 29 H        1.0690    -3.9120     1.6780 H     1 <1>   0.0800 
 30 H        2.2350    -4.2300     0.4210 H     1 <1>   0.0800 
 31 H        1.9940    -0.5270     0.4360 H     1 <1>   0.0800 
 32 H        3.0470    -1.8780     0.6990 H     1 <1>   0.0800 
 33 H        1.8170    -1.5040     1.8790 H     1 <1>   0.0800 
 34 H       -4.0360    -3.6930     0.7410 H     1 <1>   0.0800 
 35 H       -3.2200    -2.9580    -0.6160 H     1 <1>   0.0800 
 36 H       -3.4240    -0.3800    -1.7430 H     1 <1>   0.0800 
 37 H       -4.3220     1.0270    -1.3070 H     1 <1>   0.0800 
 38 H       -6.4810    -3.4270     0.5850 H     1 <1>   0.1500 
@<TRIPOS>BOND
  1   1   2  2   
  2   2   3  1   
  3   2   4  am  
  4   3   5  1   
  5   4   6  1   
  6   4   7  1   
  7   5   8  1   
  8   5   9  1   
  9   5  10  1   
 10   6  11  1   
 11   6  21  1   
 12   6  22  1   
 13   7  12  1   
 14   7  23  1   
 15   7  24  1   
 16   8  25  1   
 17   8  26  1   
 18   8  27  1   
 19   9  28  1   
 20   9  29  1   
 21   9  30  1   
 22  10  31  1   
 23  10  32  1   
 24  10  33  1   
 25  11  13  1   
 26  11  34  1   
 27  11  35  1   
 28  12  14  1   
 29  12  36  1   
 30  12  37  1   
 31  13  14  1   
 32  13  15  1   
 33  14  16  2   
 34  15  17  2   
 35  15  38  1   
 36  16  17  1   
 37  16  18  1   
 38  18  19  ar  
 39  18  20  ar  
@<TRIPOS>SUBSTRUCTURE
  1 ****   4 GROUP 4 **** **** 0

# MOE 2024.06 (io_trps.svl 2023.06)
