@<TRIPOS>MOLECULE
Untitled Document
51 53 1 0 0 
SMALL
USER_CHARGES


@<TRIPOS>ATOM
  1 F        3.6580     6.3220     1.3750 F     1 <1>  -0.3400 
  2 C        2.8720     6.4830     0.3160 C.3   1 <1>   1.1640 
  3 F        2.4620     7.7440     0.3470 F     1 <1>  -0.3400 
  4 F        3.6610     6.3740    -0.7480 F     1 <1>  -0.3400 
  5 C        1.6920     5.4960     0.3010 C.ar  1 <1>  -0.1440 
  6 C        1.2450     4.9200    -0.8840 C.ar  1 <1>  -0.1500 
  7 C        1.0370     5.1650     1.4830 C.ar  1 <1>  -0.1500 
  8 C        0.1810     4.0350    -0.8840 C.ar  1 <1>  -0.1500 
  9 C       -0.0270     4.2800     1.4810 C.ar  1 <1>  -0.1500 
 10 C       -0.4630     3.7060     0.2970 C.ar  1 <1>  -0.1430 
 11 C       -1.6290     2.7180     0.2910 C.3   1 <1>   0.0440 
 12 C       -2.9570     3.2930    -0.2100 C.2   1 <1>   0.5690 
 13 O       -2.9230     4.3340    -0.8250 O.2   1 <1>  -0.5700 
 14 N       -4.1600     2.6560     0.0370 N.am  1 <1>  -0.6600 
 15 C       -5.5100     3.0870    -0.5010 C.3   1 <1>   0.2200 
 16 C       -4.2310     1.2580     0.5710 C.3   1 <1>   0.1400 
 17 C       -5.8610     2.1760    -1.6880 C.3   1 <1>  -0.1600 
 18 C       -5.7040     4.5780    -0.8950 C.3   1 <1>   0.3430 
 19 C       -4.5700     0.3020    -0.5760 C.3   1 <1>  -0.1600 
 20 C       -5.8780     0.6960    -1.2780 C.3   1 <1>  -0.1600 
 21 N       -5.1600     5.5480     0.1060 N.4   1 <1>  -0.9590 
 22 C       -5.6550     5.4290     1.4910 C.3   1 <1>   0.3430 
 23 C       -5.2760     6.9660    -0.2900 C.3   1 <1>   0.3430 
 24 C       -5.1950     6.7230     2.1450 C.3   1 <1>  -0.1600 
 25 C       -5.0680     7.7420     1.0070 C.3   1 <1>  -0.1600 
 26 H        1.7220     5.1570    -1.8210 H     1 <1>   0.1500 
 27 H        1.3560     5.5960     2.4180 H     1 <1>   0.1500 
 28 H       -0.1470     3.6060    -1.8160 H     1 <1>   0.1500 
 29 H       -0.5090     4.0410     2.4130 H     1 <1>   0.1500 
 30 H       -1.7570     2.3600     1.2940 H     1 <1>   0.0800 
 31 H       -1.3690     1.8790    -0.3290 H     1 <1>   0.0800 
 32 H       -6.2360     2.8910     0.2690 H     1 <1>   0.0800 
 33 H       -4.9970     1.2040     1.3270 H     1 <1>   0.0800 
 34 H       -3.3100     0.9460     1.0280 H     1 <1>   0.0800 
 35 H       -5.1390     2.3250    -2.4740 H     1 <1>   0.0800 
 36 H       -6.8290     2.4370    -2.0790 H     1 <1>   0.0800 
 37 H       -6.7530     4.7640    -1.0490 H     1 <1>   0.0800 
 38 H       -5.2040     4.7370    -1.8360 H     1 <1>   0.0800 
 39 H       -4.6590    -0.6990    -0.1920 H     1 <1>   0.0800 
 40 H       -3.7620     0.3050    -1.2880 H     1 <1>   0.0800 
 41 H       -6.0220     0.0780    -2.1480 H     1 <1>   0.0800 
 42 H       -6.7050     0.5180    -0.6110 H     1 <1>   0.0800 
 43 H       -4.1400     5.3350     0.1120 H     1 <1>   0.4500 
 44 H       -5.2500     4.5610     1.9860 H     1 <1>   0.0800 
 45 H       -6.7320     5.3830     1.4920 H     1 <1>   0.0800 
 46 H       -6.2630     7.1620    -0.6750 H     1 <1>   0.0800 
 47 H       -4.5380     7.2270    -1.0330 H     1 <1>   0.0800 
 48 H       -4.2360     6.5640     2.6080 H     1 <1>   0.0800 
 49 H       -5.8920     7.0420     2.9000 H     1 <1>   0.0800 
 50 H       -5.8070     8.5200     1.0900 H     1 <1>   0.0800 
 51 H       -4.0920     8.1960     1.0120 H     1 <1>   0.0800 
@<TRIPOS>BOND
  1   1   2  1   
  2   2   3  1   
  3   2   4  1   
  4   2   5  1   
  5   5   6  ar  
  6   5   7  ar  
  7   6   8  ar  
  8   6  26  1   
  9   7   9  ar  
 10   7  27  1   
 11   8  10  ar  
 12   8  28  1   
 13   9  10  ar  
 14   9  29  1   
 15  10  11  1   
 16  11  12  1   
 17  11  30  1   
 18  11  31  1   
 19  12  13  2   
 20  12  14  am  
 21  14  15  1   
 22  14  16  1   
 23  15  17  1   
 24  15  18  1   
 25  15  32  1   
 26  16  19  1   
 27  16  33  1   
 28  16  34  1   
 29  17  20  1   
 30  17  35  1   
 31  17  36  1   
 32  18  21  1   
 33  18  37  1   
 34  18  38  1   
 35  19  20  1   
 36  19  39  1   
 37  19  40  1   
 38  20  41  1   
 39  20  42  1   
 40  21  22  1   
 41  21  23  1   
 42  21  43  1   
 43  22  24  1   
 44  22  44  1   
 45  22  45  1   
 46  23  25  1   
 47  23  46  1   
 48  23  47  1   
 49  24  25  1   
 50  24  48  1   
 51  24  49  1   
 52  25  50  1   
 53  25  51  1   
@<TRIPOS>SUBSTRUCTURE
  1 ****  13 GROUP 4 **** **** 0

# MOE 2024.06 (io_trps.svl 2023.06)
