@<TRIPOS>MOLECULE
NONAME
46 48 1 0 0 
SMALL
USER_CHARGES


@<TRIPOS>ATOM
  1 F        1.5670     1.0360     0.0340 F     1 <1>  -0.1900 
  2 C        2.2280    -0.0610    -0.2400 C.ar  1 <1>   0.1900 
  3 C        1.8440    -1.2740     0.3360 C.ar  1 <1>   0.0820 
  4 C        3.3340     0.0540    -1.0770 C.ar  1 <1>   0.0860 
  5 O        0.7820    -1.4600     1.1640 O.3   1 <1>  -0.3630 
  6 C        2.6060    -2.3990     0.0640 C.ar  1 <1>  -0.1500 
  7 C        3.7360     1.3150    -1.6560 C.2   1 <1>   0.5440 
  8 C        4.0610    -1.1070    -1.3400 C.ar  1 <1>  -0.1500 
  9 C       -0.4090    -0.7170     1.0050 C.3   1 <1>   0.0400 
 10 C        3.7060    -2.3180    -0.7730 C.ar  1 <1>  -0.1500 
 11 O        3.5390     1.4990    -2.8390 O.2   1 <1>  -0.5700 
 12 N        4.3820     2.3010    -0.9320 N.am  1 <1>  -0.6600 
 13 C        4.6040     2.2080     0.5620 C.3   1 <1>   0.2200 
 14 C        4.8510     3.5250    -1.6650 C.3   1 <1>   0.1400 
 15 C        4.0670     3.4420     1.3050 C.3   1 <1>   0.1200 
 16 C        6.0860     1.9410     0.9160 C.3   1 <1>   0.3430 
 17 C        5.8430     4.4280    -0.9090 C.3   1 <1>  -0.0800 
 18 O        5.0350     4.4440     1.3750 O.3   1 <1>  -0.5600 
 19 N        7.0170     2.2800    -0.1980 N.4   1 <1>  -0.9590 
 20 C        5.1830     5.2180     0.2310 C.3   1 <1>   0.1200 
 21 C        7.1540     3.7440    -0.4820 C.3   1 <1>   0.3430 
 22 C        8.3970     1.6630    -0.0260 C.3   1 <1>   0.2370 
 23 C        9.3020     1.7880    -1.2530 C.2   1 <1>   0.9060 
 24 O        9.8850     2.8610    -1.4350 O.co2 1 <1>  -0.9000 
 25 O        9.3060     0.8570    -2.0600 O.co2 1 <1>  -0.9000 
 26 H        2.3270    -3.3400     0.5060 H     1 <1>   0.1500 
 27 H        4.9110    -1.0550    -2.0020 H     1 <1>   0.1500 
 28 H       -1.2010    -1.2430     1.5070 H     1 <1>   0.0800 
 29 H       -0.6350    -0.6290    -0.0440 H     1 <1>   0.0800 
 30 H       -0.2820     0.2520     1.4520 H     1 <1>   0.0800 
 31 H        4.2830    -3.2030    -0.9860 H     1 <1>   0.1500 
 32 H        4.0430     1.3820     0.9510 H     1 <1>   0.0800 
 33 H        5.3200     3.2110    -2.5840 H     1 <1>   0.0800 
 34 H        3.9850     4.1030    -1.9420 H     1 <1>   0.0800 
 35 H        3.8400     3.1690     2.3200 H     1 <1>   0.0800 
 36 H        3.1680     3.8210     0.8490 H     1 <1>   0.0800 
 37 H        6.1870     0.8940     1.1450 H     1 <1>   0.0800 
 38 H        6.3530     2.4940     1.8010 H     1 <1>   0.0800 
 39 H        6.1350     5.1810    -1.6190 H     1 <1>   0.0800 
 40 H        6.6220     1.8700    -1.0620 H     1 <1>   0.4500 
 41 H        4.2200     5.6070    -0.0590 H     1 <1>   0.0800 
 42 H        5.8100     6.0510     0.5020 H     1 <1>   0.0800 
 43 H        7.5590     4.2470     0.3810 H     1 <1>   0.0800 
 44 H        7.8640     3.8710    -1.2850 H     1 <1>   0.0800 
 45 H        8.9070     2.1300     0.7970 H     1 <1>   0.0800 
 46 H        8.3020     0.6130     0.1800 H     1 <1>   0.0800 
@<TRIPOS>BOND
  1   1   2  1   
  2   2   3  ar  
  3   2   4  ar  
  4   3   5  1   
  5   3   6  ar  
  6   4   7  1   
  7   4   8  ar  
  8   5   9  1   
  9   6  10  ar  
 10   6  26  1   
 11   7  11  2   
 12   7  12  am  
 13   8  10  ar  
 14   8  27  1   
 15   9  28  1   
 16   9  29  1   
 17   9  30  1   
 18  10  31  1   
 19  12  13  1   
 20  12  14  1   
 21  13  15  1   
 22  13  16  1   
 23  13  32  1   
 24  14  17  1   
 25  14  33  1   
 26  14  34  1   
 27  15  18  1   
 28  15  35  1   
 29  15  36  1   
 30  16  19  1   
 31  16  37  1   
 32  16  38  1   
 33  17  20  1   
 34  17  21  1   
 35  17  39  1   
 36  18  20  1   
 37  19  21  1   
 38  19  22  1   
 39  19  40  1   
 40  20  41  1   
 41  20  42  1   
 42  21  43  1   
 43  21  44  1   
 44  22  23  1   
 45  22  45  1   
 46  22  46  1   
 47  23  24  ar  
 48  23  25  ar  
@<TRIPOS>SUBSTRUCTURE
  1 ****  12 GROUP 4 **** **** 0

# MOE 2024.06 (io_trps.svl 2023.06)
