@<TRIPOS>MOLECULE
NONAME
39 40 1 0 0 
SMALL
USER_CHARGES


@<TRIPOS>ATOM
  1 S        0.5250     1.3880     2.3360 S.3   1 <1>  -0.0800 
  2 C       -0.5820     1.9870     1.1280 C.2   1 <1>  -0.1400 
  3 C       -0.4640    -0.0460     2.4880 C.2   1 <1>   0.2280 
  4 C       -1.5640     1.0870     0.9580 C.2   1 <1>   0.0460 
  5 C       -0.2720     3.3290     0.5090 C.3   1 <1>   0.5230 
  6 N       -1.4820    -0.0580     1.7240 N.2   1 <1>  -0.5650 
  7 C       -2.7560     1.1700     0.0260 C.3   1 <1>  -0.0590 
  8 N        1.0450     3.2410    -0.1860 N.4   1 <1>  -0.9590 
  9 C        1.5280     4.5850    -0.6110 C.3   1 <1>   0.4860 
 10 C        1.0080     2.2550    -1.3030 C.3   1 <1>   0.3430 
 11 C        1.7760     5.4360     0.6160 C.ar  1 <1>  -0.1430 
 12 C        2.4270     1.8510    -1.7070 C.3   1 <1>  -0.1600 
 13 C        0.8500     6.3910     1.0040 C.ar  1 <1>   0.1900 
 14 C        2.9260     5.2920     1.3820 C.ar  1 <1>  -0.1500 
 15 C        2.3950     0.7420    -2.7650 C.3   1 <1>  -0.2400 
 16 F       -0.2430     6.5250     0.3010 F     1 <1>  -0.1900 
 17 C        1.0260     7.1940     2.1130 C.ar  1 <1>  -0.1500 
 18 C        3.1180     6.0870     2.5010 C.ar  1 <1>  -0.1500 
 19 C        2.1750     7.0350     2.8680 C.ar  1 <1>  -0.1500 
 20 H       -0.1500    -0.7940     3.1960 H     1 <1>   0.1500 
 21 H       -0.2370     4.0690     1.2910 H     1 <1>   0.0800 
 22 H       -1.0470     3.6040    -0.1880 H     1 <1>   0.0800 
 23 H       -2.7570     2.0860    -0.5340 H     1 <1>   0.0800 
 24 H       -3.6630     1.1160     0.6010 H     1 <1>   0.0800 
 25 H       -2.7390     0.3400    -0.6580 H     1 <1>   0.0800 
 26 H        1.6980     2.8860     0.5250 H     1 <1>   0.4500 
 27 H        0.8020     5.0590    -1.2520 H     1 <1>   0.0800 
 28 H        2.4510     4.4930    -1.1590 H     1 <1>   0.0800 
 29 H        0.4850     2.6660    -2.1510 H     1 <1>   0.0800 
 30 H        0.4840     1.3660    -0.9870 H     1 <1>   0.0800 
 31 H        2.9600     1.4830    -0.8470 H     1 <1>   0.0800 
 32 H        2.9610     2.6900    -2.1160 H     1 <1>   0.0800 
 33 H        3.6840     4.5720     1.1210 H     1 <1>   0.1500 
 34 H        1.8940    -0.1330    -2.3870 H     1 <1>   0.0800 
 35 H        3.3990     0.4620    -3.0350 H     1 <1>   0.0800 
 36 H        1.8890     1.0740    -3.6550 H     1 <1>   0.0800 
 37 H        0.2830     7.9260     2.3820 H     1 <1>   0.1500 
 38 H        4.0120     5.9740     3.0940 H     1 <1>   0.1500 
 39 H        2.3380     7.6490     3.7390 H     1 <1>   0.1500 
@<TRIPOS>BOND
  1   1   2  1   
  2   1   3  1   
  3   2   4  2   
  4   2   5  1   
  5   3   6  2   
  6   3  20  1   
  7   4   6  1   
  8   4   7  1   
  9   5   8  1   
 10   5  21  1   
 11   5  22  1   
 12   7  23  1   
 13   7  24  1   
 14   7  25  1   
 15   8   9  1   
 16   8  10  1   
 17   8  26  1   
 18   9  11  1   
 19   9  27  1   
 20   9  28  1   
 21  10  12  1   
 22  10  29  1   
 23  10  30  1   
 24  11  13  ar  
 25  11  14  ar  
 26  12  15  1   
 27  12  31  1   
 28  12  32  1   
 29  13  16  1   
 30  13  17  ar  
 31  14  18  ar  
 32  14  33  1   
 33  15  34  1   
 34  15  35  1   
 35  15  36  1   
 36  17  19  ar  
 37  17  37  1   
 38  18  19  ar  
 39  18  38  1   
 40  19  39  1   
@<TRIPOS>SUBSTRUCTURE
  1 ****   8 GROUP 4 **** **** 0

# MOE 2024.06 (io_trps.svl 2023.06)
