@<TRIPOS>MOLECULE
NONAME
47 49 1 0 0 
SMALL
USER_CHARGES


@<TRIPOS>ATOM
  1 F        1.2350     1.0030    -1.2500 F     1 <1>  -0.1900 
  2 C        1.4260     2.1150    -0.5870 C.ar  1 <1>   0.1900 
  3 C        1.1160     3.3110    -1.1870 C.ar  1 <1>  -0.1500 
  4 C        1.9410     2.0200     0.7100 C.ar  1 <1>  -0.1500 
  5 C        1.3320     4.4730    -0.4510 C.ar  1 <1>   0.2270 
  6 C        2.1540     3.1730     1.4360 C.ar  1 <1>  -0.1500 
  7 N        1.1160     5.7710    -0.8020 N.2   1 <1>  -0.5650 
  8 C        1.8420     4.3980     0.8350 C.ar  1 <1>  -0.1520 
  9 C        1.4780     6.4470     0.2320 C.2   1 <1>   0.0060 
 10 N        1.9280     5.6830     1.2600 N.pl3 1 <1>   0.0330 
 11 C        1.4280     7.9590     0.3150 C.3   1 <1>   0.0200 
 12 C        2.7370     8.5560    -0.2080 C.3   1 <1>   0.1100 
 13 N        2.8720     9.9730     0.1760 N.3   1 <1>  -0.8100 
 14 C        4.3020    10.4020     0.0990 C.3   1 <1>   0.1710 
 15 C        1.9840    10.8430    -0.6090 C.3   1 <1>   0.0300 
 16 C        4.6480    11.7500     0.7500 C.2   1 <1>   0.5690 
 17 O        5.1680    11.7610     1.8410 O.2   1 <1>  -0.5700 
 18 N        4.4180    12.9060     0.0660 N.am  1 <1>  -0.7300 
 19 C        4.6840    14.2730     0.5970 C.3   1 <1>   0.1400 
 20 C        6.1870    14.5610     0.7320 C.3   1 <1>   0.2000 
 21 O        6.3730    15.9150     0.9840 O.3   1 <1>  -0.5600 
 22 C        7.0130    14.3100    -0.5250 C.3   1 <1>  -0.1600 
 23 C        7.6850    16.2700     0.6950 C.3   1 <1>   0.1200 
 24 C        8.1500    15.3130    -0.4000 C.3   1 <1>  -0.1600 
 25 H        0.7210     3.3710    -2.1820 H     1 <1>   0.1500 
 26 H        2.1610     1.0500     1.1180 H     1 <1>   0.1500 
 27 H        2.5480     3.1390     2.4360 H     1 <1>   0.1500 
 28 H        2.2630     6.0080     2.1700 H     1 <1>   0.2700 
 29 H        1.2710     8.2600     1.3350 H     1 <1>   0.0800 
 30 H        0.6030     8.3080    -0.2790 H     1 <1>   0.0800 
 31 H        2.7930     8.4430    -1.2780 H     1 <1>   0.0800 
 32 H        3.5480     7.9960     0.2270 H     1 <1>   0.0800 
 33 H        4.6130    10.4280    -0.9290 H     1 <1>   0.0800 
 34 H        4.9080     9.6670     0.5980 H     1 <1>   0.0800 
 35 H        0.9630    10.5130    -0.5250 H     1 <1>   0.0800 
 36 H        2.2670    10.8360    -1.6480 H     1 <1>   0.0800 
 37 H        2.0250    11.8500    -0.2320 H     1 <1>   0.0800 
 38 H        3.9630    12.8640    -0.8450 H     1 <1>   0.3700 
 39 H        4.2270    14.3670     1.5670 H     1 <1>   0.0800 
 40 H        4.2440    14.9970    -0.0640 H     1 <1>   0.0800 
 41 H        6.5950    14.0170     1.5670 H     1 <1>   0.0800 
 42 H        6.4230    14.5250    -1.3990 H     1 <1>   0.0800 
 43 H        7.3590    13.2930    -0.5690 H     1 <1>   0.0800 
 44 H        8.2690    16.1500     1.5920 H     1 <1>   0.0800 
 45 H        7.7020    17.2980     0.3760 H     1 <1>   0.0800 
 46 H        8.3150    15.8360    -1.3250 H     1 <1>   0.0800 
 47 H        9.0640    14.8320    -0.1000 H     1 <1>   0.0800 
@<TRIPOS>BOND
  1   1   2  1   
  2   2   3  ar  
  3   2   4  ar  
  4   3   5  ar  
  5   3  25  1   
  6   4   6  ar  
  7   4  26  1   
  8   5   7  1   
  9   5   8  ar  
 10   6   8  ar  
 11   6  27  1   
 12   7   9  2   
 13   8  10  1   
 14   9  10  1   
 15   9  11  1   
 16  10  28  1   
 17  11  12  1   
 18  11  29  1   
 19  11  30  1   
 20  12  13  1   
 21  12  31  1   
 22  12  32  1   
 23  13  14  1   
 24  13  15  1   
 25  14  16  1   
 26  14  33  1   
 27  14  34  1   
 28  15  35  1   
 29  15  36  1   
 30  15  37  1   
 31  16  17  2   
 32  16  18  am  
 33  18  19  1   
 34  18  38  1   
 35  19  20  1   
 36  19  39  1   
 37  19  40  1   
 38  20  21  1   
 39  20  22  1   
 40  20  41  1   
 41  21  23  1   
 42  22  24  1   
 43  22  42  1   
 44  22  43  1   
 45  23  24  1   
 46  23  44  1   
 47  23  45  1   
 48  24  46  1   
 49  24  47  1   
@<TRIPOS>SUBSTRUCTURE
  1 ****  12 GROUP 4 **** **** 0

# MOE 2024.06 (io_trps.svl 2023.06)
