@<TRIPOS>MOLECULE
NONAME
43 44 1 0 0 
SMALL
USER_CHARGES


@<TRIPOS>ATOM
  1 S       -1.0070     0.4350    -1.5400 S.o2  1 <1>   1.4470 
  2 O       -0.9750    -0.7560    -2.3620 O.2   1 <1>  -0.6500 
  3 O       -1.6460     1.6160    -2.0840 O.2   1 <1>  -0.6500 
  4 N       -1.8480     0.0660    -0.1100 N.am  1 <1>  -0.8490 
  5 C        0.6720     0.8690    -1.0010 C.ar  1 <1>  -0.0090 
  6 C       -1.2040    -0.9010     0.7980 C.3   1 <1>   0.1960 
  7 C       -3.2820    -0.1940    -0.3310 C.3   1 <1>   0.1960 
  8 C        1.0130     2.1800    -0.6890 C.ar  1 <1>  -0.1500 
  9 C        1.6540    -0.1050    -0.8550 C.ar  1 <1>  -0.1500 
 10 C       -1.3060    -2.3440     0.2970 C.3   1 <1>  -0.1860 
 11 C       -3.7310    -1.6020     0.0880 C.3   1 <1>  -0.1600 
 12 C        2.2830     2.5210    -0.2490 C.ar  1 <1>  -0.1440 
 13 C        2.9240     0.2130    -0.4110 C.ar  1 <1>  -0.1500 
 14 C       -0.8680    -3.1980     1.4620 C.2   1 <1>   0.9060 
 15 C       -2.6910    -2.6420    -0.3180 C.3   1 <1>   0.2000 
 16 C        3.2480     1.5300    -0.1020 C.ar  1 <1>   0.0820 
 17 C        2.6070     3.9720     0.0750 C.3   1 <1>  -0.0970 
 18 O        0.3430    -3.2830     1.6810 O.co2 1 <1>  -0.9000 
 19 O       -1.7150    -3.7270     2.1930 O.co2 1 <1>  -0.9000 
 20 O       -3.1620    -3.8760     0.0680 O.3   1 <1>  -0.6800 
 21 O        4.4760     1.9010     0.3460 O.3   1 <1>  -0.3630 
 22 C        5.4490     0.9470     0.7010 C.3   1 <1>   0.1200 
 23 C        6.6560     1.6900     1.2660 C.3   1 <1>  -0.2400 
 24 H       -0.1740    -0.6450     0.9740 H     1 <1>   0.0800 
 25 H       -1.6960    -0.8370     1.7550 H     1 <1>   0.0800 
 26 H       -3.8520     0.5350     0.2200 H     1 <1>   0.0800 
 27 H       -3.5190    -0.0580    -1.3740 H     1 <1>   0.0800 
 28 H        0.2610     2.9440    -0.7950 H     1 <1>   0.1500 
 29 H        1.4180    -1.1320    -1.0830 H     1 <1>   0.1500 
 30 H       -0.5720    -2.4940    -0.4690 H     1 <1>   0.0800 
 31 H       -4.6720    -1.8270    -0.3800 H     1 <1>   0.0800 
 32 H       -3.8710    -1.6300     1.1550 H     1 <1>   0.0800 
 33 H        3.6380    -0.5820    -0.3090 H     1 <1>   0.1500 
 34 H       -2.6100    -2.6550    -1.3920 H     1 <1>   0.0800 
 35 H        1.7650     4.6130    -0.1120 H     1 <1>   0.0800 
 36 H        3.4320     4.3030    -0.5300 H     1 <1>   0.0800 
 37 H        2.8840     4.0590     1.1110 H     1 <1>   0.0800 
 38 H       -2.7930    -4.0410     0.9900 H     1 <1>   0.4000 
 39 H        5.0260     0.2890     1.4410 H     1 <1>   0.0800 
 40 H        5.7210     0.3940    -0.1800 H     1 <1>   0.0800 
 41 H        6.3680     2.2530     2.1360 H     1 <1>   0.0800 
 42 H        7.0600     2.3560     0.5250 H     1 <1>   0.0800 
 43 H        7.4170     0.9860     1.5490 H     1 <1>   0.0800 
@<TRIPOS>BOND
  1   1   2  2   
  2   1   3  2   
  3   1   4  am  
  4   1   5  1   
  5   4   6  1   
  6   4   7  1   
  7   5   8  ar  
  8   5   9  ar  
  9   6  10  1   
 10   6  24  1   
 11   6  25  1   
 12   7  11  1   
 13   7  26  1   
 14   7  27  1   
 15   8  12  ar  
 16   8  28  1   
 17   9  13  ar  
 18   9  29  1   
 19  10  14  1   
 20  10  15  1   
 21  10  30  1   
 22  11  15  1   
 23  11  31  1   
 24  11  32  1   
 25  12  16  ar  
 26  12  17  1   
 27  13  16  ar  
 28  13  33  1   
 29  14  18  ar  
 30  14  19  ar  
 31  15  20  1   
 32  15  34  1   
 33  16  21  1   
 34  17  35  1   
 35  17  36  1   
 36  17  37  1   
 37  20  38  1   
 38  21  22  1   
 39  22  23  1   
 40  22  39  1   
 41  22  40  1   
 42  23  41  1   
 43  23  42  1   
 44  23  43  1   
@<TRIPOS>SUBSTRUCTURE
  1 ****   5 GROUP 4 **** **** 0

# MOE 2024.06 (io_trps.svl 2023.06)
