@<TRIPOS>MOLECULE
NONAME
39 38 1 0 0 
SMALL
USER_CHARGES


@<TRIPOS>ATOM
  1 O       -1.2930     0.0730     1.3460 O.2   1 <1>  -0.5700 
  2 C       -0.9130    -0.1430     0.2130 C.2   1 <1>   0.7800 
  3 O       -0.3780    -1.3030    -0.1540 O.3   1 <1>  -0.4300 
  4 N       -1.0520     0.7670    -0.7690 N.am  1 <1>  -0.7300 
  5 C       -0.2470    -2.4600     0.6430 C.3   1 <1>   0.2800 
  6 C       -1.8810     1.9980    -0.6450 C.3   1 <1>   0.2810 
  7 C        0.3840    -3.5080    -0.2740 C.3   1 <1>  -0.2400 
  8 C       -1.6290    -2.9490     1.0950 C.3   1 <1>  -0.2400 
  9 C        0.6940    -2.1890     1.8230 C.3   1 <1>  -0.2400 
 10 C       -3.3940     1.6720    -0.6740 C.2   1 <1>   0.5690 
 11 C       -1.4460     3.0040    -1.7300 C.3   1 <1>  -0.1600 
 12 O       -4.1060     2.1080    -1.5500 O.2   1 <1>  -0.5700 
 13 N       -3.9000     0.8750     0.2970 N.am  1 <1>  -0.7300 
 14 C        0.0330     3.4130    -1.6360 C.3   1 <1>  -0.2400 
 15 C       -5.2280     0.3030     0.2860 C.3   1 <1>   0.4200 
 16 O       -5.0730    -0.9350     0.8770 O.3   1 <1>  -0.5600 
 17 C       -6.2450    -1.6800     0.9260 C.3   1 <1>   0.0400 
 18 H       -0.8440     0.4590    -1.7160 H     1 <1>   0.3700 
 19 H       -1.6800     2.4400     0.3160 H     1 <1>   0.0800 
 20 H        0.5220    -4.4340     0.2540 H     1 <1>   0.0800 
 21 H        1.3430    -3.1700    -0.6230 H     1 <1>   0.0800 
 22 H       -0.2520    -3.6930    -1.1210 H     1 <1>   0.0800 
 23 H       -1.5400    -3.9060     1.5760 H     1 <1>   0.0800 
 24 H       -2.2850    -3.0520     0.2500 H     1 <1>   0.0800 
 25 H       -2.0720    -2.2720     1.8020 H     1 <1>   0.0800 
 26 H        0.9010    -3.1060     2.3450 H     1 <1>   0.0800 
 27 H        0.2500    -1.5100     2.5270 H     1 <1>   0.0800 
 28 H        1.6240    -1.7790     1.4740 H     1 <1>   0.0800 
 29 H       -1.6520     2.5910    -2.7020 H     1 <1>   0.0800 
 30 H       -2.0510     3.8890    -1.6290 H     1 <1>   0.0800 
 31 H       -3.2680     0.4150     0.9650 H     1 <1>   0.3700 
 32 H        0.6780     2.5690    -1.8010 H     1 <1>   0.0800 
 33 H        0.2470     3.8260    -0.6650 H     1 <1>   0.0800 
 34 H        0.2540     4.1580    -2.3800 H     1 <1>   0.0800 
 35 H       -5.5900     0.1830    -0.7220 H     1 <1>   0.0800 
 36 H       -5.9070     0.8990     0.8730 H     1 <1>   0.0800 
 37 H       -6.0230    -2.6190     1.4020 H     1 <1>   0.0800 
 38 H       -6.5970    -1.8560    -0.0760 H     1 <1>   0.0800 
 39 H       -6.9820    -1.1480     1.5020 H     1 <1>   0.0800 
@<TRIPOS>BOND
  1   1   2  2   
  2   2   3  1   
  3   2   4  am  
  4   3   5  1   
  5   4   6  1   
  6   4  18  1   
  7   5   7  1   
  8   5   8  1   
  9   5   9  1   
 10   6  10  1   
 11   6  11  1   
 12   6  19  1   
 13   7  20  1   
 14   7  21  1   
 15   7  22  1   
 16   8  23  1   
 17   8  24  1   
 18   8  25  1   
 19   9  26  1   
 20   9  27  1   
 21   9  28  1   
 22  10  12  2   
 23  10  13  am  
 24  11  14  1   
 25  11  29  1   
 26  11  30  1   
 27  13  15  1   
 28  13  31  1   
 29  14  32  1   
 30  14  33  1   
 31  14  34  1   
 32  15  16  1   
 33  15  35  1   
 34  15  36  1   
 35  16  17  1   
 36  17  37  1   
 37  17  38  1   
 38  17  39  1   
@<TRIPOS>SUBSTRUCTURE
  1 ****   2 GROUP 4 **** **** 0

# MOE 2024.06 (io_trps.svl 2023.06)
