@<TRIPOS>MOLECULE
NONAME
41 42 1 0 0 
SMALL
USER_CHARGES


@<TRIPOS>ATOM
  1 S       -0.1950     0.2510    -0.6570 S.o2  1 <1>   1.3330 
  2 O       -0.9280    -0.9550    -0.9710 O.2   1 <1>  -0.6500 
  3 O        0.2280     1.1270    -1.7260 O.2   1 <1>  -0.6500 
  4 N        1.1810    -0.2150     0.2250 N.am  1 <1>  -0.8490 
  5 C       -1.1380     1.1980     0.5480 C.3   1 <1>  -0.0550 
  6 C        2.3870    -0.2990    -0.6060 C.3   1 <1>   0.1160 
  7 C        1.0040    -1.4620     0.9780 C.3   1 <1>   0.1160 
  8 C       -0.6890     2.6510     0.8220 C.3   1 <1>  -0.0800 
  9 C       -1.0370     3.6320    -0.3000 C.3   1 <1>   0.2000 
 10 C        0.8010     2.8810     1.0790 C.3   1 <1>   0.1400 
 11 O       -2.3430     4.0700    -0.1320 O.3   1 <1>  -0.6800 
 12 C       -0.0420     4.7890    -0.1720 C.3   1 <1>   0.1400 
 13 N        1.0180     4.3060     0.7510 N.am  1 <1>  -0.6600 
 14 C        2.2470     4.9060     0.9050 C.2   1 <1>   0.5440 
 15 O        3.1510     4.2610     1.4000 O.2   1 <1>  -0.5700 
 16 C        2.4830     6.2700     0.4730 C.ar  1 <1>   0.0860 
 17 C        1.6830     7.3260     0.9090 C.ar  1 <1>  -0.1500 
 18 C        3.5270     6.5700    -0.4000 C.ar  1 <1>  -0.1500 
 19 C        1.9020     8.6220     0.4770 C.ar  1 <1>  -0.1500 
 20 C        3.7530     7.8630    -0.8360 C.ar  1 <1>  -0.1500 
 21 C        2.9380     8.8920    -0.3990 C.ar  1 <1>  -0.1500 
 22 H       -2.1590     1.2350     0.2200 H     1 <1>   0.0800 
 23 H       -1.1320     0.6610     1.4760 H     1 <1>   0.0800 
 24 H        3.2360    -0.5780    -0.0060 H     1 <1>   0.0800 
 25 H        2.5950     0.6590    -1.0530 H     1 <1>   0.0800 
 26 H        2.2510    -1.0240    -1.3910 H     1 <1>   0.0800 
 27 H        1.8670    -1.6470     1.5960 H     1 <1>   0.0800 
 28 H        0.8710    -2.2930     0.3040 H     1 <1>   0.0800 
 29 H        0.1390    -1.3930     1.6140 H     1 <1>   0.0800 
 30 H       -1.1910     2.9790     1.7160 H     1 <1>   0.0800 
 31 H       -0.9570     3.1910    -1.2780 H     1 <1>   0.0800 
 32 H        1.4230     2.2980     0.4240 H     1 <1>   0.0800 
 33 H        1.0720     2.6770     2.1010 H     1 <1>   0.0800 
 34 H       -2.4430     4.5150     0.7320 H     1 <1>   0.4000 
 35 H       -0.5160     5.6620     0.2420 H     1 <1>   0.0800 
 36 H        0.3850     5.0220    -1.1320 H     1 <1>   0.0800 
 37 H        0.8840     7.1230     1.6000 H     1 <1>   0.1500 
 38 H        4.1660     5.7700    -0.7350 H     1 <1>   0.1500 
 39 H        1.2710     9.4220     0.8250 H     1 <1>   0.1500 
 40 H        4.5640     8.0690    -1.5130 H     1 <1>   0.1500 
 41 H        3.1120     9.8990    -0.7370 H     1 <1>   0.1500 
@<TRIPOS>BOND
  1   1   2  2   
  2   1   3  2   
  3   1   4  am  
  4   1   5  1   
  5   4   6  1   
  6   4   7  1   
  7   5   8  1   
  8   5  22  1   
  9   5  23  1   
 10   6  24  1   
 11   6  25  1   
 12   6  26  1   
 13   7  27  1   
 14   7  28  1   
 15   7  29  1   
 16   8   9  1   
 17   8  10  1   
 18   8  30  1   
 19   9  11  1   
 20   9  12  1   
 21   9  31  1   
 22  10  13  1   
 23  10  32  1   
 24  10  33  1   
 25  11  34  1   
 26  12  13  1   
 27  12  35  1   
 28  12  36  1   
 29  13  14  am  
 30  14  15  2   
 31  14  16  1   
 32  16  17  ar  
 33  16  18  ar  
 34  17  19  ar  
 35  17  37  1   
 36  18  20  ar  
 37  18  38  1   
 38  19  21  ar  
 39  19  39  1   
 40  20  21  ar  
 41  20  40  1   
 42  21  41  1   
@<TRIPOS>SUBSTRUCTURE
  1 ****  13 GROUP 4 **** **** 0

# MOE 2024.06 (io_trps.svl 2023.06)
