@<TRIPOS>MOLECULE
NONAME
48 50 1 0 0 
SMALL
USER_CHARGES


@<TRIPOS>ATOM
  1 O       -0.5210    -1.2560    -0.2770 O.2   1 <1>  -0.5700 
  2 C        0.5570    -1.7170     0.0160 C.2   1 <1>   0.5690 
  3 N        0.6980    -2.6560     1.0020 N.am  1 <1>  -0.6600 
  4 C        1.7600    -1.2440    -0.7840 C.3   1 <1>  -0.0990 
  5 C        1.9970    -3.2860     1.3790 C.3   1 <1>   0.1400 
  6 C       -0.4770    -3.0980     1.8330 C.3   1 <1>   0.2010 
  7 C        3.1080    -1.6130    -0.1510 C.3   1 <1>  -0.1600 
  8 C        3.0720    -3.0720     0.3100 C.3   1 <1>  -0.1600 
  9 C       -0.7540    -4.6010     1.7330 C.2   1 <1>   0.5690 
 10 O       -0.4890    -5.2770     2.7010 O.2   1 <1>  -0.5700 
 11 N       -1.2500    -5.1540     0.5810 N.am  1 <1>  -0.6600 
 12 C       -1.1840    -6.6420     0.3980 C.3   1 <1>   0.3640 
 13 C       -1.8090    -4.3260    -0.5350 C.3   1 <1>   0.1400 
 14 C        0.2360    -7.0520    -0.0130 C.ar  1 <1>  -0.1440 
 15 C       -2.2260    -7.2280    -0.6040 C.3   1 <1>   0.2000 
 16 C       -2.3660    -5.1610    -1.6950 C.3   1 <1>   0.1200 
 17 C        0.7900    -8.1940     0.5480 C.ar  1 <1>  -0.1500 
 18 C        0.9900    -6.3260    -0.9280 C.ar  1 <1>  -0.1500 
 19 O       -3.0550    -6.2610    -1.1970 O.3   1 <1>  -0.5600 
 20 C       -3.1510    -8.2550     0.0630 C.3   1 <1>   0.1200 
 21 C        2.0650    -8.6070     0.2000 C.ar  1 <1>  -0.1500 
 22 C        2.2640    -6.7370    -1.2790 C.ar  1 <1>  -0.1500 
 23 O       -2.4230    -9.3590     0.5030 O.3   1 <1>  -0.6800 
 24 C        2.8030    -7.8790    -0.7150 C.ar  1 <1>  -0.1500 
 25 H        1.6920    -1.6890    -1.7600 H     1 <1>   0.0800 
 26 H        1.6980    -0.1780    -0.9050 H     1 <1>   0.0800 
 27 H        2.3270    -2.8570     2.3100 H     1 <1>   0.0800 
 28 H        1.8650    -4.3450     1.5290 H     1 <1>   0.0800 
 29 H       -0.2760    -2.8610     2.8620 H     1 <1>   0.0800 
 30 H       -1.3650    -2.5630     1.5530 H     1 <1>   0.0800 
 31 H        3.9000    -1.4650    -0.8640 H     1 <1>   0.0800 
 32 H        3.2940    -0.9750     0.6970 H     1 <1>   0.0800 
 33 H        4.0280    -3.3530     0.7140 H     1 <1>   0.0800 
 34 H        2.8700    -3.7190    -0.5260 H     1 <1>   0.0800 
 35 H       -1.3750    -7.0930     1.3570 H     1 <1>   0.0800 
 36 H       -2.6010    -3.7090    -0.1480 H     1 <1>   0.0800 
 37 H       -1.0470    -3.6760    -0.9220 H     1 <1>   0.0800 
 38 H       -1.7060    -7.7190    -1.4070 H     1 <1>   0.0800 
 39 H       -1.5780    -5.5050    -2.3420 H     1 <1>   0.0800 
 40 H       -3.0530    -4.5720    -2.2770 H     1 <1>   0.0800 
 41 H        0.2290    -8.7690     1.2660 H     1 <1>   0.1500 
 42 H        0.5970    -5.4310    -1.3720 H     1 <1>   0.1500 
 43 H       -3.8940    -8.6020    -0.6330 H     1 <1>   0.0800 
 44 H       -3.6360    -7.8170     0.9180 H     1 <1>   0.0800 
 45 H        2.4810    -9.4940     0.6450 H     1 <1>   0.1500 
 46 H        2.8370    -6.1680    -1.9890 H     1 <1>   0.1500 
 47 H       -2.0990    -9.8870    -0.2530 H     1 <1>   0.4000 
 48 H        3.7930    -8.2010    -0.9860 H     1 <1>   0.1500 
@<TRIPOS>BOND
  1   1   2  2   
  2   2   3  am  
  3   2   4  1   
  4   3   5  1   
  5   3   6  1   
  6   4   7  1   
  7   4  25  1   
  8   4  26  1   
  9   5   8  1   
 10   5  27  1   
 11   5  28  1   
 12   6   9  1   
 13   6  29  1   
 14   6  30  1   
 15   7   8  1   
 16   7  31  1   
 17   7  32  1   
 18   8  33  1   
 19   8  34  1   
 20   9  10  2   
 21   9  11  am  
 22  11  12  1   
 23  11  13  1   
 24  12  14  1   
 25  12  15  1   
 26  12  35  1   
 27  13  16  1   
 28  13  36  1   
 29  13  37  1   
 30  14  17  ar  
 31  14  18  ar  
 32  15  19  1   
 33  15  20  1   
 34  15  38  1   
 35  16  19  1   
 36  16  39  1   
 37  16  40  1   
 38  17  21  ar  
 39  17  41  1   
 40  18  22  ar  
 41  18  42  1   
 42  20  23  1   
 43  20  43  1   
 44  20  44  1   
 45  21  24  ar  
 46  21  45  1   
 47  22  24  ar  
 48  22  46  1   
 49  23  47  1   
 50  24  48  1   
@<TRIPOS>SUBSTRUCTURE
  1 ****  11 GROUP 4 **** **** 0

# MOE 2024.06 (io_trps.svl 2023.06)
