@<TRIPOS>MOLECULE
F6656-2903
54 56 1 0 0 
SMALL
USER_CHARGES


@<TRIPOS>ATOM
  1 O       -0.3270     0.0570    -0.6210 O.3   1 <1>  -0.0190 
  2 N       -0.4990    -0.9760     0.1450 N.2   1 <1>  -0.4100 
  3 C       -1.1120     1.0450    -0.2900 C.2   1 <1>  -0.0400 
  4 C       -1.4240    -0.6570     0.9780 C.2   1 <1>   0.1080 
  5 C       -1.8650     0.6440     0.7480 C.2   1 <1>  -0.1500 
  6 C       -1.0420     2.3430    -1.0660 C.3   1 <1>   0.5230 
  7 C       -1.9520    -1.5800     2.0550 C.3   1 <1>  -0.0590 
  8 N        0.2150     3.0790    -0.7310 N.4   1 <1>  -0.9590 
  9 C        0.1200     4.5150    -1.1160 C.3   1 <1>   0.3430 
 10 C        1.4210     2.4230    -1.3250 C.3   1 <1>   0.3430 
 11 C        1.3610     5.2650    -0.6270 C.3   1 <1>  -0.1600 
 12 C        2.6860     3.1390    -0.8520 C.3   1 <1>  -0.1600 
 13 C        2.6540     4.6430    -1.1770 C.3   1 <1>  -0.0800 
 14 C        3.8840     5.3720    -0.6140 C.3   1 <1>   0.1200 
 15 O        5.0530     4.8010    -1.1680 O.3   1 <1>  -0.3630 
 16 C        6.2720     5.2540    -0.7980 C.ar  1 <1>   0.3930 
 17 N        6.3620     6.2230     0.1160 N.ar  1 <1>  -0.3100 
 18 C        7.3750     4.6840    -1.3910 C.ar  1 <1>  -0.1500 
 19 N        7.5420     6.6630     0.4780 N.ar  1 <1>  -0.3100 
 20 C        8.6110     5.1500    -1.0070 C.ar  1 <1>  -0.1500 
 21 C        8.6570     6.1550    -0.0560 C.ar  1 <1>   0.1670 
 22 C        9.9920     6.7590     0.4530 C.3   1 <1>   0.1430 
 23 C       10.0250     8.2690     0.1590 C.3   1 <1>  -0.2400 
 24 C       10.1100     6.5480     1.9730 C.3   1 <1>  -0.2400 
 25 C       11.2410     6.1340    -0.1990 C.3   1 <1>  -0.2400 
 26 H       -2.6320     1.1540     1.3030 H     1 <1>   0.1500 
 27 H       -1.8950     2.9440    -0.7980 H     1 <1>   0.0800 
 28 H       -1.0900     2.1390    -2.1230 H     1 <1>   0.0800 
 29 H       -1.4320    -2.5210     2.0210 H     1 <1>   0.0800 
 30 H       -3.0000    -1.7600     1.9020 H     1 <1>   0.0800 
 31 H       -1.8050    -1.1380     3.0230 H     1 <1>   0.0800 
 32 H        0.3260     3.0240     0.2890 H     1 <1>   0.4500 
 33 H       -0.7590     4.9610    -0.6780 H     1 <1>   0.0800 
 34 H        0.0490     4.6040    -2.1880 H     1 <1>   0.0800 
 35 H        1.3690     2.4600    -2.4020 H     1 <1>   0.0800 
 36 H        1.4760     1.3880    -1.0250 H     1 <1>   0.0800 
 37 H        1.3750     5.2660     0.4490 H     1 <1>   0.0800 
 38 H        1.2940     6.2900    -0.9490 H     1 <1>   0.0800 
 39 H        3.5340     2.6830    -1.3340 H     1 <1>   0.0800 
 40 H        2.8050     2.9880     0.2070 H     1 <1>   0.0800 
 41 H        2.6620     4.7700    -2.2480 H     1 <1>   0.0800 
 42 H        3.9340     5.2730     0.4570 H     1 <1>   0.0800 
 43 H        3.8660     6.4170    -0.8770 H     1 <1>   0.0800 
 44 H        7.2630     3.9070    -2.1230 H     1 <1>   0.1500 
 45 H        9.4900     4.7260    -1.4520 H     1 <1>   0.1500 
 46 H        9.2150     8.7700     0.6590 H     1 <1>   0.0800 
 47 H        9.9250     8.4430    -0.8980 H     1 <1>   0.0800 
 48 H       10.9480     8.7060     0.4950 H     1 <1>   0.0800 
 49 H        9.3010     7.0360     2.4870 H     1 <1>   0.0800 
 50 H       11.0350     6.9500     2.3460 H     1 <1>   0.0800 
 51 H       10.0710     5.4990     2.2060 H     1 <1>   0.0800 
 52 H       11.2280     6.2840    -1.2630 H     1 <1>   0.0800 
 53 H       11.2880     5.0790     0.0070 H     1 <1>   0.0800 
 54 H       12.1350     6.5870     0.1900 H     1 <1>   0.0800 
@<TRIPOS>BOND
  1   1   2  1   
  2   1   3  1   
  3   2   4  2   
  4   3   5  2   
  5   3   6  1   
  6   4   5  1   
  7   4   7  1   
  8   5  26  1   
  9   6   8  1   
 10   6  27  1   
 11   6  28  1   
 12   7  29  1   
 13   7  30  1   
 14   7  31  1   
 15   8   9  1   
 16   8  10  1   
 17   8  32  1   
 18   9  11  1   
 19   9  33  1   
 20   9  34  1   
 21  10  12  1   
 22  10  35  1   
 23  10  36  1   
 24  11  13  1   
 25  11  37  1   
 26  11  38  1   
 27  12  13  1   
 28  12  39  1   
 29  12  40  1   
 30  13  14  1   
 31  13  41  1   
 32  14  15  1   
 33  14  42  1   
 34  14  43  1   
 35  15  16  1   
 36  16  17  ar  
 37  16  18  ar  
 38  17  19  ar  
 39  18  20  ar  
 40  18  44  1   
 41  19  21  ar  
 42  20  21  ar  
 43  20  45  1   
 44  21  22  1   
 45  22  23  1   
 46  22  24  1   
 47  22  25  1   
 48  23  46  1   
 49  23  47  1   
 50  23  48  1   
 51  24  49  1   
 52  24  50  1   
 53  24  51  1   
 54  25  52  1   
 55  25  53  1   
 56  25  54  1   
@<TRIPOS>SUBSTRUCTURE
  1 ****  12 GROUP 4 **** **** 0

# MOE 2024.06 (io_trps.svl 2023.06)
