@<TRIPOS>MOLECULE
NONAME
48 50 1 0 0 
SMALL
USER_CHARGES


@<TRIPOS>ATOM
  1 S        0.5590     0.3860     0.3350 S.o2  1 <1>   1.3330 
  2 O        1.5650     0.5270     1.3640 O.2   1 <1>  -0.6500 
  3 O       -0.5650    -0.4940     0.5640 O.2   1 <1>  -0.6500 
  4 N        1.3470    -0.1310    -1.0780 N.am  1 <1>  -0.8490 
  5 C       -0.0970     1.9850    -0.1430 C.3   1 <1>  -0.0550 
  6 C        1.4410    -1.5910    -1.1530 C.3   1 <1>   0.1160 
  7 C        2.6790     0.4630    -1.2450 C.3   1 <1>   0.1160 
  8 C       -0.8330     2.7240     0.9940 C.3   1 <1>  -0.0800 
  9 C       -1.5910     3.9310     0.4440 C.3   1 <1>   0.2000 
 10 C        0.1580     3.3790     1.9580 C.3   1 <1>   0.1100 
 11 O       -2.6280     4.2260     1.3150 O.3   1 <1>  -0.6800 
 12 C       -0.5720     5.0780     0.4770 C.3   1 <1>   0.1100 
 13 N        0.5790     4.5900     1.2570 N.3   1 <1>  -0.8100 
 14 C        1.2350     5.5940     2.1270 C.3   1 <1>   0.2900 
 15 C        1.9210     6.7160     1.3520 C.2   1 <1>   0.1980 
 16 S        0.9260     8.0670     0.8240 S.3   1 <1>  -0.0800 
 17 N        3.1580     6.8260     1.0500 N.2   1 <1>  -0.5650 
 18 C        2.3410     8.7890     0.1270 C.2   1 <1>  -0.1400 
 19 C        3.3930     7.9990     0.3560 C.2   1 <1>   0.0460 
 20 C        2.3070    10.1080    -0.6090 C.3   1 <1>   0.0200 
 21 C        4.7880     8.3520    -0.1170 C.3   1 <1>   0.0210 
 22 C        3.6350    10.2790    -1.3740 C.3   1 <1>  -0.1600 
 23 C        4.8590     9.8370    -0.5400 C.3   1 <1>  -0.1600 
 24 H        0.6980     2.6050    -0.5110 H     1 <1>   0.0800 
 25 H       -0.7830     1.8280    -0.9510 H     1 <1>   0.0800 
 26 H        1.9310    -1.8880    -2.0640 H     1 <1>   0.0800 
 27 H        0.4550    -2.0250    -1.1460 H     1 <1>   0.0800 
 28 H        1.9930    -1.9740    -0.3100 H     1 <1>   0.0800 
 29 H        3.0960     0.1730    -2.1940 H     1 <1>   0.0800 
 30 H        3.3390     0.1380    -0.4570 H     1 <1>   0.0800 
 31 H        2.6150     1.5380    -1.2180 H     1 <1>   0.0800 
 32 H       -1.4940     2.0380     1.4960 H     1 <1>   0.0800 
 33 H       -2.0120     3.7740    -0.5340 H     1 <1>   0.0800 
 34 H        1.0060     2.7570     2.1870 H     1 <1>   0.0800 
 35 H       -0.3420     3.6390     2.8760 H     1 <1>   0.0800 
 36 H       -2.2660     4.4200     2.2000 H     1 <1>   0.4000 
 37 H       -1.0100     5.9590     0.9140 H     1 <1>   0.0800 
 38 H       -0.2370     5.3090    -0.5200 H     1 <1>   0.0800 
 39 H        0.5190     6.0160     2.8080 H     1 <1>   0.0800 
 40 H        1.9940     5.0980     2.7070 H     1 <1>   0.0800 
 41 H        1.4800    10.1290    -1.2970 H     1 <1>   0.0800 
 42 H        2.1830    10.9020     0.1050 H     1 <1>   0.0800 
 43 H        5.4930     8.1650     0.6730 H     1 <1>   0.0800 
 44 H        5.0350     7.7160    -0.9480 H     1 <1>   0.0800 
 45 H        3.5960     9.6810    -2.2690 H     1 <1>   0.0800 
 46 H        3.7450    11.3080    -1.6720 H     1 <1>   0.0800 
 47 H        4.9070    10.4450     0.3470 H     1 <1>   0.0800 
 48 H        5.7620    10.0040    -1.1000 H     1 <1>   0.0800 
@<TRIPOS>BOND
  1   1   2  2   
  2   1   3  2   
  3   1   4  am  
  4   1   5  1   
  5   4   6  1   
  6   4   7  1   
  7   5   8  1   
  8   5  24  1   
  9   5  25  1   
 10   6  26  1   
 11   6  27  1   
 12   6  28  1   
 13   7  29  1   
 14   7  30  1   
 15   7  31  1   
 16   8   9  1   
 17   8  10  1   
 18   8  32  1   
 19   9  11  1   
 20   9  12  1   
 21   9  33  1   
 22  10  13  1   
 23  10  34  1   
 24  10  35  1   
 25  11  36  1   
 26  12  13  1   
 27  12  37  1   
 28  12  38  1   
 29  13  14  1   
 30  14  15  1   
 31  14  39  1   
 32  14  40  1   
 33  15  16  1   
 34  15  17  2   
 35  16  18  1   
 36  17  19  1   
 37  18  19  2   
 38  18  20  1   
 39  19  21  1   
 40  20  22  1   
 41  20  41  1   
 42  20  42  1   
 43  21  23  1   
 44  21  43  1   
 45  21  44  1   
 46  22  23  1   
 47  22  45  1   
 48  22  46  1   
 49  23  47  1   
 50  23  48  1   
@<TRIPOS>SUBSTRUCTURE
  1 ****  13 GROUP 4 **** **** 0

# MOE 2024.06 (io_trps.svl 2023.06)
