@<TRIPOS>MOLECULE
NONAME
51 52 1 0 0 
SMALL
USER_CHARGES


@<TRIPOS>ATOM
  1 O        2.2160    -1.2830     1.8540 O.2   1 <1>  -0.5700 
  2 C        1.9860    -1.3720     0.6690 C.2   1 <1>   0.5690 
  3 N        2.0190    -0.2590    -0.1520 N.am  1 <1>  -0.6600 
  4 C        1.6970    -2.7870     0.1280 C.3   1 <1>   0.1710 
  5 C        2.1100     1.1030     0.4640 C.3   1 <1>   0.2200 
  6 C        1.9710    -0.3180    -1.6460 C.3   1 <1>   0.0600 
  7 N        0.2650    -3.2090     0.0950 N.3   1 <1>  -0.8100 
  8 C        1.0470     2.0600    -0.0990 C.3   1 <1>  -0.1600 
  9 C        3.5250     1.6760     0.3030 C.3   1 <1>  -0.1600 
 10 C        0.1490    -4.6310    -0.3130 C.3   1 <1>   0.2530 
 11 C       -0.5640    -2.3420    -0.7550 C.3   1 <1>   0.0300 
 12 C        1.1540     3.4420     0.5620 C.3   1 <1>  -0.1600 
 13 C        3.6320     3.0640     0.9530 C.3   1 <1>  -0.1600 
 14 C       -1.2570    -5.2070    -0.1470 C.ar  1 <1>   0.1670 
 15 C        2.5670     4.0230     0.4030 C.3   1 <1>  -0.1600 
 16 N       -1.7110    -5.9630    -1.1380 N.ar  1 <1>  -0.6200 
 17 C       -1.9800    -4.9330     1.0050 C.ar  1 <1>  -0.1500 
 18 C       -2.9280    -6.4570    -0.9700 C.ar  1 <1>   0.1600 
 19 C       -3.2450    -5.4550     1.1640 C.ar  1 <1>  -0.1500 
 20 C       -3.7320    -6.2410     0.1400 C.ar  1 <1>  -0.1430 
 21 C       -5.1190    -6.8570     0.2320 C.3   1 <1>  -0.0170 
 22 C       -5.0550    -8.2280     0.9090 C.3   1 <1>  -0.2400 
 23 H        2.2230    -3.4640     0.7790 H     1 <1>   0.0800 
 24 H        2.1290    -2.9050    -0.8460 H     1 <1>   0.0800 
 25 H        1.9190     1.0200     1.5210 H     1 <1>   0.0800 
 26 H        2.3480    -1.2520    -2.0140 H     1 <1>   0.0800 
 27 H        2.5750     0.4640    -2.0700 H     1 <1>   0.0800 
 28 H        0.9570    -0.1880    -1.9810 H     1 <1>   0.0800 
 29 H        0.0690     1.6510     0.0870 H     1 <1>   0.0800 
 30 H        1.1750     2.1830    -1.1590 H     1 <1>   0.0800 
 31 H        3.7760     1.7630    -0.7380 H     1 <1>   0.0800 
 32 H        4.2290     1.0100     0.7710 H     1 <1>   0.0800 
 33 H        0.8140    -5.2280     0.2860 H     1 <1>   0.0800 
 34 H        0.4490    -4.7340    -1.3410 H     1 <1>   0.0800 
 35 H       -0.5270    -1.3280    -0.3930 H     1 <1>   0.0800 
 36 H       -1.5910    -2.6620    -0.7250 H     1 <1>   0.0800 
 37 H       -0.2220    -2.3720    -1.7750 H     1 <1>   0.0800 
 38 H        0.9200     3.3560     1.6090 H     1 <1>   0.0800 
 39 H        0.4360     4.1110     0.1190 H     1 <1>   0.0800 
 40 H        4.6120     3.4710     0.7760 H     1 <1>   0.0800 
 41 H        3.5050     2.9660     2.0190 H     1 <1>   0.0800 
 42 H        2.6280     4.9640     0.9220 H     1 <1>   0.0800 
 43 H        2.7600     4.2090    -0.6400 H     1 <1>   0.0800 
 44 H       -1.5480    -4.3090     1.7680 H     1 <1>   0.1500 
 45 H       -3.3080    -7.0730    -1.7660 H     1 <1>   0.1500 
 46 H       -3.8210    -5.2540     2.0490 H     1 <1>   0.1500 
 47 H       -5.5370    -6.9610    -0.7540 H     1 <1>   0.0800 
 48 H       -5.7670    -6.2070     0.7940 H     1 <1>   0.0800 
 49 H       -4.4230    -8.8920     0.3460 H     1 <1>   0.0800 
 50 H       -6.0390    -8.6570     0.9720 H     1 <1>   0.0800 
 51 H       -4.6540    -8.1330     1.9030 H     1 <1>   0.0800 
@<TRIPOS>BOND
  1   1   2  2   
  2   2   3  am  
  3   2   4  1   
  4   3   5  1   
  5   3   6  1   
  6   4   7  1   
  7   4  23  1   
  8   4  24  1   
  9   5   8  1   
 10   5   9  1   
 11   5  25  1   
 12   6  26  1   
 13   6  27  1   
 14   6  28  1   
 15   7  10  1   
 16   7  11  1   
 17   8  12  1   
 18   8  29  1   
 19   8  30  1   
 20   9  13  1   
 21   9  31  1   
 22   9  32  1   
 23  10  14  1   
 24  10  33  1   
 25  10  34  1   
 26  11  35  1   
 27  11  36  1   
 28  11  37  1   
 29  12  15  1   
 30  12  38  1   
 31  12  39  1   
 32  13  15  1   
 33  13  40  1   
 34  13  41  1   
 35  14  16  ar  
 36  14  17  ar  
 37  15  42  1   
 38  15  43  1   
 39  16  18  ar  
 40  17  19  ar  
 41  17  44  1   
 42  18  20  ar  
 43  18  45  1   
 44  19  20  ar  
 45  19  46  1   
 46  20  21  1   
 47  21  22  1   
 48  21  47  1   
 49  21  48  1   
 50  22  49  1   
 51  22  50  1   
 52  22  51  1   
@<TRIPOS>SUBSTRUCTURE
  1 ****   7 GROUP 4 **** **** 0

# MOE 2024.06 (io_trps.svl 2023.06)
