@<TRIPOS>MOLECULE
NONAME
38 39 1 0 0 
SMALL
USER_CHARGES


@<TRIPOS>ATOM
  1 CL      -2.7820     0.3050     0.1340 Cl    1 <1>  -0.1240 
  2 C       -2.7480    -1.3970     0.4970 C.2   1 <1>   0.1640 
  3 S       -2.5510    -2.4880    -0.8500 S.3   1 <1>  -0.0800 
  4 C       -2.8470    -2.0550     1.6640 C.2   1 <1>  -0.1500 
  5 C       -2.6080    -3.9000     0.2210 C.2   1 <1>  -0.0450 
  6 C       -2.7680    -3.4700     1.5040 C.2   1 <1>  -0.1500 
  7 C       -2.4890    -5.2140    -0.3580 C.2   1 <1>   0.7150 
  8 O       -2.2990    -5.3860    -1.5460 O.2   1 <1>  -0.5700 
  9 N       -2.6100    -6.3140     0.4360 N.am  1 <1>  -0.7300 
 10 C       -2.4060    -7.7190     0.0070 C.3   1 <1>   0.2200 
 11 C       -3.7390    -8.4270    -0.1860 C.3   1 <1>  -0.0800 
 12 C       -1.8490    -8.5040     1.1850 C.3   1 <1>   0.1200 
 13 C       -4.1110    -8.8430     1.2440 C.3   1 <1>   0.1200 
 14 C       -4.8110    -7.6070    -0.9380 C.3   1 <1>  -0.0550 
 15 O       -2.9490    -8.7180     2.0140 O.3   1 <1>  -0.5600 
 16 S       -6.2980    -8.5310    -1.3360 S.o2  1 <1>   1.3330 
 17 O       -5.8970    -9.8190    -1.8570 O.2   1 <1>  -0.6500 
 18 O       -7.1890    -7.6920    -2.1030 O.2   1 <1>  -0.6500 
 19 N       -7.0270    -8.7860     0.1780 N.am  1 <1>  -0.8490 
 20 C       -7.8270    -7.6440     0.6370 C.3   1 <1>   0.1160 
 21 C       -7.8480   -10.0020     0.1990 C.3   1 <1>   0.1160 
 22 H       -2.9730    -1.5920     2.6270 H     1 <1>   0.1500 
 23 H       -2.8320    -4.1130     2.3650 H     1 <1>   0.1500 
 24 H       -2.8190    -6.2120     1.4290 H     1 <1>   0.3700 
 25 H       -1.7710    -7.7710    -0.8620 H     1 <1>   0.0800 
 26 H       -3.5510    -9.3270    -0.7450 H     1 <1>   0.0800 
 27 H       -1.0840    -7.9730     1.7220 H     1 <1>   0.0800 
 28 H       -1.4790    -9.4640     0.8680 H     1 <1>   0.0800 
 29 H       -4.4540    -9.8630     1.2860 H     1 <1>   0.0800 
 30 H       -4.8550    -8.1930     1.6720 H     1 <1>   0.0800 
 31 H       -4.3780    -7.2610    -1.8570 H     1 <1>   0.0800 
 32 H       -5.0770    -6.7410    -0.3660 H     1 <1>   0.0800 
 33 H       -8.1870    -7.8230     1.6360 H     1 <1>   0.0800 
 34 H       -8.6690    -7.4870    -0.0170 H     1 <1>   0.0800 
 35 H       -7.2280    -6.7500     0.6470 H     1 <1>   0.0800 
 36 H       -8.2870   -10.1400     1.1710 H     1 <1>   0.0800 
 37 H       -7.2380   -10.8630    -0.0200 H     1 <1>   0.0800 
 38 H       -8.6300    -9.9370    -0.5400 H     1 <1>   0.0800 
@<TRIPOS>BOND
  1   1   2  1   
  2   2   3  1   
  3   2   4  2   
  4   3   5  1   
  5   4   6  1   
  6   4  22  1   
  7   5   6  2   
  8   5   7  1   
  9   6  23  1   
 10   7   8  2   
 11   7   9  am  
 12   9  10  1   
 13   9  24  1   
 14  10  11  1   
 15  10  12  1   
 16  10  25  1   
 17  11  13  1   
 18  11  14  1   
 19  11  26  1   
 20  12  15  1   
 21  12  27  1   
 22  12  28  1   
 23  13  15  1   
 24  13  29  1   
 25  13  30  1   
 26  14  16  1   
 27  14  31  1   
 28  14  32  1   
 29  16  17  2   
 30  16  18  2   
 31  16  19  am  
 32  19  20  1   
 33  19  21  1   
 34  20  33  1   
 35  20  34  1   
 36  20  35  1   
 37  21  36  1   
 38  21  37  1   
 39  21  38  1   
@<TRIPOS>SUBSTRUCTURE
  1 ****   9 GROUP 4 **** **** 0

# MOE 2024.06 (io_trps.svl 2023.06)
