@<TRIPOS>MOLECULE
NONAME
51 53 1 0 0 
SMALL
USER_CHARGES


@<TRIPOS>ATOM
  1 CL      -0.8260    -0.6760    -2.6970 Cl    1 <1>  -0.1770 
  2 C       -2.1640    -0.9220    -1.5910 C.ar  1 <1>   0.1770 
  3 C       -3.0550     0.1000    -1.2740 C.ar  1 <1>   0.0820 
  4 C       -2.3160    -2.1970    -1.0760 C.ar  1 <1>  -0.1500 
  5 O       -2.8540     1.3700    -1.7170 O.3   1 <1>  -0.3630 
  6 C       -4.1640    -0.2110    -0.4770 C.ar  1 <1>   0.0820 
  7 C       -3.3950    -2.4870    -0.2550 C.ar  1 <1>  -0.1440 
  8 C       -1.7190     2.0690    -1.1820 C.3   1 <1>   0.0140 
  9 O       -5.1440     0.6740    -0.1670 O.3   1 <1>  -0.3630 
 10 C       -4.3170    -1.4910     0.0290 C.ar  1 <1>  -0.1500 
 11 C       -3.5740    -3.8710     0.3280 C.3   1 <1>   0.4860 
 12 C       -1.5530     1.9650     0.3340 C.2   1 <1>   0.9060 
 13 C       -4.7770     1.8050     0.5970 C.3   1 <1>   0.0400 
 14 N       -4.0660    -4.7730    -0.7520 N.4   1 <1>  -0.9590 
 15 O       -1.8930     2.9270     1.0350 O.co2 1 <1>  -0.9000 
 16 O       -1.0790     0.9320     0.8280 O.co2 1 <1>  -0.9000 
 17 C       -5.4570    -4.3880    -1.1620 C.3   1 <1>   0.3430 
 18 C       -4.1320    -6.1900    -0.2730 C.3   1 <1>   0.3430 
 19 C       -6.3870    -5.3380    -0.4020 C.3   1 <1>   0.2000 
 20 C       -5.5900    -6.6420    -0.4190 C.3   1 <1>  -0.0800 
 21 O       -6.5090    -4.8770     0.9060 O.3   1 <1>  -0.6800 
 22 C       -5.9950    -7.7070     0.6180 C.3   1 <1>  -0.0170 
 23 C       -5.0200    -8.8720     0.5740 C.ar  1 <1>  -0.1430 
 24 C       -4.0980    -9.0910     1.5790 C.ar  1 <1>  -0.1500 
 25 C       -5.0000    -9.7680    -0.4760 C.ar  1 <1>  -0.1500 
 26 C       -3.2120   -10.1510     1.4770 C.ar  1 <1>   0.1600 
 27 C       -4.0720   -10.7960    -0.4830 C.ar  1 <1>   0.1600 
 28 N       -3.1720   -10.9990     0.4640 N.ar  1 <1>  -0.6200 
 29 H       -1.5770    -2.9360    -1.3250 H     1 <1>   0.1500 
 30 H       -0.8300     1.6980    -1.6480 H     1 <1>   0.0800 
 31 H       -1.8330     3.1050    -1.4360 H     1 <1>   0.0800 
 32 H       -5.1680    -1.6810     0.6590 H     1 <1>   0.1500 
 33 H       -4.2810    -3.8400     1.1410 H     1 <1>   0.0800 
 34 H       -2.6280    -4.2200     0.7070 H     1 <1>   0.0800 
 35 H       -5.6640     2.2210     1.0370 H     1 <1>   0.0800 
 36 H       -4.3180     2.5330    -0.0450 H     1 <1>   0.0800 
 37 H       -4.0890     1.5050     1.3700 H     1 <1>   0.0800 
 38 H       -3.4290    -4.6650    -1.5500 H     1 <1>   0.4500 
 39 H       -5.6870    -3.3590    -0.9420 H     1 <1>   0.0800 
 40 H       -5.5760    -4.5530    -2.2190 H     1 <1>   0.0800 
 41 H       -3.4770    -6.8300    -0.8420 H     1 <1>   0.0800 
 42 H       -3.8490    -6.2400     0.7660 H     1 <1>   0.0800 
 43 H       -7.3650    -5.4080    -0.8490 H     1 <1>   0.0800 
 44 H       -5.6890    -7.0780    -1.3980 H     1 <1>   0.0800 
 45 H       -7.3090    -5.2430     1.3390 H     1 <1>   0.4000 
 46 H       -6.9880    -8.0660     0.4080 H     1 <1>   0.0800 
 47 H       -6.0010    -7.2940     1.6120 H     1 <1>   0.0800 
 48 H       -4.0560    -8.4570     2.4470 H     1 <1>   0.1500 
 49 H       -5.6970    -9.6860    -1.2910 H     1 <1>   0.1500 
 50 H       -2.5000   -10.3120     2.2690 H     1 <1>   0.1500 
 51 H       -4.0690   -11.4880    -1.3090 H     1 <1>   0.1500 
@<TRIPOS>BOND
  1   1   2  1   
  2   2   3  ar  
  3   2   4  ar  
  4   3   5  1   
  5   3   6  ar  
  6   4   7  ar  
  7   4  29  1   
  8   5   8  1   
  9   6   9  1   
 10   6  10  ar  
 11   7  10  ar  
 12   7  11  1   
 13   8  12  1   
 14   8  30  1   
 15   8  31  1   
 16   9  13  1   
 17  10  32  1   
 18  11  14  1   
 19  11  33  1   
 20  11  34  1   
 21  12  15  ar  
 22  12  16  ar  
 23  13  35  1   
 24  13  36  1   
 25  13  37  1   
 26  14  17  1   
 27  14  18  1   
 28  14  38  1   
 29  17  19  1   
 30  17  39  1   
 31  17  40  1   
 32  18  20  1   
 33  18  41  1   
 34  18  42  1   
 35  19  20  1   
 36  19  21  1   
 37  19  43  1   
 38  20  22  1   
 39  20  44  1   
 40  21  45  1   
 41  22  23  1   
 42  22  46  1   
 43  22  47  1   
 44  23  24  ar  
 45  23  25  ar  
 46  24  26  ar  
 47  24  48  1   
 48  25  27  ar  
 49  25  49  1   
 50  26  28  ar  
 51  26  50  1   
 52  27  28  ar  
 53  27  51  1   
@<TRIPOS>SUBSTRUCTURE
  1 ****  11 GROUP 4 **** **** 0

# MOE 2024.06 (io_trps.svl 2023.06)
