@<TRIPOS>MOLECULE
NONAME
42 44 1 0 0 
SMALL
USER_CHARGES


@<TRIPOS>ATOM
  1 F        2.6510     6.5560     1.1790 F     1 <1>  -0.1900 
  2 C        3.7470     6.0180     0.7100 C.ar  1 <1>   0.1900 
  3 C        4.7140     5.6000     1.5930 C.ar  1 <1>  -0.1500 
  4 C        3.8740     5.8990    -0.6770 C.ar  1 <1>  -0.1500 
  5 C        5.8700     5.0360     1.0600 C.ar  1 <1>   0.2270 
  6 C        5.0190     5.3390    -1.2020 C.ar  1 <1>  -0.1500 
  7 N        6.9730     4.5580     1.7000 N.2   1 <1>  -0.5650 
  8 C        6.0100     4.9120    -0.3130 C.ar  1 <1>  -0.1520 
  9 C        7.7490     4.1670     0.7450 C.2   1 <1>   0.0060 
 10 N        7.2300     4.3480    -0.4950 N.pl3 1 <1>   0.0330 
 11 C        9.1320     3.5710     0.9410 C.3   1 <1>   0.3000 
 12 O        9.3410     2.5320     0.0180 O.3   1 <1>  -0.5600 
 13 C       10.3780     2.7170    -0.9160 C.3   1 <1>   0.1810 
 14 C       10.1800     3.9570    -1.8040 C.2   1 <1>   0.5690 
 15 O        9.2300     3.9590    -2.5570 O.2   1 <1>  -0.5700 
 16 N       11.0180     5.0420    -1.7180 N.am  1 <1>  -0.6600 
 17 C       10.5570     6.3470    -2.2730 C.3   1 <1>   0.3200 
 18 C       12.2310     5.1320    -0.8560 C.3   1 <1>   0.0600 
 19 C        9.4850     6.9430    -1.3750 C.2   1 <1>  -0.0400 
 20 O        9.7120     7.0670    -0.0790 O.3   1 <1>  -0.2800 
 21 C        8.2460     7.3840    -1.6800 C.2   1 <1>  -0.1500 
 22 C        8.6230     7.5650     0.4700 C.2   1 <1>  -0.0400 
 23 C        7.6810     7.7950    -0.4680 C.2   1 <1>  -0.1500 
 24 C        8.5860     7.7700     1.9670 C.3   1 <1>  -0.0600 
 25 H        4.6040     5.6950     2.6550 H     1 <1>   0.1500 
 26 H        3.0780     6.2460    -1.3100 H     1 <1>   0.1500 
 27 H        5.1610     5.2280    -2.2630 H     1 <1>   0.1500 
 28 H        7.7030     4.1310    -1.3840 H     1 <1>   0.2700 
 29 H        9.2030     3.1510     1.9290 H     1 <1>   0.0800 
 30 H        9.8810     4.3350     0.8330 H     1 <1>   0.0800 
 31 H       10.3880     1.8490    -1.5490 H     1 <1>   0.0800 
 32 H       11.3030     2.7470    -0.3770 H     1 <1>   0.0800 
 33 H       10.1560     6.2000    -3.2610 H     1 <1>   0.0800 
 34 H       11.3810     7.0330    -2.3470 H     1 <1>   0.0800 
 35 H       12.7530     4.1930    -0.8290 H     1 <1>   0.0800 
 36 H       11.9460     5.4170     0.1430 H     1 <1>   0.0800 
 37 H       12.9080     5.8730    -1.2450 H     1 <1>   0.0800 
 38 H        7.7550     7.4160    -2.6360 H     1 <1>   0.1500 
 39 H        6.6880     8.1890    -0.3420 H     1 <1>   0.1500 
 40 H        9.3650     8.4480     2.2630 H     1 <1>   0.0800 
 41 H        8.7290     6.8270     2.4620 H     1 <1>   0.0800 
 42 H        7.6340     8.1730     2.2610 H     1 <1>   0.0800 
@<TRIPOS>BOND
  1   1   2  1   
  2   2   3  ar  
  3   2   4  ar  
  4   3   5  ar  
  5   3  25  1   
  6   4   6  ar  
  7   4  26  1   
  8   5   7  1   
  9   5   8  ar  
 10   6   8  ar  
 11   6  27  1   
 12   7   9  2   
 13   8  10  1   
 14   9  10  1   
 15   9  11  1   
 16  10  28  1   
 17  11  12  1   
 18  11  29  1   
 19  11  30  1   
 20  12  13  1   
 21  13  14  1   
 22  13  31  1   
 23  13  32  1   
 24  14  15  2   
 25  14  16  am  
 26  16  17  1   
 27  16  18  1   
 28  17  19  1   
 29  17  33  1   
 30  17  34  1   
 31  18  35  1   
 32  18  36  1   
 33  18  37  1   
 34  19  20  1   
 35  19  21  2   
 36  20  22  1   
 37  21  23  1   
 38  21  38  1   
 39  22  23  2   
 40  22  24  1   
 41  23  39  1   
 42  24  40  1   
 43  24  41  1   
 44  24  42  1   
@<TRIPOS>SUBSTRUCTURE
  1 ****  10 GROUP 4 **** **** 0

# MOE 2024.06 (io_trps.svl 2023.06)
