@<TRIPOS>MOLECULE
NONAME
48 50 1 0 0 
SMALL
USER_CHARGES


@<TRIPOS>ATOM
  1 O        1.2380    -0.0230     1.7710 O.2   1 <1>  -0.5700 
  2 C        1.7890    -0.5810     0.8390 C.2   1 <1>   0.5440 
  3 N        2.4900     0.1600    -0.0790 N.am  1 <1>  -0.4930 
  4 C        1.6940    -2.0170     0.6810 C.ar  1 <1>   0.0860 
  5 C        2.7570     1.5520    -0.0970 C.2   1 <1>   0.0630 
  6 C        0.5530    -2.7110     1.0900 C.ar  1 <1>  -0.1500 
  7 C        2.7260    -2.7720     0.1130 C.ar  1 <1>  -0.1500 
  8 C        2.4200     2.5370     0.8350 C.2   1 <1>   0.1390 
  9 C        3.4230     2.2170    -1.0630 C.2   1 <1>  -0.3020 
 10 C        0.4380    -4.0770     0.9250 C.ar  1 <1>  -0.1500 
 11 C        2.6090    -4.1370    -0.0540 C.ar  1 <1>  -0.1500 
 12 N        2.8440     3.7160     0.4830 N.2   1 <1>  -0.7070 
 13 N        3.4640     3.5180    -0.6970 N.pl3 1 <1>   0.3140 
 14 C        1.4640    -4.8150     0.3440 C.ar  1 <1>   0.1000 
 15 C        4.0960     4.6230    -1.4330 C.3   1 <1>   0.1570 
 16 N        1.3690    -6.1850     0.1630 N.pl3 1 <1>  -0.8380 
 17 C        5.4470     4.9400    -0.8330 C.2   1 <1>   0.5690 
 18 C        0.0960    -6.8190    -0.2680 C.3   1 <1>   0.2090 
 19 C        2.3080    -7.0880     0.8760 C.3   1 <1>   0.2090 
 20 O        6.3780     5.1140    -1.5820 O.2   1 <1>  -0.5700 
 21 N        5.5770     5.0330     0.5190 N.am  1 <1>  -0.7300 
 22 C        0.4090    -8.0170    -1.1710 C.3   1 <1>  -0.1600 
 23 C        2.6390    -8.2850    -0.0210 C.3   1 <1>  -0.1600 
 24 C        6.8250     5.3370     1.2590 C.3   1 <1>   0.0600 
 25 C        1.3680    -9.0080    -0.4940 C.3   1 <1>  -0.1600 
 26 H        2.8310    -0.3490    -0.8910 H     1 <1>   0.3700 
 27 H       -0.2520    -2.1610     1.5460 H     1 <1>   0.1500 
 28 H        3.6360    -2.2900    -0.1950 H     1 <1>   0.1500 
 29 H        1.8730     2.3450     1.7430 H     1 <1>   0.1500 
 30 H        3.8650     1.8480    -1.9690 H     1 <1>   0.1500 
 31 H       -0.4490    -4.5830     1.2550 H     1 <1>   0.1500 
 32 H        3.4060    -4.7020    -0.5020 H     1 <1>   0.1500 
 33 H        3.4650     5.4880    -1.3680 H     1 <1>   0.0800 
 34 H        4.2110     4.3430    -2.4620 H     1 <1>   0.0800 
 35 H       -0.5020    -6.1040    -0.8070 H     1 <1>   0.0800 
 36 H       -0.4510    -7.1440     0.6000 H     1 <1>   0.0800 
 37 H        1.8450    -7.4280     1.7870 H     1 <1>   0.0800 
 38 H        3.2090    -6.5580     1.1330 H     1 <1>   0.0800 
 39 H        4.7520     4.7810     1.0880 H     1 <1>   0.3700 
 40 H        0.8520    -7.6500    -2.0800 H     1 <1>   0.0800 
 41 H       -0.5070    -8.5160    -1.4290 H     1 <1>   0.0800 
 42 H        3.2670    -8.9710     0.5180 H     1 <1>   0.0800 
 43 H        3.1920    -7.9300    -0.8730 H     1 <1>   0.0800 
 44 H        7.6240     5.5550     0.5710 H     1 <1>   0.0800 
 45 H        7.1040     4.4900     1.8610 H     1 <1>   0.0800 
 46 H        6.6700     6.1900     1.8960 H     1 <1>   0.0800 
 47 H        1.6300    -9.7910    -1.1850 H     1 <1>   0.0800 
 48 H        0.8780    -9.4580     0.3520 H     1 <1>   0.0800 
@<TRIPOS>BOND
  1   1   2  2   
  2   2   3  am  
  3   2   4  1   
  4   3   5  1   
  5   3  26  1   
  6   4   6  ar  
  7   4   7  ar  
  8   5   8  1   
  9   5   9  2   
 10   6  10  ar  
 11   6  27  1   
 12   7  11  ar  
 13   7  28  1   
 14   8  12  2   
 15   8  29  1   
 16   9  13  1   
 17   9  30  1   
 18  10  14  ar  
 19  10  31  1   
 20  11  14  ar  
 21  11  32  1   
 22  12  13  1   
 23  13  15  1   
 24  14  16  1   
 25  15  17  1   
 26  15  33  1   
 27  15  34  1   
 28  16  18  1   
 29  16  19  1   
 30  17  20  2   
 31  17  21  am  
 32  18  22  1   
 33  18  35  1   
 34  18  36  1   
 35  19  23  1   
 36  19  37  1   
 37  19  38  1   
 38  21  24  1   
 39  21  39  1   
 40  22  25  1   
 41  22  40  1   
 42  22  41  1   
 43  23  25  1   
 44  23  42  1   
 45  23  43  1   
 46  24  44  1   
 47  24  45  1   
 48  24  46  1   
 49  25  47  1   
 50  25  48  1   
@<TRIPOS>SUBSTRUCTURE
  1 ****   2 GROUP 4 **** **** 0

# MOE 2024.06 (io_trps.svl 2023.06)
