@<TRIPOS>MOLECULE
NONAME
46 49 1 0 0 
SMALL
USER_CHARGES


@<TRIPOS>ATOM
  1 S        0.7190    -0.1240     1.6760 S.3   1 <1>  -0.0800 
  2 C        1.1950    -0.9800     0.2230 C.2   1 <1>  -0.0450 
  3 C        1.2590     1.3740     0.9680 C.2   1 <1>   0.1980 
  4 C        1.7130    -0.0590    -0.6240 C.2   1 <1>   0.0460 
  5 C        1.0130    -2.4080     0.1480 C.2   1 <1>   0.7150 
  6 N        1.7360     1.2540    -0.2030 N.2   1 <1>  -0.5650 
  7 C        1.1120     2.6320     1.7910 C.3   1 <1>  -0.0600 
  8 C        2.2800    -0.3140    -2.0060 C.3   1 <1>  -0.0590 
  9 O        1.8420    -3.0950    -0.4210 O.2   1 <1>  -0.5700 
 10 N       -0.0950    -3.0350     0.6750 N.am  1 <1>  -0.6600 
 11 C       -0.1360    -4.5170     0.8930 C.3   1 <1>   0.1400 
 12 C       -1.4560    -2.4170     0.6670 C.3   1 <1>   0.1400 
 13 C       -1.1530    -5.1860    -0.0490 C.3   1 <1>   0.3440 
 14 C       -2.4140    -3.2060    -0.2500 C.3   1 <1>   0.2950 
 15 O       -2.4060    -4.5640     0.0800 O.3   1 <1>  -0.5600 
 16 C       -1.2800    -6.6730     0.2690 C.ar  1 <1>  -0.1440 
 17 C       -3.8550    -2.7080    -0.1160 C.3   1 <1>  -0.1950 
 18 C       -2.2030    -7.1430     1.1930 C.ar  1 <1>  -0.1500 
 19 C       -0.4450    -7.5800    -0.3690 C.ar  1 <1>  -0.1500 
 20 C       -4.8570    -2.9340    -1.2030 C.3   1 <1>  -0.2000 
 21 C       -4.3500    -1.5470    -0.9220 C.3   1 <1>  -0.2000 
 22 C       -2.2900    -8.4960     1.4760 C.ar  1 <1>  -0.1500 
 23 C       -0.5300    -8.9330    -0.0870 C.ar  1 <1>  -0.1500 
 24 C       -1.4520    -9.3920     0.8360 C.ar  1 <1>  -0.1500 
 25 H        1.4860     3.4720     1.2360 H     1 <1>   0.0800 
 26 H        1.6730     2.5380     2.7030 H     1 <1>   0.0800 
 27 H        0.0770     2.7980     2.0240 H     1 <1>   0.0800 
 28 H        2.1910    -1.3480    -2.2820 H     1 <1>   0.0800 
 29 H        3.3190    -0.0400    -2.0230 H     1 <1>   0.0800 
 30 H        1.7530     0.2840    -2.7280 H     1 <1>   0.0800 
 31 H        0.8340    -4.9540     0.7350 H     1 <1>   0.0800 
 32 H       -0.4190    -4.7180     1.9110 H     1 <1>   0.0800 
 33 H       -1.8470    -2.4080     1.6690 H     1 <1>   0.0800 
 34 H       -1.4120    -1.4010     0.3180 H     1 <1>   0.0800 
 35 H       -0.8290    -5.0710    -1.0690 H     1 <1>   0.0800 
 36 H       -2.0960    -3.1100    -1.2750 H     1 <1>   0.0800 
 37 H       -4.2130    -2.7860     0.8960 H     1 <1>   0.1000 
 38 H       -2.8620    -6.4550     1.6940 H     1 <1>   0.1500 
 39 H        0.2790    -7.2390    -1.0880 H     1 <1>   0.1500 
 40 H       -4.5390    -3.4390    -2.1000 H     1 <1>   0.1000 
 41 H       -5.8640    -3.1920    -0.9230 H     1 <1>   0.1000 
 42 H       -5.0200    -0.8410    -0.4600 H     1 <1>   0.1000 
 43 H       -3.7050    -1.0860    -1.6500 H     1 <1>   0.1000 
 44 H       -3.0100    -8.8490     2.1930 H     1 <1>   0.1500 
 45 H        0.1220    -9.6290    -0.5860 H     1 <1>   0.1500 
 46 H       -1.5200   -10.4430     1.0550 H     1 <1>   0.1500 
@<TRIPOS>BOND
  1   1   2  1   
  2   1   3  1   
  3   2   4  2   
  4   2   5  1   
  5   3   6  2   
  6   3   7  1   
  7   4   6  1   
  8   4   8  1   
  9   5   9  2   
 10   5  10  am  
 11   7  25  1   
 12   7  26  1   
 13   7  27  1   
 14   8  28  1   
 15   8  29  1   
 16   8  30  1   
 17  10  11  1   
 18  10  12  1   
 19  11  13  1   
 20  11  31  1   
 21  11  32  1   
 22  12  14  1   
 23  12  33  1   
 24  12  34  1   
 25  13  15  1   
 26  13  16  1   
 27  13  35  1   
 28  14  15  1   
 29  14  17  1   
 30  14  36  1   
 31  16  18  ar  
 32  16  19  ar  
 33  17  20  1   
 34  17  21  1   
 35  17  37  1   
 36  18  22  ar  
 37  18  38  1   
 38  19  23  ar  
 39  19  39  1   
 40  20  21  1   
 41  20  40  1   
 42  20  41  1   
 43  21  42  1   
 44  21  43  1   
 45  22  24  ar  
 46  22  44  1   
 47  23  24  ar  
 48  23  45  1   
 49  24  46  1   
@<TRIPOS>SUBSTRUCTURE
  1 ****  10 GROUP 4 **** **** 0

# MOE 2024.06 (io_trps.svl 2023.06)
