@<TRIPOS>MOLECULE
NONAME
48 50 1 0 0 
SMALL
USER_CHARGES


@<TRIPOS>ATOM
  1 O       -3.2940    -1.2240     2.5570 O.2   1 <1>  -0.5700 
  2 C       -2.6520    -0.9090     1.5850 C.2   1 <1>   0.5690 
  3 N       -2.6710    -1.5290     0.3860 N.am  1 <1>  -0.6600 
  4 C       -1.7040     0.2570     1.5650 C.3   1 <1>  -0.0990 
  5 C       -1.7610    -0.9210    -0.5950 C.3   1 <1>   0.1400 
  6 C       -3.4170    -2.7690     0.0770 C.3   1 <1>   0.1400 
  7 C       -1.3060     0.3800     0.0820 C.3   1 <1>  -0.1600 
  8 C       -4.7630    -2.4190    -0.5480 C.3   1 <1>  -0.0990 
  9 C       -5.5170    -3.6720    -0.9240 C.2   1 <1>   0.5690 
 10 O       -5.6730    -3.9400    -2.0910 O.2   1 <1>  -0.5700 
 11 N       -6.0550    -4.4410     0.0600 N.am  1 <1>  -0.6600 
 12 C       -5.6070    -5.8600     0.2560 C.3   1 <1>   0.3640 
 13 C       -7.5120    -4.2860     0.3010 C.3   1 <1>   0.1400 
 14 C       -4.1050    -6.0010    -0.0450 C.ar  1 <1>  -0.1440 
 15 C       -6.5100    -6.8530    -0.5370 C.3   1 <1>   0.2000 
 16 C       -8.2890    -5.2820    -0.5710 C.3   1 <1>   0.1200 
 17 C       -3.2070    -6.0240     1.0130 C.ar  1 <1>  -0.1500 
 18 C       -3.6120    -6.1190    -1.3400 C.ar  1 <1>  -0.1500 
 19 O       -7.8740    -6.5880    -0.2940 O.3   1 <1>  -0.5600 
 20 C       -6.3190    -8.3450    -0.1860 C.3   1 <1>   0.1200 
 21 C       -1.8490    -6.1610     0.7860 C.ar  1 <1>  -0.1500 
 22 C       -2.2540    -6.2570    -1.5690 C.ar  1 <1>  -0.1500 
 23 O       -5.0020    -8.7050     0.0860 O.3   1 <1>  -0.6800 
 24 C       -1.3710    -6.2790    -0.5060 C.ar  1 <1>  -0.1500 
 25 H       -2.1900     1.1440     1.9260 H     1 <1>   0.0800 
 26 H       -0.8540     0.0240     2.1790 H     1 <1>   0.0800 
 27 H       -0.9270    -1.5810    -0.7650 H     1 <1>   0.0800 
 28 H       -2.2720    -0.7260    -1.5220 H     1 <1>   0.0800 
 29 H       -2.8380    -3.3850    -0.5900 H     1 <1>   0.0800 
 30 H       -3.5780    -3.3160     0.9910 H     1 <1>   0.0800 
 31 H       -0.2490     0.5350    -0.0390 H     1 <1>   0.0800 
 32 H       -1.8300     1.2060    -0.3660 H     1 <1>   0.0800 
 33 H       -4.6120    -1.8270    -1.4310 H     1 <1>   0.0800 
 34 H       -5.3480    -1.8560     0.1550 H     1 <1>   0.0800 
 35 H       -5.7430    -6.0960     1.2970 H     1 <1>   0.0800 
 36 H       -7.7310    -4.4600     1.3400 H     1 <1>   0.0800 
 37 H       -7.8170    -3.2830     0.0560 H     1 <1>   0.0800 
 38 H       -6.3450    -6.7200    -1.5910 H     1 <1>   0.0800 
 39 H       -8.1300    -5.0800    -1.6170 H     1 <1>   0.0800 
 40 H       -9.3420    -5.2200    -0.3610 H     1 <1>   0.0800 
 41 H       -3.5600    -5.9350     2.0270 H     1 <1>   0.1500 
 42 H       -4.2770    -6.0930    -2.1870 H     1 <1>   0.1500 
 43 H       -6.6640    -8.9530    -1.0040 H     1 <1>   0.0800 
 44 H       -6.8930    -8.5870     0.6920 H     1 <1>   0.0800 
 45 H       -1.1650    -6.1760     1.6170 H     1 <1>   0.1500 
 46 H       -1.8860    -6.3450    -2.5770 H     1 <1>   0.1500 
 47 H       -4.3650    -8.2150    -0.4770 H     1 <1>   0.4000 
 48 H       -0.3150    -6.3870    -0.6830 H     1 <1>   0.1500 
@<TRIPOS>BOND
  1   1   2  2   
  2   2   3  am  
  3   2   4  1   
  4   3   5  1   
  5   3   6  1   
  6   4   7  1   
  7   4  25  1   
  8   4  26  1   
  9   5   7  1   
 10   5  27  1   
 11   5  28  1   
 12   6   8  1   
 13   6  29  1   
 14   6  30  1   
 15   7  31  1   
 16   7  32  1   
 17   8   9  1   
 18   8  33  1   
 19   8  34  1   
 20   9  10  2   
 21   9  11  am  
 22  11  12  1   
 23  11  13  1   
 24  12  14  1   
 25  12  15  1   
 26  12  35  1   
 27  13  16  1   
 28  13  36  1   
 29  13  37  1   
 30  14  17  ar  
 31  14  18  ar  
 32  15  19  1   
 33  15  20  1   
 34  15  38  1   
 35  16  19  1   
 36  16  39  1   
 37  16  40  1   
 38  17  21  ar  
 39  17  41  1   
 40  18  22  ar  
 41  18  42  1   
 42  20  23  1   
 43  20  43  1   
 44  20  44  1   
 45  21  24  ar  
 46  21  45  1   
 47  22  24  ar  
 48  22  46  1   
 49  23  47  1   
 50  24  48  1   
@<TRIPOS>SUBSTRUCTURE
  1 ****  14 GROUP 4 **** **** 0

# MOE 2024.06 (io_trps.svl 2023.06)
