@<TRIPOS>MOLECULE
NONAME
50 53 1 0 0 
SMALL
USER_CHARGES


@<TRIPOS>ATOM
  1 O       -0.6090     0.9870    -1.0640 O.2   1 <1>  -0.5700 
  2 C       -1.7020     1.2900    -0.6090 C.2   1 <1>   0.7160 
  3 N       -2.6610     0.2820    -0.5700 N.am  1 <1>  -0.6600 
  4 C       -1.8930     2.6690    -0.1490 C.2   1 <1>   0.2030 
  5 C       -4.1320     0.4260    -0.7640 C.3   1 <1>   0.2200 
  6 C       -2.2190    -1.1420    -0.5140 C.3   1 <1>   0.0600 
  7 N       -2.7570     3.1210     0.7590 N.2   1 <1>  -0.7070 
  8 C       -1.1170     3.7200    -0.6420 C.2   1 <1>  -0.1500 
  9 C       -4.5810     1.5710    -1.6770 C.3   1 <1>  -0.1600 
 10 C       -4.8710     0.5910     0.5610 C.3   1 <1>  -0.1600 
 11 N       -2.5000     4.4340     0.8650 N.pl3 1 <1>   0.6010 
 12 C       -1.5170     4.8400     0.0000 C.2   1 <1>  -0.0260 
 13 C       -5.9710     1.9770    -1.1690 C.3   1 <1>  -0.0800 
 14 C       -6.1550     1.3590     0.2230 C.3   1 <1>  -0.0800 
 15 C       -3.0880     5.3610     1.7020 C.2   1 <1>  -0.1810 
 16 N       -1.0940     6.1490    -0.1100 N.2   1 <1>  -0.5760 
 17 C       -6.1690     3.4890    -0.9800 C.3   1 <1>  -0.1600 
 18 C       -6.4660     2.5330     1.1640 C.3   1 <1>  -0.1600 
 19 C       -2.6720     6.6520     1.6150 C.2   1 <1>  -0.1360 
 20 C       -1.6590     7.0040     0.6770 C.2   1 <1>   0.3760 
 21 C       -7.0420     3.6320     0.2690 C.3   1 <1>   0.4230 
 22 N       -8.4810     3.3580    -0.0520 N.4   1 <1>  -0.9590 
 23 C       -9.0510     4.3280    -1.0430 C.3   1 <1>   0.2630 
 24 C       -9.3560     3.3520     1.1650 C.3   1 <1>   0.2630 
 25 H       -4.5020    -0.4780    -1.2190 H     1 <1>   0.0800 
 26 H       -2.8490    -1.6990     0.1560 H     1 <1>   0.0800 
 27 H       -1.2050    -1.2100    -0.1580 H     1 <1>   0.0800 
 28 H       -2.2690    -1.5760    -1.4980 H     1 <1>   0.0800 
 29 H       -0.3450     3.6400    -1.3860 H     1 <1>   0.1500 
 30 H       -3.9130     2.4050    -1.6400 H     1 <1>   0.0800 
 31 H       -4.6320     1.2310    -2.6960 H     1 <1>   0.0800 
 32 H       -5.0990    -0.3690     0.9870 H     1 <1>   0.0800 
 33 H       -4.2610     1.1310     1.2590 H     1 <1>   0.0800 
 34 H       -6.7240     1.5820    -1.8300 H     1 <1>   0.0800 
 35 H       -6.9850     0.6730     0.1940 H     1 <1>   0.0800 
 36 H       -3.8330     4.9910     2.3790 H     1 <1>   0.1500 
 37 H       -6.5500     3.9670    -1.8620 H     1 <1>   0.0800 
 38 H       -5.2220     3.9480    -0.7540 H     1 <1>   0.0800 
 39 H       -5.5460     2.9110     1.5750 H     1 <1>   0.0800 
 40 H       -7.0870     2.2430     1.9900 H     1 <1>   0.0800 
 41 H       -3.0750     7.4330     2.2350 H     1 <1>   0.1500 
 42 H       -1.3580     8.0360     0.6310 H     1 <1>   0.0600 
 43 H       -6.9330     4.6070     0.7180 H     1 <1>   0.0800 
 44 H       -8.4990     2.4170    -0.4700 H     1 <1>   0.4500 
 45 H       -8.9620     5.3360    -0.6730 H     1 <1>   0.0800 
 46 H      -10.0930     4.1150    -1.2150 H     1 <1>   0.0800 
 47 H       -8.5350     4.2580    -1.9860 H     1 <1>   0.0800 
 48 H       -9.2870     4.2960     1.6810 H     1 <1>   0.0800 
 49 H       -9.0650     2.5660     1.8420 H     1 <1>   0.0800 
 50 H      -10.3840     3.1870     0.8840 H     1 <1>   0.0800 
@<TRIPOS>BOND
  1   1   2  2   
  2   2   3  am  
  3   2   4  1   
  4   3   5  1   
  5   3   6  1   
  6   4   7  2   
  7   4   8  1   
  8   5   9  1   
  9   5  10  1   
 10   5  25  1   
 11   6  26  1   
 12   6  27  1   
 13   6  28  1   
 14   7  11  1   
 15   8  12  2   
 16   8  29  1   
 17   9  13  1   
 18   9  30  1   
 19   9  31  1   
 20  10  14  1   
 21  10  32  1   
 22  10  33  1   
 23  11  12  1   
 24  11  15  1   
 25  12  16  1   
 26  13  14  1   
 27  13  17  1   
 28  13  34  1   
 29  14  18  1   
 30  14  35  1   
 31  15  19  2   
 32  15  36  1   
 33  16  20  2   
 34  17  21  1   
 35  17  37  1   
 36  17  38  1   
 37  18  21  1   
 38  18  39  1   
 39  18  40  1   
 40  19  20  1   
 41  19  41  1   
 42  20  42  1   
 43  21  22  1   
 44  21  43  1   
 45  22  23  1   
 46  22  24  1   
 47  22  44  1   
 48  23  45  1   
 49  23  46  1   
 50  23  47  1   
 51  24  48  1   
 52  24  49  1   
 53  24  50  1   
@<TRIPOS>SUBSTRUCTURE
  1 ****   7 GROUP 4 **** **** 0

# MOE 2024.06 (io_trps.svl 2023.06)
