@<TRIPOS>MOLECULE
NONAME
34 36 1 0 0 
SMALL
USER_CHARGES


@<TRIPOS>ATOM
  1 CL       3.5940    -0.0170     2.9510 Cl    1 <1>  -0.1770 
  2 C        3.0120    -1.0690     1.6860 C.ar  1 <1>   0.1770 
  3 C        2.7640    -2.3960     1.9700 C.ar  1 <1>  -0.1500 
  4 C        2.8080    -0.5510     0.4210 C.ar  1 <1>  -0.1500 
  5 C        2.2940    -3.2510     0.9770 C.ar  1 <1>   0.0860 
  6 C        2.3470    -1.3840    -0.5850 C.ar  1 <1>  -0.1440 
  7 C        2.0290    -4.6470     1.2660 C.2   1 <1>   0.5440 
  8 C        2.1050    -2.7180    -0.3000 C.ar  1 <1>  -0.1500 
  9 C        2.1070    -0.8480    -1.9850 C.3   1 <1>  -0.0960 
 10 O        2.9210    -5.3310     1.7340 O.2   1 <1>  -0.5700 
 11 N        0.8020    -5.2140     1.0360 N.am  1 <1>  -0.6600 
 12 C       -0.4380    -4.5030     0.6080 C.3   1 <1>   0.2350 
 13 C        0.6180    -6.6730     0.7970 C.3   1 <1>   0.2350 
 14 C       -1.0440    -5.3880    -0.4620 C.3   1 <1>  -0.2420 
 15 C       -0.4140    -6.7540    -0.3190 C.3   1 <1>  -0.2420 
 16 C       -2.4600    -4.9110    -0.7850 C.2   1 <1>   0.9470 
 17 C       -0.2170    -5.9620    -1.5870 C.3   1 <1>  -0.2000 
 18 C       -1.0320    -8.1520    -0.3960 C.2   1 <1>   0.9470 
 19 O       -2.7170    -4.5110    -1.9300 O.co2 1 <1>  -0.9000 
 20 O       -3.2650    -4.7510     0.1420 O.co2 1 <1>  -0.9000 
 21 O       -0.9750    -8.7890    -1.4580 O.co2 1 <1>  -0.9000 
 22 O       -1.4420    -8.6830     0.6460 O.co2 1 <1>  -0.9000 
 23 H        2.9330    -2.7780     2.9610 H     1 <1>   0.1500 
 24 H        3.0080     0.4880     0.2350 H     1 <1>   0.1500 
 25 H        1.7520    -3.3770    -1.0780 H     1 <1>   0.1500 
 26 H        1.2950    -1.3790    -2.4530 H     1 <1>   0.0800 
 27 H        2.9920    -0.9730    -2.5820 H     1 <1>   0.0800 
 28 H        1.8520     0.1960    -1.9520 H     1 <1>   0.0800 
 29 H       -1.1130    -4.4390     1.4460 H     1 <1>   0.0800 
 30 H       -0.2550    -3.5170     0.2270 H     1 <1>   0.0800 
 31 H        1.5390    -7.1460     0.5060 H     1 <1>   0.0800 
 32 H        0.2390    -7.1360     1.6930 H     1 <1>   0.0800 
 33 H        0.7510    -5.5540    -1.8080 H     1 <1>   0.1000 
 34 H       -0.7340    -6.2980    -2.4700 H     1 <1>   0.1000 
@<TRIPOS>BOND
  1   1   2  1   
  2   2   3  ar  
  3   2   4  ar  
  4   3   5  ar  
  5   3  23  1   
  6   4   6  ar  
  7   4  24  1   
  8   5   7  1   
  9   5   8  ar  
 10   6   8  ar  
 11   6   9  1   
 12   7  10  2   
 13   7  11  am  
 14   8  25  1   
 15   9  26  1   
 16   9  27  1   
 17   9  28  1   
 18  11  12  1   
 19  11  13  1   
 20  12  14  1   
 21  12  29  1   
 22  12  30  1   
 23  13  15  1   
 24  13  31  1   
 25  13  32  1   
 26  14  15  1   
 27  14  16  1   
 28  14  17  1   
 29  15  17  1   
 30  15  18  1   
 31  16  19  ar  
 32  16  20  ar  
 33  17  33  1   
 34  17  34  1   
 35  18  21  ar  
 36  18  22  ar  
@<TRIPOS>SUBSTRUCTURE
  1 ****  12 GROUP 4 **** **** 0

# MOE 2024.06 (io_trps.svl 2023.06)
