@<TRIPOS>MOLECULE
NONAME
38 39 1 0 0 
SMALL
USER_CHARGES


@<TRIPOS>ATOM
  1 O        1.1270    -0.1440     1.6190 O.2   1 <1>  -0.5700 
  2 C        2.0310    -0.8970     1.2980 C.2   1 <1>   0.6160 
  3 N        3.3350    -0.4630     1.4240 N.am  1 <1>  -0.6600 
  4 C        1.7050    -2.1800     0.7460 C.2   1 <1>   0.0290 
  5 C        3.6390     0.8820     1.9860 C.3   1 <1>   0.3200 
  6 C        4.5210    -1.2650     1.0090 C.3   1 <1>   0.0600 
  7 C        1.9660    -3.3220     1.5660 C.2   1 <1>   0.6160 
  8 C        1.1550    -2.3690    -0.5060 C.2   1 <1>  -0.1380 
  9 C        3.8750     1.8820     0.8670 C.2   1 <1>  -0.0400 
 10 O        2.4850    -3.2830     2.6730 O.2   1 <1>  -0.5700 
 11 N        1.6420    -4.5620     1.0870 N.am  1 <1>  -0.5390 
 12 C        0.8470    -3.6770    -0.9430 C.2   1 <1>  -0.1500 
 13 C        0.8490    -1.2250    -1.4660 C.3   1 <1>  -0.1020 
 14 O        5.0520     1.9340     0.2700 O.3   1 <1>  -0.2800 
 15 C        3.0380     2.8000     0.3360 C.2   1 <1>  -0.1500 
 16 C        1.0900    -4.7550    -0.1470 C.2   1 <1>  -0.0290 
 17 C        4.9940     2.8760    -0.6480 C.2   1 <1>  -0.0400 
 18 C        3.7740     3.4540    -0.6600 C.2   1 <1>  -0.1500 
 19 C        0.7790    -6.1810    -0.5520 C.3   1 <1>  -0.1020 
 20 C        6.2230     3.1450    -1.4890 C.3   1 <1>  -0.0600 
 21 H        4.5110     0.8270     2.6120 H     1 <1>   0.0800 
 22 H        2.8210     1.2210     2.5960 H     1 <1>   0.0800 
 23 H        4.2470    -2.0140     0.2880 H     1 <1>   0.0800 
 24 H        4.9460    -1.7490     1.8720 H     1 <1>   0.0800 
 25 H        5.2630    -0.6260     0.5630 H     1 <1>   0.0800 
 26 H        1.8400    -5.3300     1.7280 H     1 <1>   0.3700 
 27 H        0.4120    -3.8010    -1.9200 H     1 <1>   0.1500 
 28 H        1.2590    -1.4390    -2.4370 H     1 <1>   0.0800 
 29 H        1.2650    -0.2930    -1.1290 H     1 <1>   0.0800 
 30 H       -0.2160    -1.1050    -1.5590 H     1 <1>   0.0800 
 31 H        2.0150     3.0030     0.6010 H     1 <1>   0.1500 
 32 H        3.4070     4.2470    -1.2850 H     1 <1>   0.1500 
 33 H        0.0790    -6.6150     0.1390 H     1 <1>   0.0800 
 34 H        1.6800    -6.7680    -0.5540 H     1 <1>   0.0800 
 35 H        0.3500    -6.2100    -1.5380 H     1 <1>   0.0800 
 36 H        6.4940     2.2550    -2.0260 H     1 <1>   0.0800 
 37 H        7.0400     3.4340    -0.8530 H     1 <1>   0.0800 
 38 H        6.0270     3.9340    -2.1910 H     1 <1>   0.0800 
@<TRIPOS>BOND
  1   1   2  2   
  2   2   3  am  
  3   2   4  1   
  4   3   5  1   
  5   3   6  1   
  6   4   7  1   
  7   4   8  2   
  8   5   9  1   
  9   5  21  1   
 10   5  22  1   
 11   6  23  1   
 12   6  24  1   
 13   6  25  1   
 14   7  10  2   
 15   7  11  am  
 16   8  12  1   
 17   8  13  1   
 18   9  14  1   
 19   9  15  2   
 20  11  16  1   
 21  11  26  1   
 22  12  16  2   
 23  12  27  1   
 24  13  28  1   
 25  13  29  1   
 26  13  30  1   
 27  14  17  1   
 28  15  18  1   
 29  15  31  1   
 30  16  19  1   
 31  17  18  2   
 32  17  20  1   
 33  18  32  1   
 34  19  33  1   
 35  19  34  1   
 36  19  35  1   
 37  20  36  1   
 38  20  37  1   
 39  20  38  1   
@<TRIPOS>SUBSTRUCTURE
  1 ****   2 GROUP 4 **** **** 0

# MOE 2024.06 (io_trps.svl 2023.06)
