@<TRIPOS>MOLECULE
NONAME
49 50 1 0 0 
SMALL
USER_CHARGES


@<TRIPOS>ATOM
  1 F       -1.2420    -0.6890    -0.9290 F     1 <1>  -0.1900 
  2 C       -0.9750    -1.9640    -0.8560 C.ar  1 <1>   0.1900 
  3 C       -0.2560    -2.4300     0.2250 C.ar  1 <1>  -0.1500 
  4 C       -1.4290    -2.7930    -1.8620 C.ar  1 <1>  -0.1500 
  5 C        0.0170    -3.7930     0.3070 C.ar  1 <1>   0.0830 
  6 C       -1.1550    -4.1470    -1.7730 C.ar  1 <1>  -0.1500 
  7 O        0.7140    -4.3310     1.3410 O.3   1 <1>  -0.3630 
  8 C       -0.4400    -4.6530    -0.6940 C.ar  1 <1>  -0.1440 
  9 C        1.4700    -3.5210     2.2180 C.3   1 <1>   0.0400 
 10 C       -0.1710    -6.1540    -0.6400 C.3   1 <1>   0.2540 
 11 N       -1.4280    -6.8600    -0.3150 N.3   1 <1>  -0.8100 
 12 C       -1.3620    -8.2790    -0.7090 C.3   1 <1>   0.2900 
 13 C       -1.7520    -6.7010     1.1370 C.3   1 <1>   0.1100 
 14 C       -2.7620    -8.6970    -1.0970 C.2   1 <1>  -0.3320 
 15 C       -3.2670    -6.7350     1.4110 C.3   1 <1>   0.3430 
 16 N       -3.3370    -8.2840    -2.2430 N.pl3 1 <1>   0.0330 
 17 C       -3.6670    -9.4960    -0.4860 C.2   1 <1>   0.0460 
 18 N       -3.9760    -6.0500     0.3000 N.4   1 <1>  -0.9590 
 19 C       -4.5670    -8.8340    -2.2390 C.2   1 <1>   0.0360 
 20 N       -4.8100    -9.5490    -1.1900 N.2   1 <1>  -0.5650 
 21 C       -3.5480   -10.2900     0.7970 C.3   1 <1>  -0.0590 
 22 C       -3.8510    -4.5640     0.3600 C.3   1 <1>   0.2630 
 23 C       -5.3840    -6.5220     0.1630 C.3   1 <1>   0.2630 
 24 H        0.0680    -1.7290     0.9690 H     1 <1>   0.1500 
 25 H       -1.9750    -2.3830    -2.6930 H     1 <1>   0.1500 
 26 H       -1.4960    -4.8090    -2.5500 H     1 <1>   0.1500 
 27 H        2.0330    -4.1650     2.8690 H     1 <1>   0.0800 
 28 H        0.8030    -2.9090     2.7990 H     1 <1>   0.0800 
 29 H        2.1440    -2.9120     1.6390 H     1 <1>   0.0800 
 30 H        0.5960    -6.3980     0.0760 H     1 <1>   0.0800 
 31 H        0.1830    -6.4560    -1.6110 H     1 <1>   0.0800 
 32 H       -0.9770    -8.8880     0.0910 H     1 <1>   0.0800 
 33 H       -0.7190    -8.4120    -1.5630 H     1 <1>   0.0800 
 34 H       -1.3980    -5.7490     1.4900 H     1 <1>   0.0800 
 35 H       -1.2520    -7.4500     1.7270 H     1 <1>   0.0800 
 36 H       -3.4930    -6.2750     2.3580 H     1 <1>   0.0800 
 37 H       -3.5800    -7.7630     1.4510 H     1 <1>   0.0800 
 38 H       -2.9210    -7.7030    -2.9780 H     1 <1>   0.2700 
 39 H       -3.4140    -6.3840    -0.5120 H     1 <1>   0.4500 
 40 H       -5.2660    -8.6840    -3.0450 H     1 <1>   0.1500 
 41 H       -2.5940   -10.1340     1.2620 H     1 <1>   0.0800 
 42 H       -3.6570   -11.3360     0.5740 H     1 <1>   0.0800 
 43 H       -4.3280   -10.0040     1.4780 H     1 <1>   0.0800 
 44 H       -4.3520    -4.1800     1.2330 H     1 <1>   0.0800 
 45 H       -4.2890    -4.1180    -0.5170 H     1 <1>   0.0800 
 46 H       -2.8120    -4.2810     0.4010 H     1 <1>   0.0800 
 47 H       -5.9690    -6.2090     1.0120 H     1 <1>   0.0800 
 48 H       -5.4130    -7.5970     0.1020 H     1 <1>   0.0800 
 49 H       -5.8270    -6.1200    -0.7330 H     1 <1>   0.0800 
@<TRIPOS>BOND
  1   1   2  1   
  2   2   3  ar  
  3   2   4  ar  
  4   3   5  ar  
  5   3  24  1   
  6   4   6  ar  
  7   4  25  1   
  8   5   7  1   
  9   5   8  ar  
 10   6   8  ar  
 11   6  26  1   
 12   7   9  1   
 13   8  10  1   
 14   9  27  1   
 15   9  28  1   
 16   9  29  1   
 17  10  11  1   
 18  10  30  1   
 19  10  31  1   
 20  11  12  1   
 21  11  13  1   
 22  12  14  1   
 23  12  32  1   
 24  12  33  1   
 25  13  15  1   
 26  13  34  1   
 27  13  35  1   
 28  14  16  1   
 29  14  17  2   
 30  15  18  1   
 31  15  36  1   
 32  15  37  1   
 33  16  19  1   
 34  16  38  1   
 35  17  20  1   
 36  17  21  1   
 37  18  22  1   
 38  18  23  1   
 39  18  39  1   
 40  19  20  2   
 41  19  40  1   
 42  21  41  1   
 43  21  42  1   
 44  21  43  1   
 45  22  44  1   
 46  22  45  1   
 47  22  46  1   
 48  23  47  1   
 49  23  48  1   
 50  23  49  1   
@<TRIPOS>SUBSTRUCTURE
  1 ****  11 GROUP 4 **** **** 0

# MOE 2024.06 (io_trps.svl 2023.06)
