@<TRIPOS>MOLECULE
NONAME
49 51 1 0 0 
SMALL
USER_CHARGES


@<TRIPOS>ATOM
  1 S       -1.8920    -1.1810    -0.3440 S.3   1 <1>  -0.0800 
  2 C       -2.2190    -1.7460    -1.9490 C.2   1 <1>   0.4420 
  3 C       -1.2500     0.2570    -1.0620 C.2   1 <1>   0.1980 
  4 N       -1.8630    -0.8990    -2.8450 N.2   1 <1>  -0.3380 
  5 N       -2.8000    -2.9880    -2.0580 N.am  1 <1>  -0.4940 
  6 N       -1.3120     0.2430    -2.3300 N.2   1 <1>  -0.3380 
  7 C       -0.7100     1.3410    -0.1490 C.3   1 <1>   0.0200 
  8 C       -3.2120    -3.6930    -3.1490 C.2   1 <1>   0.5690 
  9 C        0.6190     0.9250     0.5000 C.3   1 <1>  -0.1600 
 10 O       -3.1360    -3.3040    -4.2870 O.2   1 <1>  -0.5700 
 11 C       -3.8120    -5.0690    -2.8620 C.3   1 <1>   0.1710 
 12 C        1.1800     2.0380     1.3950 C.3   1 <1>  -0.1600 
 13 N       -4.3520    -5.1840    -1.4730 N.3   1 <1>  -0.8100 
 14 C        2.5060     1.6120     2.0360 C.3   1 <1>  -0.1600 
 15 C       -4.4350    -6.5950    -1.0500 C.3   1 <1>   0.2530 
 16 C       -5.6790    -4.5260    -1.3840 C.3   1 <1>   0.1100 
 17 C        3.0670     2.7230     2.9290 C.3   1 <1>  -0.2400 
 18 C       -4.3990    -6.7040     0.4650 C.ar  1 <1>  -0.1440 
 19 C       -6.1830    -4.3360     0.0550 C.3   1 <1>   0.1200 
 20 C       -5.4450    -6.2160     1.2380 C.ar  1 <1>   0.0820 
 21 C       -3.3310    -7.3250     1.0970 C.ar  1 <1>  -0.1500 
 22 O       -6.4830    -5.5710     0.6710 O.3   1 <1>  -0.3620 
 23 C       -5.4420    -6.3770     2.6140 C.ar  1 <1>  -0.1500 
 24 C       -3.3180    -7.4720     2.4750 C.ar  1 <1>  -0.1500 
 25 C       -4.3760    -7.0040     3.2340 C.ar  1 <1>  -0.1500 
 26 H       -3.0110    -3.4800    -1.1860 H     1 <1>   0.3700 
 27 H       -1.4400     1.5580     0.6090 H     1 <1>   0.0800 
 28 H       -0.5600     2.2330    -0.7320 H     1 <1>   0.0800 
 29 H        1.3300     0.6950    -0.2760 H     1 <1>   0.0800 
 30 H        0.4690     0.0360     1.0880 H     1 <1>   0.0800 
 31 H       -3.0200    -5.7820    -3.0070 H     1 <1>   0.0800 
 32 H       -4.5820    -5.2790    -3.5840 H     1 <1>   0.0800 
 33 H        0.4700     2.2710     2.1700 H     1 <1>   0.0800 
 34 H        1.3390     2.9260     0.8080 H     1 <1>   0.0800 
 35 H        3.2240     1.3820     1.2670 H     1 <1>   0.0800 
 36 H        2.3560     0.7250     2.6290 H     1 <1>   0.0800 
 37 H       -3.6010    -7.1460    -1.4470 H     1 <1>   0.0800 
 38 H       -5.3370    -7.0490    -1.4260 H     1 <1>   0.0800 
 39 H       -6.4130    -5.0820    -1.9440 H     1 <1>   0.0800 
 40 H       -5.6140    -3.5470    -1.8280 H     1 <1>   0.0800 
 41 H        3.2480     3.6130     2.3530 H     1 <1>   0.0800 
 42 H        3.9960     2.4060     3.3690 H     1 <1>   0.0800 
 43 H        2.3770     2.9550     3.7210 H     1 <1>   0.0800 
 44 H       -7.0920    -3.7630     0.0440 H     1 <1>   0.0800 
 45 H       -5.4540    -3.8140     0.6510 H     1 <1>   0.0800 
 46 H       -2.5040    -7.7020     0.5220 H     1 <1>   0.1500 
 47 H       -6.2700    -6.0070     3.1900 H     1 <1>   0.1500 
 48 H       -2.4860    -7.9570     2.9560 H     1 <1>   0.1500 
 49 H       -4.3700    -7.1270     4.3040 H     1 <1>   0.1500 
@<TRIPOS>BOND
  1   1   2  1   
  2   1   3  1   
  3   2   4  2   
  4   2   5  1   
  5   3   6  2   
  6   3   7  1   
  7   4   6  1   
  8   5   8  am  
  9   5  26  1   
 10   7   9  1   
 11   7  27  1   
 12   7  28  1   
 13   8  10  2   
 14   8  11  1   
 15   9  12  1   
 16   9  29  1   
 17   9  30  1   
 18  11  13  1   
 19  11  31  1   
 20  11  32  1   
 21  12  14  1   
 22  12  33  1   
 23  12  34  1   
 24  13  15  1   
 25  13  16  1   
 26  14  17  1   
 27  14  35  1   
 28  14  36  1   
 29  15  18  1   
 30  15  37  1   
 31  15  38  1   
 32  16  19  1   
 33  16  39  1   
 34  16  40  1   
 35  17  41  1   
 36  17  42  1   
 37  17  43  1   
 38  18  20  ar  
 39  18  21  ar  
 40  19  22  1   
 41  19  44  1   
 42  19  45  1   
 43  20  22  1   
 44  20  23  ar  
 45  21  24  ar  
 46  21  46  1   
 47  23  25  ar  
 48  23  47  1   
 49  24  25  ar  
 50  24  48  1   
 51  25  49  1   
@<TRIPOS>SUBSTRUCTURE
  1 ****   5 GROUP 4 **** **** 0

# MOE 2024.06 (io_trps.svl 2023.06)
