@<TRIPOS>MOLECULE
NONAME
19 19 1 0 0 
SMALL
USER_CHARGES


@<TRIPOS>ATOM
  1 O        0.5190    -0.7010    -1.6590 O.2   1 <1>  -0.5700 
  2 C        0.2520    -1.6550    -0.9760 C.2   1 <1>   0.6590 
  3 O        0.8390    -2.8310    -1.1040 O.3   1 <1>  -0.4300 
  4 C       -0.8200    -1.6960     0.1040 C.3   1 <1>   0.2810 
  5 C        0.3180    -3.8010    -0.2240 C.3   1 <1>   0.1200 
  6 N       -2.1180    -1.0730    -0.2840 N.am  1 <1>  -0.7300 
  7 C       -0.9770    -3.1980     0.3280 C.3   1 <1>  -0.1600 
  8 C       -3.1430    -0.8750     0.5730 C.2   1 <1>   0.5690 
  9 O       -3.1140    -1.2800     1.7080 O.2   1 <1>  -0.5700 
 10 C       -4.3490    -0.1190     0.0840 C.3   1 <1>  -0.1790 
 11 H       -0.4360    -1.2220     0.9900 H     1 <1>   0.0800 
 12 H        0.1470    -4.7150    -0.7680 H     1 <1>   0.0800 
 13 H        1.0430    -3.9630     0.5560 H     1 <1>   0.0800 
 14 H       -2.1190    -0.6270    -1.2050 H     1 <1>   0.3700 
 15 H       -1.8100    -3.5810    -0.2350 H     1 <1>   0.0800 
 16 H       -1.1150    -3.4340     1.3680 H     1 <1>   0.0800 
 17 H       -4.7540    -0.6030    -0.7850 H     1 <1>   0.0800 
 18 H       -4.0700     0.8880    -0.1610 H     1 <1>   0.0800 
 19 H       -5.0990    -0.0960     0.8530 H     1 <1>   0.0800 
@<TRIPOS>BOND
  1   1   2  2   
  2   2   3  1   
  3   2   4  1   
  4   3   5  1   
  5   4   6  1   
  6   4   7  1   
  7   4  11  1   
  8   5   7  1   
  9   5  12  1   
 10   5  13  1   
 11   6   8  am  
 12   6  14  1   
 13   7  15  1   
 14   7  16  1   
 15   8   9  2   
 16   8  10  1   
 17  10  17  1   
 18  10  18  1   
 19  10  19  1   
@<TRIPOS>SUBSTRUCTURE
  1 ****   4 GROUP 4 **** **** 0

# MOE 2024.06 (io_trps.svl 2023.06)
