@<TRIPOS>MOLECULE
NONAME
48 50 1 0 0 
SMALL
USER_CHARGES


@<TRIPOS>ATOM
  1 CL       1.2260     0.6980     2.1630 Cl    1 <1>  -0.1770 
  2 C        1.9530    -0.5780     1.2220 C.ar  1 <1>   0.1770 
  3 C        2.9270    -0.2590     0.2980 C.ar  1 <1>  -0.1500 
  4 C        1.5380    -1.8790     1.4200 C.ar  1 <1>  -0.1500 
  5 C        3.5020    -1.2830    -0.4460 C.ar  1 <1>   0.0830 
  6 C        2.0960    -2.9190     0.6780 C.ar  1 <1>   0.0860 
  7 O        4.4650    -1.0830    -1.3780 O.3   1 <1>  -0.3630 
  8 C        3.0860    -2.5900    -0.2470 C.ar  1 <1>  -0.1500 
  9 C        1.6700    -4.2950     0.8630 C.2   1 <1>   0.5440 
 10 C        4.9950     0.2000    -1.6260 C.3   1 <1>   0.0400 
 11 O        2.4840    -5.2000     0.8210 O.2   1 <1>  -0.5700 
 12 N        0.3500    -4.6260     1.0640 N.am  1 <1>  -0.6600 
 13 C       -0.0170    -5.9830     1.5630 C.3   1 <1>   0.1400 
 14 C       -0.7570    -3.9590     0.3180 C.3   1 <1>   0.1400 
 15 C       -0.3290    -6.8740     0.3410 C.3   1 <1>   0.4230 
 16 C       -1.1650    -4.8460    -0.8710 C.3   1 <1>  -0.1600 
 17 N       -0.5730    -8.3230     0.6520 N.4   1 <1>  -0.9590 
 18 C       -1.5340    -6.2980    -0.4420 C.3   1 <1>  -0.1060 
 19 C       -0.7870    -9.1750    -0.5560 C.3   1 <1>   0.3430 
 20 C        0.3650    -8.9360     1.6290 C.3   1 <1>   0.2630 
 21 C       -2.7520    -6.3040     0.5000 C.2   1 <1>   0.9060 
 22 C       -1.8470    -7.1560    -1.7030 C.3   1 <1>  -0.1600 
 23 C       -0.9010    -8.3590    -1.8510 C.3   1 <1>  -0.1600 
 24 O       -2.9210    -7.2890     1.2360 O.co2 1 <1>  -0.9000 
 25 O       -3.5190    -5.3420     0.5240 O.co2 1 <1>  -0.9000 
 26 H        3.2140     0.7680     0.1810 H     1 <1>   0.1500 
 27 H        0.7790    -2.0870     2.1530 H     1 <1>   0.1500 
 28 H        3.5460    -3.3720    -0.8240 H     1 <1>   0.1500 
 29 H        5.7510     0.1070    -2.3850 H     1 <1>   0.0800 
 30 H        5.4340     0.5790    -0.7190 H     1 <1>   0.0800 
 31 H        4.2070     0.8440    -1.9730 H     1 <1>   0.0800 
 32 H        0.8080    -6.3830     2.1230 H     1 <1>   0.0800 
 33 H       -0.8670    -5.9060     2.2190 H     1 <1>   0.0800 
 34 H       -1.5950    -3.8080     0.9800 H     1 <1>   0.0800 
 35 H       -0.4500    -2.9950    -0.0470 H     1 <1>   0.0800 
 36 H        0.5380    -6.8190    -0.2940 H     1 <1>   0.0800 
 37 H       -2.0110    -4.3910    -1.3580 H     1 <1>   0.0800 
 38 H       -0.3550    -4.8630    -1.5800 H     1 <1>   0.0800 
 39 H       -1.5280    -8.2520     1.0990 H     1 <1>   0.4500 
 40 H        0.0250    -9.8770    -0.6580 H     1 <1>   0.0800 
 41 H       -1.6970    -9.7370    -0.4180 H     1 <1>   0.0800 
 42 H        1.3720    -8.9110     1.2430 H     1 <1>   0.0800 
 43 H        0.0860    -9.9590     1.8190 H     1 <1>   0.0800 
 44 H        0.3350    -8.3980     2.5620 H     1 <1>   0.0800 
 45 H       -2.8590    -7.5230    -1.6350 H     1 <1>   0.0800 
 46 H       -1.8000    -6.5570    -2.5960 H     1 <1>   0.0800 
 47 H        0.0780    -8.0190    -2.1420 H     1 <1>   0.0800 
 48 H       -1.2590    -9.0000    -2.6380 H     1 <1>   0.0800 
@<TRIPOS>BOND
  1   1   2  1   
  2   2   3  ar  
  3   2   4  ar  
  4   3   5  ar  
  5   3  26  1   
  6   4   6  ar  
  7   4  27  1   
  8   5   7  1   
  9   5   8  ar  
 10   6   8  ar  
 11   6   9  1   
 12   7  10  1   
 13   8  28  1   
 14   9  11  2   
 15   9  12  am  
 16  10  29  1   
 17  10  30  1   
 18  10  31  1   
 19  12  13  1   
 20  12  14  1   
 21  13  15  1   
 22  13  32  1   
 23  13  33  1   
 24  14  16  1   
 25  14  34  1   
 26  14  35  1   
 27  15  17  1   
 28  15  18  1   
 29  15  36  1   
 30  16  18  1   
 31  16  37  1   
 32  16  38  1   
 33  17  19  1   
 34  17  20  1   
 35  17  39  1   
 36  18  21  1   
 37  18  22  1   
 38  19  23  1   
 39  19  40  1   
 40  19  41  1   
 41  20  42  1   
 42  20  43  1   
 43  20  44  1   
 44  21  24  ar  
 45  21  25  ar  
 46  22  23  1   
 47  22  45  1   
 48  22  46  1   
 49  23  47  1   
 50  23  48  1   
@<TRIPOS>SUBSTRUCTURE
  1 ****  12 GROUP 4 **** **** 0

# MOE 2024.06 (io_trps.svl 2023.06)
