@<TRIPOS>MOLECULE
NONAME
51 53 1 0 0 
SMALL
USER_CHARGES


@<TRIPOS>ATOM
  1 O        0.4980    -1.4800    -1.9610 O.3   1 <1>  -0.6800 
  2 C        0.1790    -2.0020    -0.7190 C.3   1 <1>   0.1200 
  3 C        1.3860    -1.9890     0.2650 C.3   1 <1>   0.0000 
  4 C        2.7210    -2.5380    -0.3270 C.3   1 <1>   0.4230 
  5 C        1.6100    -0.5370     0.7820 C.3   1 <1>  -0.1600 
  6 C        1.0070    -2.8850     1.4810 C.3   1 <1>  -0.1600 
  7 N        2.6190    -3.9660    -0.8480 N.4   1 <1>  -0.9590 
  8 C        3.4450    -1.5480    -1.2710 C.3   1 <1>   0.2090 
  9 C        2.3190     0.3940    -0.2100 C.3   1 <1>   0.2090 
 10 C        1.5380    -4.3330     1.3790 C.3   1 <1>  -0.1600 
 11 C        1.6720    -4.8240    -0.0650 C.3   1 <1>   0.3430 
 12 C        2.2930    -4.0550    -2.3090 C.3   1 <1>   0.2630 
 13 N        3.6190    -0.2280    -0.5900 N.pl3 1 <1>  -0.8380 
 14 C        4.8330     0.2430    -0.2070 C.ar  1 <1>   0.4100 
 15 N        5.7620    -0.6450     0.0970 N.ar  1 <1>  -0.6200 
 16 C        5.0820     1.6290    -0.1370 C.ar  1 <1>  -0.1500 
 17 C        6.9340    -0.1830     0.4920 C.ar  1 <1>   0.7710 
 18 C        6.2970     2.0690     0.2710 C.ar  1 <1>   0.2170 
 19 N        7.2150     1.1270     0.5890 N.ar  1 <1>  -0.1790 
 20 N        7.8590    -1.1000     0.8040 N.pl3 1 <1>  -0.8690 
 21 C        6.6730     3.5360     0.3810 C.3   1 <1>  -0.0960 
 22 C        9.2680    -0.9980     1.2810 C.3   1 <1>   0.1290 
 23 H       -0.3150    -1.2400    -2.4570 H     1 <1>   0.4000 
 24 H       -0.6310    -1.4170    -0.3150 H     1 <1>   0.0800 
 25 H       -0.1860    -3.0000    -0.8780 H     1 <1>   0.0800 
 26 H        3.3800    -2.5900     0.5240 H     1 <1>   0.0800 
 27 H        2.2200    -0.5540     1.6690 H     1 <1>   0.0800 
 28 H        0.6700    -0.0950     1.0620 H     1 <1>   0.0800 
 29 H        1.3970    -2.4740     2.3970 H     1 <1>   0.0800 
 30 H       -0.0640    -2.9050     1.6010 H     1 <1>   0.0800 
 31 H        3.5570    -4.3690    -0.7200 H     1 <1>   0.4500 
 32 H        2.8910    -1.3910    -2.1770 H     1 <1>   0.0800 
 33 H        4.4050    -1.9500    -1.5420 H     1 <1>   0.0800 
 34 H        2.4720     1.3490     0.2600 H     1 <1>   0.0800 
 35 H        1.7190     0.5520    -1.0910 H     1 <1>   0.0800 
 36 H        0.8740    -4.9890     1.9150 H     1 <1>   0.0800 
 37 H        2.4990    -4.4040     1.8580 H     1 <1>   0.0800 
 38 H        0.6980    -4.8010    -0.5240 H     1 <1>   0.0800 
 39 H        2.0150    -5.8470    -0.0720 H     1 <1>   0.0800 
 40 H        1.3250    -3.6250    -2.5060 H     1 <1>   0.0800 
 41 H        2.2810    -5.0840    -2.6290 H     1 <1>   0.0800 
 42 H        3.0260    -3.5270    -2.8960 H     1 <1>   0.0800 
 43 H        4.3050     2.3110    -0.4260 H     1 <1>   0.1500 
 44 H        8.1480     1.3600     0.9030 H     1 <1>   0.4570 
 45 H        7.5350    -2.0680     0.6920 H     1 <1>   0.4000 
 46 H        5.8430     4.1590     0.0940 H     1 <1>   0.0800 
 47 H        7.5000     3.7630    -0.2690 H     1 <1>   0.0800 
 48 H        6.9410     3.7830     1.3930 H     1 <1>   0.0800 
 49 H        9.5820     0.0250     1.3890 H     1 <1>   0.0800 
 50 H        9.9250    -1.4870     0.5800 H     1 <1>   0.0800 
 51 H        9.3640    -1.4900     2.2360 H     1 <1>   0.0800 
@<TRIPOS>BOND
  1   1   2  1   
  2   1  23  1   
  3   2   3  1   
  4   2  24  1   
  5   2  25  1   
  6   3   4  1   
  7   3   5  1   
  8   3   6  1   
  9   4   7  1   
 10   4   8  1   
 11   4  26  1   
 12   5   9  1   
 13   5  27  1   
 14   5  28  1   
 15   6  10  1   
 16   6  29  1   
 17   6  30  1   
 18   7  11  1   
 19   7  12  1   
 20   7  31  1   
 21   8  13  1   
 22   8  32  1   
 23   8  33  1   
 24   9  13  1   
 25   9  34  1   
 26   9  35  1   
 27  10  11  1   
 28  10  36  1   
 29  10  37  1   
 30  11  38  1   
 31  11  39  1   
 32  12  40  1   
 33  12  41  1   
 34  12  42  1   
 35  13  14  1   
 36  14  15  ar  
 37  14  16  ar  
 38  15  17  ar  
 39  16  18  ar  
 40  16  43  1   
 41  17  19  ar  
 42  17  20  1   
 43  18  19  ar  
 44  18  21  1   
 45  19  44  1   
 46  20  22  1   
 47  20  45  1   
 48  21  46  1   
 49  21  47  1   
 50  21  48  1   
 51  22  49  1   
 52  22  50  1   
 53  22  51  1   
@<TRIPOS>SUBSTRUCTURE
  1 ****  13 GROUP 4 **** **** 0

# MOE 2024.06 (io_trps.svl 2023.06)
