@<TRIPOS>MOLECULE
NONAME
51 55 1 0 0 
SMALL
USER_CHARGES


@<TRIPOS>ATOM
  1 O       -0.6120     0.5560     1.6200 O.2   1 <1>  -0.5700 
  2 C       -1.6110     1.0790     1.1520 C.2   1 <1>   0.7160 
  3 N       -2.8040     0.3800     1.2510 N.am  1 <1>  -0.6600 
  4 C       -1.4900     2.3860     0.5100 C.2   1 <1>   0.2030 
  5 C       -4.0180     0.6650     0.4340 C.3   1 <1>   0.1400 
  6 C       -2.9990    -0.7030     2.2580 C.3   1 <1>   0.1400 
  7 N       -2.4040     3.3130     0.4880 N.2   1 <1>  -0.4100 
  8 C       -0.3690     2.8770    -0.1600 C.2   1 <1>  -0.1810 
  9 C       -4.4600    -0.6130    -0.2810 C.3   1 <1>  -0.1600 
 10 C       -3.4270    -1.9890     1.5520 C.3   1 <1>  -0.1600 
 11 O       -1.9700     4.3770    -0.1350 O.3   1 <1>  -0.0190 
 12 C       -0.7400     4.1150    -0.5140 C.2   1 <1>  -0.0400 
 13 C        0.9440     2.1440    -0.3900 C.3   1 <1>   0.3010 
 14 C       -4.6800    -1.7700     0.7010 C.3   1 <1>   0.4600 
 15 C        0.0120     5.2130    -1.2430 C.3   1 <1>  -0.0600 
 16 O        1.3340     2.3420    -1.7010 O.3   1 <1>  -0.6800 
 17 O       -5.7150    -1.4270     1.5980 O.3   1 <1>  -0.5600 
 18 C       -5.0550    -3.0530    -0.0310 C.2   1 <1>  -0.3320 
 19 C       -7.0460    -1.5930     1.1720 C.3   1 <1>   0.1200 
 20 N       -4.2510    -3.7800    -0.8660 N.pl3 1 <1>   0.0330 
 21 C       -6.2600    -3.6510     0.0560 C.2   1 <1>  -0.1810 
 22 C       -7.3640    -3.0740     0.9060 C.3   1 <1>   0.0210 
 23 C       -4.9690    -4.8640    -1.3100 C.ar  1 <1>  -0.1520 
 24 C       -6.2400    -4.8130    -0.7440 C.ar  1 <1>   0.0000 
 25 C       -4.6110    -5.9040    -2.1710 C.ar  1 <1>  -0.1500 
 26 C       -7.1700    -5.8140    -1.0390 C.ar  1 <1>  -0.1500 
 27 C       -5.5360    -6.8830    -2.4530 C.ar  1 <1>  -0.1500 
 28 C       -6.8160    -6.8380    -1.8870 C.ar  1 <1>  -0.1500 
 29 H       -3.8220     1.4200    -0.3050 H     1 <1>   0.0800 
 30 H       -4.8030     1.0190     1.0810 H     1 <1>   0.0800 
 31 H       -3.7630    -0.3980     2.9540 H     1 <1>   0.0800 
 32 H       -2.0960    -0.8790     2.8170 H     1 <1>   0.0800 
 33 H       -3.6980    -0.8890    -0.9860 H     1 <1>   0.0800 
 34 H       -5.3560    -0.4310    -0.8430 H     1 <1>   0.0800 
 35 H       -3.6250    -2.7570     2.2780 H     1 <1>   0.0800 
 36 H       -2.6160    -2.3250     0.9340 H     1 <1>   0.0800 
 37 H        0.8440     1.0840    -0.2410 H     1 <1>   0.0800 
 38 H        1.7160     2.5230     0.2580 H     1 <1>   0.0800 
 39 H        1.0300     4.9250    -1.4300 H     1 <1>   0.0800 
 40 H        0.0150     6.1060    -0.6460 H     1 <1>   0.0800 
 41 H       -0.4680     5.4240    -2.1810 H     1 <1>   0.0800 
 42 H        0.5780     2.1610    -2.2900 H     1 <1>   0.4000 
 43 H       -7.1960    -1.0130     0.2800 H     1 <1>   0.0800 
 44 H       -7.6880    -1.2090     1.9450 H     1 <1>   0.0800 
 45 H       -3.2790    -3.5760    -1.1150 H     1 <1>   0.2700 
 46 H       -8.3060    -3.1570     0.3960 H     1 <1>   0.0800 
 47 H       -7.4240    -3.6100     1.8350 H     1 <1>   0.0800 
 48 H       -3.6260    -5.9330    -2.6010 H     1 <1>   0.1500 
 49 H       -8.1480    -5.7670    -0.5960 H     1 <1>   0.1500 
 50 H       -5.2850    -7.6940    -3.1130 H     1 <1>   0.1500 
 51 H       -7.5210    -7.6150    -2.1230 H     1 <1>   0.1500 
@<TRIPOS>BOND
  1   1   2  2   
  2   2   3  am  
  3   2   4  1   
  4   3   5  1   
  5   3   6  1   
  6   4   7  2   
  7   4   8  1   
  8   5   9  1   
  9   5  29  1   
 10   5  30  1   
 11   6  10  1   
 12   6  31  1   
 13   6  32  1   
 14   7  11  1   
 15   8  12  2   
 16   8  13  1   
 17   9  14  1   
 18   9  33  1   
 19   9  34  1   
 20  10  14  1   
 21  10  35  1   
 22  10  36  1   
 23  11  12  1   
 24  12  15  1   
 25  13  16  1   
 26  13  37  1   
 27  13  38  1   
 28  14  17  1   
 29  14  18  1   
 30  15  39  1   
 31  15  40  1   
 32  15  41  1   
 33  16  42  1   
 34  17  19  1   
 35  18  20  1   
 36  18  21  2   
 37  19  22  1   
 38  19  43  1   
 39  19  44  1   
 40  20  23  1   
 41  20  45  1   
 42  21  22  1   
 43  21  24  1   
 44  22  46  1   
 45  22  47  1   
 46  23  24  ar  
 47  23  25  ar  
 48  24  26  ar  
 49  25  27  ar  
 50  25  48  1   
 51  26  28  ar  
 52  26  49  1   
 53  27  28  ar  
 54  27  50  1   
 55  28  51  1   
@<TRIPOS>SUBSTRUCTURE
  1 ****   9 GROUP 4 **** **** 0

# MOE 2024.06 (io_trps.svl 2023.06)
