@<TRIPOS>MOLECULE
NONAME
51 53 1 0 0 
SMALL
USER_CHARGES


@<TRIPOS>ATOM
  1 O       -4.5350    -1.7730    -2.2940 O.2   1 <1>  -0.5700 
  2 C       -3.7590    -1.5650    -1.3900 C.2   1 <1>   0.5690 
  3 N       -4.0760    -0.7690    -0.3190 N.am  1 <1>  -0.6600 
  4 C       -2.3980    -2.2360    -1.4710 C.3   1 <1>  -0.0190 
  5 C       -3.1290    -0.5710     0.8290 C.3   1 <1>   0.2200 
  6 C       -5.4650    -0.2810    -0.0950 C.3   1 <1>   0.0600 
  7 C       -1.2770    -1.1880    -1.5200 C.3   1 <1>   0.1200 
  8 C       -2.1910    -3.3110    -0.3820 C.3   1 <1>   0.1400 
  9 C       -1.8440     0.1400     0.3590 C.3   1 <1>   0.1200 
 10 C       -2.8180    -1.8820     1.5990 C.3   1 <1>   0.1400 
 11 O       -0.9330    -0.7300    -0.2500 O.3   1 <1>  -0.5600 
 12 N       -3.0860    -3.1260     0.8030 N.am  1 <1>  -0.6600 
 13 C       -4.2270    -3.8540     1.0470 C.2   1 <1>   0.5690 
 14 O       -4.8820    -3.6800     2.0480 O.2   1 <1>  -0.5700 
 15 C       -4.7010    -4.8980     0.0400 C.3   1 <1>  -0.0990 
 16 C       -6.1420    -5.3950     0.2660 C.3   1 <1>  -0.1600 
 17 C       -6.5650    -6.4060    -0.8070 C.3   1 <1>  -0.0170 
 18 C       -7.9930    -6.8710    -0.5740 C.ar  1 <1>  -0.1440 
 19 C       -8.2530    -7.9440     0.2640 C.ar  1 <1>  -0.1500 
 20 C       -9.0490    -6.2240    -1.1970 C.ar  1 <1>  -0.1500 
 21 C       -9.5530    -8.3720     0.4760 C.ar  1 <1>  -0.1500 
 22 C      -10.3490    -6.6490    -0.9870 C.ar  1 <1>  -0.1500 
 23 C      -10.6120    -7.7230    -0.1530 C.ar  1 <1>   0.0820 
 24 O      -11.9130    -8.0770    -0.0010 O.3   1 <1>  -0.3620 
 25 C      -12.2860    -9.1460     0.8390 C.3   1 <1>   0.0400 
 26 H       -2.3620    -2.7410    -2.4190 H     1 <1>   0.0800 
 27 H       -3.5960     0.1000     1.5270 H     1 <1>   0.0800 
 28 H       -5.4560     0.7750     0.1060 H     1 <1>   0.0800 
 29 H       -5.8980    -0.8030     0.7410 H     1 <1>   0.0800 
 30 H       -6.0770    -0.4590    -0.9630 H     1 <1>   0.0800 
 31 H       -1.5510    -0.3490    -2.1390 H     1 <1>   0.0800 
 32 H       -0.3900    -1.6360    -1.9350 H     1 <1>   0.0800 
 33 H       -1.1670    -3.3000    -0.0480 H     1 <1>   0.0800 
 34 H       -2.3590    -4.2800    -0.8150 H     1 <1>   0.0800 
 35 H       -1.3420     0.5520     1.2160 H     1 <1>   0.0800 
 36 H       -2.0740     0.9470    -0.3150 H     1 <1>   0.0800 
 37 H       -3.4150    -1.8880     2.4940 H     1 <1>   0.0800 
 38 H       -1.7920    -1.8850     1.9230 H     1 <1>   0.0800 
 39 H       -4.6500    -4.4650    -0.9420 H     1 <1>   0.0800 
 40 H       -4.0280    -5.7330     0.0830 H     1 <1>   0.0800 
 41 H       -6.2170    -5.8520     1.2380 H     1 <1>   0.0800 
 42 H       -6.8140    -4.5540     0.2460 H     1 <1>   0.0800 
 43 H       -5.9050    -7.2560    -0.7880 H     1 <1>   0.0800 
 44 H       -6.4900    -5.9550    -1.7810 H     1 <1>   0.0800 
 45 H       -7.4410    -8.4490     0.7560 H     1 <1>   0.1500 
 46 H       -8.8640    -5.3860    -1.8450 H     1 <1>   0.1500 
 47 H       -9.7190    -9.2060     1.1300 H     1 <1>   0.1500 
 48 H      -11.1690    -6.1490    -1.4690 H     1 <1>   0.1500 
 49 H      -13.3570    -9.2360     0.8070 H     1 <1>   0.0800 
 50 H      -11.9660    -8.9280     1.8420 H     1 <1>   0.0800 
 51 H      -11.8320   -10.0500     0.4750 H     1 <1>   0.0800 
@<TRIPOS>BOND
  1   1   2  2   
  2   2   3  am  
  3   2   4  1   
  4   3   5  1   
  5   3   6  1   
  6   4   7  1   
  7   4   8  1   
  8   4  26  1   
  9   5   9  1   
 10   5  10  1   
 11   5  27  1   
 12   6  28  1   
 13   6  29  1   
 14   6  30  1   
 15   7  11  1   
 16   7  31  1   
 17   7  32  1   
 18   8  12  1   
 19   8  33  1   
 20   8  34  1   
 21   9  11  1   
 22   9  35  1   
 23   9  36  1   
 24  10  12  1   
 25  10  37  1   
 26  10  38  1   
 27  12  13  am  
 28  13  14  2   
 29  13  15  1   
 30  15  16  1   
 31  15  39  1   
 32  15  40  1   
 33  16  17  1   
 34  16  41  1   
 35  16  42  1   
 36  17  18  1   
 37  17  43  1   
 38  17  44  1   
 39  18  19  ar  
 40  18  20  ar  
 41  19  21  ar  
 42  19  45  1   
 43  20  22  ar  
 44  20  46  1   
 45  21  23  ar  
 46  21  47  1   
 47  22  23  ar  
 48  22  48  1   
 49  23  24  1   
 50  24  25  1   
 51  25  49  1   
 52  25  50  1   
 53  25  51  1   
@<TRIPOS>SUBSTRUCTURE
  1 ****  15 GROUP 4 **** **** 0

# MOE 2024.06 (io_trps.svl 2023.06)
