@<TRIPOS>MOLECULE
NONAME
58 61 1 0 0 
SMALL
USER_CHARGES


@<TRIPOS>ATOM
  1 O        1.7350     0.8490    -1.1030 O.3   1 <1>  -0.6800 
  2 C        1.6970     0.1490     0.0880 C.3   1 <1>   0.2800 
  3 C        3.1340    -0.0010     0.6750 C.3   1 <1>  -0.0800 
  4 C        1.1120    -1.2380    -0.2420 C.3   1 <1>  -0.1600 
  5 C        0.7420     0.9140     1.0300 C.3   1 <1>  -0.1600 
  6 C        3.8500    -1.3160     0.3220 C.3   1 <1>  -0.0800 
  7 C        4.1380     1.0900     0.2860 C.3   1 <1>   0.2090 
  8 C        1.9730    -2.0530    -1.2310 C.3   1 <1>  -0.1600 
  9 C        1.1590     2.3550     1.3750 C.3   1 <1>  -0.2400 
 10 C        3.4830    -1.7790    -1.0970 C.3   1 <1>  -0.1600 
 11 C        5.3430    -1.0130     0.4790 C.3   1 <1>   0.2090 
 12 N        5.4820     0.4630     0.4120 N.pl3 1 <1>  -0.8380 
 13 C        6.6370     1.1730     0.3600 C.ar  1 <1>   0.4100 
 14 N        6.5450     2.4800     0.2030 N.ar  1 <1>  -0.6200 
 15 C        7.8900     0.5380     0.4680 C.ar  1 <1>  -0.1500 
 16 C        7.6600     3.1880     0.1320 C.ar  1 <1>   0.7710 
 17 C        9.0210     1.2820     0.4000 C.ar  1 <1>   0.2180 
 18 N        8.8710     2.6160     0.2300 N.ar  1 <1>  -0.1790 
 19 N        7.5830     4.5300    -0.0440 N.pl3 1 <1>  -0.8380 
 20 C       10.4240     0.6980     0.5050 C.3   1 <1>  -0.0170 
 21 C        8.6850     5.5140    -0.2170 C.3   1 <1>   0.2090 
 22 C        6.2650     5.2200    -0.1390 C.3   1 <1>   0.2090 
 23 C       11.2280     0.8920    -0.7880 C.3   1 <1>  -0.2400 
 24 C        8.0050     6.7830    -0.7120 C.3   1 <1>  -0.1600 
 25 C        6.5920     6.7060    -0.1480 C.3   1 <1>  -0.1600 
 26 H        0.8430     0.8740    -1.4910 H     1 <1>   0.4000 
 27 H        3.0570     0.0170     1.7470 H     1 <1>   0.0800 
 28 H        1.0410    -1.7920     0.6780 H     1 <1>   0.0800 
 29 H        0.1110    -1.1460    -0.6250 H     1 <1>   0.0800 
 30 H       -0.2380     0.9400     0.5860 H     1 <1>   0.0800 
 31 H        0.6490     0.3620     1.9490 H     1 <1>   0.0800 
 32 H        3.5730    -2.0930     1.0140 H     1 <1>   0.0800 
 33 H        4.0520     1.9490     0.9270 H     1 <1>   0.0800 
 34 H        4.0150     1.4030    -0.7370 H     1 <1>   0.0800 
 35 H        1.7810    -3.1000    -1.0720 H     1 <1>   0.0800 
 36 H        1.6760    -1.8210    -2.2390 H     1 <1>   0.0800 
 37 H        1.3170     2.9320     0.4810 H     1 <1>   0.0800 
 38 H        2.0600     2.3630     1.9600 H     1 <1>   0.0800 
 39 H        0.3850     2.8300     1.9520 H     1 <1>   0.0800 
 40 H        3.7590    -1.0040    -1.7940 H     1 <1>   0.0800 
 41 H        4.0340    -2.6640    -1.3610 H     1 <1>   0.0800 
 42 H        5.9200    -1.4870    -0.2970 H     1 <1>   0.0800 
 43 H        5.6840    -1.3530     1.4420 H     1 <1>   0.0800 
 44 H        7.9250    -0.5250     0.6030 H     1 <1>   0.1500 
 45 H        9.6570     3.2460     0.1670 H     1 <1>   0.4570 
 46 H       10.9460     1.1540     1.3290 H     1 <1>   0.0800 
 47 H       10.3570    -0.3560     0.7140 H     1 <1>   0.0800 
 48 H        9.1510     5.7020     0.7360 H     1 <1>   0.0800 
 49 H        9.4160     5.1760    -0.9320 H     1 <1>   0.0800 
 50 H        5.7800     4.9370    -1.0590 H     1 <1>   0.0800 
 51 H        5.6270     4.9650     0.6930 H     1 <1>   0.0800 
 52 H       11.3900     1.9330    -1.0020 H     1 <1>   0.0800 
 53 H       10.7150     0.4400    -1.6210 H     1 <1>   0.0800 
 54 H       12.1900     0.4170    -0.6930 H     1 <1>   0.0800 
 55 H        8.5250     7.6700    -0.3920 H     1 <1>   0.0800 
 56 H        7.9690     6.7690    -1.7870 H     1 <1>   0.0800 
 57 H        5.8840     7.2660    -0.7340 H     1 <1>   0.0800 
 58 H        6.5760     7.0750     0.8630 H     1 <1>   0.0800 
@<TRIPOS>BOND
  1   1   2  1   
  2   1  26  1   
  3   2   3  1   
  4   2   4  1   
  5   2   5  1   
  6   3   6  1   
  7   3   7  1   
  8   3  27  1   
  9   4   8  1   
 10   4  28  1   
 11   4  29  1   
 12   5   9  1   
 13   5  30  1   
 14   5  31  1   
 15   6  10  1   
 16   6  11  1   
 17   6  32  1   
 18   7  12  1   
 19   7  33  1   
 20   7  34  1   
 21   8  10  1   
 22   8  35  1   
 23   8  36  1   
 24   9  37  1   
 25   9  38  1   
 26   9  39  1   
 27  10  40  1   
 28  10  41  1   
 29  11  12  1   
 30  11  42  1   
 31  11  43  1   
 32  12  13  1   
 33  13  14  ar  
 34  13  15  ar  
 35  14  16  ar  
 36  15  17  ar  
 37  15  44  1   
 38  16  18  ar  
 39  16  19  1   
 40  17  18  ar  
 41  17  20  1   
 42  18  45  1   
 43  19  21  1   
 44  19  22  1   
 45  20  23  1   
 46  20  46  1   
 47  20  47  1   
 48  21  24  1   
 49  21  48  1   
 50  21  49  1   
 51  22  25  1   
 52  22  50  1   
 53  22  51  1   
 54  23  52  1   
 55  23  53  1   
 56  23  54  1   
 57  24  25  1   
 58  24  55  1   
 59  24  56  1   
 60  25  57  1   
 61  25  58  1   
@<TRIPOS>SUBSTRUCTURE
  1 ****  13 GROUP 4 **** **** 0

# MOE 2024.06 (io_trps.svl 2023.06)
