@<TRIPOS>MOLECULE
NONAME
54 57 1 0 0 
SMALL
USER_CHARGES


@<TRIPOS>ATOM
  1 O       -0.3780     0.1210    -0.0390 O.2   1 <1>  -0.5700 
  2 C       -1.4410     0.6650    -0.2210 C.2   1 <1>   0.5690 
  3 N       -2.5810    -0.0570    -0.4410 N.am  1 <1>  -0.6600 
  4 C       -1.5210     2.1880    -0.2020 C.3   1 <1>  -0.0990 
  5 C       -3.9500     0.4850    -0.6190 C.3   1 <1>   0.1400 
  6 C       -2.5990    -1.5390    -0.4560 C.3   1 <1>   0.1400 
  7 C       -0.1600     2.8950    -0.0440 C.3   1 <1>  -0.1600 
  8 C       -4.8550    -0.7430    -0.7430 C.3   1 <1>   0.2000 
  9 C       -4.0550    -1.9150    -0.1770 C.3   1 <1>  -0.0800 
 10 C       -0.2820     4.4260    -0.0960 C.3   1 <1>  -0.0800 
 11 O       -6.0290    -0.5810    -0.0230 O.3   1 <1>  -0.6800 
 12 C       -4.4760    -3.2660    -0.7770 C.3   1 <1>  -0.0170 
 13 C        1.0700     5.1220     0.0250 C.3   1 <1>  -0.1600 
 14 C       -1.0950     5.0310     1.0480 C.3   1 <1>  -0.1600 
 15 C       -3.6490    -4.4060    -0.2100 C.ar  1 <1>   0.1670 
 16 C        0.7340     6.5530     0.4450 C.3   1 <1>  -0.1600 
 17 C       -0.6170     6.4800     1.1650 C.3   1 <1>  -0.1600 
 18 N       -2.5500    -4.7120    -0.8270 N.ar  1 <1>  -0.6200 
 19 C       -4.1010    -5.0630     0.9470 C.ar  1 <1>  -0.1500 
 20 C       -1.7970    -5.7200    -0.3160 C.ar  1 <1>   0.3100 
 21 C       -3.3670    -6.0790     1.4790 C.ar  1 <1>  -0.1500 
 22 C       -2.1670    -6.4370     0.8420 C.ar  1 <1>   0.0000 
 23 C       -0.5980    -6.0640    -0.9600 C.ar  1 <1>  -0.1500 
 24 C       -1.3270    -7.4690     1.3070 C.ar  1 <1>  -0.1500 
 25 C        0.2050    -7.0700    -0.4920 C.ar  1 <1>  -0.1500 
 26 C       -0.1650    -7.7800     0.6540 C.ar  1 <1>  -0.1500 
 27 H       -1.9720     2.5110    -1.1220 H     1 <1>   0.0800 
 28 H       -2.1630     2.4720     0.6090 H     1 <1>   0.0800 
 29 H       -4.2170     1.0760     0.2390 H     1 <1>   0.0800 
 30 H       -4.0000     1.0810    -1.5140 H     1 <1>   0.0800 
 31 H       -2.2900    -1.8840    -1.4290 H     1 <1>   0.0800 
 32 H       -1.9330    -1.9460     0.2880 H     1 <1>   0.0800 
 33 H        0.4930     2.5700    -0.8360 H     1 <1>   0.0800 
 34 H        0.2880     2.5950     0.8880 H     1 <1>   0.0800 
 35 H       -5.1090    -0.9030    -1.7770 H     1 <1>   0.0800 
 36 H       -4.1700    -1.9480     0.8920 H     1 <1>   0.0800 
 37 H       -0.7290     4.7220    -1.0310 H     1 <1>   0.0800 
 38 H       -5.8310    -0.4750     0.9270 H     1 <1>   0.4000 
 39 H       -4.3550    -3.2460    -1.8460 H     1 <1>   0.0800 
 40 H       -5.5180    -3.4410    -0.5740 H     1 <1>   0.0800 
 41 H        1.6520     4.6550     0.8010 H     1 <1>   0.0800 
 42 H        1.6240     5.0920    -0.8970 H     1 <1>   0.0800 
 43 H       -2.1540     4.9760     0.8650 H     1 <1>   0.0800 
 44 H       -0.8690     4.5130     1.9650 H     1 <1>   0.0800 
 45 H        1.5020     6.9610     1.0810 H     1 <1>   0.0800 
 46 H        0.6410     7.1730    -0.4300 H     1 <1>   0.0800 
 47 H       -1.3180     7.1420     0.6850 H     1 <1>   0.0800 
 48 H       -0.5230     6.7650     2.1990 H     1 <1>   0.0800 
 49 H       -5.0240    -4.7530     1.4010 H     1 <1>   0.1500 
 50 H       -3.6800    -6.6050     2.3620 H     1 <1>   0.1500 
 51 H       -0.3310    -5.5060    -1.8380 H     1 <1>   0.1500 
 52 H       -1.6170    -8.0100     2.1900 H     1 <1>   0.1500 
 53 H        1.1230    -7.3240    -0.9960 H     1 <1>   0.1500 
 54 H        0.4750    -8.5680     1.0120 H     1 <1>   0.1500 
@<TRIPOS>BOND
  1   1   2  2   
  2   2   3  am  
  3   2   4  1   
  4   3   5  1   
  5   3   6  1   
  6   4   7  1   
  7   4  27  1   
  8   4  28  1   
  9   5   8  1   
 10   5  29  1   
 11   5  30  1   
 12   6   9  1   
 13   6  31  1   
 14   6  32  1   
 15   7  10  1   
 16   7  33  1   
 17   7  34  1   
 18   8   9  1   
 19   8  11  1   
 20   8  35  1   
 21   9  12  1   
 22   9  36  1   
 23  10  13  1   
 24  10  14  1   
 25  10  37  1   
 26  11  38  1   
 27  12  15  1   
 28  12  39  1   
 29  12  40  1   
 30  13  16  1   
 31  13  41  1   
 32  13  42  1   
 33  14  17  1   
 34  14  43  1   
 35  14  44  1   
 36  15  18  ar  
 37  15  19  ar  
 38  16  17  1   
 39  16  45  1   
 40  16  46  1   
 41  17  47  1   
 42  17  48  1   
 43  18  20  ar  
 44  19  21  ar  
 45  19  49  1   
 46  20  22  ar  
 47  20  23  ar  
 48  21  22  ar  
 49  21  50  1   
 50  22  24  ar  
 51  23  25  ar  
 52  23  51  1   
 53  24  26  ar  
 54  24  52  1   
 55  25  26  ar  
 56  25  53  1   
 57  26  54  1   
@<TRIPOS>SUBSTRUCTURE
  1 ****   6 GROUP 4 **** **** 0

# MOE 2024.06 (io_trps.svl 2023.06)
