@<TRIPOS>MOLECULE
NONAME
45 48 1 0 0 
SMALL
USER_CHARGES


@<TRIPOS>ATOM
  1 O       -0.6040     0.1020     0.2190 O.2   1 <1>  -0.5700 
  2 C       -1.5450     0.7580     0.6310 C.2   1 <1>   0.7150 
  3 N       -2.7280     0.1070     0.8930 N.am  1 <1>  -0.6600 
  4 C       -1.4250     2.1840     0.8130 C.2   1 <1>  -0.2370 
  5 C       -2.7970    -1.3810     1.0360 C.3   1 <1>   0.1400 
  6 C       -4.0620     0.7220     0.6230 C.3   1 <1>   0.1400 
  7 N       -0.6120     2.9990     0.0620 N.pl3 1 <1>   0.0480 
  8 C       -2.0590     2.9800     1.7360 C.2   1 <1>  -0.1500 
  9 C       -3.5790    -2.0080    -0.1310 C.3   1 <1>   0.3440 
 10 C       -4.7920    -0.0210    -0.5200 C.3   1 <1>   0.2950 
 11 C       -0.7600     4.2700     0.5080 C.2   1 <1>  -0.3020 
 12 C        0.2830     2.5980    -1.0410 C.3   1 <1>   0.0160 
 13 C       -1.6440     4.2920     1.5390 C.2   1 <1>  -0.1500 
 14 O       -4.8370    -1.3930    -0.2520 O.3   1 <1>  -0.5600 
 15 C       -3.7590    -3.5080     0.0890 C.ar  1 <1>  -0.1440 
 16 C       -6.2430     0.4330    -0.7580 C.3   1 <1>  -0.1950 
 17 C       -2.7980    -4.3880    -0.3890 C.ar  1 <1>  -0.1500 
 18 C       -4.8570    -4.0160     0.7700 C.ar  1 <1>  -0.1500 
 19 C       -6.7250     1.8340    -0.5230 C.3   1 <1>  -0.2000 
 20 C       -7.2230     0.7080     0.3410 C.3   1 <1>  -0.2000 
 21 C       -2.9310    -5.7510    -0.1900 C.ar  1 <1>  -0.1500 
 22 C       -4.9920    -5.3790     0.9710 C.ar  1 <1>  -0.1500 
 23 C       -4.0280    -6.2480     0.4910 C.ar  1 <1>  -0.1500 
 24 H       -1.8100    -1.8070     1.0720 H     1 <1>   0.0800 
 25 H       -3.2900    -1.6260     1.9590 H     1 <1>   0.0800 
 26 H       -4.6520     0.6820     1.5200 H     1 <1>   0.0800 
 27 H       -3.9490     1.7530     0.3420 H     1 <1>   0.0800 
 28 H       -2.7550     2.6620     2.4930 H     1 <1>   0.1500 
 29 H       -3.0430    -1.8490    -1.0510 H     1 <1>   0.0800 
 30 H       -4.2400     0.1210    -1.4330 H     1 <1>   0.0800 
 31 H       -0.2290     5.1000     0.0780 H     1 <1>   0.1500 
 32 H        0.6920     3.4720    -1.5140 H     1 <1>   0.0800 
 33 H       -0.2720     2.0250    -1.7610 H     1 <1>   0.0800 
 34 H        1.0810     1.9970    -0.6450 H     1 <1>   0.0800 
 35 H       -1.9700     5.1460     2.1090 H     1 <1>   0.1500 
 36 H       -6.6400    -0.0560    -1.6310 H     1 <1>   0.1000 
 37 H       -1.9380    -4.0160    -0.9190 H     1 <1>   0.1500 
 38 H       -5.6140    -3.3490     1.1450 H     1 <1>   0.1500 
 39 H       -6.0870     2.5720    -0.0690 H     1 <1>   0.1000 
 40 H       -7.4020     2.2700    -1.2380 H     1 <1>   0.1000 
 41 H       -8.2340     0.3610     0.2140 H     1 <1>   0.1000 
 42 H       -6.9030     0.6520     1.3660 H     1 <1>   0.1000 
 43 H       -2.1810    -6.4260    -0.5640 H     1 <1>   0.1500 
 44 H       -5.8480    -5.7620     1.4980 H     1 <1>   0.1500 
 45 H       -4.1330    -7.3080     0.6460 H     1 <1>   0.1500 
@<TRIPOS>BOND
  1   1   2  2   
  2   2   3  am  
  3   2   4  1   
  4   3   5  1   
  5   3   6  1   
  6   4   7  1   
  7   4   8  2   
  8   5   9  1   
  9   5  24  1   
 10   5  25  1   
 11   6  10  1   
 12   6  26  1   
 13   6  27  1   
 14   7  11  1   
 15   7  12  1   
 16   8  13  1   
 17   8  28  1   
 18   9  14  1   
 19   9  15  1   
 20   9  29  1   
 21  10  14  1   
 22  10  16  1   
 23  10  30  1   
 24  11  13  2   
 25  11  31  1   
 26  12  32  1   
 27  12  33  1   
 28  12  34  1   
 29  13  35  1   
 30  15  17  ar  
 31  15  18  ar  
 32  16  19  1   
 33  16  20  1   
 34  16  36  1   
 35  17  21  ar  
 36  17  37  1   
 37  18  22  ar  
 38  18  38  1   
 39  19  20  1   
 40  19  39  1   
 41  19  40  1   
 42  20  41  1   
 43  20  42  1   
 44  21  23  ar  
 45  21  43  1   
 46  22  23  ar  
 47  22  44  1   
 48  23  45  1   
@<TRIPOS>SUBSTRUCTURE
  1 ****   3 GROUP 4 **** **** 0

# MOE 2024.06 (io_trps.svl 2023.06)
