@<TRIPOS>MOLECULE
NONAME
50 52 1 0 0 
SMALL
USER_CHARGES


@<TRIPOS>ATOM
  1 O       -2.2290     0.5580    -1.8320 O.2   1 <1>  -0.5700 
  2 C       -2.0730     0.9170    -0.6780 C.2   1 <1>   0.7160 
  3 N       -2.5890     0.1340     0.3220 N.am  1 <1>  -0.6600 
  4 C       -1.4970     2.2110    -0.3640 C.2   1 <1>  -0.0860 
  5 C       -2.4750    -1.3550     0.3140 C.3   1 <1>   0.3640 
  6 C       -3.8970     0.5690     0.8730 C.3   1 <1>   0.1400 
  7 C       -1.7350     3.4240    -0.9690 C.2   1 <1>  -0.3320 
  8 C       -0.5650     2.4910     0.6530 C.2   1 <1>  -0.1810 
  9 C       -1.0730    -1.8420    -0.0790 C.ar  1 <1>  -0.1440 
 10 C       -3.6680    -1.9830    -0.4530 C.3   1 <1>   0.2000 
 11 C       -5.0320    -0.1190     0.0920 C.3   1 <1>   0.1200 
 12 N       -1.0120     4.3840    -0.3670 N.pl3 1 <1>   0.0330 
 13 C       -2.6530     3.7310    -2.1410 C.3   1 <1>  -0.0600 
 14 C       -0.2820     3.8360     0.6530 C.2   1 <1>  -0.2370 
 15 C        0.0290     1.4240     1.5610 C.3   1 <1>  -0.0590 
 16 C       -0.1790    -2.1830     0.9280 C.ar  1 <1>  -0.1500 
 17 C       -0.6660    -1.9710    -1.4010 C.ar  1 <1>  -0.1500 
 18 O       -4.8740    -1.5130     0.1100 O.3   1 <1>  -0.5600 
 19 C       -3.7140    -3.5190    -0.3580 C.3   1 <1>   0.1200 
 20 C        0.5780     4.6260     1.4940 C.2   1 <1>   0.5940 
 21 C        1.0890    -2.6450     0.6230 C.ar  1 <1>  -0.1500 
 22 C        0.6020    -2.4330    -1.7090 C.ar  1 <1>  -0.1500 
 23 O       -2.7270    -4.1190    -1.1330 O.3   1 <1>  -0.6800 
 24 O        1.1160     4.2190     2.4910 O.2   1 <1>  -0.5700 
 25 C        0.8330     6.0750     1.1320 C.3   1 <1>  -0.1790 
 26 C        1.4810    -2.7710    -0.6970 C.ar  1 <1>  -0.1500 
 27 H       -2.6080    -1.6690     1.3340 H     1 <1>   0.0800 
 28 H       -3.9590     0.3100     1.9150 H     1 <1>   0.0800 
 29 H       -3.9960     1.6380     0.7880 H     1 <1>   0.0800 
 30 H       -3.6510    -1.6920    -1.4890 H     1 <1>   0.0800 
 31 H       -5.0410     0.2120    -0.9330 H     1 <1>   0.0800 
 32 H       -5.9840     0.1100     0.5370 H     1 <1>   0.0800 
 33 H       -1.0080     5.3750    -0.6310 H     1 <1>   0.2700 
 34 H       -3.2150     2.8610    -2.4290 H     1 <1>   0.0800 
 35 H       -2.0720     4.0500    -2.9880 H     1 <1>   0.0800 
 36 H       -3.3470     4.5090    -1.8790 H     1 <1>   0.0800 
 37 H        0.3650     0.5930     0.9670 H     1 <1>   0.0800 
 38 H       -0.7120     1.0800     2.2580 H     1 <1>   0.0800 
 39 H        0.8720     1.7950     2.1110 H     1 <1>   0.0800 
 40 H       -0.4620    -2.0890     1.9620 H     1 <1>   0.1500 
 41 H       -1.3310    -1.7130    -2.2080 H     1 <1>   0.1500 
 42 H       -4.6620    -3.8760    -0.7230 H     1 <1>   0.0800 
 43 H       -3.5830    -3.8400     0.6600 H     1 <1>   0.0800 
 44 H        1.7730    -2.9050     1.4120 H     1 <1>   0.1500 
 45 H        0.9020    -2.5250    -2.7380 H     1 <1>   0.1500 
 46 H       -1.8380    -3.7540    -0.9210 H     1 <1>   0.4000 
 47 H        1.1820     6.1440     0.1190 H     1 <1>   0.0800 
 48 H        1.5860     6.4830     1.7810 H     1 <1>   0.0800 
 49 H       -0.0690     6.6440     1.2510 H     1 <1>   0.0800 
 50 H        2.4670    -3.1290    -0.9370 H     1 <1>   0.1500 
@<TRIPOS>BOND
  1   1   2  2   
  2   2   3  am  
  3   2   4  1   
  4   3   5  1   
  5   3   6  1   
  6   4   7  2   
  7   4   8  1   
  8   5   9  1   
  9   5  10  1   
 10   5  27  1   
 11   6  11  1   
 12   6  28  1   
 13   6  29  1   
 14   7  12  1   
 15   7  13  1   
 16   8  14  2   
 17   8  15  1   
 18   9  16  ar  
 19   9  17  ar  
 20  10  18  1   
 21  10  19  1   
 22  10  30  1   
 23  11  18  1   
 24  11  31  1   
 25  11  32  1   
 26  12  14  1   
 27  12  33  1   
 28  13  34  1   
 29  13  35  1   
 30  13  36  1   
 31  14  20  1   
 32  15  37  1   
 33  15  38  1   
 34  15  39  1   
 35  16  21  ar  
 36  16  40  1   
 37  17  22  ar  
 38  17  41  1   
 39  19  23  1   
 40  19  42  1   
 41  19  43  1   
 42  20  24  2   
 43  20  25  1   
 44  21  26  ar  
 45  21  44  1   
 46  22  26  ar  
 47  22  45  1   
 48  23  46  1   
 49  25  47  1   
 50  25  48  1   
 51  25  49  1   
 52  26  50  1   
@<TRIPOS>SUBSTRUCTURE
  1 ****   2 GROUP 4 **** **** 0

# MOE 2024.06 (io_trps.svl 2023.06)
