@<TRIPOS>MOLECULE
NONAME
39 41 1 0 0 
SMALL
USER_CHARGES


@<TRIPOS>ATOM
  1 O       -0.5700     0.1220     0.8820 O.2   1 <1>  -0.5700 
  2 C       -1.5740     0.7670     0.6410 C.2   1 <1>   0.7150 
  3 N       -2.7580     0.0910     0.4650 N.am  1 <1>  -0.6600 
  4 C       -1.4990     2.1960     0.5280 C.2   1 <1>  -0.2370 
  5 C       -3.9670     0.6440    -0.2000 C.3   1 <1>   0.1400 
  6 C       -2.8450    -1.3920     0.5250 C.3   1 <1>   0.1400 
  7 N       -0.4780     2.8510    -0.0840 N.pl3 1 <1>   0.3140 
  8 C       -2.3350     3.1770     0.9710 C.2   1 <1>  -0.1500 
  9 C       -4.9900    -0.4880    -0.1370 C.3   1 <1>   0.2000 
 10 C       -4.1330    -1.7540    -0.2230 C.3   1 <1>  -0.0800 
 11 N       -0.6470     4.1820    -0.0700 N.2   1 <1>  -0.7070 
 12 C        0.7120     2.2590    -0.7180 C.3   1 <1>   0.0160 
 13 C       -1.7600     4.3680     0.5700 C.2   1 <1>   0.1390 
 14 O       -5.6140    -0.4330     1.1000 O.3   1 <1>  -0.6800 
 15 C       -4.8060    -3.0440     0.2820 C.3   1 <1>  -0.0170 
 16 C       -3.8980    -4.2470     0.0780 C.ar  1 <1>  -0.1440 
 17 C       -3.1090    -4.7510     1.0930 C.ar  1 <1>  -0.1500 
 18 C       -3.8140    -4.8960    -1.1370 C.ar  1 <1>  -0.1500 
 19 C       -2.2960    -5.8450     0.8480 C.ar  1 <1>   0.1600 
 20 C       -2.9680    -5.9830    -1.2760 C.ar  1 <1>   0.1600 
 21 N       -2.2050    -6.4730    -0.3130 N.ar  1 <1>  -0.6200 
 22 H       -4.3370     1.5270     0.2900 H     1 <1>   0.0800 
 23 H       -3.7300     0.8730    -1.2250 H     1 <1>   0.0800 
 24 H       -1.9850    -1.8520     0.0660 H     1 <1>   0.0800 
 25 H       -2.8990    -1.6950     1.5560 H     1 <1>   0.0800 
 26 H       -3.2490     3.0790     1.5260 H     1 <1>   0.1500 
 27 H       -5.7430    -0.4240    -0.9040 H     1 <1>   0.0800 
 28 H       -3.8690    -1.8970    -1.2570 H     1 <1>   0.0800 
 29 H        0.4050     1.5020    -1.4150 H     1 <1>   0.0800 
 30 H        1.3330     1.8240     0.0410 H     1 <1>   0.0800 
 31 H        1.2580     3.0270    -1.2340 H     1 <1>   0.0800 
 32 H       -2.1720     5.3460     0.7590 H     1 <1>   0.1500 
 33 H       -4.9290    -0.3430     1.7940 H     1 <1>   0.4000 
 34 H       -5.7270    -3.1990    -0.2530 H     1 <1>   0.0800 
 35 H       -5.0530    -2.9560     1.3250 H     1 <1>   0.0800 
 36 H       -3.1180    -4.3060     2.0710 H     1 <1>   0.1500 
 37 H       -4.3990    -4.5680    -1.9770 H     1 <1>   0.1500 
 38 H       -1.6870    -6.2240     1.6510 H     1 <1>   0.1500 
 39 H       -2.9160    -6.4770    -2.2320 H     1 <1>   0.1500 
@<TRIPOS>BOND
  1   1   2  2   
  2   2   3  am  
  3   2   4  1   
  4   3   5  1   
  5   3   6  1   
  6   4   7  1   
  7   4   8  2   
  8   5   9  1   
  9   5  22  1   
 10   5  23  1   
 11   6  10  1   
 12   6  24  1   
 13   6  25  1   
 14   7  11  1   
 15   7  12  1   
 16   8  13  1   
 17   8  26  1   
 18   9  10  1   
 19   9  14  1   
 20   9  27  1   
 21  10  15  1   
 22  10  28  1   
 23  11  13  2   
 24  12  29  1   
 25  12  30  1   
 26  12  31  1   
 27  13  32  1   
 28  14  33  1   
 29  15  16  1   
 30  15  34  1   
 31  15  35  1   
 32  16  17  ar  
 33  16  18  ar  
 34  17  19  ar  
 35  17  36  1   
 36  18  20  ar  
 37  18  37  1   
 38  19  21  ar  
 39  19  38  1   
 40  20  21  ar  
 41  20  39  1   
@<TRIPOS>SUBSTRUCTURE
  1 ****   6 GROUP 4 **** **** 0

# MOE 2024.06 (io_trps.svl 2023.06)
