@<TRIPOS>MOLECULE
NONAME
54 58 1 0 0 
SMALL
USER_CHARGES


@<TRIPOS>ATOM
  1 O       -2.4740     1.0060    -2.0580 O.2   1 <1>  -0.5700 
  2 C       -2.3090     1.1750    -0.8640 C.2   1 <1>   0.6160 
  3 N       -2.5520     0.0790    -0.0630 N.am  1 <1>  -0.6600 
  4 C       -1.9770     2.4890    -0.3730 C.2   1 <1>   0.0290 
  5 C       -3.2640     0.1620     1.2460 C.3   1 <1>   0.1400 
  6 C       -2.4060    -1.3080    -0.5880 C.3   1 <1>   0.1400 
  7 C       -1.1620     2.6470     0.7960 C.2   1 <1>   0.6160 
  8 C       -2.4140     3.6270    -1.0120 C.2   1 <1>  -0.1500 
  9 C       -4.6460    -0.5250     1.1650 C.3   1 <1>   0.4230 
 10 C       -3.7860    -1.9710    -0.7080 C.3   1 <1>   0.3430 
 11 O       -0.7220     1.7280     1.4720 O.2   1 <1>  -0.5700 
 12 N       -0.8660     3.9110     1.2240 N.am  1 <1>  -0.5390 
 13 C       -2.0910     4.9130    -0.5270 C.2   1 <1>  -0.1380 
 14 N       -4.5570    -1.9320     0.5950 N.4   1 <1>  -0.9590 
 15 C       -5.6330     0.3380     0.3420 C.3   1 <1>   0.1200 
 16 C       -1.3110     5.0370     0.5860 C.2   1 <1>  -0.0290 
 17 C       -2.6210     6.1240    -1.2850 C.3   1 <1>  -0.0220 
 18 C       -5.9390    -2.5010     0.4740 C.3   1 <1>   0.5180 
 19 O       -6.8870    -0.2810     0.2770 O.3   1 <1>  -0.5600 
 20 C       -0.9020     6.3780     1.1780 C.3   1 <1>  -0.0220 
 21 C       -2.5380     7.4100    -0.4500 C.3   1 <1>  -0.1600 
 22 C       -5.8740    -3.9010    -0.1480 C.3   1 <1>  -0.1950 
 23 C       -6.8860    -1.5580    -0.3010 C.3   1 <1>   0.1200 
 24 C       -1.1610     7.5410     0.2100 C.3   1 <1>  -0.1600 
 25 C       -6.7750    -4.9880     0.3540 C.3   1 <1>  -0.2000 
 26 C       -5.2950    -5.0670     0.5960 C.3   1 <1>  -0.2000 
 27 H       -2.6620    -0.3120     2.0020 H     1 <1>   0.0800 
 28 H       -3.3940     1.1890     1.5390 H     1 <1>   0.0800 
 29 H       -1.9280    -1.2950    -1.5540 H     1 <1>   0.0800 
 30 H       -1.7770    -1.8760     0.0750 H     1 <1>   0.0800 
 31 H       -3.0110     3.5530    -1.9060 H     1 <1>   0.1500 
 32 H       -5.0400    -0.5770     2.1670 H     1 <1>   0.0800 
 33 H       -3.6540    -2.9910    -1.0280 H     1 <1>   0.0800 
 34 H       -4.3380    -1.4540    -1.4760 H     1 <1>   0.0800 
 35 H       -0.2660     3.9560     2.0480 H     1 <1>   0.3700 
 36 H       -4.0520    -2.5190     1.2670 H     1 <1>   0.4500 
 37 H       -5.2730     0.5030    -0.6600 H     1 <1>   0.0800 
 38 H       -5.7710     1.2960     0.8130 H     1 <1>   0.0800 
 39 H       -2.0400     6.2440    -2.1830 H     1 <1>   0.0800 
 40 H       -3.6440     5.9580    -1.5720 H     1 <1>   0.0800 
 41 H       -6.3470    -2.6090     1.4660 H     1 <1>   0.0800 
 42 H       -1.4640     6.5350     2.0820 H     1 <1>   0.0800 
 43 H        0.1430     6.3620     1.4330 H     1 <1>   0.0800 
 44 H       -2.7250     8.2600    -1.0820 H     1 <1>   0.0800 
 45 H       -3.2980     7.3880     0.3120 H     1 <1>   0.0800 
 46 H       -5.7550    -3.8760    -1.2180 H     1 <1>   0.1000 
 47 H       -7.8940    -1.9350    -0.2600 H     1 <1>   0.0800 
 48 H       -6.5980    -1.4710    -1.3340 H     1 <1>   0.0800 
 49 H       -1.0950     8.4740     0.7430 H     1 <1>   0.0800 
 50 H       -0.4020     7.5410    -0.5540 H     1 <1>   0.0800 
 51 H       -7.4180    -4.8160     1.2010 H     1 <1>   0.1000 
 52 H       -7.2110    -5.6770    -0.3520 H     1 <1>   0.1000 
 53 H       -4.7370    -5.8140     0.0550 H     1 <1>   0.1000 
 54 H       -4.9580    -4.9680     1.6140 H     1 <1>   0.1000 
@<TRIPOS>BOND
  1   1   2  2   
  2   2   3  am  
  3   2   4  1   
  4   3   5  1   
  5   3   6  1   
  6   4   7  1   
  7   4   8  2   
  8   5   9  1   
  9   5  27  1   
 10   5  28  1   
 11   6  10  1   
 12   6  29  1   
 13   6  30  1   
 14   7  11  2   
 15   7  12  am  
 16   8  13  1   
 17   8  31  1   
 18   9  14  1   
 19   9  15  1   
 20   9  32  1   
 21  10  14  1   
 22  10  33  1   
 23  10  34  1   
 24  12  16  1   
 25  12  35  1   
 26  13  16  2   
 27  13  17  1   
 28  14  18  1   
 29  14  36  1   
 30  15  19  1   
 31  15  37  1   
 32  15  38  1   
 33  16  20  1   
 34  17  21  1   
 35  17  39  1   
 36  17  40  1   
 37  18  22  1   
 38  18  23  1   
 39  18  41  1   
 40  19  23  1   
 41  20  24  1   
 42  20  42  1   
 43  20  43  1   
 44  21  24  1   
 45  21  44  1   
 46  21  45  1   
 47  22  25  1   
 48  22  26  1   
 49  22  46  1   
 50  23  47  1   
 51  23  48  1   
 52  24  49  1   
 53  24  50  1   
 54  25  26  1   
 55  25  51  1   
 56  25  52  1   
 57  26  53  1   
 58  26  54  1   
@<TRIPOS>SUBSTRUCTURE
  1 ****   3 GROUP 4 **** **** 0

# MOE 2024.06 (io_trps.svl 2023.06)
