@<TRIPOS>MOLECULE
NONAME
48 50 1 0 0 
SMALL
USER_CHARGES


@<TRIPOS>ATOM
  1 O        0.4380     0.2500    -0.2310 O.3   1 <1>  -0.5600 
  2 C        0.3600     1.5360     0.3170 C.3   1 <1>   0.2950 
  3 C        1.5440    -0.4850     0.2070 C.3   1 <1>   0.2000 
  4 C       -0.9350     2.1750    -0.1970 C.3   1 <1>  -0.1950 
  5 C        1.6000     2.3670    -0.0690 C.3   1 <1>   0.2090 
  6 C        2.8580     0.2290    -0.1860 C.3   1 <1>   0.2090 
  7 C        1.4110    -1.8860    -0.4060 C.3   1 <1>  -0.1600 
  8 C       -1.6450     3.2290     0.5950 C.3   1 <1>  -0.2000 
  9 C       -2.2560     1.8650     0.4340 C.3   1 <1>  -0.2000 
 10 N        2.8770     1.6560     0.2620 N.pl3 1 <1>  -0.8210 
 11 C        2.4800    -2.8700     0.0970 C.3   1 <1>  -0.1600 
 12 C        4.0590     2.3540     0.0140 C.2   1 <1>   0.5990 
 13 C        2.2440    -4.2730    -0.4720 C.3   1 <1>  -0.1600 
 14 N        5.2050     1.8250    -0.1840 N.2   1 <1>  -0.4100 
 15 N        4.0790     3.6800    -0.0290 N.2   1 <1>  -0.5650 
 16 C        3.3090    -5.2550     0.0240 C.3   1 <1>  -0.2400 
 17 O        6.0490     2.8040    -0.3680 O.3   1 <1>  -0.0190 
 18 C        5.3120     3.8830    -0.2610 C.2   1 <1>   0.2980 
 19 C        6.0060     5.2370    -0.4230 C.3   1 <1>   0.1000 
 20 C        6.8940     5.5370     0.7930 C.3   1 <1>  -0.2400 
 21 C        5.0100     6.3880    -0.6370 C.3   1 <1>  -0.2400 
 22 H        0.3130     1.4400     1.3880 H     1 <1>   0.0800 
 23 H        1.4880    -0.5620     1.2800 H     1 <1>   0.0800 
 24 H       -0.9230     2.2960    -1.2660 H     1 <1>   0.1000 
 25 H        1.5620     3.3030     0.4600 H     1 <1>   0.0800 
 26 H        1.5730     2.5800    -1.1230 H     1 <1>   0.0800 
 27 H        2.9800     0.1880    -1.2550 H     1 <1>   0.0800 
 28 H        3.6860    -0.2890     0.2640 H     1 <1>   0.0800 
 29 H        0.4390    -2.2710    -0.1490 H     1 <1>   0.0800 
 30 H        1.4680    -1.8080    -1.4770 H     1 <1>   0.0800 
 31 H       -1.2700     3.5080     1.5660 H     1 <1>   0.1000 
 32 H       -2.0910     4.0580     0.0730 H     1 <1>   0.1000 
 33 H       -3.1120     1.7460    -0.2080 H     1 <1>   0.1000 
 34 H       -2.2790     1.1960     1.2770 H     1 <1>   0.1000 
 35 H        3.4590    -2.5340    -0.2000 H     1 <1>   0.0800 
 36 H        2.4510    -2.9130     1.1720 H     1 <1>   0.0800 
 37 H        1.2710    -4.6260    -0.1740 H     1 <1>   0.0800 
 38 H        2.2700    -4.2370    -1.5480 H     1 <1>   0.0800 
 39 H        3.2860    -5.3250     1.0980 H     1 <1>   0.0800 
 40 H        4.2890    -4.9350    -0.2820 H     1 <1>   0.0800 
 41 H        3.1260    -6.2340    -0.3850 H     1 <1>   0.0800 
 42 H        6.6320     5.1750    -1.2960 H     1 <1>   0.0800 
 43 H        6.2950     5.5910     1.6850 H     1 <1>   0.0800 
 44 H        7.4080     6.4730     0.6620 H     1 <1>   0.0800 
 45 H        7.6270     4.7600     0.9190 H     1 <1>   0.0800 
 46 H        4.3690     6.4930     0.2210 H     1 <1>   0.0800 
 47 H        4.3960     6.1870    -1.4970 H     1 <1>   0.0800 
 48 H        5.5320     7.3140    -0.7960 H     1 <1>   0.0800 
@<TRIPOS>BOND
  1   1   2  1   
  2   1   3  1   
  3   2   4  1   
  4   2   5  1   
  5   2  22  1   
  6   3   6  1   
  7   3   7  1   
  8   3  23  1   
  9   4   8  1   
 10   4   9  1   
 11   4  24  1   
 12   5  10  1   
 13   5  25  1   
 14   5  26  1   
 15   6  10  1   
 16   6  27  1   
 17   6  28  1   
 18   7  11  1   
 19   7  29  1   
 20   7  30  1   
 21   8   9  1   
 22   8  31  1   
 23   8  32  1   
 24   9  33  1   
 25   9  34  1   
 26  10  12  1   
 27  11  13  1   
 28  11  35  1   
 29  11  36  1   
 30  12  14  2   
 31  12  15  1   
 32  13  16  1   
 33  13  37  1   
 34  13  38  1   
 35  14  17  1   
 36  15  18  2   
 37  16  39  1   
 38  16  40  1   
 39  16  41  1   
 40  17  18  1   
 41  18  19  1   
 42  19  20  1   
 43  19  21  1   
 44  19  42  1   
 45  20  43  1   
 46  20  44  1   
 47  20  45  1   
 48  21  46  1   
 49  21  47  1   
 50  21  48  1   
@<TRIPOS>SUBSTRUCTURE
  1 ****  10 GROUP 4 **** **** 0

# MOE 2024.06 (io_trps.svl 2023.06)
