@<TRIPOS>MOLECULE
NONAME
48 50 1 0 0 
SMALL
USER_CHARGES


@<TRIPOS>ATOM
  1 S        0.5550     0.3000    -0.6480 S.3   1 <1>  -0.2860 
  2 C       -0.5350    -0.9790    -0.0320 C.2   1 <1>   0.2420 
  3 C       -0.0210     1.7960     0.2790 C.3   1 <1>   0.2500 
  4 N       -1.4620    -0.7960     0.8400 N.2   1 <1>  -0.3380 
  5 N       -0.4490    -2.2330    -0.4540 N.pl3 1 <1>   0.0330 
  6 C        0.7940     3.0110    -0.1330 C.2   1 <1>  -0.0400 
  7 N       -2.0330    -1.9940     1.0180 N.2   1 <1>  -0.3380 
  8 C       -1.4200    -2.8270     0.2440 C.2   1 <1>   0.0360 
  9 O        0.4920     4.1680     0.4110 O.3   1 <1>  -0.2800 
 10 C        1.8280     3.1610    -0.9910 C.2   1 <1>  -0.1500 
 11 C        1.3060     5.1060    -0.0650 C.2   1 <1>   0.0550 
 12 C        2.1620     4.5140    -0.9450 C.2   1 <1>  -0.1500 
 13 C        1.1930     6.4840     0.3720 C.2   1 <1>   0.7150 
 14 O        0.9780     6.7330     1.5470 O.2   1 <1>  -0.5700 
 15 N        1.3430     7.5430    -0.5110 N.am  1 <1>  -0.6600 
 16 C        1.4930     8.9430    -0.0260 C.3   1 <1>   0.1400 
 17 C        1.2590     7.3900    -1.9910 C.3   1 <1>   0.0600 
 18 C        2.9650     9.3520    -0.0940 C.3   1 <1>  -0.1600 
 19 C        3.1790    10.7560     0.4780 C.3   1 <1>   0.0210 
 20 C        4.6460    11.1380     0.3920 C.2   1 <1>  -0.1810 
 21 C        5.2740    11.8170    -0.6520 C.2   1 <1>   0.1080 
 22 C        5.6290    10.9000     1.2880 C.2   1 <1>  -0.3320 
 23 N        6.5370    11.9950    -0.4320 N.2   1 <1>  -0.7070 
 24 C        4.6080    12.3150    -1.9140 C.3   1 <1>  -0.0590 
 25 N        6.7560    11.4290     0.7680 N.pl3 1 <1>   0.3000 
 26 C        5.5870    10.1880     2.6290 C.3   1 <1>  -0.0600 
 27 H        0.0960     1.5900     1.3270 H     1 <1>   0.0800 
 28 H       -1.0620     1.9340     0.0480 H     1 <1>   0.0800 
 29 H        0.2040    -2.6160    -1.1380 H     1 <1>   0.2700 
 30 H       -1.6510    -3.8740     0.1610 H     1 <1>   0.1500 
 31 H        2.3160     2.4160    -1.5940 H     1 <1>   0.1500 
 32 H        2.9560     4.9770    -1.5030 H     1 <1>   0.1500 
 33 H        1.1440     9.0260     0.9900 H     1 <1>   0.0800 
 34 H        0.8940     9.6020    -0.6300 H     1 <1>   0.0800 
 35 H        0.7670     6.4700    -2.2530 H     1 <1>   0.0800 
 36 H        2.2490     7.3950    -2.4130 H     1 <1>   0.0800 
 37 H        0.6930     8.2020    -2.4150 H     1 <1>   0.0800 
 38 H        3.3040     9.3310    -1.1140 H     1 <1>   0.0800 
 39 H        3.5530     8.6540     0.4760 H     1 <1>   0.0800 
 40 H        2.8660    10.7810     1.5070 H     1 <1>   0.0800 
 41 H        2.5870    11.4740    -0.0620 H     1 <1>   0.0800 
 42 H        3.9660    11.5550    -2.3190 H     1 <1>   0.0800 
 43 H        5.3560    12.5620    -2.6450 H     1 <1>   0.0800 
 44 H        4.0320    13.1940    -1.6950 H     1 <1>   0.0800 
 45 H        7.6850    11.4190     1.2020 H     1 <1>   0.2700 
 46 H        4.6010     9.8050     2.8260 H     1 <1>   0.0800 
 47 H        5.8530    10.8680     3.4180 H     1 <1>   0.0800 
 48 H        6.2750     9.3620     2.6310 H     1 <1>   0.0800 
@<TRIPOS>BOND
  1   1   2  1   
  2   1   3  1   
  3   2   4  2   
  4   2   5  1   
  5   3   6  1   
  6   3  27  1   
  7   3  28  1   
  8   4   7  1   
  9   5   8  1   
 10   5  29  1   
 11   6   9  1   
 12   6  10  2   
 13   7   8  2   
 14   8  30  1   
 15   9  11  1   
 16  10  12  1   
 17  10  31  1   
 18  11  12  2   
 19  11  13  1   
 20  12  32  1   
 21  13  14  2   
 22  13  15  am  
 23  15  16  1   
 24  15  17  1   
 25  16  18  1   
 26  16  33  1   
 27  16  34  1   
 28  17  35  1   
 29  17  36  1   
 30  17  37  1   
 31  18  19  1   
 32  18  38  1   
 33  18  39  1   
 34  19  20  1   
 35  19  40  1   
 36  19  41  1   
 37  20  21  1   
 38  20  22  2   
 39  21  23  2   
 40  21  24  1   
 41  22  25  1   
 42  22  26  1   
 43  23  25  1   
 44  24  42  1   
 45  24  43  1   
 46  24  44  1   
 47  25  45  1   
 48  26  46  1   
 49  26  47  1   
 50  26  48  1   
@<TRIPOS>SUBSTRUCTURE
  1 ****  11 GROUP 4 **** **** 0

# MOE 2024.06 (io_trps.svl 2023.06)
