@<TRIPOS>MOLECULE
NONAME
47 49 1 0 0 
SMALL
USER_CHARGES


@<TRIPOS>ATOM
  1 N       -1.2590    -0.9940    -1.3230 N.2   1 <1>   0.0000 
  2 N       -1.5520    -2.2440    -1.3680 N.2   1 <1>  -0.4180 
  3 N       -0.5370    -0.7190    -0.2420 N.2   1 <1>  -0.3380 
  4 N       -1.0150    -2.7890    -0.3010 N.pl3 1 <1>   0.3140 
  5 C       -0.3990    -1.8320     0.3670 C.2   1 <1>   0.0360 
  6 C       -1.1460    -4.2270     0.0130 C.3   1 <1>   0.0960 
  7 C       -2.6310    -4.6200     0.1470 C.3   1 <1>  -0.1600 
  8 C       -2.8020    -6.1310     0.3200 C.3   1 <1>   0.3430 
  9 N       -4.2470    -6.4800     0.4080 N.4   1 <1>  -0.9590 
 10 C       -4.4040    -7.8330     1.0700 C.3   1 <1>   0.3430 
 11 C       -4.9110    -6.4250    -0.9400 C.3   1 <1>   0.3430 
 12 C       -5.8590    -8.3090     1.2450 C.3   1 <1>   0.2090 
 13 C       -6.4070    -6.1250    -0.7960 C.3   1 <1>  -0.1600 
 14 N       -6.4900    -8.4960    -0.0850 N.pl3 1 <1>  -0.8380 
 15 C       -7.2770    -7.3770    -0.6470 C.3   1 <1>   0.2090 
 16 C       -6.8250    -9.7930    -0.4700 C.ar  1 <1>   0.1000 
 17 C       -7.9670   -10.4580    -0.0100 C.ar  1 <1>  -0.1430 
 18 C       -5.9720   -10.4500    -1.3490 C.ar  1 <1>  -0.1500 
 19 C       -8.2200   -11.7530    -0.4340 C.ar  1 <1>  -0.1500 
 20 C       -8.9590    -9.8050     0.9440 C.3   1 <1>  -0.0970 
 21 C       -6.2310   -11.7410    -1.7660 C.ar  1 <1>  -0.1500 
 22 C       -7.3590   -12.3960    -1.3060 C.ar  1 <1>  -0.1500 
 23 H        0.1370    -1.9780     1.2860 H     1 <1>   0.1500 
 24 H       -0.6140    -4.4330     0.9250 H     1 <1>   0.0800 
 25 H       -0.6850    -4.7760    -0.7880 H     1 <1>   0.0800 
 26 H       -3.1460    -4.3010    -0.7420 H     1 <1>   0.0800 
 27 H       -3.0500    -4.1090     0.9960 H     1 <1>   0.0800 
 28 H       -2.3000    -6.4370     1.2240 H     1 <1>   0.0800 
 29 H       -2.3510    -6.6550    -0.5090 H     1 <1>   0.0800 
 30 H       -4.7180    -5.7860     1.0020 H     1 <1>   0.4500 
 31 H       -3.9430    -7.8080     2.0420 H     1 <1>   0.0800 
 32 H       -3.8900    -8.5790     0.4860 H     1 <1>   0.0800 
 33 H       -4.7720    -7.3540    -1.4710 H     1 <1>   0.0800 
 34 H       -4.4700    -5.6380    -1.5290 H     1 <1>   0.0800 
 35 H       -6.4220    -7.6080     1.8360 H     1 <1>   0.0800 
 36 H       -5.8540    -9.2520     1.7660 H     1 <1>   0.0800 
 37 H       -6.7380    -5.6160    -1.6840 H     1 <1>   0.0800 
 38 H       -6.5820    -5.4540     0.0250 H     1 <1>   0.0800 
 39 H       -7.6460    -7.6760    -1.6160 H     1 <1>   0.0800 
 40 H       -8.1280    -7.1690    -0.0200 H     1 <1>   0.0800 
 41 H       -5.1010    -9.9410    -1.7100 H     1 <1>   0.1500 
 42 H       -9.0950   -12.2760    -0.0900 H     1 <1>   0.1500 
 43 H       -8.4450    -9.3340     1.7600 H     1 <1>   0.0800 
 44 H       -9.6350   -10.5340     1.3530 H     1 <1>   0.0800 
 45 H       -9.5360    -9.0670     0.4180 H     1 <1>   0.0800 
 46 H       -5.5620   -12.2370    -2.4470 H     1 <1>   0.1500 
 47 H       -7.5680   -13.4010    -1.6270 H     1 <1>   0.1500 
@<TRIPOS>BOND
  1   1   2  2   
  2   1   3  1   
  3   2   4  1   
  4   3   5  2   
  5   4   5  1   
  6   4   6  1   
  7   5  23  1   
  8   6   7  1   
  9   6  24  1   
 10   6  25  1   
 11   7   8  1   
 12   7  26  1   
 13   7  27  1   
 14   8   9  1   
 15   8  28  1   
 16   8  29  1   
 17   9  10  1   
 18   9  11  1   
 19   9  30  1   
 20  10  12  1   
 21  10  31  1   
 22  10  32  1   
 23  11  13  1   
 24  11  33  1   
 25  11  34  1   
 26  12  14  1   
 27  12  35  1   
 28  12  36  1   
 29  13  15  1   
 30  13  37  1   
 31  13  38  1   
 32  14  15  1   
 33  14  16  1   
 34  15  39  1   
 35  15  40  1   
 36  16  17  ar  
 37  16  18  ar  
 38  17  19  ar  
 39  17  20  1   
 40  18  21  ar  
 41  18  41  1   
 42  19  22  ar  
 43  19  42  1   
 44  20  43  1   
 45  20  44  1   
 46  20  45  1   
 47  21  22  ar  
 48  21  46  1   
 49  22  47  1   
@<TRIPOS>SUBSTRUCTURE
  1 ****  11 GROUP 4 **** **** 0

# MOE 2024.06 (io_trps.svl 2023.06)
