@<TRIPOS>MOLECULE
NONAME
44 46 1 0 0 
SMALL
USER_CHARGES


@<TRIPOS>ATOM
  1 O        1.3720     0.4880    -0.8600 O.2   1 <1>  -0.5700 
  2 C        1.5330     1.6370    -0.5460 C.2   1 <1>   0.4230 
  3 C        2.7530     2.2940    -0.1940 C.ar  1 <1>   0.0860 
  4 C        0.3950     2.6320    -0.4780 C.3   1 <1>  -0.0990 
  5 C        2.5330     3.6250     0.1000 C.ar  1 <1>  -0.1440 
  6 C        4.0400     1.7760    -0.1250 C.ar  1 <1>  -0.1500 
  7 C        1.0540     3.9560    -0.0380 C.3   1 <1>  -0.0160 
  8 C        3.5660     4.4890     0.4650 C.ar  1 <1>   0.0860 
  9 C        5.0860     2.6010     0.2430 C.ar  1 <1>  -0.1500 
 10 C        3.3410     5.8930     0.7530 C.2   1 <1>   0.5440 
 11 C        4.8490     3.9350     0.5360 C.ar  1 <1>  -0.1500 
 12 O        2.3930     6.2410     1.4290 O.2   1 <1>  -0.5700 
 13 N        4.2170     6.8280     0.2530 N.am  1 <1>  -0.4940 
 14 C        4.1880     8.2400     0.3580 C.2   1 <1>  -0.0880 
 15 N        5.2700     9.0100     0.6530 N.pl3 1 <1>   0.3140 
 16 C        3.1530     9.0980     0.1870 C.2   1 <1>  -0.1810 
 17 N        4.9610    10.3250     0.6670 N.2   1 <1>  -0.7070 
 18 C        6.6260     8.5430     1.0010 C.3   1 <1>   0.0960 
 19 C        3.6940    10.3620     0.3940 C.2   1 <1>   0.1390 
 20 C        1.7050     8.8060    -0.1570 C.3   1 <1>  -0.0590 
 21 C        7.4380     8.2110    -0.2590 C.3   1 <1>  -0.1600 
 22 C        8.8290     7.6760     0.1020 C.3   1 <1>  -0.1600 
 23 C        9.6300     7.3340    -1.1570 C.3   1 <1>  -0.2400 
 24 H       -0.3340     2.3020     0.2390 H     1 <1>   0.0800 
 25 H       -0.0630     2.7260    -1.4460 H     1 <1>   0.0800 
 26 H        4.2030     0.7360    -0.3560 H     1 <1>   0.1500 
 27 H        0.6530     4.2830     0.9070 H     1 <1>   0.0800 
 28 H        0.9040     4.7270    -0.7740 H     1 <1>   0.0800 
 29 H        6.0850     2.2020     0.3060 H     1 <1>   0.1500 
 30 H        5.6780     4.5540     0.8350 H     1 <1>   0.1500 
 31 H        4.9790     6.4470    -0.3060 H     1 <1>   0.3700 
 32 H        6.5340     7.6790     1.6330 H     1 <1>   0.0800 
 33 H        7.1140     9.3210     1.5590 H     1 <1>   0.0800 
 34 H        3.1320    11.2790     0.3340 H     1 <1>   0.1500 
 35 H        1.6260     7.8620    -0.6640 H     1 <1>   0.0800 
 36 H        1.3100     9.5750    -0.7950 H     1 <1>   0.0800 
 37 H        1.1230     8.7610     0.7460 H     1 <1>   0.0800 
 38 H        7.5420     9.1070    -0.8500 H     1 <1>   0.0800 
 39 H        6.9150     7.4770    -0.8460 H     1 <1>   0.0800 
 40 H        8.7360     6.7920     0.7120 H     1 <1>   0.0800 
 41 H        9.3660     8.4180     0.6710 H     1 <1>   0.0800 
 42 H        9.1280     6.5770    -1.7330 H     1 <1>   0.0800 
 43 H       10.6040     6.9670    -0.8850 H     1 <1>   0.0800 
 44 H        9.7560     8.2090    -1.7710 H     1 <1>   0.0800 
@<TRIPOS>BOND
  1   1   2  2   
  2   2   3  1   
  3   2   4  1   
  4   3   5  ar  
  5   3   6  ar  
  6   4   7  1   
  7   4  24  1   
  8   4  25  1   
  9   5   7  1   
 10   5   8  ar  
 11   6   9  ar  
 12   6  26  1   
 13   7  27  1   
 14   7  28  1   
 15   8  10  1   
 16   8  11  ar  
 17   9  11  ar  
 18   9  29  1   
 19  10  12  2   
 20  10  13  am  
 21  11  30  1   
 22  13  14  1   
 23  13  31  1   
 24  14  15  1   
 25  14  16  2   
 26  15  17  1   
 27  15  18  1   
 28  16  19  1   
 29  16  20  1   
 30  17  19  2   
 31  18  21  1   
 32  18  32  1   
 33  18  33  1   
 34  19  34  1   
 35  20  35  1   
 36  20  36  1   
 37  20  37  1   
 38  21  22  1   
 39  21  38  1   
 40  21  39  1   
 41  22  23  1   
 42  22  40  1   
 43  22  41  1   
 44  23  42  1   
 45  23  43  1   
 46  23  44  1   
@<TRIPOS>SUBSTRUCTURE
  1 ****  10 GROUP 4 **** **** 0

# MOE 2024.06 (io_trps.svl 2023.06)
