@<TRIPOS>MOLECULE
NONAME
54 57 1 0 0 
SMALL
USER_CHARGES


@<TRIPOS>ATOM
  1 S        1.2760    -0.3340    -0.4980 S.3   1 <1>  -0.0800 
  2 C        0.6070    -1.4410     0.6940 C.2   1 <1>  -0.1400 
  3 C        1.1020     1.0240     0.5990 C.2   1 <1>  -0.1100 
  4 C        0.2980    -0.7810     1.8270 C.2   1 <1>  -0.1500 
  5 C        0.4980    -2.8990     0.3060 C.3   1 <1>   0.5230 
  6 C        0.5760     0.6220     1.7700 C.2   1 <1>  -0.1500 
  7 N       -0.8470    -3.1500    -0.2770 N.4   1 <1>  -0.9590 
  8 C       -1.1260    -4.6270    -0.3280 C.3   1 <1>   0.3430 
  9 C       -1.0200    -2.5010    -1.6100 C.3   1 <1>   0.3430 
 10 C       -2.5290    -4.9580    -0.8840 C.3   1 <1>   0.2890 
 11 C       -2.4320    -2.7660    -2.1430 C.3   1 <1>  -0.1600 
 12 N       -2.6660    -6.4160    -1.0700 N.pl3 1 <1>  -0.8690 
 13 C       -2.7530    -4.2680    -2.2330 C.3   1 <1>  -0.1600 
 14 C       -2.8200    -7.2750    -0.0050 C.ar  1 <1>   0.4100 
 15 N       -2.5310    -6.8200     1.2000 N.ar  1 <1>  -0.6200 
 16 C       -3.2580    -8.5600    -0.1990 C.ar  1 <1>  -0.1500 
 17 C       -2.7130    -7.6860     2.1810 C.ar  1 <1>   0.4700 
 18 C       -3.3990    -9.3760     0.8970 C.ar  1 <1>   0.4100 
 19 N       -3.1280    -8.9330     2.1110 N.ar  1 <1>  -0.6200 
 20 N       -3.8210   -10.6810     0.7640 N.pl3 1 <1>  -0.8380 
 21 C       -4.5890   -11.3090     1.8750 C.3   1 <1>   0.2090 
 22 C       -2.9560   -11.6240     0.0100 C.3   1 <1>   0.2090 
 23 C       -5.4680   -12.4270     1.3150 C.3   1 <1>  -0.1600 
 24 C       -3.8180   -12.7410    -0.5770 C.3   1 <1>  -0.1600 
 25 C       -4.6200   -13.4260     0.5290 C.3   1 <1>   0.2000 
 26 O       -5.4600   -14.3520    -0.0500 O.3   1 <1>  -0.6800 
 27 H        1.4170     1.9920     0.2490 H     1 <1>   0.1500 
 28 H       -0.1170    -1.2100     2.7250 H     1 <1>   0.1500 
 29 H        0.6250    -3.5000     1.1920 H     1 <1>   0.0800 
 30 H        1.2760    -3.1580    -0.3950 H     1 <1>   0.0800 
 31 H        0.3710     1.2620     2.6120 H     1 <1>   0.1500 
 32 H       -1.5210    -2.7160     0.3670 H     1 <1>   0.4500 
 33 H       -1.0420    -5.0470     0.6610 H     1 <1>   0.0800 
 34 H       -0.3980    -5.1080    -0.9600 H     1 <1>   0.0800 
 35 H       -0.2940    -2.8930    -2.3050 H     1 <1>   0.0800 
 36 H       -0.8680    -1.4360    -1.5280 H     1 <1>   0.0800 
 37 H       -3.2740    -4.6260    -0.1790 H     1 <1>   0.0800 
 38 H       -2.5200    -2.3280    -3.1230 H     1 <1>   0.0800 
 39 H       -3.1500    -2.2730    -1.5100 H     1 <1>   0.0800 
 40 H       -3.1900    -6.6810    -1.9090 H     1 <1>   0.4000 
 41 H       -3.7770    -4.3980    -2.5380 H     1 <1>   0.0800 
 42 H       -2.1160    -4.7190    -2.9760 H     1 <1>   0.0800 
 43 H       -3.4930    -8.9300    -1.1750 H     1 <1>   0.1500 
 44 H       -2.4920    -7.3300     3.1740 H     1 <1>   0.1500 
 45 H       -5.2060   -10.5680     2.3550 H     1 <1>   0.0800 
 46 H       -3.9010   -11.7020     2.6050 H     1 <1>   0.0800 
 47 H       -2.2200   -12.0390     0.6800 H     1 <1>   0.0800 
 48 H       -2.4380   -11.1080    -0.7800 H     1 <1>   0.0800 
 49 H       -6.2140   -11.9850     0.6790 H     1 <1>   0.0800 
 50 H       -5.9590   -12.9290     2.1290 H     1 <1>   0.0800 
 51 H       -3.1820   -13.4610    -1.0600 H     1 <1>   0.0800 
 52 H       -4.4780   -12.3130    -1.3100 H     1 <1>   0.0800 
 53 H       -3.9580   -13.9550     1.1940 H     1 <1>   0.0800 
 54 H       -6.0860   -13.8990    -0.6460 H     1 <1>   0.4000 
@<TRIPOS>BOND
  1   1   2  1   
  2   1   3  1   
  3   2   4  2   
  4   2   5  1   
  5   3   6  2   
  6   3  27  1   
  7   4   6  1   
  8   4  28  1   
  9   5   7  1   
 10   5  29  1   
 11   5  30  1   
 12   6  31  1   
 13   7   8  1   
 14   7   9  1   
 15   7  32  1   
 16   8  10  1   
 17   8  33  1   
 18   8  34  1   
 19   9  11  1   
 20   9  35  1   
 21   9  36  1   
 22  10  12  1   
 23  10  13  1   
 24  10  37  1   
 25  11  13  1   
 26  11  38  1   
 27  11  39  1   
 28  12  14  1   
 29  12  40  1   
 30  13  41  1   
 31  13  42  1   
 32  14  15  ar  
 33  14  16  ar  
 34  15  17  ar  
 35  16  18  ar  
 36  16  43  1   
 37  17  19  ar  
 38  17  44  1   
 39  18  19  ar  
 40  18  20  1   
 41  20  21  1   
 42  20  22  1   
 43  21  23  1   
 44  21  45  1   
 45  21  46  1   
 46  22  24  1   
 47  22  47  1   
 48  22  48  1   
 49  23  25  1   
 50  23  49  1   
 51  23  50  1   
 52  24  25  1   
 53  24  51  1   
 54  24  52  1   
 55  25  26  1   
 56  25  53  1   
 57  26  54  1   
@<TRIPOS>SUBSTRUCTURE
  1 ****  14 GROUP 4 **** **** 0

# MOE 2024.06 (io_trps.svl 2023.06)
