@<TRIPOS>MOLECULE
NONAME
40 42 1 0 0 
SMALL
USER_CHARGES


@<TRIPOS>ATOM
  1 S       -0.5610    -1.0360     1.4940 S.3   1 <1>  -0.0800 
  2 C       -1.6200    -1.3660     0.1290 C.2   1 <1>  -0.1400 
  3 C       -0.6520     0.6930     1.2090 C.2   1 <1>  -0.1100 
  4 C       -1.9810    -0.2120    -0.4680 C.2   1 <1>  -0.1500 
  5 C       -1.9270    -2.8300    -0.1480 C.3   1 <1>   0.3800 
  6 C       -1.4330     0.9580     0.1470 C.2   1 <1>  -0.1500 
  7 O       -0.8560    -3.3100    -0.8730 O.3   1 <1>  -0.6800 
  8 C       -3.2340    -3.0720    -0.9360 C.3   1 <1>  -0.0800 
  9 C       -4.4650    -2.5740    -0.1500 C.3   1 <1>  -0.1600 
 10 C       -3.4360    -4.5640    -1.2760 C.3   1 <1>  -0.1600 
 11 C       -5.7690    -2.8090    -0.9160 C.3   1 <1>   0.2090 
 12 C       -4.7470    -4.8140    -2.0260 C.3   1 <1>   0.2090 
 13 N       -5.8950    -4.2440    -1.2680 N.pl3 1 <1>  -0.8380 
 14 C       -6.7150    -5.0640    -0.5150 C.ar  1 <1>   0.4100 
 15 N       -6.1540    -6.1110     0.0740 N.ar  1 <1>  -0.6200 
 16 C       -8.0690    -4.7700    -0.3980 C.ar  1 <1>  -0.1500 
 17 C       -6.9390    -6.9030     0.8120 C.ar  1 <1>   0.1670 
 18 C       -8.8890    -5.5720     0.3560 C.ar  1 <1>  -0.1500 
 19 C       -8.3010    -6.6590     0.9710 C.ar  1 <1>  -0.1500 
 20 C       -6.2940    -8.1330     1.5110 C.3   1 <1>   1.1630 
 21 F       -5.3930    -7.7920     2.4300 F     1 <1>  -0.3400 
 22 F       -7.1790    -8.8970     2.1510 F     1 <1>  -0.3400 
 23 F       -5.6700    -8.9490     0.6650 F     1 <1>  -0.3400 
 24 H       -0.1030     1.3340     1.8760 H     1 <1>   0.1500 
 25 H       -2.6160    -0.1270    -1.3320 H     1 <1>   0.1500 
 26 H       -1.9640    -3.3730     0.7820 H     1 <1>   0.0800 
 27 H       -1.6510     1.9390    -0.2380 H     1 <1>   0.1500 
 28 H       -0.0450    -2.8930    -0.5240 H     1 <1>   0.4000 
 29 H       -3.1730    -2.5190    -1.8570 H     1 <1>   0.0800 
 30 H       -4.3800    -1.5240     0.0590 H     1 <1>   0.0800 
 31 H       -4.5290    -3.0910     0.7920 H     1 <1>   0.0800 
 32 H       -3.4440    -5.1490    -0.3730 H     1 <1>   0.0800 
 33 H       -2.6240    -4.9190    -1.8850 H     1 <1>   0.0800 
 34 H       -5.7760    -2.2240    -1.8200 H     1 <1>   0.0800 
 35 H       -6.6010    -2.5010    -0.3080 H     1 <1>   0.0800 
 36 H       -4.8890    -5.8720    -2.1710 H     1 <1>   0.0800 
 37 H       -4.7060    -4.3500    -2.9960 H     1 <1>   0.0800 
 38 H       -8.4600    -3.9150    -0.9140 H     1 <1>   0.1500 
 39 H       -9.9400    -5.3660     0.4610 H     1 <1>   0.1500 
 40 H       -8.9180    -7.3050     1.5700 H     1 <1>   0.1500 
@<TRIPOS>BOND
  1   1   2  1   
  2   1   3  1   
  3   2   4  2   
  4   2   5  1   
  5   3   6  2   
  6   3  24  1   
  7   4   6  1   
  8   4  25  1   
  9   5   7  1   
 10   5   8  1   
 11   5  26  1   
 12   6  27  1   
 13   7  28  1   
 14   8   9  1   
 15   8  10  1   
 16   8  29  1   
 17   9  11  1   
 18   9  30  1   
 19   9  31  1   
 20  10  12  1   
 21  10  32  1   
 22  10  33  1   
 23  11  13  1   
 24  11  34  1   
 25  11  35  1   
 26  12  13  1   
 27  12  36  1   
 28  12  37  1   
 29  13  14  1   
 30  14  15  ar  
 31  14  16  ar  
 32  15  17  ar  
 33  16  18  ar  
 34  16  38  1   
 35  17  19  ar  
 36  17  20  1   
 37  18  19  ar  
 38  18  39  1   
 39  19  40  1   
 40  20  21  1   
 41  20  22  1   
 42  20  23  1   
@<TRIPOS>SUBSTRUCTURE
  1 ****   9 GROUP 4 **** **** 0

# MOE 2024.06 (io_trps.svl 2023.06)
