@<TRIPOS>MOLECULE
NONAME
44 45 1 0 0 
SMALL
USER_CHARGES


@<TRIPOS>ATOM
  1 S       -0.1610    -0.2150     0.3920 S.o2  1 <1>   1.3330 
  2 O       -0.9150     1.0170     0.3390 O.2   1 <1>  -0.6500 
  3 O        0.0400    -0.8730     1.6630 O.2   1 <1>  -0.6500 
  4 N       -0.8880    -1.3310    -0.6610 N.am  1 <1>  -0.8490 
  5 C        1.4240     0.0810    -0.3940 C.3   1 <1>  -0.0550 
  6 C       -2.3480    -1.2060    -0.6840 C.3   1 <1>   0.1160 
  7 C       -0.5100    -2.7220    -0.3880 C.3   1 <1>   0.1160 
  8 C        2.2870     1.1360     0.3280 C.3   1 <1>  -0.0800 
  9 C        3.5060     1.5030    -0.5000 C.3   1 <1>   0.2200 
 10 C        2.9210     0.5850     1.6130 C.3   1 <1>   0.1200 
 11 N        3.9800     2.8450    -0.0980 N.am  1 <1>  -0.7300 
 12 C        4.5140     0.4540    -0.0490 C.3   1 <1>   0.1200 
 13 O        4.2270     0.2030     1.2930 O.3   1 <1>  -0.5600 
 14 C        3.9920     3.9550    -0.8900 C.2   1 <1>   0.7150 
 15 O        3.5600     3.8550    -2.0230 O.2   1 <1>  -0.5700 
 16 C        4.5110     5.1930    -0.3670 C.2   1 <1>  -0.0450 
 17 S        4.5280     6.6220    -1.4060 S.3   1 <1>  -0.0800 
 18 C        5.0320     5.5370     0.8400 C.2   1 <1>  -0.1500 
 19 C        5.2420     7.6240    -0.1590 C.2   1 <1>  -0.1400 
 20 C        5.4410     6.8970     0.9560 C.2   1 <1>  -0.1500 
 21 C        5.5040     9.0750    -0.5250 C.3   1 <1>   0.0200 
 22 C        6.1270     9.8610     0.6320 C.3   1 <1>  -0.2400 
 23 H        1.9660    -0.8420    -0.4630 H     1 <1>   0.0800 
 24 H        1.2340     0.4240    -1.3930 H     1 <1>   0.0800 
 25 H       -2.7740    -1.9170    -1.3710 H     1 <1>   0.0800 
 26 H       -2.6300    -0.2180    -1.0070 H     1 <1>   0.0800 
 27 H       -2.7540    -1.3770     0.3000 H     1 <1>   0.0800 
 28 H       -0.9220    -3.3720    -1.1410 H     1 <1>   0.0800 
 29 H       -0.8760    -3.0290     0.5790 H     1 <1>   0.0800 
 30 H        0.5610    -2.8260    -0.3990 H     1 <1>   0.0800 
 31 H        1.6780     2.0030     0.5290 H     1 <1>   0.0800 
 32 H        3.3290     1.4640    -1.5630 H     1 <1>   0.0800 
 33 H        2.4040    -0.2670     2.0180 H     1 <1>   0.0800 
 34 H        2.9820     1.3510     2.3660 H     1 <1>   0.0800 
 35 H        4.3740     2.8960     0.8410 H     1 <1>   0.3700 
 36 H        5.5330     0.7860    -0.1480 H     1 <1>   0.0800 
 37 H        4.3770    -0.4650    -0.5910 H     1 <1>   0.0800 
 38 H        5.1480     4.8680     1.6740 H     1 <1>   0.1500 
 39 H        5.8670     7.2680     1.8720 H     1 <1>   0.1500 
 40 H        6.1630     9.1060    -1.3740 H     1 <1>   0.0800 
 41 H        4.5740     9.5350    -0.8090 H     1 <1>   0.0800 
 42 H        7.0690     9.4230     0.9140 H     1 <1>   0.0800 
 43 H        5.4690     9.8560     1.4820 H     1 <1>   0.0800 
 44 H        6.2970    10.8800     0.3340 H     1 <1>   0.0800 
@<TRIPOS>BOND
  1   1   2  2   
  2   1   3  2   
  3   1   4  am  
  4   1   5  1   
  5   4   6  1   
  6   4   7  1   
  7   5   8  1   
  8   5  23  1   
  9   5  24  1   
 10   6  25  1   
 11   6  26  1   
 12   6  27  1   
 13   7  28  1   
 14   7  29  1   
 15   7  30  1   
 16   8   9  1   
 17   8  10  1   
 18   8  31  1   
 19   9  11  1   
 20   9  12  1   
 21   9  32  1   
 22  10  13  1   
 23  10  33  1   
 24  10  34  1   
 25  11  14  am  
 26  11  35  1   
 27  12  13  1   
 28  12  36  1   
 29  12  37  1   
 30  14  15  2   
 31  14  16  1   
 32  16  17  1   
 33  16  18  2   
 34  17  19  1   
 35  18  20  1   
 36  18  38  1   
 37  19  20  2   
 38  19  21  1   
 39  20  39  1   
 40  21  22  1   
 41  21  40  1   
 42  21  41  1   
 43  22  42  1   
 44  22  43  1   
 45  22  44  1   
@<TRIPOS>SUBSTRUCTURE
  1 ****  11 GROUP 4 **** **** 0

# MOE 2024.06 (io_trps.svl 2023.06)
