@<TRIPOS>MOLECULE
NONAME
51 53 1 0 0 
SMALL
USER_CHARGES


@<TRIPOS>ATOM
  1 CL       0.2020     0.7040    -0.1000 Cl    1 <1>  -0.1770 
  2 C       -1.4870     1.1560    -0.1320 C.ar  1 <1>   0.1770 
  3 C       -1.8760     2.3730    -0.6690 C.ar  1 <1>  -0.1440 
  4 C       -2.4100     0.2710     0.3860 C.ar  1 <1>  -0.1500 
  5 C       -3.2240     2.6840    -0.6760 C.ar  1 <1>  -0.1500 
  6 C       -0.8520     3.3440    -1.2380 C.3   1 <1>  -0.0960 
  7 C       -3.7660     0.5750     0.3900 C.ar  1 <1>  -0.0090 
  8 C       -4.1650     1.7950    -0.1550 C.ar  1 <1>   0.0830 
  9 S       -4.9490    -0.6210     1.0680 S.o2  1 <1>   1.4470 
 10 O       -5.4910     2.0760    -0.1640 O.3   1 <1>  -0.3630 
 11 O       -4.2700    -1.4900     2.0000 O.2   1 <1>  -0.6500 
 12 O       -6.2110    -0.0540     1.5010 O.2   1 <1>  -0.6500 
 13 N       -5.3520    -1.6330    -0.2440 N.am  1 <1>  -0.8490 
 14 C       -5.9910     3.3710    -0.4080 C.3   1 <1>   0.1200 
 15 C       -6.2540    -1.0040    -1.2200 C.3   1 <1>   0.1960 
 16 C       -6.0850    -2.8290     0.1910 C.3   1 <1>   0.1960 
 17 C       -7.4980     3.3390    -0.1750 C.3   1 <1>  -0.2400 
 18 C       -7.6950    -1.3250    -0.7890 C.3   1 <1>   0.2000 
 19 C       -7.5580    -2.4050     0.3010 C.3   1 <1>   0.4230 
 20 O       -8.3260    -0.2090    -0.2490 O.3   1 <1>  -0.6800 
 21 N       -8.5790    -3.5160     0.2410 N.4   1 <1>  -0.9590 
 22 C       -8.5960    -4.3450    -0.9910 C.3   1 <1>   0.3430 
 23 C       -9.9620    -2.9880     0.4020 C.3   1 <1>   0.3430 
 24 C       -9.9630    -5.0130    -0.9660 C.3   1 <1>  -0.1600 
 25 C      -10.8620    -4.0930    -0.1350 C.3   1 <1>  -0.1600 
 26 H       -2.0620    -0.6640     0.7930 H     1 <1>   0.1500 
 27 H       -3.5300     3.6230    -1.0970 H     1 <1>   0.1500 
 28 H       -1.3240     4.2370    -1.6070 H     1 <1>   0.0800 
 29 H       -0.3170     2.8820    -2.0490 H     1 <1>   0.0800 
 30 H       -0.1460     3.6240    -0.4750 H     1 <1>   0.0800 
 31 H       -5.5150     4.0570     0.2730 H     1 <1>   0.0800 
 32 H       -5.7710     3.6410    -1.4270 H     1 <1>   0.0800 
 33 H       -6.0860     0.0530    -1.3260 H     1 <1>   0.0800 
 34 H       -6.0730    -1.4600    -2.1780 H     1 <1>   0.0800 
 35 H       -5.9690    -3.5860    -0.5650 H     1 <1>   0.0800 
 36 H       -5.7110    -3.2140     1.1250 H     1 <1>   0.0800 
 37 H       -7.7090     3.0430     0.8380 H     1 <1>   0.0800 
 38 H       -7.9670     2.6520    -0.8560 H     1 <1>   0.0800 
 39 H       -7.9120     4.3170    -0.3380 H     1 <1>   0.0800 
 40 H       -8.2710    -1.6500    -1.6370 H     1 <1>   0.0800 
 41 H       -7.6610    -1.9080     1.2520 H     1 <1>   0.0800 
 42 H       -7.7370     0.2170     0.4290 H     1 <1>   0.4000 
 43 H       -8.4200    -4.1480     1.0370 H     1 <1>   0.4500 
 44 H       -8.5230    -3.7170    -1.8640 H     1 <1>   0.0800 
 45 H       -7.7990    -5.0710    -1.0010 H     1 <1>   0.0800 
 46 H      -10.1830    -2.7570     1.4320 H     1 <1>   0.0800 
 47 H      -10.0920    -2.0970    -0.1930 H     1 <1>   0.0800 
 48 H      -10.3400    -5.1480    -1.9660 H     1 <1>   0.0800 
 49 H       -9.8840    -5.9800    -0.4990 H     1 <1>   0.0800 
 50 H      -11.3100    -4.6350     0.6800 H     1 <1>   0.0800 
 51 H      -11.6500    -3.6650    -0.7310 H     1 <1>   0.0800 
@<TRIPOS>BOND
  1   1   2  1   
  2   2   3  ar  
  3   2   4  ar  
  4   3   5  ar  
  5   3   6  1   
  6   4   7  ar  
  7   4  26  1   
  8   5   8  ar  
  9   5  27  1   
 10   6  28  1   
 11   6  29  1   
 12   6  30  1   
 13   7   8  ar  
 14   7   9  1   
 15   8  10  1   
 16   9  11  2   
 17   9  12  2   
 18   9  13  am  
 19  10  14  1   
 20  13  15  1   
 21  13  16  1   
 22  14  17  1   
 23  14  31  1   
 24  14  32  1   
 25  15  18  1   
 26  15  33  1   
 27  15  34  1   
 28  16  19  1   
 29  16  35  1   
 30  16  36  1   
 31  17  37  1   
 32  17  38  1   
 33  17  39  1   
 34  18  19  1   
 35  18  20  1   
 36  18  40  1   
 37  19  21  1   
 38  19  41  1   
 39  20  42  1   
 40  21  22  1   
 41  21  23  1   
 42  21  43  1   
 43  22  24  1   
 44  22  44  1   
 45  22  45  1   
 46  23  25  1   
 47  23  46  1   
 48  23  47  1   
 49  24  25  1   
 50  24  48  1   
 51  24  49  1   
 52  25  50  1   
 53  25  51  1   
@<TRIPOS>SUBSTRUCTURE
  1 ****  13 GROUP 4 **** **** 0

# MOE 2024.06 (io_trps.svl 2023.06)
