@<TRIPOS>MOLECULE
NONAME
42 43 1 0 0 
SMALL
USER_CHARGES


@<TRIPOS>ATOM
  1 O        0.1920    -0.2590    -1.4210 O.2   1 <1>  -0.5700 
  2 C        1.1250    -0.8200    -0.9010 C.2   1 <1>   0.5690 
  3 N        2.2310    -0.1740    -0.4370 N.am  1 <1>  -0.4930 
  4 C        1.0600    -2.3250    -0.7450 C.3   1 <1>  -0.0990 
  5 C        2.5170     1.2140    -0.4530 C.2   1 <1>   0.0630 
  6 C        0.1040    -2.7230     0.3850 C.3   1 <1>  -0.0160 
  7 C        1.7470     2.2740    -0.9340 C.2   1 <1>   0.1390 
  8 C        3.6380     1.7990     0.0160 C.2   1 <1>  -0.3020 
  9 C        0.1250    -4.2290     0.5860 C.ar  1 <1>  -0.1430 
 10 N        2.3360     3.4230    -0.7790 N.2   1 <1>  -0.7070 
 11 N        3.5130     3.1300    -0.1880 N.pl3 1 <1>   0.3140 
 12 C       -0.6290    -5.0500    -0.2350 C.ar  1 <1>  -0.1500 
 13 C        0.8980    -4.7960     1.5870 C.ar  1 <1>  -0.1500 
 14 C        4.5240     4.1660     0.1760 C.3   1 <1>   0.1760 
 15 C       -0.6170    -6.4260    -0.0710 C.ar  1 <1>   0.0830 
 16 C        0.9180    -6.1700     1.7610 C.ar  1 <1>  -0.1500 
 17 C        3.9420     5.1570     1.1950 C.3   1 <1>  -0.2400 
 18 C        5.0220     4.9010    -1.0760 C.3   1 <1>  -0.2400 
 19 O       -1.3850    -7.1510    -0.9230 O.3   1 <1>  -0.3630 
 20 C        0.1640    -6.9870     0.9360 C.ar  1 <1>  -0.1500 
 21 C       -1.4600    -8.5550    -0.8270 C.3   1 <1>   0.0400 
 22 H        2.9590    -0.7510    -0.0240 H     1 <1>   0.3700 
 23 H        2.0400    -2.7180    -0.5470 H     1 <1>   0.0800 
 24 H        0.7150    -2.7490    -1.6700 H     1 <1>   0.0800 
 25 H       -0.8960    -2.4040     0.1410 H     1 <1>   0.0800 
 26 H        0.3880    -2.2280     1.2980 H     1 <1>   0.0800 
 27 H        0.7750     2.1610    -1.3840 H     1 <1>   0.1500 
 28 H        4.5020     1.3570     0.4740 H     1 <1>   0.1500 
 29 H       -1.2380    -4.6320    -1.0170 H     1 <1>   0.1500 
 30 H        1.4890    -4.1750     2.2370 H     1 <1>   0.1500 
 31 H        5.3570     3.6610     0.6300 H     1 <1>   0.0800 
 32 H        1.5200    -6.6030     2.5400 H     1 <1>   0.1500 
 33 H        3.1070     5.6840     0.7660 H     1 <1>   0.0800 
 34 H        4.6880     5.8740     1.4850 H     1 <1>   0.0800 
 35 H        3.6100     4.6330     2.0730 H     1 <1>   0.0800 
 36 H        4.2090     5.4230    -1.5500 H     1 <1>   0.0800 
 37 H        5.4410     4.1990    -1.7750 H     1 <1>   0.0800 
 38 H        5.7810     5.6150    -0.8120 H     1 <1>   0.0800 
 39 H        0.1970    -8.0480     1.0920 H     1 <1>   0.1500 
 40 H       -2.1280    -8.9070    -1.5920 H     1 <1>   0.0800 
 41 H       -1.8430    -8.8190     0.1430 H     1 <1>   0.0800 
 42 H       -0.4790    -8.9690    -0.9800 H     1 <1>   0.0800 
@<TRIPOS>BOND
  1   1   2  2   
  2   2   3  am  
  3   2   4  1   
  4   3   5  1   
  5   3  22  1   
  6   4   6  1   
  7   4  23  1   
  8   4  24  1   
  9   5   7  1   
 10   5   8  2   
 11   6   9  1   
 12   6  25  1   
 13   6  26  1   
 14   7  10  2   
 15   7  27  1   
 16   8  11  1   
 17   8  28  1   
 18   9  12  ar  
 19   9  13  ar  
 20  10  11  1   
 21  11  14  1   
 22  12  15  ar  
 23  12  29  1   
 24  13  16  ar  
 25  13  30  1   
 26  14  17  1   
 27  14  18  1   
 28  14  31  1   
 29  15  19  1   
 30  15  20  ar  
 31  16  20  ar  
 32  16  32  1   
 33  17  33  1   
 34  17  34  1   
 35  17  35  1   
 36  18  36  1   
 37  18  37  1   
 38  18  38  1   
 39  19  21  1   
 40  20  39  1   
 41  21  40  1   
 42  21  41  1   
 43  21  42  1   
@<TRIPOS>SUBSTRUCTURE
  1 ****   2 GROUP 4 **** **** 0

# MOE 2024.06 (io_trps.svl 2023.06)
