@<TRIPOS>MOLECULE
NONAME
60 63 1 0 0 
SMALL
USER_CHARGES


@<TRIPOS>ATOM
  1 F        1.4820     0.5960     2.2760 F     1 <1>  -0.1900 
  2 C        2.3510     1.1780     1.4750 C.ar  1 <1>   0.1900 
  3 C        2.9730     0.4830     0.4400 C.ar  1 <1>   0.4100 
  4 C        2.6570     2.4960     1.6740 C.ar  1 <1>   0.1600 
  5 N        3.8520     1.1050    -0.3240 N.ar  1 <1>  -0.6200 
  6 N        2.7260    -0.8530     0.1500 N.pl3 1 <1>  -0.8380 
  7 N        3.5280     3.1270     0.9080 N.ar  1 <1>  -0.6200 
  8 C        4.0760     2.3760    -0.0450 C.ar  1 <1>   0.7200 
  9 C        1.3410    -1.3010    -0.1800 C.3   1 <1>   0.2090 
 10 C        3.7630    -1.6740    -0.5460 C.3   1 <1>   0.2090 
 11 N        4.9840     2.9580    -0.8640 N.pl3 1 <1>  -0.8690 
 12 C        1.2030    -2.8230     0.0050 C.3   1 <1>   0.1200 
 13 C        3.4940    -3.1770    -0.3500 C.3   1 <1>   0.1200 
 14 C        5.0080     4.4050    -1.1490 C.3   1 <1>   0.2090 
 15 O        2.1840    -3.5100    -0.7240 O.3   1 <1>  -0.5600 
 16 C        5.9930     5.0960    -0.1930 C.3   1 <1>  -0.0800 
 17 C        5.8160     6.6230    -0.2690 C.3   1 <1>   0.3430 
 18 C        7.4540     4.6720    -0.4450 C.3   1 <1>  -0.1600 
 19 N        7.0860     7.3740     0.0310 N.4   1 <1>  -0.9590 
 20 C        8.4030     5.3590     0.5560 C.3   1 <1>  -0.1600 
 21 C        7.8770     6.6950     1.0950 C.3   1 <1>   0.3430 
 22 C        6.8400     8.8050     0.3880 C.3   1 <1>   0.3430 
 23 C        6.2940     9.6090    -0.7940 C.3   1 <1>  -0.0170 
 24 C        6.2130    11.0670    -0.3890 C.ar  1 <1>  -0.1440 
 25 C        7.2940    11.9100    -0.5970 C.ar  1 <1>  -0.1500 
 26 C        5.0630    11.5690     0.2030 C.ar  1 <1>  -0.1500 
 27 C        7.2290    13.2380    -0.2120 C.ar  1 <1>  -0.1500 
 28 C        4.9980    12.8960     0.5880 C.ar  1 <1>  -0.1500 
 29 C        6.0810    13.7310     0.3820 C.ar  1 <1>  -0.1500 
 30 H        2.1810     3.0390     2.4710 H     1 <1>   0.1500 
 31 H        1.1230    -1.0510    -1.2040 H     1 <1>   0.0800 
 32 H        0.6230    -0.8010     0.4440 H     1 <1>   0.0800 
 33 H        4.7370    -1.4320    -0.1560 H     1 <1>   0.0800 
 34 H        3.7560    -1.4430    -1.5970 H     1 <1>   0.0800 
 35 H        5.2050     2.3360    -1.6440 H     1 <1>   0.4000 
 36 H        0.2420    -3.1540    -0.3460 H     1 <1>   0.0800 
 37 H        1.3010    -3.0830     1.0450 H     1 <1>   0.0800 
 38 H        3.6370    -3.4500     0.6810 H     1 <1>   0.0800 
 39 H        4.1660    -3.7550    -0.9580 H     1 <1>   0.0800 
 40 H        4.0160     4.8060    -1.0200 H     1 <1>   0.0800 
 41 H        5.3020     4.5600    -2.1740 H     1 <1>   0.0800 
 42 H        5.7230     4.7990     0.8060 H     1 <1>   0.0800 
 43 H        5.0460     6.9100     0.4300 H     1 <1>   0.0800 
 44 H        5.4790     6.8920    -1.2570 H     1 <1>   0.0800 
 45 H        7.7340     4.9370    -1.4500 H     1 <1>   0.0800 
 46 H        7.5550     3.6030    -0.3530 H     1 <1>   0.0800 
 47 H        7.6730     7.3440    -0.8130 H     1 <1>   0.4500 
 48 H        9.3640     5.5080     0.0940 H     1 <1>   0.0800 
 49 H        8.5610     4.7060     1.3970 H     1 <1>   0.0800 
 50 H        7.2450     6.5140     1.9500 H     1 <1>   0.0800 
 51 H        8.7060     7.3100     1.4090 H     1 <1>   0.0800 
 52 H        7.7660     9.2610     0.7020 H     1 <1>   0.0800 
 53 H        6.1480     8.8690     1.2130 H     1 <1>   0.0800 
 54 H        5.3130     9.2640    -1.0700 H     1 <1>   0.0800 
 55 H        6.9460     9.5140    -1.6440 H     1 <1>   0.0800 
 56 H        8.1960    11.5500    -1.0620 H     1 <1>   0.1500 
 57 H        4.2060    10.9390     0.3690 H     1 <1>   0.1500 
 58 H        8.0690    13.8910    -0.3750 H     1 <1>   0.1500 
 59 H        4.1040    13.2840     1.0460 H     1 <1>   0.1500 
 60 H        6.0300    14.7640     0.6810 H     1 <1>   0.1500 
@<TRIPOS>BOND
  1   1   2  1   
  2   2   3  ar  
  3   2   4  ar  
  4   3   5  ar  
  5   3   6  1   
  6   4   7  ar  
  7   4  30  1   
  8   5   8  ar  
  9   6   9  1   
 10   6  10  1   
 11   7   8  ar  
 12   8  11  1   
 13   9  12  1   
 14   9  31  1   
 15   9  32  1   
 16  10  13  1   
 17  10  33  1   
 18  10  34  1   
 19  11  14  1   
 20  11  35  1   
 21  12  15  1   
 22  12  36  1   
 23  12  37  1   
 24  13  15  1   
 25  13  38  1   
 26  13  39  1   
 27  14  16  1   
 28  14  40  1   
 29  14  41  1   
 30  16  17  1   
 31  16  18  1   
 32  16  42  1   
 33  17  19  1   
 34  17  43  1   
 35  17  44  1   
 36  18  20  1   
 37  18  45  1   
 38  18  46  1   
 39  19  21  1   
 40  19  22  1   
 41  19  47  1   
 42  20  21  1   
 43  20  48  1   
 44  20  49  1   
 45  21  50  1   
 46  21  51  1   
 47  22  23  1   
 48  22  52  1   
 49  22  53  1   
 50  23  24  1   
 51  23  54  1   
 52  23  55  1   
 53  24  25  ar  
 54  24  26  ar  
 55  25  27  ar  
 56  25  56  1   
 57  26  28  ar  
 58  26  57  1   
 59  27  29  ar  
 60  27  58  1   
 61  28  29  ar  
 62  28  59  1   
 63  29  60  1   
@<TRIPOS>SUBSTRUCTURE
  1 ****  14 GROUP 4 **** **** 0

# MOE 2024.06 (io_trps.svl 2023.06)
