@<TRIPOS>MOLECULE
NONAME
42 44 1 0 0 
SMALL
USER_CHARGES


@<TRIPOS>ATOM
  1 S       -1.4710     1.2900    -1.6210 S.3   1 <1>  -0.3320 
  2 C       -0.7640     2.2900    -0.2960 C.ar  1 <1>   0.1020 
  3 C       -2.1530    -0.2520    -0.8570 C.3   1 <1>   0.1500 
  4 C       -0.3090     3.5490    -0.6470 C.ar  1 <1>  -0.1500 
  5 C       -0.6660     1.8430     1.0130 C.ar  1 <1>  -0.1500 
  6 C       -2.3490    -1.2870    -1.9670 C.3   1 <1>  -0.1600 
  7 C       -3.4810     0.0820    -0.1710 C.3   1 <1>  -0.1600 
  8 C        0.2470     4.3790     0.3120 C.ar  1 <1>  -0.1440 
  9 C       -0.1090     2.6730     1.9710 C.ar  1 <1>  -0.1500 
 10 C       -2.9850    -2.5500    -1.3860 C.3   1 <1>   0.2090 
 11 C       -4.1040    -1.1940     0.3930 C.3   1 <1>   0.2090 
 12 C        0.3450     3.9340     1.6220 C.ar  1 <1>  -0.1500 
 13 C        0.7500     5.7610    -0.0640 C.3   1 <1>  -0.0960 
 14 N       -4.2480    -2.1880    -0.6990 N.pl3 1 <1>  -0.8380 
 15 C       -5.1580    -3.2040    -0.5060 C.ar  1 <1>   0.4100 
 16 N       -6.2190    -3.1380    -1.3070 N.ar  1 <1>  -0.6200 
 17 C       -4.9690    -4.2130     0.4510 C.ar  1 <1>  -0.1790 
 18 C       -7.1220    -4.0860    -1.1600 C.ar  1 <1>   0.1600 
 19 C       -3.8000    -4.2410     1.2870 C.2   1 <1>   0.9790 
 20 C       -5.9420    -5.1920     0.5770 C.ar  1 <1>  -0.1500 
 21 C       -7.0390    -5.1220    -0.2490 C.ar  1 <1>  -0.1500 
 22 O       -2.7650    -4.8270     0.9190 O.co2 1 <1>  -0.9000 
 23 O       -3.8140    -3.7090     2.4130 O.co2 1 <1>  -0.9000 
 24 H       -1.4280    -0.6190    -0.1530 H     1 <1>   0.0800 
 25 H       -0.3940     3.8690    -1.6700 H     1 <1>   0.1500 
 26 H       -1.0080     0.8700     1.3040 H     1 <1>   0.1500 
 27 H       -1.4030    -1.5340    -2.4090 H     1 <1>   0.0800 
 28 H       -2.9950    -0.8940    -2.7310 H     1 <1>   0.0800 
 29 H       -4.1630     0.5150    -0.8800 H     1 <1>   0.0800 
 30 H       -3.3280     0.7840     0.6260 H     1 <1>   0.0800 
 31 H       -0.0280     2.3360     2.9900 H     1 <1>   0.1500 
 32 H       -2.3090    -3.0090    -0.6850 H     1 <1>   0.0800 
 33 H       -3.1930    -3.2590    -2.1690 H     1 <1>   0.0800 
 34 H       -5.0710    -0.9860     0.8180 H     1 <1>   0.0800 
 35 H       -3.4710    -1.5930     1.1670 H     1 <1>   0.0800 
 36 H        0.7780     4.5690     2.3750 H     1 <1>   0.1500 
 37 H        0.2690     6.1080    -0.9610 H     1 <1>   0.0800 
 38 H        1.8120     5.7290    -0.2300 H     1 <1>   0.0800 
 39 H        0.5410     6.4620     0.7240 H     1 <1>   0.0800 
 40 H       -7.9810    -4.0340    -1.8050 H     1 <1>   0.1500 
 41 H       -5.8240    -5.9760     1.3050 H     1 <1>   0.1500 
 42 H       -7.8180    -5.8580    -0.1880 H     1 <1>   0.1500 
@<TRIPOS>BOND
  1   1   2  1   
  2   1   3  1   
  3   2   4  ar  
  4   2   5  ar  
  5   3   6  1   
  6   3   7  1   
  7   3  24  1   
  8   4   8  ar  
  9   4  25  1   
 10   5   9  ar  
 11   5  26  1   
 12   6  10  1   
 13   6  27  1   
 14   6  28  1   
 15   7  11  1   
 16   7  29  1   
 17   7  30  1   
 18   8  12  ar  
 19   8  13  1   
 20   9  12  ar  
 21   9  31  1   
 22  10  14  1   
 23  10  32  1   
 24  10  33  1   
 25  11  14  1   
 26  11  34  1   
 27  11  35  1   
 28  12  36  1   
 29  13  37  1   
 30  13  38  1   
 31  13  39  1   
 32  14  15  1   
 33  15  16  ar  
 34  15  17  ar  
 35  16  18  ar  
 36  17  19  1   
 37  17  20  ar  
 38  18  21  ar  
 39  18  40  1   
 40  19  22  ar  
 41  19  23  ar  
 42  20  21  ar  
 43  20  41  1   
 44  21  42  1   
@<TRIPOS>SUBSTRUCTURE
  1 ****   7 GROUP 4 **** **** 0

# MOE 2024.06 (io_trps.svl 2023.06)
