@<TRIPOS>MOLECULE
NONAME
55 57 1 0 0 
SMALL
USER_CHARGES


@<TRIPOS>ATOM
  1 O       -2.4460    -0.6070    -1.0640 O.2   1 <1>  -0.5700 
  2 C       -1.7710    -1.3270    -0.3580 C.2   1 <1>   0.6900 
  3 N       -1.8860    -2.7060    -0.3900 N.am  1 <1>  -0.4690 
  4 N       -0.9040    -0.7670     0.5220 N.am  1 <1>  -0.4900 
  5 C       -1.1650    -3.4890     0.5060 C.2   1 <1>  -0.0410 
  6 C       -2.7550    -3.3830    -1.4060 C.3   1 <1>   0.2010 
  7 C       -0.1660    -1.4920     1.4050 C.2   1 <1>   0.6160 
  8 C       -0.3190    -2.9170     1.3940 C.2   1 <1>  -0.1240 
  9 C       -4.0400    -3.9520    -0.7930 C.2   1 <1>   0.5690 
 10 O        0.5770    -0.8920     2.1540 O.2   1 <1>  -0.5700 
 11 C        0.4830    -3.7450     2.3900 C.3   1 <1>  -0.1020 
 12 O       -3.9450    -5.0260    -0.2440 O.2   1 <1>  -0.5700 
 13 N       -5.2580    -3.3000    -0.8240 N.am  1 <1>  -0.6600 
 14 C       -6.4820    -3.9810    -0.2830 C.3   1 <1>   0.1400 
 15 C       -5.4660    -1.9110    -1.3060 C.3   1 <1>   0.1400 
 16 C       -6.9430    -3.4400     1.0940 C.3   1 <1>   0.4230 
 17 C       -6.0060    -0.9820    -0.2050 C.3   1 <1>  -0.0800 
 18 N       -7.8500    -2.2370     1.0250 N.4   1 <1>  -0.9590 
 19 C       -5.7640    -3.0570     2.0240 C.3   1 <1>   0.1200 
 20 C       -5.1290    -0.9540     1.0770 C.3   1 <1>   0.1200 
 21 C       -7.5170    -1.2040    -0.0020 C.3   1 <1>   0.3430 
 22 C       -9.3070    -2.5200     1.1620 C.3   1 <1>   0.3430 
 23 O       -5.6770    -1.6560     2.1620 O.3   1 <1>  -0.5600 
 24 C       -9.8580    -3.3180    -0.0230 C.3   1 <1>  -0.1600 
 25 C      -11.3750    -3.4960     0.1040 C.3   1 <1>  -0.1600 
 26 C      -11.9340    -4.2970    -1.0750 C.3   1 <1>  -0.2400 
 27 H       -0.7920     0.2400     0.5260 H     1 <1>   0.3700 
 28 H       -1.3130    -4.5580     0.4580 H     1 <1>   0.1500 
 29 H       -2.9790    -2.7190    -2.2180 H     1 <1>   0.0800 
 30 H       -2.2030    -4.2040    -1.8250 H     1 <1>   0.0800 
 31 H        0.2350    -3.4490     3.3940 H     1 <1>   0.0800 
 32 H        1.5360    -3.5830     2.2370 H     1 <1>   0.0800 
 33 H        0.2750    -4.7940     2.2780 H     1 <1>   0.0800 
 34 H       -7.2780    -3.9070    -1.0010 H     1 <1>   0.0800 
 35 H       -6.2810    -5.0320    -0.1660 H     1 <1>   0.0800 
 36 H       -4.5510    -1.4980    -1.6800 H     1 <1>   0.0800 
 37 H       -6.1500    -1.9310    -2.1380 H     1 <1>   0.0800 
 38 H       -7.4800    -4.2420     1.5730 H     1 <1>   0.0800 
 39 H       -5.9180    -0.0010    -0.6350 H     1 <1>   0.0800 
 40 H       -7.5480    -1.7560     1.8950 H     1 <1>   0.4500 
 41 H       -4.8170    -3.4510     1.7010 H     1 <1>   0.0800 
 42 H       -5.9530    -3.4550     3.0050 H     1 <1>   0.0800 
 43 H       -5.0150     0.0650     1.4050 H     1 <1>   0.0800 
 44 H       -4.1450    -1.3430     0.8870 H     1 <1>   0.0800 
 45 H       -7.9580    -1.4750    -0.9470 H     1 <1>   0.0800 
 46 H       -7.9570    -0.2690     0.3030 H     1 <1>   0.0800 
 47 H       -9.4840    -3.0740     2.0710 H     1 <1>   0.0800 
 48 H       -9.8460    -1.5890     1.2390 H     1 <1>   0.0800 
 49 H       -9.6490    -2.8070    -0.9460 H     1 <1>   0.0800 
 50 H       -9.4050    -4.2930    -0.0510 H     1 <1>   0.0800 
 51 H      -11.6130    -4.0130     1.0190 H     1 <1>   0.0800 
 52 H      -11.8590    -2.5330     0.1300 H     1 <1>   0.0800 
 53 H      -11.4930    -5.2780    -1.1140 H     1 <1>   0.0800 
 54 H      -11.7400    -3.7930    -2.0060 H     1 <1>   0.0800 
 55 H      -12.9990    -4.4110    -0.9700 H     1 <1>   0.0800 
@<TRIPOS>BOND
  1   1   2  2   
  2   2   3  am  
  3   2   4  am  
  4   3   5  1   
  5   3   6  1   
  6   4   7  am  
  7   4  27  1   
  8   5   8  2   
  9   5  28  1   
 10   6   9  1   
 11   6  29  1   
 12   6  30  1   
 13   7   8  1   
 14   7  10  2   
 15   8  11  1   
 16   9  12  2   
 17   9  13  am  
 18  11  31  1   
 19  11  32  1   
 20  11  33  1   
 21  13  14  1   
 22  13  15  1   
 23  14  16  1   
 24  14  34  1   
 25  14  35  1   
 26  15  17  1   
 27  15  36  1   
 28  15  37  1   
 29  16  18  1   
 30  16  19  1   
 31  16  38  1   
 32  17  20  1   
 33  17  21  1   
 34  17  39  1   
 35  18  21  1   
 36  18  22  1   
 37  18  40  1   
 38  19  23  1   
 39  19  41  1   
 40  19  42  1   
 41  20  23  1   
 42  20  43  1   
 43  20  44  1   
 44  21  45  1   
 45  21  46  1   
 46  22  24  1   
 47  22  47  1   
 48  22  48  1   
 49  24  25  1   
 50  24  49  1   
 51  24  50  1   
 52  25  26  1   
 53  25  51  1   
 54  25  52  1   
 55  26  53  1   
 56  26  54  1   
 57  26  55  1   
@<TRIPOS>SUBSTRUCTURE
  1 ****  13 GROUP 4 **** **** 0

# MOE 2024.06 (io_trps.svl 2023.06)
