@<TRIPOS>MOLECULE
NONAME
47 49 1 0 0 
SMALL
USER_CHARGES


@<TRIPOS>ATOM
  1 F        0.6060    -0.8720     0.6410 F     1 <1>  -0.1900 
  2 C        0.3430    -2.1500     0.6550 C.ar  1 <1>   0.1900 
  3 C        0.9270    -2.9570    -0.3000 C.ar  1 <1>  -0.1500 
  4 C       -0.5110    -2.6410     1.6230 C.ar  1 <1>  -0.1500 
  5 C        0.6410    -4.3190    -0.2840 C.ar  1 <1>   0.0830 
  6 C       -0.7910    -3.9970     1.6350 C.ar  1 <1>  -0.1500 
  7 O        1.1630    -5.1840    -1.1920 O.3   1 <1>  -0.3630 
  8 C       -0.2200    -4.8370     0.6850 C.ar  1 <1>  -0.1440 
  9 C        2.3260    -4.8450    -1.9230 C.3   1 <1>   0.0400 
 10 C       -0.5290    -6.3230     0.7120 C.3   1 <1>   0.4870 
 11 N       -1.1510    -6.7090    -0.5790 N.4   1 <1>  -0.9590 
 12 C       -1.2690    -8.1980    -0.7190 C.3   1 <1>   0.5660 
 13 C       -2.4110    -5.9610    -0.8720 C.3   1 <1>   0.3430 
 14 C        0.1600    -8.7010    -0.9090 C.ar  1 <1>  -0.1430 
 15 C       -2.2130    -8.6750    -1.8720 C.3   1 <1>   0.2000 
 16 C       -3.0470    -6.4650    -2.1730 C.3   1 <1>   0.1200 
 17 C        0.7290    -9.5230     0.0540 C.ar  1 <1>  -0.1500 
 18 C        0.9140    -8.3420    -2.0220 C.ar  1 <1>  -0.1500 
 19 O       -3.3220    -7.8260    -2.0510 O.3   1 <1>  -0.5600 
 20 C       -2.8060   -10.0680    -1.5950 C.3   1 <1>   0.1200 
 21 C        2.0300    -9.9710    -0.0860 C.ar  1 <1>  -0.1500 
 22 C        2.2140    -8.7930    -2.1620 C.ar  1 <1>  -0.1500 
 23 O       -1.8630   -10.9230    -1.0400 O.3   1 <1>  -0.6800 
 24 C        2.7740    -9.6050    -1.1930 C.ar  1 <1>  -0.1500 
 25 H        1.5780    -2.5080    -1.0250 H     1 <1>   0.1500 
 26 H       -0.9390    -1.9720     2.3490 H     1 <1>   0.1500 
 27 H       -1.4520    -4.3820     2.3940 H     1 <1>   0.1500 
 28 H        2.6640    -5.7200    -2.4490 H     1 <1>   0.0800 
 29 H        3.0900    -4.5190    -1.2380 H     1 <1>   0.0800 
 30 H        2.0890    -4.0670    -2.6270 H     1 <1>   0.0800 
 31 H       -1.1910    -6.5520     1.5300 H     1 <1>   0.0800 
 32 H        0.3930    -6.8660     0.8530 H     1 <1>   0.0800 
 33 H       -0.4390    -6.4170    -1.2660 H     1 <1>   0.4500 
 34 H       -1.6600    -8.6090     0.1970 H     1 <1>   0.0800 
 35 H       -3.1170    -6.0940    -0.0690 H     1 <1>   0.0800 
 36 H       -2.2000    -4.9080    -0.9610 H     1 <1>   0.0800 
 37 H       -1.6770    -8.7020    -2.8030 H     1 <1>   0.0800 
 38 H       -2.4020    -6.3050    -3.0190 H     1 <1>   0.0800 
 39 H       -3.9810    -5.9580    -2.3490 H     1 <1>   0.0800 
 40 H        0.1660    -9.8340     0.9180 H     1 <1>   0.1500 
 41 H        0.5080    -7.7120    -2.7940 H     1 <1>   0.1500 
 42 H       -3.1850   -10.5130    -2.4990 H     1 <1>   0.0800 
 43 H       -3.6080    -9.9840    -0.8820 H     1 <1>   0.0800 
 44 H        2.4660   -10.6110     0.6630 H     1 <1>   0.1500 
 45 H        2.7960    -8.5170    -3.0250 H     1 <1>   0.1500 
 46 H       -1.3570   -11.4020    -1.7310 H     1 <1>   0.4000 
 47 H        3.7860    -9.9570    -1.3010 H     1 <1>   0.1500 
@<TRIPOS>BOND
  1   1   2  1   
  2   2   3  ar  
  3   2   4  ar  
  4   3   5  ar  
  5   3  25  1   
  6   4   6  ar  
  7   4  26  1   
  8   5   7  1   
  9   5   8  ar  
 10   6   8  ar  
 11   6  27  1   
 12   7   9  1   
 13   8  10  1   
 14   9  28  1   
 15   9  29  1   
 16   9  30  1   
 17  10  11  1   
 18  10  31  1   
 19  10  32  1   
 20  11  12  1   
 21  11  13  1   
 22  11  33  1   
 23  12  14  1   
 24  12  15  1   
 25  12  34  1   
 26  13  16  1   
 27  13  35  1   
 28  13  36  1   
 29  14  17  ar  
 30  14  18  ar  
 31  15  19  1   
 32  15  20  1   
 33  15  37  1   
 34  16  19  1   
 35  16  38  1   
 36  16  39  1   
 37  17  21  ar  
 38  17  40  1   
 39  18  22  ar  
 40  18  41  1   
 41  20  23  1   
 42  20  42  1   
 43  20  43  1   
 44  21  24  ar  
 45  21  44  1   
 46  22  24  ar  
 47  22  45  1   
 48  23  46  1   
 49  24  47  1   
@<TRIPOS>SUBSTRUCTURE
  1 ****  11 GROUP 4 **** **** 0

# MOE 2024.06 (io_trps.svl 2023.06)
