@<TRIPOS>MOLECULE
NONAME
45 47 1 0 0 
SMALL
USER_CHARGES


@<TRIPOS>ATOM
  1 CL       0.6220    -0.6490     1.7980 Cl    1 <1>  -0.1770 
  2 C        0.3460    -2.2610     1.1890 C.ar  1 <1>   0.1770 
  3 C        0.0410    -2.4380    -0.1470 C.ar  1 <1>  -0.1500 
  4 C        0.4350    -3.3360     2.0520 C.ar  1 <1>  -0.1500 
  5 C       -0.1790    -3.7180    -0.6270 C.ar  1 <1>  -0.1500 
  6 C        0.2150    -4.6140     1.5660 C.ar  1 <1>  -0.1500 
  7 C       -0.0930    -4.8100     0.2260 C.ar  1 <1>  -0.1430 
  8 C       -0.3400    -6.2110    -0.3080 C.3   1 <1>  -0.0160 
  9 C       -1.8380    -6.5320    -0.2940 C.3   1 <1>  -0.0990 
 10 C       -2.0970    -7.9280    -0.8110 C.2   1 <1>   0.5690 
 11 O       -2.1140    -8.1200    -2.0010 O.2   1 <1>  -0.5700 
 12 N       -2.2950    -8.9280     0.0800 N.am  1 <1>  -0.7300 
 13 C       -2.5370   -10.3430    -0.2800 C.3   1 <1>   0.2200 
 14 C       -3.9970   -10.6780    -0.0280 C.3   1 <1>  -0.0800 
 15 C       -1.8350   -11.2500     0.7220 C.3   1 <1>   0.1200 
 16 C       -4.0020   -11.0270     1.4660 C.3   1 <1>   0.1200 
 17 C       -4.4650   -11.8550    -0.9050 C.3   1 <1>  -0.0170 
 18 O       -2.6830   -11.3210     1.8280 O.3   1 <1>  -0.5600 
 19 C       -5.9330   -12.1760    -0.6720 C.ar  1 <1>  -0.1430 
 20 C       -6.9380   -11.3730    -1.1720 C.ar  1 <1>  -0.1500 
 21 C       -6.3390   -13.2830     0.0470 C.ar  1 <1>  -0.1500 
 22 C       -8.2620   -11.7030    -0.9310 C.ar  1 <1>   0.1600 
 23 C       -7.6900   -13.5220     0.2300 C.ar  1 <1>   0.1600 
 24 N       -8.6620   -12.7570    -0.2400 N.ar  1 <1>  -0.6200 
 25 H       -0.0230    -1.5850    -0.7990 H     1 <1>   0.1500 
 26 H        0.6750    -3.1720     3.0870 H     1 <1>   0.1500 
 27 H       -0.4170    -3.8620    -1.6670 H     1 <1>   0.1500 
 28 H        0.2840    -5.4540     2.2360 H     1 <1>   0.1500 
 29 H        0.0340    -6.2860    -1.3150 H     1 <1>   0.0800 
 30 H        0.1920    -6.9300     0.2900 H     1 <1>   0.0800 
 31 H       -2.3620    -5.8340    -0.9210 H     1 <1>   0.0800 
 32 H       -2.2230    -6.4360     0.7040 H     1 <1>   0.0800 
 33 H       -2.2940    -8.7470     1.0860 H     1 <1>   0.3700 
 34 H       -2.2240   -10.5320    -1.2940 H     1 <1>   0.0800 
 35 H       -4.6290    -9.8310    -0.2270 H     1 <1>   0.0800 
 36 H       -0.8740   -10.8710     1.0240 H     1 <1>   0.0800 
 37 H       -1.7270   -12.2440     0.3270 H     1 <1>   0.0800 
 38 H       -4.6220   -11.8750     1.7000 H     1 <1>   0.0800 
 39 H       -4.3190   -10.1830     2.0540 H     1 <1>   0.0800 
 40 H       -3.8690   -12.7290    -0.7080 H     1 <1>   0.0800 
 41 H       -4.3310   -11.6000    -1.9430 H     1 <1>   0.0800 
 42 H       -6.7050   -10.4950    -1.7460 H     1 <1>   0.1500 
 43 H       -5.6190   -13.9620     0.4670 H     1 <1>   0.1500 
 44 H       -9.0320   -11.0640    -1.3280 H     1 <1>   0.1500 
 45 H       -7.9880   -14.3900     0.7940 H     1 <1>   0.1500 
@<TRIPOS>BOND
  1   1   2  1   
  2   2   3  ar  
  3   2   4  ar  
  4   3   5  ar  
  5   3  25  1   
  6   4   6  ar  
  7   4  26  1   
  8   5   7  ar  
  9   5  27  1   
 10   6   7  ar  
 11   6  28  1   
 12   7   8  1   
 13   8   9  1   
 14   8  29  1   
 15   8  30  1   
 16   9  10  1   
 17   9  31  1   
 18   9  32  1   
 19  10  11  2   
 20  10  12  am  
 21  12  13  1   
 22  12  33  1   
 23  13  14  1   
 24  13  15  1   
 25  13  34  1   
 26  14  16  1   
 27  14  17  1   
 28  14  35  1   
 29  15  18  1   
 30  15  36  1   
 31  15  37  1   
 32  16  18  1   
 33  16  38  1   
 34  16  39  1   
 35  17  19  1   
 36  17  40  1   
 37  17  41  1   
 38  19  20  ar  
 39  19  21  ar  
 40  20  22  ar  
 41  20  42  1   
 42  21  23  ar  
 43  21  43  1   
 44  22  24  ar  
 45  22  44  1   
 46  23  24  ar  
 47  23  45  1   
@<TRIPOS>SUBSTRUCTURE
  1 ****  12 GROUP 4 **** **** 0

# MOE 2024.06 (io_trps.svl 2023.06)
