@<TRIPOS>MOLECULE
NONAME
46 47 1 0 0 
SMALL
USER_CHARGES


@<TRIPOS>ATOM
  1 O       -0.7380    -0.5600     1.7240 O.2   1 <1>  -0.5700 
  2 C       -1.2420     0.3510     1.1050 C.2   1 <1>   0.5690 
  3 N       -1.9600     0.1230    -0.0440 N.am  1 <1>  -0.6600 
  4 C       -1.0810     1.7580     1.6760 C.3   1 <1>   0.1810 
  5 C       -2.1300    -1.2610    -0.5830 C.3   1 <1>   0.3210 
  6 C       -2.6310     1.2150    -0.8310 C.3   1 <1>   0.1400 
  7 O       -0.2420     2.5460     0.8450 O.3   1 <1>  -0.3630 
  8 C       -3.5900    -1.6910    -0.5160 C.2   1 <1>   0.0460 
  9 C       -4.0860     1.4890    -0.4000 C.3   1 <1>   0.1200 
 10 C       -0.2600     3.9030     0.9120 C.ar  1 <1>   0.0830 
 11 N       -4.3770    -1.6410    -1.6130 N.2   1 <1>  -0.5650 
 12 C       -4.2880    -2.1370     0.5560 C.2   1 <1>  -0.3320 
 13 O       -4.2920     1.1440     0.9290 O.3   1 <1>  -0.6800 
 14 C        0.1840     4.6270    -0.1960 C.ar  1 <1>  -0.1430 
 15 C       -0.7160     4.5700     2.0450 C.ar  1 <1>  -0.1500 
 16 C       -5.5250    -2.0560    -1.1890 C.2   1 <1>   0.0360 
 17 N       -5.5390    -2.3730     0.1210 N.pl3 1 <1>   0.0330 
 18 C       -3.8580    -2.3620     1.9960 C.3   1 <1>  -0.0600 
 19 C        0.1390     6.0190    -0.1650 C.ar  1 <1>  -0.1440 
 20 C        0.7060     3.8960    -1.4340 C.3   1 <1>  -0.0970 
 21 C       -0.7480     5.9500     2.0700 C.ar  1 <1>  -0.1500 
 22 C       -0.3250     6.6680     0.9680 C.ar  1 <1>  -0.1500 
 23 C        0.5870     6.8670    -1.3490 C.3   1 <1>  -0.0970 
 24 H       -0.6330     1.7070     2.6500 H     1 <1>   0.0800 
 25 H       -2.0440     2.2290     1.7440 H     1 <1>   0.0800 
 26 H       -1.5360    -1.9620    -0.0230 H     1 <1>   0.0800 
 27 H       -1.7940    -1.2930    -1.6040 H     1 <1>   0.0800 
 28 H       -2.6230     0.9590    -1.8770 H     1 <1>   0.0800 
 29 H       -2.0730     2.1290    -0.7430 H     1 <1>   0.0800 
 30 H       -4.7650     0.9080    -0.9990 H     1 <1>   0.0800 
 31 H       -4.3280     2.5300    -0.5240 H     1 <1>   0.0800 
 32 H       -4.0540     0.1940     1.0190 H     1 <1>   0.4000 
 33 H       -1.0420     4.0340     2.9150 H     1 <1>   0.1500 
 34 H       -6.4010    -2.1480    -1.8080 H     1 <1>   0.1500 
 35 H       -6.3350    -2.7200     0.6640 H     1 <1>   0.2700 
 36 H       -2.8110    -2.1520     2.1180 H     1 <1>   0.0800 
 37 H       -4.0300    -3.3850     2.2800 H     1 <1>   0.0800 
 38 H       -4.4120    -1.7180     2.6560 H     1 <1>   0.0800 
 39 H       -0.0650     3.8550    -2.1810 H     1 <1>   0.0800 
 40 H        1.0130     2.8920    -1.2050 H     1 <1>   0.0800 
 41 H        1.5620     4.4000    -1.8420 H     1 <1>   0.0800 
 42 H       -1.1000     6.4660     2.9460 H     1 <1>   0.1500 
 43 H       -0.3590     7.7430     1.0020 H     1 <1>   0.1500 
 44 H        1.6540     6.8020    -1.4610 H     1 <1>   0.0800 
 45 H        0.3230     7.8990    -1.2060 H     1 <1>   0.0800 
 46 H        0.1150     6.5250    -2.2520 H     1 <1>   0.0800 
@<TRIPOS>BOND
  1   1   2  2   
  2   2   3  am  
  3   2   4  1   
  4   3   5  1   
  5   3   6  1   
  6   4   7  1   
  7   4  24  1   
  8   4  25  1   
  9   5   8  1   
 10   5  26  1   
 11   5  27  1   
 12   6   9  1   
 13   6  28  1   
 14   6  29  1   
 15   7  10  1   
 16   8  11  1   
 17   8  12  2   
 18   9  13  1   
 19   9  30  1   
 20   9  31  1   
 21  10  14  ar  
 22  10  15  ar  
 23  11  16  2   
 24  12  17  1   
 25  12  18  1   
 26  13  32  1   
 27  14  19  ar  
 28  14  20  1   
 29  15  21  ar  
 30  15  33  1   
 31  16  17  1   
 32  16  34  1   
 33  17  35  1   
 34  18  36  1   
 35  18  37  1   
 36  18  38  1   
 37  19  22  ar  
 38  19  23  1   
 39  20  39  1   
 40  20  40  1   
 41  20  41  1   
 42  21  22  ar  
 43  21  42  1   
 44  22  43  1   
 45  23  44  1   
 46  23  45  1   
 47  23  46  1   
@<TRIPOS>SUBSTRUCTURE
  1 ****   6 GROUP 4 **** **** 0

# MOE 2024.06 (io_trps.svl 2023.06)
