@<TRIPOS>MOLECULE
NONAME
36 38 1 0 0 
SMALL
USER_CHARGES


@<TRIPOS>ATOM
  1 O       -1.4000     1.9650     2.5440 O.co2 1 <1>  -0.9000 
  2 C       -1.9490     2.2140     1.4520 C.2   1 <1>   0.9790 
  3 O       -3.1060     1.7710     1.2860 O.co2 1 <1>  -0.9000 
  4 C       -1.2930     2.9650     0.3720 C.ar  1 <1>   0.1310 
  5 N       -0.2070     3.7420     0.5760 N.ar  1 <1>  -0.6200 
  6 C       -1.8550     2.8430    -0.9020 C.ar  1 <1>   0.1600 
  7 C        0.2430     4.3470    -0.5090 C.ar  1 <1>   0.4100 
  8 N       -1.4150     3.4300    -2.0090 N.ar  1 <1>  -0.6200 
  9 N        1.3310     5.1920    -0.3470 N.pl3 1 <1>  -0.8380 
 10 C       -0.3540     4.1710    -1.7650 C.ar  1 <1>   0.1600 
 11 C        1.0530     6.6570    -0.5170 C.3   1 <1>   0.5280 
 12 C        2.3600     4.8010     0.6590 C.3   1 <1>   0.1290 
 13 C        2.3290     7.5130    -0.6730 C.ar  1 <1>   0.1660 
 14 C        0.1310     7.1550     0.6170 C.3   1 <1>  -0.1950 
 15 N        2.7030     7.8070    -1.9180 N.ar  1 <1>  -0.6200 
 16 C        3.0280     7.9530     0.4470 C.ar  1 <1>  -0.1500 
 17 C       -1.3610     7.0500     0.5120 C.3   1 <1>  -0.2000 
 18 C       -0.6970     8.3970     0.4750 C.3   1 <1>  -0.2000 
 19 C        3.7950     8.5440    -2.0440 C.ar  1 <1>   0.1600 
 20 C        4.1620     8.7230     0.3010 C.ar  1 <1>  -0.1500 
 21 C        4.5490     9.0200    -0.9870 C.ar  1 <1>  -0.1500 
 22 H       -2.7250     2.2160    -1.0080 H     1 <1>   0.1500 
 23 H        0.0930     4.6840    -2.5940 H     1 <1>   0.1500 
 24 H        0.5050     6.7770    -1.4350 H     1 <1>   0.0800 
 25 H        2.4230     3.7270     0.7170 H     1 <1>   0.0800 
 26 H        2.0900     5.1750     1.6310 H     1 <1>   0.0800 
 27 H        3.3250     5.1810     0.3730 H     1 <1>   0.0800 
 28 H        0.5380     6.9430     1.5880 H     1 <1>   0.1000 
 29 H        2.6930     7.6960     1.4350 H     1 <1>   0.1500 
 30 H       -1.8960     6.7310     1.3900 H     1 <1>   0.1000 
 31 H       -1.7880     6.6430    -0.3900 H     1 <1>   0.1000 
 32 H       -0.6790     8.9360    -0.4570 H     1 <1>   0.1000 
 33 H       -0.8050     9.0470     1.3260 H     1 <1>   0.1000 
 34 H        4.1050     8.7820    -3.0470 H     1 <1>   0.1500 
 35 H        4.7200     9.0740     1.1520 H     1 <1>   0.1500 
 36 H        5.4250     9.6150    -1.1730 H     1 <1>   0.1500 
@<TRIPOS>BOND
  1   1   2  ar  
  2   2   3  ar  
  3   2   4  1   
  4   4   5  ar  
  5   4   6  ar  
  6   5   7  ar  
  7   6   8  ar  
  8   6  22  1   
  9   7   9  1   
 10   7  10  ar  
 11   8  10  ar  
 12   9  11  1   
 13   9  12  1   
 14  10  23  1   
 15  11  13  1   
 16  11  14  1   
 17  11  24  1   
 18  12  25  1   
 19  12  26  1   
 20  12  27  1   
 21  13  15  ar  
 22  13  16  ar  
 23  14  17  1   
 24  14  18  1   
 25  14  28  1   
 26  15  19  ar  
 27  16  20  ar  
 28  16  29  1   
 29  17  18  1   
 30  17  30  1   
 31  17  31  1   
 32  18  32  1   
 33  18  33  1   
 34  19  21  ar  
 35  19  34  1   
 36  20  21  ar  
 37  20  35  1   
 38  21  36  1   
@<TRIPOS>SUBSTRUCTURE
  1 ****   9 GROUP 4 **** **** 0

# MOE 2024.06 (io_trps.svl 2023.06)
