@<TRIPOS>MOLECULE
NONAME
51 54 1 0 0 
SMALL
USER_CHARGES


@<TRIPOS>ATOM
  1 O        0.0500     0.6130    -0.0320 O.2   1 <1>  -0.5700 
  2 C        1.1430     1.1140     0.0860 C.2   1 <1>   0.5690 
  3 N        1.3810     2.2430     0.8380 N.am  1 <1>  -0.6600 
  4 C        2.2850     0.4370    -0.6520 C.3   1 <1>  -0.0990 
  5 C        0.3360     3.1690     1.4160 C.3   1 <1>   0.2200 
  6 C        2.7550     2.7120     1.2050 C.3   1 <1>   0.1400 
  7 C        1.7890    -0.5670    -1.7030 C.3   1 <1>   0.0960 
  8 C        0.4680     4.6220     0.8540 C.3   1 <1>   0.1380 
  9 C       -1.1280     2.7070     1.4580 C.3   1 <1>  -0.1600 
 10 C        2.9710     4.1680     0.7690 C.3   1 <1>  -0.1600 
 11 N        2.9250    -1.2240    -2.3740 N.pl3 1 <1>   0.3140 
 12 C        0.3410     4.7770    -0.6890 C.2   1 <1>  -0.2760 
 13 C       -0.6440     5.4960     1.4940 C.3   1 <1>   0.1200 
 14 C        1.8690     5.1010     1.3090 C.3   1 <1>  -0.1600 
 15 C       -1.9950     3.7200     2.2260 C.3   1 <1>   0.1200 
 16 N        3.8170    -0.5650    -3.1010 N.2   1 <1>  -0.7070 
 17 C        3.2550    -2.5190    -2.3680 C.2   1 <1>   0.0360 
 18 C       -0.0120     3.8280    -1.5680 C.2   1 <1>  -0.2880 
 19 C        0.6480     6.1700    -1.2510 C.3   1 <1>  -0.0220 
 20 O       -1.2570     4.8560     2.5780 O.3   1 <1>  -0.5600 
 21 C        4.6150    -1.5070    -3.4820 C.2   1 <1>   0.3660 
 22 N        4.3160    -2.7410    -3.0550 N.2   1 <1>  -0.5650 
 23 C       -0.0940     4.0290    -3.0750 C.3   1 <1>   0.2580 
 24 C        0.1040     6.3320    -2.6770 C.3   1 <1>   0.1200 
 25 O        0.4950     5.2400    -3.4480 O.3   1 <1>  -0.5600 
 26 H        2.8630     1.1920    -1.1530 H     1 <1>   0.0800 
 27 H        2.9020    -0.0710     0.0660 H     1 <1>   0.0800 
 28 H        0.5930     3.2380     2.4600 H     1 <1>   0.0800 
 29 H        2.8620     2.6450     2.2740 H     1 <1>   0.0800 
 30 H        3.5210     2.0970     0.7700 H     1 <1>   0.0800 
 31 H        1.2040    -0.0580    -2.4480 H     1 <1>   0.0800 
 32 H        1.1770    -1.3200    -1.2410 H     1 <1>   0.0800 
 33 H       -1.1950     1.7530     1.9480 H     1 <1>   0.0800 
 34 H       -1.5300     2.6000     0.4700 H     1 <1>   0.0800 
 35 H        3.9290     4.5020     1.1270 H     1 <1>   0.0800 
 36 H        2.9960     4.2090    -0.3060 H     1 <1>   0.0800 
 37 H       -1.4130     5.7150     0.7740 H     1 <1>   0.0800 
 38 H       -0.2420     6.4270     1.8500 H     1 <1>   0.0800 
 39 H        2.0600     6.1090     0.9940 H     1 <1>   0.0800 
 40 H        1.9100     5.1010     2.3850 H     1 <1>   0.0800 
 41 H       -2.3590     3.2810     3.1390 H     1 <1>   0.0800 
 42 H       -2.8390     4.0310     1.6330 H     1 <1>   0.0800 
 43 H        2.6870    -3.2670    -1.8450 H     1 <1>   0.1500 
 44 H       -0.2730     2.8240    -1.3030 H     1 <1>   0.1500 
 45 H        1.7120     6.3260    -1.2770 H     1 <1>   0.0800 
 46 H        0.2130     6.9390    -0.6410 H     1 <1>   0.0800 
 47 H        5.4780    -1.3340    -4.1060 H     1 <1>   0.1500 
 48 H       -1.1190     4.0310    -3.4040 H     1 <1>   0.0800 
 49 H        0.4380     3.2460    -3.5860 H     1 <1>   0.0800 
 50 H        0.5010     7.2200    -3.1350 H     1 <1>   0.0800 
 51 H       -0.9710     6.3830    -2.6760 H     1 <1>   0.0800 
@<TRIPOS>BOND
  1   1   2  2   
  2   2   3  am  
  3   2   4  1   
  4   3   5  1   
  5   3   6  1   
  6   4   7  1   
  7   4  26  1   
  8   4  27  1   
  9   5   8  1   
 10   5   9  1   
 11   5  28  1   
 12   6  10  1   
 13   6  29  1   
 14   6  30  1   
 15   7  11  1   
 16   7  31  1   
 17   7  32  1   
 18   8  12  1   
 19   8  13  1   
 20   8  14  1   
 21   9  15  1   
 22   9  33  1   
 23   9  34  1   
 24  10  14  1   
 25  10  35  1   
 26  10  36  1   
 27  11  16  1   
 28  11  17  1   
 29  12  18  2   
 30  12  19  1   
 31  13  20  1   
 32  13  37  1   
 33  13  38  1   
 34  14  39  1   
 35  14  40  1   
 36  15  20  1   
 37  15  41  1   
 38  15  42  1   
 39  16  21  2   
 40  17  22  2   
 41  17  43  1   
 42  18  23  1   
 43  18  44  1   
 44  19  24  1   
 45  19  45  1   
 46  19  46  1   
 47  21  22  1   
 48  21  47  1   
 49  23  25  1   
 50  23  48  1   
 51  23  49  1   
 52  24  25  1   
 53  24  50  1   
 54  24  51  1   
@<TRIPOS>SUBSTRUCTURE
  1 ****   3 GROUP 4 **** **** 0

# MOE 2024.06 (io_trps.svl 2023.06)
