@<TRIPOS>MOLECULE
NONAME
50 51 1 0 0 
SMALL
USER_CHARGES


@<TRIPOS>ATOM
  1 S        0.6760     0.7540     0.6690 S.o2  1 <1>   1.3330 
  2 O        1.9250     1.4290     0.9470 O.2   1 <1>  -0.6500 
  3 O       -0.3700     0.7530     1.6660 O.2   1 <1>  -0.6500 
  4 N        1.0190    -0.8560     0.2570 N.am  1 <1>  -0.8490 
  5 C        0.0290     1.4390    -0.8550 C.3   1 <1>  -0.0550 
  6 C       -0.1570    -1.7320     0.3080 C.3   1 <1>   0.1160 
  7 C        2.0930    -1.4220     1.0780 C.3   1 <1>   0.1160 
  8 C       -0.4300     2.9000    -0.7130 C.3   1 <1>  -0.0800 
  9 C       -1.0080     3.4560    -2.0080 C.3   1 <1>   0.2000 
 10 C        0.6900     3.8800    -0.3490 C.3   1 <1>   0.1400 
 11 O       -2.3370     3.0840    -2.1290 O.3   1 <1>  -0.6800 
 12 C       -0.8370     4.9670    -1.8990 C.3   1 <1>   0.1400 
 13 N        0.3540     5.1580    -1.0250 N.am  1 <1>  -0.6600 
 14 C        1.0880     6.3280    -1.0880 C.2   1 <1>   0.5690 
 15 O        0.6950     7.2040    -1.8280 O.2   1 <1>  -0.5700 
 16 C        2.4270     6.5820    -0.3160 C.3   1 <1>   0.2040 
 17 C        2.6170     8.0990    -0.0480 C.ar  1 <1>  -0.1440 
 18 C        3.5710     5.9980    -1.1720 C.3   1 <1>  -0.2400 
 19 C        2.5190     5.9210     1.0780 C.3   1 <1>  -0.2400 
 20 C        1.6050     8.7890     0.6140 C.ar  1 <1>  -0.1500 
 21 C        3.7550     8.8150    -0.4150 C.ar  1 <1>  -0.1500 
 22 C        1.7210    10.1380     0.9020 C.ar  1 <1>  -0.1500 
 23 C        3.8740    10.1640    -0.1290 C.ar  1 <1>  -0.1500 
 24 C        2.8580    10.8290     0.5310 C.ar  1 <1>  -0.1500 
 25 H        0.7810     1.3710    -1.6180 H     1 <1>   0.0800 
 26 H       -0.8110     0.8520    -1.1740 H     1 <1>   0.0800 
 27 H        0.1000    -2.7170    -0.0440 H     1 <1>   0.0800 
 28 H       -0.9410    -1.3420    -0.3190 H     1 <1>   0.0800 
 29 H       -0.5280    -1.8070     1.3180 H     1 <1>   0.0800 
 30 H        2.2990    -2.4350     0.7770 H     1 <1>   0.0800 
 31 H        1.8160    -1.4110     2.1190 H     1 <1>   0.0800 
 32 H        2.9960    -0.8470     0.9540 H     1 <1>   0.0800 
 33 H       -1.1740     2.9650     0.0630 H     1 <1>   0.0800 
 34 H       -0.4710     3.0910    -2.8680 H     1 <1>   0.0800 
 35 H        1.6420     3.5270    -0.7060 H     1 <1>   0.0800 
 36 H        0.7210     4.0050     0.7200 H     1 <1>   0.0800 
 37 H       -2.8670     3.4590    -1.3990 H     1 <1>   0.4000 
 38 H       -1.6900     5.4240    -1.4290 H     1 <1>   0.0800 
 39 H       -0.6750     5.4030    -2.8700 H     1 <1>   0.0800 
 40 H        4.5180     6.0990    -0.6710 H     1 <1>   0.0800 
 41 H        3.6150     6.5060    -2.1190 H     1 <1>   0.0800 
 42 H        3.4030     4.9550    -1.3630 H     1 <1>   0.0800 
 43 H        3.3270     6.3600     1.6370 H     1 <1>   0.0800 
 44 H        2.7210     4.8690     1.0120 H     1 <1>   0.0800 
 45 H        1.6100     6.0770     1.6290 H     1 <1>   0.0800 
 46 H        0.7060     8.2760     0.9060 H     1 <1>   0.1500 
 47 H        4.5720     8.3470    -0.9300 H     1 <1>   0.1500 
 48 H        0.9220    10.6480     1.4110 H     1 <1>   0.1500 
 49 H        4.7600    10.6980    -0.4230 H     1 <1>   0.1500 
 50 H        2.9500    11.8770     0.7520 H     1 <1>   0.1500 
@<TRIPOS>BOND
  1   1   2  2   
  2   1   3  2   
  3   1   4  am  
  4   1   5  1   
  5   4   6  1   
  6   4   7  1   
  7   5   8  1   
  8   5  25  1   
  9   5  26  1   
 10   6  27  1   
 11   6  28  1   
 12   6  29  1   
 13   7  30  1   
 14   7  31  1   
 15   7  32  1   
 16   8   9  1   
 17   8  10  1   
 18   8  33  1   
 19   9  11  1   
 20   9  12  1   
 21   9  34  1   
 22  10  13  1   
 23  10  35  1   
 24  10  36  1   
 25  11  37  1   
 26  12  13  1   
 27  12  38  1   
 28  12  39  1   
 29  13  14  am  
 30  14  15  2   
 31  14  16  1   
 32  16  17  1   
 33  16  18  1   
 34  16  19  1   
 35  17  20  ar  
 36  17  21  ar  
 37  18  40  1   
 38  18  41  1   
 39  18  42  1   
 40  19  43  1   
 41  19  44  1   
 42  19  45  1   
 43  20  22  ar  
 44  20  46  1   
 45  21  23  ar  
 46  21  47  1   
 47  22  24  ar  
 48  22  48  1   
 49  23  24  ar  
 50  23  49  1   
 51  24  50  1   
@<TRIPOS>SUBSTRUCTURE
  1 ****  10 GROUP 4 **** **** 0

# MOE 2024.06 (io_trps.svl 2023.06)
