@<TRIPOS>MOLECULE
NONAME
41 42 1 0 0 
SMALL
USER_CHARGES


@<TRIPOS>ATOM
  1 O        3.4200    -1.2920     1.0330 O.2   1 <1>  -0.5700 
  2 C        2.5580    -1.3180     0.1860 C.2   1 <1>   0.5690 
  3 N        1.9390    -0.2040    -0.3110 N.am  1 <1>  -0.4940 
  4 C        2.1210    -2.6610    -0.3450 C.3   1 <1>   0.1570 
  5 C        1.9860     1.1340     0.1400 C.2   1 <1>  -0.0880 
  6 N        0.6500    -2.7170    -0.3540 N.pl3 1 <1>   0.3140 
  7 N        0.8760     1.8390     0.4730 N.pl3 1 <1>   0.3140 
  8 C        3.0370     1.9700     0.3240 C.2   1 <1>  -0.1810 
  9 N       -0.0600    -2.0700    -1.3040 N.2   1 <1>  -0.7070 
 10 C       -0.1680    -3.3120     0.5440 C.2   1 <1>  -0.3320 
 11 N        1.1760     3.0920     0.8650 N.2   1 <1>  -0.7070 
 12 C       -0.5080     1.3480     0.4620 C.3   1 <1>   0.0160 
 13 C        2.4670     3.1600     0.7790 C.2   1 <1>   0.1080 
 14 C        4.5130     1.6960     0.0810 C.3   1 <1>   0.0210 
 15 C       -1.3000    -2.2920    -1.0040 C.2   1 <1>   0.1080 
 16 C       -1.4320    -3.0610     0.1450 C.2   1 <1>  -0.1500 
 17 C        0.2930    -4.0970     1.7610 C.3   1 <1>  -0.0600 
 18 C        3.2100     4.4250     1.1460 C.3   1 <1>  -0.0590 
 19 C        5.0030     2.4170    -1.1770 C.3   1 <1>  -0.2400 
 20 C       -2.4450    -1.7600    -1.8340 C.3   1 <1>  -0.0590 
 21 H        1.1460    -0.4370    -0.9290 H     1 <1>   0.3700 
 22 H        2.5100    -3.4460     0.2730 H     1 <1>   0.0800 
 23 H        2.4790    -2.7880    -1.3480 H     1 <1>   0.0800 
 24 H       -0.5490     0.3930     0.9530 H     1 <1>   0.0800 
 25 H       -0.8370     1.2510    -0.5550 H     1 <1>   0.0800 
 26 H       -1.1330     2.0500     0.9820 H     1 <1>   0.0800 
 27 H        4.6720     0.6410    -0.0420 H     1 <1>   0.0800 
 28 H        5.0830     2.0100     0.9370 H     1 <1>   0.0800 
 29 H       -2.3570    -3.3720     0.5970 H     1 <1>   0.1500 
 30 H        0.8970    -3.4760     2.3990 H     1 <1>   0.0800 
 31 H        0.8660    -4.9550     1.4590 H     1 <1>   0.0800 
 32 H       -0.5580    -4.4380     2.3250 H     1 <1>   0.0800 
 33 H        4.1970     4.1960     1.4970 H     1 <1>   0.0800 
 34 H        2.6770     4.9410     1.9230 H     1 <1>   0.0800 
 35 H        3.2730     5.0640     0.2850 H     1 <1>   0.0800 
 36 H        4.4290     2.0930    -2.0280 H     1 <1>   0.0800 
 37 H        6.0390     2.1920    -1.3510 H     1 <1>   0.0800 
 38 H        4.8910     3.4800    -1.0710 H     1 <1>   0.0800 
 39 H       -2.3990    -0.6870    -1.8690 H     1 <1>   0.0800 
 40 H       -3.3860    -2.0600    -1.4130 H     1 <1>   0.0800 
 41 H       -2.3700    -2.1450    -2.8350 H     1 <1>   0.0800 
@<TRIPOS>BOND
  1   1   2  2   
  2   2   3  am  
  3   2   4  1   
  4   3   5  1   
  5   3  21  1   
  6   4   6  1   
  7   4  22  1   
  8   4  23  1   
  9   5   7  1   
 10   5   8  2   
 11   6   9  1   
 12   6  10  1   
 13   7  11  1   
 14   7  12  1   
 15   8  13  1   
 16   8  14  1   
 17   9  15  2   
 18  10  16  2   
 19  10  17  1   
 20  11  13  2   
 21  12  24  1   
 22  12  25  1   
 23  12  26  1   
 24  13  18  1   
 25  14  19  1   
 26  14  27  1   
 27  14  28  1   
 28  15  16  1   
 29  15  20  1   
 30  16  29  1   
 31  17  30  1   
 32  17  31  1   
 33  17  32  1   
 34  18  33  1   
 35  18  34  1   
 36  18  35  1   
 37  19  36  1   
 38  19  37  1   
 39  19  38  1   
 40  20  39  1   
 41  20  40  1   
 42  20  41  1   
@<TRIPOS>SUBSTRUCTURE
  1 ****   3 GROUP 4 **** **** 0

# MOE 2024.06 (io_trps.svl 2023.06)
