@<TRIPOS>MOLECULE
NONAME
59 63 1 0 0 
SMALL
USER_CHARGES


@<TRIPOS>ATOM
  1 O        0.1690     1.2460    -1.0510 O.3   1 <1>  -0.6800 
  2 C        0.6300     1.9830     0.0050 C.3   1 <1>   0.4240 
  3 C       -0.6050     2.8790    -0.2280 C.ar  1 <1>  -0.1440 
  4 C        1.8480     0.9620     0.2170 C.3   1 <1>  -0.0800 
  5 C        1.1330     2.9280     1.1840 C.3   1 <1>  -0.1600 
  6 C       -0.6770     3.8340    -1.2420 C.ar  1 <1>  -0.1500 
  7 C       -1.7130     2.7120     0.5980 C.ar  1 <1>  -0.1500 
  8 C        3.1070     1.5440    -0.4500 C.3   1 <1>   0.4230 
  9 C        1.7370    -0.5560    -0.1600 C.3   1 <1>  -0.1600 
 10 C        2.6230     3.3200     1.2070 C.3   1 <1>   0.3430 
 11 C       -1.8060     4.6170    -1.3980 C.ar  1 <1>  -0.1500 
 12 C       -2.8440     3.4940     0.4400 C.ar  1 <1>  -0.1500 
 13 N        3.3200     2.9640    -0.0670 N.4   1 <1>  -0.9590 
 14 C        4.3730     0.7670    -0.0620 C.3   1 <1>  -0.1600 
 15 C        2.9960    -1.3340     0.2460 C.3   1 <1>  -0.1600 
 16 C       -2.8890     4.4510    -0.5560 C.ar  1 <1>  -0.1500 
 17 C        2.9910     3.8730    -1.1990 C.3   1 <1>   0.4860 
 18 C        4.2460    -0.7250    -0.3980 C.3   1 <1>  -0.1600 
 19 C        3.3100     5.3010    -0.8010 C.ar  1 <1>  -0.1440 
 20 C        2.2890     6.1600    -0.4220 C.ar  1 <1>  -0.1500 
 21 C        4.6200     5.7580    -0.7980 C.ar  1 <1>  -0.1500 
 22 C        2.5790     7.4520    -0.0250 C.ar  1 <1>  -0.1500 
 23 C        4.9060     7.0520    -0.4020 C.ar  1 <1>  -0.1500 
 24 C        3.8900     7.9180    -0.0050 C.ar  1 <1>  -0.0230 
 25 N        4.1740     9.2470     0.4190 N.pl3 1 <1>   0.5930 
 26 N        3.5130     9.8550     1.4360 N.2   1 <1>  -0.7070 
 27 C        5.1110    10.0890    -0.0850 C.2   1 <1>  -0.3020 
 28 C        4.0420    11.0330     1.5430 C.2   1 <1>   0.1390 
 29 C        5.0530    11.2410     0.6140 C.2   1 <1>  -0.1500 
 30 H       -0.7490     1.5500    -1.2240 H     1 <1>   0.4000 
 31 H        2.0590     0.8560     1.2680 H     1 <1>   0.0800 
 32 H        0.6450     3.8890     1.2540 H     1 <1>   0.0800 
 33 H        0.8900     2.4650     2.1250 H     1 <1>   0.0800 
 34 H        0.1290     3.9720    -1.9350 H     1 <1>   0.1500 
 35 H       -1.7030     1.9670     1.3770 H     1 <1>   0.1500 
 36 H        2.9800     1.4710    -1.5180 H     1 <1>   0.0800 
 37 H        0.8810    -0.9880     0.3300 H     1 <1>   0.0800 
 38 H        1.6040    -0.6880    -1.2220 H     1 <1>   0.0800 
 39 H        3.0980     2.7920     2.0180 H     1 <1>   0.0800 
 40 H        2.7230     4.3750     1.4110 H     1 <1>   0.0800 
 41 H       -1.8510     5.3550    -2.1820 H     1 <1>   0.1500 
 42 H       -3.6910     3.3570     1.0900 H     1 <1>   0.1500 
 43 H        4.3240     3.0920     0.0990 H     1 <1>   0.4500 
 44 H        5.2210     1.1610    -0.5940 H     1 <1>   0.0800 
 45 H        4.5540     0.8620     0.9940 H     1 <1>   0.0800 
 46 H        3.0990    -1.3310     1.3180 H     1 <1>   0.0800 
 47 H        2.8960    -2.3610    -0.0660 H     1 <1>   0.0800 
 48 H       -3.7680     5.0610    -0.6780 H     1 <1>   0.1500 
 49 H        3.5690     3.6070    -2.0690 H     1 <1>   0.0800 
 50 H        1.9510     3.7870    -1.4480 H     1 <1>   0.0800 
 51 H        4.1910    -0.8540    -1.4670 H     1 <1>   0.0800 
 52 H        5.1190    -1.2530    -0.0520 H     1 <1>   0.0800 
 53 H        1.2600     5.8420    -0.4240 H     1 <1>   0.1500 
 54 H        5.4310     5.1180    -1.1020 H     1 <1>   0.1500 
 55 H        1.7830     8.1130     0.2790 H     1 <1>   0.1500 
 56 H        5.9280     7.3920    -0.3970 H     1 <1>   0.1500 
 57 H        5.7490     9.8190    -0.9040 H     1 <1>   0.1500 
 58 H        3.7270    11.7630     2.2720 H     1 <1>   0.1500 
 59 H        5.6380    12.1370     0.5030 H     1 <1>   0.1500 
@<TRIPOS>BOND
  1   1   2  1   
  2   1  30  1   
  3   2   3  1   
  4   2   4  1   
  5   2   5  1   
  6   3   6  ar  
  7   3   7  ar  
  8   4   8  1   
  9   4   9  1   
 10   4  31  1   
 11   5  10  1   
 12   5  32  1   
 13   5  33  1   
 14   6  11  ar  
 15   6  34  1   
 16   7  12  ar  
 17   7  35  1   
 18   8  13  1   
 19   8  14  1   
 20   8  36  1   
 21   9  15  1   
 22   9  37  1   
 23   9  38  1   
 24  10  13  1   
 25  10  39  1   
 26  10  40  1   
 27  11  16  ar  
 28  11  41  1   
 29  12  16  ar  
 30  12  42  1   
 31  13  17  1   
 32  13  43  1   
 33  14  18  1   
 34  14  44  1   
 35  14  45  1   
 36  15  18  1   
 37  15  46  1   
 38  15  47  1   
 39  16  48  1   
 40  17  19  1   
 41  17  49  1   
 42  17  50  1   
 43  18  51  1   
 44  18  52  1   
 45  19  20  ar  
 46  19  21  ar  
 47  20  22  ar  
 48  20  53  1   
 49  21  23  ar  
 50  21  54  1   
 51  22  24  ar  
 52  22  55  1   
 53  23  24  ar  
 54  23  56  1   
 55  24  25  1   
 56  25  26  1   
 57  25  27  1   
 58  26  28  2   
 59  27  29  2   
 60  27  57  1   
 61  28  29  1   
 62  28  58  1   
 63  29  59  1   
@<TRIPOS>SUBSTRUCTURE
  1 ****  17 GROUP 4 **** **** 0

# MOE 2024.06 (io_trps.svl 2023.06)
