@<TRIPOS>MOLECULE
NONAME
41 42 1 0 0 
SMALL
USER_CHARGES


@<TRIPOS>ATOM
  1 O       -1.7120    -1.2840    -2.4930 O.2   1 <1>  -0.5700 
  2 C       -2.1000    -1.4010    -1.3400 C.2   1 <1>   0.5410 
  3 C       -2.4510    -0.3100    -0.4580 C.2   1 <1>   0.0910 
  4 C       -2.2320    -2.6990    -0.7710 C.2   1 <1>  -0.1360 
  5 O       -2.4010     1.0090    -0.8300 O.3   1 <1>  -0.3570 
  6 C       -2.8650    -0.5810     0.8040 C.2   1 <1>  -0.0730 
  7 C       -2.6510    -2.8750     0.5050 C.2   1 <1>  -0.0620 
  8 C       -1.4020     1.4500    -1.7270 C.3   1 <1>   0.0400 
  9 O       -2.9560    -1.8300     1.2790 O.3   1 <1>  -0.1530 
 10 C       -2.8190    -4.2320     1.1700 C.3   1 <1>   0.2480 
 11 N       -4.0780    -4.8720     0.7540 N.3   1 <1>  -0.8100 
 12 C       -4.1290    -6.2740     1.2400 C.3   1 <1>   0.2530 
 13 C       -5.2530    -4.1190     1.2300 C.3   1 <1>   0.0300 
 14 C       -5.2900    -7.0870     0.6660 C.ar  1 <1>   0.1670 
 15 N       -5.8950    -7.9220     1.5010 N.ar  1 <1>  -0.6200 
 16 C       -5.6500    -6.9370    -0.6660 C.ar  1 <1>  -0.1500 
 17 C       -6.8950    -8.6220     0.9870 C.ar  1 <1>   0.1600 
 18 C       -6.6910    -7.6750    -1.1840 C.ar  1 <1>  -0.1500 
 19 C       -7.3320    -8.5450    -0.3270 C.ar  1 <1>  -0.1430 
 20 C       -8.4930    -9.3960    -0.8150 C.3   1 <1>  -0.0170 
 21 C       -9.8170    -8.6510    -0.6390 C.3   1 <1>  -0.2400 
 22 H       -1.9910    -3.5240    -1.4130 H     1 <1>   0.1500 
 23 H       -3.1470     0.1810     1.5080 H     1 <1>   0.1500 
 24 H       -1.3360     2.5210    -1.6550 H     1 <1>   0.0800 
 25 H       -1.6830     1.1730    -2.7280 H     1 <1>   0.0800 
 26 H       -0.4610     1.0040    -1.4600 H     1 <1>   0.0800 
 27 H       -2.7850    -4.1270     2.2410 H     1 <1>   0.0800 
 28 H       -1.9950    -4.8560     0.8680 H     1 <1>   0.0800 
 29 H       -4.1990    -6.2790     2.3140 H     1 <1>   0.0800 
 30 H       -3.2200    -6.7810     0.9680 H     1 <1>   0.0800 
 31 H       -5.2580    -3.1290     0.8080 H     1 <1>   0.0800 
 32 H       -5.2450    -4.0420     2.3040 H     1 <1>   0.0800 
 33 H       -6.1620    -4.6090     0.9250 H     1 <1>   0.0800 
 34 H       -5.1160    -6.2400    -1.2880 H     1 <1>   0.1500 
 35 H       -7.3970    -9.2980     1.6560 H     1 <1>   0.1500 
 36 H       -6.9880    -7.5700    -2.2130 H     1 <1>   0.1500 
 37 H       -8.5230   -10.3210    -0.2650 H     1 <1>   0.0800 
 38 H       -8.3510    -9.6400    -1.8540 H     1 <1>   0.0800 
 39 H       -9.9780    -8.4180     0.3990 H     1 <1>   0.0800 
 40 H      -10.6340    -9.2580    -0.9880 H     1 <1>   0.0800 
 41 H       -9.8040    -7.7330    -1.1990 H     1 <1>   0.0800 
@<TRIPOS>BOND
  1   1   2  2   
  2   2   3  1   
  3   2   4  1   
  4   3   5  1   
  5   3   6  2   
  6   4   7  2   
  7   4  22  1   
  8   5   8  1   
  9   6   9  1   
 10   6  23  1   
 11   7   9  1   
 12   7  10  1   
 13   8  24  1   
 14   8  25  1   
 15   8  26  1   
 16  10  11  1   
 17  10  27  1   
 18  10  28  1   
 19  11  12  1   
 20  11  13  1   
 21  12  14  1   
 22  12  29  1   
 23  12  30  1   
 24  13  31  1   
 25  13  32  1   
 26  13  33  1   
 27  14  15  ar  
 28  14  16  ar  
 29  15  17  ar  
 30  16  18  ar  
 31  16  34  1   
 32  17  19  ar  
 33  17  35  1   
 34  18  19  ar  
 35  18  36  1   
 36  19  20  1   
 37  20  21  1   
 38  20  37  1   
 39  20  38  1   
 40  21  39  1   
 41  21  40  1   
 42  21  41  1   
@<TRIPOS>SUBSTRUCTURE
  1 ****  11 GROUP 4 **** **** 0

# MOE 2024.06 (io_trps.svl 2023.06)
