@<TRIPOS>MOLECULE
NONAME
45 47 1 0 0 
SMALL
USER_CHARGES


@<TRIPOS>ATOM
  1 F       -0.1880     1.1010     0.2560 F     1 <1>  -0.1900 
  2 C       -1.4920     1.2000     0.2480 C.ar  1 <1>   0.1900 
  3 C       -2.1520     2.2790    -0.3520 C.ar  1 <1>   0.0830 
  4 C       -2.1890     0.1820     0.8700 C.ar  1 <1>  -0.1500 
  5 O       -1.5790     3.3390    -0.9920 O.3   1 <1>  -0.3630 
  6 C       -3.5360     2.2930    -0.3030 C.ar  1 <1>  -0.1500 
  7 C       -3.5710     0.2280     0.9000 C.ar  1 <1>  -0.1500 
  8 C       -0.1860     3.4650    -1.1770 C.3   1 <1>   0.0400 
  9 C       -4.2750     1.2810     0.3120 C.ar  1 <1>   0.0530 
 10 C       -5.7150     1.3450     0.3460 C.2   1 <1>   0.0870 
 11 O       -6.2990     2.5010     0.5370 O.3   1 <1>  -0.0190 
 12 C       -6.7050     0.4170     0.2260 C.2   1 <1>  -0.0860 
 13 N       -7.6020     2.4200     0.5630 N.2   1 <1>  -0.4100 
 14 C       -7.8740     1.1770     0.3760 C.2   1 <1>   0.3720 
 15 C       -6.6500    -0.9930    -0.0160 C.2   1 <1>   0.7160 
 16 N       -9.1880     0.6780     0.3160 N.pl3 1 <1>  -0.8210 
 17 O       -5.6490    -1.5360    -0.4410 O.2   1 <1>  -0.5700 
 18 N       -7.7430    -1.7620     0.2200 N.am  1 <1>  -0.7300 
 19 C       -9.7070     0.5550    -1.0780 C.3   1 <1>   0.1290 
 20 C      -10.1630     1.3810     1.1980 C.3   1 <1>   0.1290 
 21 C       -8.0020    -3.0760    -0.4240 C.3   1 <1>   0.2810 
 22 C       -9.4410    -3.1890    -0.9180 C.2   1 <1>   0.5690 
 23 C       -7.9220    -4.1910     0.6340 C.3   1 <1>  -0.1600 
 24 O       -9.9030    -2.5900    -1.8600 O.2   1 <1>  -0.5700 
 25 N      -10.1460    -4.0190    -0.1320 N.am  1 <1>  -0.7300 
 26 C       -9.3710    -4.5630     0.9890 C.3   1 <1>   0.1400 
 27 H       -1.6560    -0.6340     1.3210 H     1 <1>   0.1500 
 28 H       -4.0540     3.1170    -0.7600 H     1 <1>   0.1500 
 29 H       -4.1120    -0.5640     1.3870 H     1 <1>   0.1500 
 30 H       -0.0030     4.3690    -1.7280 H     1 <1>   0.0800 
 31 H        0.1710     2.6190    -1.7360 H     1 <1>   0.0800 
 32 H        0.2910     3.5230    -0.2150 H     1 <1>   0.0800 
 33 H       -8.5920    -1.2130     0.4260 H     1 <1>   0.3700 
 34 H       -8.9810     0.0670    -1.7060 H     1 <1>   0.0800 
 35 H       -9.9150     1.5300    -1.4840 H     1 <1>   0.0800 
 36 H      -10.6090    -0.0330    -1.0850 H     1 <1>   0.0800 
 37 H       -9.7480     1.4930     2.1850 H     1 <1>   0.0800 
 38 H      -11.0730     0.8110     1.2670 H     1 <1>   0.0800 
 39 H      -10.3850     2.3580     0.8030 H     1 <1>   0.0800 
 40 H       -7.3130    -3.2500    -1.2320 H     1 <1>   0.0800 
 41 H       -7.3540    -3.9010     1.4990 H     1 <1>   0.0800 
 42 H       -7.4510    -5.0500     0.1920 H     1 <1>   0.0800 
 43 H      -11.1470    -4.1860    -0.2620 H     1 <1>   0.3700 
 44 H       -9.6770    -4.0840     1.9050 H     1 <1>   0.0800 
 45 H       -9.4990    -5.6300     1.0670 H     1 <1>   0.0800 
@<TRIPOS>BOND
  1   1   2  1   
  2   2   3  ar  
  3   2   4  ar  
  4   3   5  1   
  5   3   6  ar  
  6   4   7  ar  
  7   4  27  1   
  8   5   8  1   
  9   6   9  ar  
 10   6  28  1   
 11   7   9  ar  
 12   7  29  1   
 13   8  30  1   
 14   8  31  1   
 15   8  32  1   
 16   9  10  1   
 17  10  11  1   
 18  10  12  2   
 19  11  13  1   
 20  12  14  1   
 21  12  15  1   
 22  13  14  2   
 23  14  16  1   
 24  15  17  2   
 25  15  18  am  
 26  16  19  1   
 27  16  20  1   
 28  18  21  1   
 29  18  33  1   
 30  19  34  1   
 31  19  35  1   
 32  19  36  1   
 33  20  37  1   
 34  20  38  1   
 35  20  39  1   
 36  21  22  1   
 37  21  23  1   
 38  21  40  1   
 39  22  24  2   
 40  22  25  am  
 41  23  26  1   
 42  23  41  1   
 43  23  42  1   
 44  25  26  1   
 45  25  43  1   
 46  26  44  1   
 47  26  45  1   
@<TRIPOS>SUBSTRUCTURE
  1 ****  12 GROUP 4 **** **** 0

# MOE 2024.06 (io_trps.svl 2023.06)
