@<TRIPOS>MOLECULE
NONAME
38 39 1 0 0 
SMALL
USER_CHARGES


@<TRIPOS>ATOM
  1 S       -0.1440    -0.0170     0.5150 S.o2  1 <1>   1.3330 
  2 O        0.1180    -0.9240     1.6100 O.2   1 <1>  -0.6500 
  3 O       -0.7350     1.2740     0.7820 O.2   1 <1>  -0.6500 
  4 N       -1.1210    -0.8300    -0.6100 N.am  1 <1>  -0.8490 
  5 C        1.3660     0.2560    -0.4130 C.3   1 <1>  -0.0550 
  6 C       -0.9000    -2.2800    -0.6360 C.3   1 <1>   0.1160 
  7 C       -2.5470    -0.5470    -0.4180 C.3   1 <1>   0.1160 
  8 C        2.4160     1.0770     0.3600 C.3   1 <1>  -0.0800 
  9 C        3.5750     1.4730    -0.5400 C.3   1 <1>   0.2200 
 10 C        3.1040     0.2550     1.4600 C.3   1 <1>   0.1200 
 11 N        4.1810     2.7120    -0.0100 N.am  1 <1>  -0.7300 
 12 C        4.5360     0.3110    -0.3380 C.3   1 <1>   0.1200 
 13 O        4.3830    -0.0670     0.9950 O.3   1 <1>  -0.5600 
 14 C        4.2000     3.9190    -0.6420 C.2   1 <1>   0.7160 
 15 O        3.7570     3.9930    -1.7710 O.2   1 <1>  -0.5700 
 16 C        4.7350     5.0790     0.0240 C.2   1 <1>  -0.0860 
 17 C        5.0790     5.1870     1.3750 C.2   1 <1>   0.1390 
 18 C        5.0210     6.3180    -0.4650 C.2   1 <1>  -0.3020 
 19 N        5.5330     6.3580     1.6930 N.2   1 <1>  -0.7070 
 20 N        5.4940     7.0600     0.5460 N.pl3 1 <1>   0.3000 
 21 H        1.7860    -0.6870    -0.7040 H     1 <1>   0.0800 
 22 H        1.1080     0.7900    -1.3070 H     1 <1>   0.0800 
 23 H       -1.4740    -2.7280    -1.4290 H     1 <1>   0.0800 
 24 H       -1.1930    -2.7230     0.3020 H     1 <1>   0.0800 
 25 H        0.1410    -2.4950    -0.8070 H     1 <1>   0.0800 
 26 H       -3.1340    -1.0650    -1.1570 H     1 <1>   0.0800 
 27 H       -2.7310     0.5090    -0.5250 H     1 <1>   0.0800 
 28 H       -2.8610    -0.8550     0.5650 H     1 <1>   0.0800 
 29 H        1.9320     1.9480     0.7720 H     1 <1>   0.0800 
 30 H        3.2950     1.5950    -1.5740 H     1 <1>   0.0800 
 31 H        2.5900    -0.6620     1.6930 H     1 <1>   0.0800 
 32 H        3.2200     0.8330     2.3610 H     1 <1>   0.0800 
 33 H        4.6540     2.5960     0.8860 H     1 <1>   0.3700 
 34 H        5.5610     0.5810    -0.5240 H     1 <1>   0.0800 
 35 H        4.2610    -0.5270    -0.9520 H     1 <1>   0.0800 
 36 H        4.9790     4.3900     2.0920 H     1 <1>   0.1500 
 37 H        4.9030     6.6830    -1.4700 H     1 <1>   0.1500 
 38 H        5.7980     8.0410     0.4960 H     1 <1>   0.2700 
@<TRIPOS>BOND
  1   1   2  2   
  2   1   3  2   
  3   1   4  am  
  4   1   5  1   
  5   4   6  1   
  6   4   7  1   
  7   5   8  1   
  8   5  21  1   
  9   5  22  1   
 10   6  23  1   
 11   6  24  1   
 12   6  25  1   
 13   7  26  1   
 14   7  27  1   
 15   7  28  1   
 16   8   9  1   
 17   8  10  1   
 18   8  29  1   
 19   9  11  1   
 20   9  12  1   
 21   9  30  1   
 22  10  13  1   
 23  10  31  1   
 24  10  32  1   
 25  11  14  am  
 26  11  33  1   
 27  12  13  1   
 28  12  34  1   
 29  12  35  1   
 30  14  15  2   
 31  14  16  1   
 32  16  17  1   
 33  16  18  2   
 34  17  19  2   
 35  17  36  1   
 36  18  20  1   
 37  18  37  1   
 38  19  20  1   
 39  20  38  1   
@<TRIPOS>SUBSTRUCTURE
  1 ****   8 GROUP 4 **** **** 0

# MOE 2024.06 (io_trps.svl 2023.06)
