@<TRIPOS>MOLECULE
NONAME
46 49 1 0 0 
SMALL
USER_CHARGES


@<TRIPOS>ATOM
  1 S        0.6470     0.2040     1.4780 S.3   1 <1>  -0.0800 
  2 C       -0.7470     1.0570     0.8330 C.2   1 <1>  -0.1400 
  3 C       -0.3920    -1.0350     2.1700 C.2   1 <1>  -0.1100 
  4 C       -1.8820     0.4220     1.1540 C.2   1 <1>  -0.1810 
  5 C       -0.6270     2.3440     0.0250 C.3   1 <1>   0.4600 
  6 C       -1.6890    -0.7770     1.9110 C.2   1 <1>  -0.1500 
  7 C       -3.2090     0.9960     0.7110 C.3   1 <1>   0.0210 
  8 O       -1.9070     2.6820    -0.4770 O.3   1 <1>  -0.5600 
  9 C       -0.1040     3.5030     0.8830 C.3   1 <1>  -0.1600 
 10 C        0.2760     2.1440    -1.1950 C.3   1 <1>  -0.1600 
 11 C       -3.0220     2.4850     0.3620 C.3   1 <1>   0.1200 
 12 C        0.0550     4.7890     0.0700 C.3   1 <1>   0.1400 
 13 C        0.4240     3.4350    -2.0010 C.3   1 <1>   0.1400 
 14 N        0.9200     4.5260    -1.1150 N.am  1 <1>  -0.6600 
 15 C        2.1150     5.1770    -1.3710 C.2   1 <1>   0.7150 
 16 O        2.9380     4.6140    -2.0730 O.2   1 <1>  -0.5700 
 17 C        2.4460     6.4800    -0.8440 C.2   1 <1>   0.0550 
 18 O        1.5340     7.3500    -0.4680 O.3   1 <1>  -0.0190 
 19 C        3.6380     7.0890    -0.6540 C.2   1 <1>  -0.1500 
 20 N        2.0390     8.4630    -0.0340 N.2   1 <1>  -0.4100 
 21 C        3.3170     8.3360    -0.1380 C.2   1 <1>   0.1080 
 22 C        4.3360     9.4040     0.2470 C.3   1 <1>   0.1010 
 23 C        4.2470     9.7270     1.7440 C.3   1 <1>  -0.2400 
 24 C        4.1350    10.6750    -0.5870 C.3   1 <1>  -0.2400 
 25 H        0.0850    -1.8380     2.7030 H     1 <1>   0.1500 
 26 H       -2.5230    -1.3810     2.2230 H     1 <1>   0.1500 
 27 H       -3.9340     0.9030     1.4990 H     1 <1>   0.0800 
 28 H       -3.5680     0.4600    -0.1490 H     1 <1>   0.0800 
 29 H        0.8560     3.2350     1.2860 H     1 <1>   0.0800 
 30 H       -0.7590     3.6710     1.7170 H     1 <1>   0.0800 
 31 H       -0.1340     1.3680    -1.8160 H     1 <1>   0.0800 
 32 H        1.2530     1.8260    -0.8800 H     1 <1>   0.0800 
 33 H       -2.8810     3.0640     1.2570 H     1 <1>   0.0800 
 34 H       -3.8890     2.8560    -0.1550 H     1 <1>   0.0800 
 35 H        0.4850     5.5410     0.7070 H     1 <1>   0.0800 
 36 H       -0.9070     5.1370    -0.2660 H     1 <1>   0.0800 
 37 H       -0.5310     3.7220    -2.4080 H     1 <1>   0.0800 
 38 H        1.0970     3.2720    -2.8250 H     1 <1>   0.0800 
 39 H        4.6190     6.7020    -0.8580 H     1 <1>   0.1500 
 40 H        5.3210     9.0200     0.0440 H     1 <1>   0.0800 
 41 H        3.2760    10.1250     1.9820 H     1 <1>   0.0800 
 42 H        4.9940    10.4480     2.0180 H     1 <1>   0.0800 
 43 H        4.4000     8.8330     2.3220 H     1 <1>   0.0800 
 44 H        3.1620    11.0940    -0.4000 H     1 <1>   0.0800 
 45 H        4.2090    10.4420    -1.6350 H     1 <1>   0.0800 
 46 H        4.8830    11.4080    -0.3430 H     1 <1>   0.0800 
@<TRIPOS>BOND
  1   1   2  1   
  2   1   3  1   
  3   2   4  2   
  4   2   5  1   
  5   3   6  2   
  6   3  25  1   
  7   4   6  1   
  8   4   7  1   
  9   5   8  1   
 10   5   9  1   
 11   5  10  1   
 12   6  26  1   
 13   7  11  1   
 14   7  27  1   
 15   7  28  1   
 16   8  11  1   
 17   9  12  1   
 18   9  29  1   
 19   9  30  1   
 20  10  13  1   
 21  10  31  1   
 22  10  32  1   
 23  11  33  1   
 24  11  34  1   
 25  12  14  1   
 26  12  35  1   
 27  12  36  1   
 28  13  14  1   
 29  13  37  1   
 30  13  38  1   
 31  14  15  am  
 32  15  16  2   
 33  15  17  1   
 34  17  18  1   
 35  17  19  2   
 36  18  20  1   
 37  19  21  1   
 38  19  39  1   
 39  20  21  2   
 40  21  22  1   
 41  22  23  1   
 42  22  24  1   
 43  22  40  1   
 44  23  41  1   
 45  23  42  1   
 46  23  43  1   
 47  24  44  1   
 48  24  45  1   
 49  24  46  1   
@<TRIPOS>SUBSTRUCTURE
  1 ****  12 GROUP 4 **** **** 0

# MOE 2024.06 (io_trps.svl 2023.06)
