@<TRIPOS>MOLECULE
NONAME
54 57 1 0 0 
SMALL
USER_CHARGES


@<TRIPOS>ATOM
  1 O       -0.2010     0.2130    -0.1100 O.2   1 <1>  -0.5700 
  2 C       -1.2600     0.7950     0.0140 C.2   1 <1>   0.5440 
  3 N       -2.4260     0.0630    -0.0280 N.am  1 <1>  -0.6600 
  4 C       -1.2620     2.2230     0.1840 C.ar  1 <1>   0.0860 
  5 C       -3.7510     0.6020    -0.4370 C.3   1 <1>   0.1400 
  6 C       -2.4150    -1.4200    -0.1490 C.3   1 <1>   0.1400 
  7 C       -2.0810     2.8770     1.0860 C.ar  1 <1>   0.1600 
  8 C       -0.4250     3.0470    -0.5470 C.ar  1 <1>   0.1600 
  9 C       -4.5240    -0.6050    -0.9680 C.3   1 <1>   0.2000 
 10 C       -3.8830    -1.8220    -0.3080 C.3   1 <1>  -0.0800 
 11 N       -2.1080     4.1800     1.2260 N.ar  1 <1>  -0.6200 
 12 N       -0.4220     4.3530    -0.4340 N.ar  1 <1>  -0.6200 
 13 O       -5.8680    -0.5360    -0.6360 O.3   1 <1>  -0.6800 
 14 C       -4.0920    -3.1150    -1.1130 C.3   1 <1>  -0.0170 
 15 C       -1.2730     4.8610     0.4520 C.ar  1 <1>   0.7200 
 16 C       -3.4730    -4.3110    -0.4100 C.ar  1 <1>   0.1670 
 17 N       -1.3250     6.1960     0.6170 N.pl3 1 <1>  -0.8690 
 18 N       -2.2240    -4.5660    -0.6510 N.ar  1 <1>  -0.6200 
 19 C       -4.2680    -5.0710     0.4630 C.ar  1 <1>  -0.1500 
 20 C       -0.4700     7.2100     0.0000 C.3   1 <1>   0.2890 
 21 C       -1.6620    -5.6280    -0.0180 C.ar  1 <1>   0.3100 
 22 C       -3.7300    -6.1420     1.1110 C.ar  1 <1>  -0.1500 
 23 C        0.4130     7.8050     1.0890 C.3   1 <1>  -0.2400 
 24 C       -1.3730     8.2660    -0.6230 C.3   1 <1>  -0.2400 
 25 C       -2.3800    -6.4500     0.8780 C.ar  1 <1>   0.0000 
 26 C       -0.3100    -5.9240    -0.2590 C.ar  1 <1>  -0.1500 
 27 C       -1.7200    -7.5320     1.4950 C.ar  1 <1>  -0.1500 
 28 C        0.3130    -6.9810     0.3510 C.ar  1 <1>  -0.1500 
 29 C       -0.4010    -7.7930     1.2370 C.ar  1 <1>  -0.1500 
 30 H       -4.2470     1.0190     0.4210 H     1 <1>   0.0800 
 31 H       -3.6390     1.3490    -1.2040 H     1 <1>   0.0800 
 32 H       -1.8440    -1.6990    -1.0200 H     1 <1>   0.0800 
 33 H       -1.9700    -1.8740     0.7200 H     1 <1>   0.0800 
 34 H       -2.7320     2.2940     1.7130 H     1 <1>   0.1500 
 35 H        0.2580     2.5970    -1.2480 H     1 <1>   0.1500 
 36 H       -4.4390    -0.6500    -2.0410 H     1 <1>   0.0800 
 37 H       -4.2850    -1.9480     0.6820 H     1 <1>   0.0800 
 38 H       -5.9830    -0.5330     0.3340 H     1 <1>   0.4000 
 39 H       -3.6510    -3.0160    -2.0890 H     1 <1>   0.0800 
 40 H       -5.1450    -3.2860    -1.2510 H     1 <1>   0.0800 
 41 H       -1.9620     6.5130     1.3410 H     1 <1>   0.4000 
 42 H       -5.2970    -4.7990     0.6110 H     1 <1>   0.1500 
 43 H        0.1480     6.7680    -0.7660 H     1 <1>   0.0800 
 44 H       -4.3070    -6.7480     1.7860 H     1 <1>   0.1500 
 45 H       -0.1840     8.2540     1.8620 H     1 <1>   0.0800 
 46 H        1.0560     8.5570     0.6690 H     1 <1>   0.0800 
 47 H        1.0290     7.0340     1.5170 H     1 <1>   0.0800 
 48 H       -1.9970     8.7230     0.1240 H     1 <1>   0.0800 
 49 H       -1.9920     7.8140    -1.3760 H     1 <1>   0.0800 
 50 H       -0.7760     9.0290    -1.0880 H     1 <1>   0.0800 
 51 H        0.2210    -5.2880    -0.9430 H     1 <1>   0.1500 
 52 H       -2.2740    -8.1520     2.1760 H     1 <1>   0.1500 
 53 H        1.3500    -7.1950     0.1570 H     1 <1>   0.1500 
 54 H        0.1010    -8.6200     1.7100 H     1 <1>   0.1500 
@<TRIPOS>BOND
  1   1   2  2   
  2   2   3  am  
  3   2   4  1   
  4   3   5  1   
  5   3   6  1   
  6   4   7  ar  
  7   4   8  ar  
  8   5   9  1   
  9   5  30  1   
 10   5  31  1   
 11   6  10  1   
 12   6  32  1   
 13   6  33  1   
 14   7  11  ar  
 15   7  34  1   
 16   8  12  ar  
 17   8  35  1   
 18   9  10  1   
 19   9  13  1   
 20   9  36  1   
 21  10  14  1   
 22  10  37  1   
 23  11  15  ar  
 24  12  15  ar  
 25  13  38  1   
 26  14  16  1   
 27  14  39  1   
 28  14  40  1   
 29  15  17  1   
 30  16  18  ar  
 31  16  19  ar  
 32  17  20  1   
 33  17  41  1   
 34  18  21  ar  
 35  19  22  ar  
 36  19  42  1   
 37  20  23  1   
 38  20  24  1   
 39  20  43  1   
 40  21  25  ar  
 41  21  26  ar  
 42  22  25  ar  
 43  22  44  1   
 44  23  45  1   
 45  23  46  1   
 46  23  47  1   
 47  24  48  1   
 48  24  49  1   
 49  24  50  1   
 50  25  27  ar  
 51  26  28  ar  
 52  26  51  1   
 53  27  29  ar  
 54  27  52  1   
 55  28  29  ar  
 56  28  53  1   
 57  29  54  1   
@<TRIPOS>SUBSTRUCTURE
  1 ****   3 GROUP 4 **** **** 0

# MOE 2024.06 (io_trps.svl 2023.06)
