@<TRIPOS>MOLECULE
NONAME
54 57 1 0 0 
SMALL
USER_CHARGES


@<TRIPOS>ATOM
  1 O       -0.2800     1.2910    -1.1860 O.2   1 <1>  -0.5700 
  2 C       -0.5860     2.4600    -1.1900 C.2   1 <1>   0.5690 
  3 N       -1.3340     3.0570    -0.2050 N.am  1 <1>  -0.6600 
  4 C       -0.1020     3.3140    -2.3590 C.3   1 <1>   0.1810 
  5 C       -1.6570     4.5220    -0.2800 C.3   1 <1>   0.3640 
  6 C       -1.7990     2.3800     1.0370 C.3   1 <1>   0.2200 
  7 O        0.1960     4.6200    -1.9450 O.3   1 <1>  -0.5600 
  8 C       -3.1640     4.7230    -0.4390 C.ar  1 <1>  -0.1440 
  9 C       -0.9080     5.3120    -1.3890 C.3   1 <1>   0.2610 
 10 C       -0.5990     1.9910     1.8990 C.3   1 <1>  -0.2400 
 11 C       -2.6930     1.1790     0.7250 C.3   1 <1>  -0.2400 
 12 C       -3.9170     3.9280    -1.2950 C.ar  1 <1>  -0.1500 
 13 C       -3.7990     5.7310     0.2720 C.ar  1 <1>  -0.1500 
 14 C       -0.4950     6.6780    -0.8210 C.2   1 <1>   0.5690 
 15 C       -5.2790     4.1310    -1.4280 C.ar  1 <1>  -0.1500 
 16 C       -5.1610     5.9360     0.1390 C.ar  1 <1>  -0.1500 
 17 O       -1.2010     7.6190    -1.1030 O.2   1 <1>  -0.5700 
 18 N        0.5880     6.8430     0.0130 N.am  1 <1>  -0.6600 
 19 C       -5.9030     5.1350    -0.7100 C.ar  1 <1>  -0.1500 
 20 C        1.0490     8.2230     0.3710 C.3   1 <1>   0.3210 
 21 C        1.4720     5.7420     0.5220 C.3   1 <1>   0.1400 
 22 C        2.5650     8.3260     0.2850 C.2   1 <1>  -0.1810 
 23 C        2.8600     5.8360    -0.1170 C.3   1 <1>   0.0210 
 24 C        3.3970     7.2360     0.0680 C.2   1 <1>   0.1080 
 25 C        3.4010     9.3820     0.3910 C.2   1 <1>  -0.3320 
 26 N        4.6510     7.5600     0.0440 N.2   1 <1>  -0.7070 
 27 N        4.6530     8.8920     0.2400 N.pl3 1 <1>   0.3000 
 28 C        3.0940    10.8500     0.6270 C.3   1 <1>  -0.0600 
 29 H       -0.8540     3.3530    -3.1260 H     1 <1>   0.0800 
 30 H        0.7950     2.8860    -2.7670 H     1 <1>   0.0800 
 31 H       -1.3730     4.9480     0.6660 H     1 <1>   0.0800 
 32 H       -2.3960     3.0760     1.6050 H     1 <1>   0.0800 
 33 H       -1.5900     5.4980    -2.2000 H     1 <1>   0.0800 
 34 H        0.0010     1.2480     1.4050 H     1 <1>   0.0800 
 35 H       -0.9400     1.5800     2.8320 H     1 <1>   0.0800 
 36 H        0.0050     2.8540     2.1090 H     1 <1>   0.0800 
 37 H       -2.1410     0.3960     0.2370 H     1 <1>   0.0800 
 38 H       -3.5140     1.4780     0.1010 H     1 <1>   0.0800 
 39 H       -3.0940     0.7810     1.6380 H     1 <1>   0.0800 
 40 H       -3.4510     3.1400    -1.8600 H     1 <1>   0.1500 
 41 H       -3.2390     6.3730     0.9320 H     1 <1>   0.1500 
 42 H       -5.8550     3.5080    -2.0900 H     1 <1>   0.1500 
 43 H       -5.6440     6.7210     0.6950 H     1 <1>   0.1500 
 44 H       -6.9620     5.2940    -0.8130 H     1 <1>   0.1500 
 45 H        0.6170     8.9520    -0.2920 H     1 <1>   0.0800 
 46 H        0.7340     8.4480     1.3740 H     1 <1>   0.0800 
 47 H        1.5730     5.8480     1.5880 H     1 <1>   0.0800 
 48 H        1.0540     4.7720     0.3310 H     1 <1>   0.0800 
 49 H        2.7970     5.6140    -1.1670 H     1 <1>   0.0800 
 50 H        3.5270     5.1300     0.3420 H     1 <1>   0.0800 
 51 H        5.5230     9.4370     0.2640 H     1 <1>   0.2700 
 52 H        2.0330    11.0020     0.7130 H     1 <1>   0.0800 
 53 H        3.4570    11.4400    -0.1960 H     1 <1>   0.0800 
 54 H        3.5630    11.1860     1.5340 H     1 <1>   0.0800 
@<TRIPOS>BOND
  1   1   2  2   
  2   2   3  am  
  3   2   4  1   
  4   3   5  1   
  5   3   6  1   
  6   4   7  1   
  7   4  29  1   
  8   4  30  1   
  9   5   8  1   
 10   5   9  1   
 11   5  31  1   
 12   6  10  1   
 13   6  11  1   
 14   6  32  1   
 15   7   9  1   
 16   8  12  ar  
 17   8  13  ar  
 18   9  14  1   
 19   9  33  1   
 20  10  34  1   
 21  10  35  1   
 22  10  36  1   
 23  11  37  1   
 24  11  38  1   
 25  11  39  1   
 26  12  15  ar  
 27  12  40  1   
 28  13  16  ar  
 29  13  41  1   
 30  14  17  2   
 31  14  18  am  
 32  15  19  ar  
 33  15  42  1   
 34  16  19  ar  
 35  16  43  1   
 36  18  20  1   
 37  18  21  1   
 38  19  44  1   
 39  20  22  1   
 40  20  45  1   
 41  20  46  1   
 42  21  23  1   
 43  21  47  1   
 44  21  48  1   
 45  22  24  1   
 46  22  25  2   
 47  23  24  1   
 48  23  49  1   
 49  23  50  1   
 50  24  26  2   
 51  25  27  1   
 52  25  28  1   
 53  26  27  1   
 54  27  51  1   
 55  28  52  1   
 56  28  53  1   
 57  28  54  1   
@<TRIPOS>SUBSTRUCTURE
  1 ****   9 GROUP 4 **** **** 0

# MOE 2024.06 (io_trps.svl 2023.06)
