@<TRIPOS>MOLECULE
NONAME
46 50 1 0 0 
SMALL
USER_CHARGES


@<TRIPOS>ATOM
  1 N        0.0570     0.2430    -0.7090 N.ar  1 <1>  -0.6200 
  2 C       -0.8060     1.1710    -1.0960 C.ar  1 <1>   0.7200 
  3 C        1.0470     0.7050     0.0180 C.ar  1 <1>   0.1660 
  4 N       -0.7970     2.4710    -0.8360 N.ar  1 <1>  -0.6200 
  5 N       -1.8340     0.7360    -1.8250 N.pl3 1 <1>  -0.9000 
  6 C        1.1770     2.0240     0.3410 C.ar  1 <1>  -0.1430 
  7 C        2.1890    -0.1190     0.5810 C.3   1 <1>   0.1430 
  8 C        0.2140     2.8930    -0.1120 C.ar  1 <1>   0.1600 
  9 C        2.4150     2.2810     1.1640 C.3   1 <1>  -0.0170 
 10 C        3.1490    -0.4580    -0.5750 C.3   1 <1>   0.2090 
 11 C        1.7160    -1.4210     1.2620 C.3   1 <1>  -0.1600 
 12 C        2.8340     0.8650     1.5930 C.3   1 <1>  -0.1600 
 13 N        4.3030    -1.2960    -0.1060 N.pl3 1 <1>  -0.8220 
 14 C        2.9130    -2.2910     1.6910 C.3   1 <1>  -0.1600 
 15 C        5.4370    -1.3450    -0.9390 C.2   1 <1>   0.2700 
 16 C        3.8620    -2.5760     0.5200 C.3   1 <1>   0.2090 
 17 N        5.9120    -2.4290    -1.4480 N.2   1 <1>  -0.3380 
 18 N        6.1900    -0.3020    -1.3440 N.pl3 1 <1>   0.5930 
 19 N        6.9520    -2.0610    -2.1910 N.2   1 <1>   0.0000 
 20 N        7.1310    -0.7950    -2.1460 N.2   1 <1>  -0.4180 
 21 C        6.0970     1.0700    -0.9840 C.ar  1 <1>  -0.0230 
 22 C        6.2490     1.4650     0.3420 C.ar  1 <1>  -0.1500 
 23 C        5.8470     2.0420    -1.9480 C.ar  1 <1>  -0.1500 
 24 C        6.1480     2.7980     0.6970 C.ar  1 <1>  -0.1500 
 25 C        5.7420     3.3750    -1.5930 C.ar  1 <1>  -0.1500 
 26 C        5.8920     3.7540    -0.2700 C.ar  1 <1>  -0.1500 
 27 H       -2.6340     1.3620    -1.8530 H     1 <1>   0.4000 
 28 H       -2.0320    -0.2570    -1.7440 H     1 <1>   0.4000 
 29 H        0.2740     3.9430     0.1210 H     1 <1>   0.1500 
 30 H        2.2110     2.9090     2.0130 H     1 <1>   0.0800 
 31 H        3.1720     2.7310     0.5460 H     1 <1>   0.0800 
 32 H        3.5030     0.4540    -1.0200 H     1 <1>   0.0800 
 33 H        2.6080    -1.0020    -1.3320 H     1 <1>   0.0800 
 34 H        1.1160    -1.9800     0.5650 H     1 <1>   0.0800 
 35 H        1.0960    -1.1940     2.1110 H     1 <1>   0.0800 
 36 H        3.9020     0.7580     1.6470 H     1 <1>   0.0800 
 37 H        2.4300     0.6830     2.5730 H     1 <1>   0.0800 
 38 H        2.5530    -3.2250     2.0840 H     1 <1>   0.0800 
 39 H        3.4660    -1.8010     2.4720 H     1 <1>   0.0800 
 40 H        4.7210    -3.1200     0.8750 H     1 <1>   0.0800 
 41 H        3.3640    -3.1790    -0.2210 H     1 <1>   0.0800 
 42 H        6.4460     0.7240     1.0990 H     1 <1>   0.1500 
 43 H        5.7370     1.7550    -2.9800 H     1 <1>   0.1500 
 44 H        6.2710     3.0930     1.7260 H     1 <1>   0.1500 
 45 H        5.5480     4.1190    -2.3460 H     1 <1>   0.1500 
 46 H        5.8150     4.7920     0.0040 H     1 <1>   0.1500 
@<TRIPOS>BOND
  1   1   2  ar  
  2   1   3  ar  
  3   2   4  ar  
  4   2   5  1   
  5   3   6  ar  
  6   3   7  1   
  7   4   8  ar  
  8   5  27  1   
  9   5  28  1   
 10   6   8  ar  
 11   6   9  1   
 12   7  10  1   
 13   7  11  1   
 14   7  12  1   
 15   8  29  1   
 16   9  12  1   
 17   9  30  1   
 18   9  31  1   
 19  10  13  1   
 20  10  32  1   
 21  10  33  1   
 22  11  14  1   
 23  11  34  1   
 24  11  35  1   
 25  12  36  1   
 26  12  37  1   
 27  13  15  1   
 28  13  16  1   
 29  14  16  1   
 30  14  38  1   
 31  14  39  1   
 32  15  17  2   
 33  15  18  1   
 34  16  40  1   
 35  16  41  1   
 36  17  19  1   
 37  18  20  1   
 38  18  21  1   
 39  19  20  2   
 40  21  22  ar  
 41  21  23  ar  
 42  22  24  ar  
 43  22  42  1   
 44  23  25  ar  
 45  23  43  1   
 46  24  26  ar  
 47  24  44  1   
 48  25  26  ar  
 49  25  45  1   
 50  26  46  1   
@<TRIPOS>SUBSTRUCTURE
  1 ****  10 GROUP 4 **** **** 0

# MOE 2024.06 (io_trps.svl 2023.06)
