@<TRIPOS>MOLECULE
NONAME
45 46 1 0 0 
SMALL
USER_CHARGES


@<TRIPOS>ATOM
  1 S        0.5570    -0.0430     0.1030 S.o2  1 <1>   1.3330 
  2 O        0.3250    -1.0000    -0.9550 O.2   1 <1>  -0.6500 
  3 O        0.8060    -0.5150     1.4470 O.2   1 <1>  -0.6500 
  4 N       -0.7690     1.0140     0.1650 N.am  1 <1>  -0.8490 
  5 C        1.9080     1.0190    -0.4030 C.3   1 <1>  -0.0550 
  6 C       -2.0420     0.3130    -0.0250 C.3   1 <1>   0.1160 
  7 C       -0.8180     1.8180     1.3910 C.3   1 <1>   0.1160 
  8 C        3.2200     0.2500    -0.6570 C.3   1 <1>  -0.0800 
  9 C        4.3730     1.0980    -1.1700 C.3   1 <1>   0.2200 
 10 C        3.8200    -0.4290     0.5820 C.3   1 <1>   0.1200 
 11 N        4.4510     2.3820    -0.4350 N.am  1 <1>  -0.7300 
 12 C        5.5550     0.2320    -0.7610 C.3   1 <1>   0.1200 
 13 O        5.2080    -0.2750     0.4920 O.3   1 <1>  -0.5600 
 14 C        4.0300     3.5940    -0.8980 C.2   1 <1>   0.5440 
 15 O        3.4660     3.6290    -1.9740 O.2   1 <1>  -0.5700 
 16 C        4.1940     4.7930    -0.0980 C.ar  1 <1>   0.0860 
 17 C        5.4180     5.1920     0.4670 C.ar  1 <1>  -0.1440 
 18 C        3.0760     5.5970     0.1350 C.ar  1 <1>  -0.1500 
 19 C        5.4860     6.3310     1.2540 C.ar  1 <1>  -0.1500 
 20 C        6.7040     4.4100     0.2240 C.3   1 <1>  -0.0970 
 21 C        3.1470     6.7330     0.9160 C.ar  1 <1>  -0.1500 
 22 C        4.3540     7.0950     1.4810 C.ar  1 <1>   0.0820 
 23 O        4.4160     8.1930     2.2420 O.3   1 <1>  -0.5330 
 24 H        1.6300     1.5250    -1.3070 H     1 <1>   0.0800 
 25 H        2.0660     1.7640     0.3510 H     1 <1>   0.0800 
 26 H       -2.8610     1.0120     0.0000 H     1 <1>   0.0800 
 27 H       -2.1820    -0.4260     0.7470 H     1 <1>   0.0800 
 28 H       -2.0520    -0.1800    -0.9820 H     1 <1>   0.0800 
 29 H       -1.6290     2.5240     1.3380 H     1 <1>   0.0800 
 30 H        0.1000     2.3670     1.5130 H     1 <1>   0.0800 
 31 H       -0.9600     1.1850     2.2520 H     1 <1>   0.0800 
 32 H        3.0230    -0.5190    -1.3850 H     1 <1>   0.0800 
 33 H        4.3320     1.2660    -2.2340 H     1 <1>   0.0800 
 34 H        3.5850    -1.4800     0.6160 H     1 <1>   0.0800 
 35 H        3.4980     0.0420     1.4950 H     1 <1>   0.0800 
 36 H        4.8400     2.3010     0.5080 H     1 <1>   0.3700 
 37 H        6.4750     0.7840    -0.6900 H     1 <1>   0.0800 
 38 H        5.6730    -0.5990    -1.4340 H     1 <1>   0.0800 
 39 H        2.1360     5.3180    -0.3110 H     1 <1>   0.1500 
 40 H        6.4210     6.6320     1.6910 H     1 <1>   0.1500 
 41 H        7.5680     5.0150     0.4360 H     1 <1>   0.0800 
 42 H        6.7670     4.0980    -0.8030 H     1 <1>   0.0800 
 43 H        6.7360     3.5410     0.8570 H     1 <1>   0.0800 
 44 H        2.2770     7.3410     1.0890 H     1 <1>   0.1500 
 45 H        5.3060     8.3860     2.5840 H     1 <1>   0.4500 
@<TRIPOS>BOND
  1   1   2  2   
  2   1   3  2   
  3   1   4  am  
  4   1   5  1   
  5   4   6  1   
  6   4   7  1   
  7   5   8  1   
  8   5  24  1   
  9   5  25  1   
 10   6  26  1   
 11   6  27  1   
 12   6  28  1   
 13   7  29  1   
 14   7  30  1   
 15   7  31  1   
 16   8   9  1   
 17   8  10  1   
 18   8  32  1   
 19   9  11  1   
 20   9  12  1   
 21   9  33  1   
 22  10  13  1   
 23  10  34  1   
 24  10  35  1   
 25  11  14  am  
 26  11  36  1   
 27  12  13  1   
 28  12  37  1   
 29  12  38  1   
 30  14  15  2   
 31  14  16  1   
 32  16  17  ar  
 33  16  18  ar  
 34  17  19  ar  
 35  17  20  1   
 36  18  21  ar  
 37  18  39  1   
 38  19  22  ar  
 39  19  40  1   
 40  20  41  1   
 41  20  42  1   
 42  20  43  1   
 43  21  22  ar  
 44  21  44  1   
 45  22  23  1   
 46  23  45  1   
@<TRIPOS>SUBSTRUCTURE
  1 ****  11 GROUP 4 **** **** 0

# MOE 2024.06 (io_trps.svl 2023.06)
