@<TRIPOS>MOLECULE
NONAME
53 56 1 0 0 
SMALL
USER_CHARGES


@<TRIPOS>ATOM
  1 O       -0.3170    -0.4640    -0.1740 O.3   1 <1>  -0.5600 
  2 C        0.5220     0.6320    -0.0350 C.3   1 <1>   0.1200 
  3 C       -1.6080    -0.1500     0.2520 C.3   1 <1>   0.1200 
  4 C       -0.3810     1.8250    -0.3110 C.3   1 <1>   0.2890 
  5 C       -1.6920     1.3810     0.3240 C.3   1 <1>  -0.0800 
  6 N        0.1130     3.0850     0.2980 N.pl3 1 <1>  -0.8690 
  7 C       -2.9270     1.9700    -0.3850 C.3   1 <1>  -0.0170 
  8 C        0.6470     4.1990    -0.2100 C.ar  1 <1>   0.7710 
  9 C       -4.2900     1.5970     0.2080 C.ar  1 <1>  -0.1440 
 10 N        0.8950     5.1530     0.6560 N.ar  1 <1>  -0.6200 
 11 N        0.9080     4.3140    -1.5220 N.ar  1 <1>  -0.1790 
 12 C       -5.4760     1.8970    -0.5100 C.ar  1 <1>   0.0000 
 13 C       -4.4420     0.9880     1.4230 C.ar  1 <1>  -0.1500 
 14 C        1.4050     6.2840     0.2050 C.ar  1 <1>   0.4100 
 15 C        1.4700     5.4410    -2.0200 C.ar  1 <1>   0.2110 
 16 C       -6.7150     1.5200     0.0640 C.ar  1 <1>   0.3100 
 17 C       -5.5080     2.5560    -1.7630 C.ar  1 <1>  -0.1500 
 18 C       -5.7170     0.6640     1.9030 C.ar  1 <1>   0.1600 
 19 N        1.5940     7.2640     1.1250 N.pl3 1 <1>  -0.8380 
 20 C        1.7400     6.4590    -1.1640 C.ar  1 <1>  -0.1430 
 21 N       -6.8170     0.9050     1.2670 N.ar  1 <1>  -0.6200 
 22 C       -7.9030     1.7960    -0.6310 C.ar  1 <1>  -0.1500 
 23 C       -6.6840     2.8120    -2.4140 C.ar  1 <1>  -0.1500 
 24 C        0.9890     8.6200     0.9990 C.3   1 <1>   0.1290 
 25 C        2.1020     6.9590     2.4940 C.3   1 <1>   0.1290 
 26 C        2.4240     7.7280    -1.6730 C.3   1 <1>  -0.0970 
 27 C       -7.8990     2.4260    -1.8440 C.ar  1 <1>  -0.1500 
 28 H        0.8920     0.6390     0.9770 H     1 <1>   0.0800 
 29 H        1.3310     0.5430    -0.7370 H     1 <1>   0.0800 
 30 H       -2.3020    -0.5660    -0.4600 H     1 <1>   0.0800 
 31 H       -1.7670    -0.6030     1.2150 H     1 <1>   0.0800 
 32 H       -0.5000     1.9230    -1.3760 H     1 <1>   0.0800 
 33 H       -1.6950     1.6680     1.3610 H     1 <1>   0.0800 
 34 H       -0.0060     3.1280     1.3170 H     1 <1>   0.4000 
 35 H       -2.9030     1.6410    -1.4090 H     1 <1>   0.0800 
 36 H       -2.8500     3.0440    -0.3790 H     1 <1>   0.0800 
 37 H        0.6910     3.5130    -2.1030 H     1 <1>   0.4570 
 38 H       -3.6180     0.7340     2.0590 H     1 <1>   0.1500 
 39 H        1.6930     5.4920    -3.0740 H     1 <1>   0.1500 
 40 H       -4.5930     2.8710    -2.2240 H     1 <1>   0.1500 
 41 H       -5.7860     0.1820     2.8630 H     1 <1>   0.1500 
 42 H       -8.8250     1.4920    -0.1710 H     1 <1>   0.1500 
 43 H       -6.6930     3.3120    -3.3680 H     1 <1>   0.1500 
 44 H        0.3970     8.8400     1.8710 H     1 <1>   0.0800 
 45 H        0.3480     8.6690     0.1370 H     1 <1>   0.0800 
 46 H        1.7660     9.3590     0.9080 H     1 <1>   0.0800 
 47 H        2.7980     7.7180     2.8050 H     1 <1>   0.0800 
 48 H        2.6060     6.0070     2.5030 H     1 <1>   0.0800 
 49 H        1.2810     6.9230     3.1890 H     1 <1>   0.0800 
 50 H        2.8620     7.5750    -2.6430 H     1 <1>   0.0800 
 51 H        3.2100     8.0200    -0.9970 H     1 <1>   0.0800 
 52 H        1.7170     8.5340    -1.7460 H     1 <1>   0.0800 
 53 H       -8.8180     2.6310    -2.3660 H     1 <1>   0.1500 
@<TRIPOS>BOND
  1   1   2  1   
  2   1   3  1   
  3   2   4  1   
  4   2  28  1   
  5   2  29  1   
  6   3   5  1   
  7   3  30  1   
  8   3  31  1   
  9   4   5  1   
 10   4   6  1   
 11   4  32  1   
 12   5   7  1   
 13   5  33  1   
 14   6   8  1   
 15   6  34  1   
 16   7   9  1   
 17   7  35  1   
 18   7  36  1   
 19   8  10  ar  
 20   8  11  ar  
 21   9  12  ar  
 22   9  13  ar  
 23  10  14  ar  
 24  11  15  ar  
 25  11  37  1   
 26  12  16  ar  
 27  12  17  ar  
 28  13  18  ar  
 29  13  38  1   
 30  14  19  1   
 31  14  20  ar  
 32  15  20  ar  
 33  15  39  1   
 34  16  21  ar  
 35  16  22  ar  
 36  17  23  ar  
 37  17  40  1   
 38  18  21  ar  
 39  18  41  1   
 40  19  24  1   
 41  19  25  1   
 42  20  26  1   
 43  22  27  ar  
 44  22  42  1   
 45  23  27  ar  
 46  23  43  1   
 47  24  44  1   
 48  24  45  1   
 49  24  46  1   
 50  25  47  1   
 51  25  48  1   
 52  25  49  1   
 53  26  50  1   
 54  26  51  1   
 55  26  52  1   
 56  27  53  1   
@<TRIPOS>SUBSTRUCTURE
  1 ****   7 GROUP 4 **** **** 0

# MOE 2024.06 (io_trps.svl 2023.06)
