@<TRIPOS>MOLECULE
NONAME
28 29 1 0 0 
SMALL
USER_CHARGES


@<TRIPOS>ATOM
  1 O       -6.4790     2.4970     1.7470 O.2   1 <1>  -0.5700 
  2 C       -6.5420     1.4270     1.1520 C.2   1 <1>   0.5410 
  3 C       -5.3680     0.7720     0.7020 C.2   1 <1>  -0.1360 
  4 C       -7.7780     0.7880     0.8960 C.2   1 <1>  -0.1360 
  5 C       -5.4230    -0.4280     0.0570 C.2   1 <1>  -0.0380 
  6 C       -7.8220    -0.4010     0.2410 C.2   1 <1>  -0.0380 
  7 N       -6.6580    -1.0000    -0.1760 N.pl3 1 <1>  -0.6000 
  8 C       -4.2150    -1.2170    -0.4420 C.3   1 <1>   0.0580 
  9 C       -9.1150    -1.1250    -0.0730 C.3   1 <1>  -0.1020 
 10 C       -4.0510    -2.5260     0.3340 C.3   1 <1>   0.3430 
 11 C       -2.8460    -0.5430    -0.3130 C.3   1 <1>  -0.1600 
 12 N       -2.5810    -2.7650     0.4680 N.4   1 <1>  -0.9060 
 13 C       -1.8690    -1.7050    -0.2900 C.3   1 <1>   0.3430 
 14 H       -4.4610     1.3010     0.9130 H     1 <1>   0.1500 
 15 H       -8.6590     1.2950     1.2400 H     1 <1>   0.1500 
 16 H       -6.7560    -1.8570    -0.7330 H     1 <1>   0.4000 
 17 H       -4.3770    -1.4580    -1.4790 H     1 <1>   0.0800 
 18 H       -9.1200    -2.0950     0.3900 H     1 <1>   0.0800 
 19 H       -9.2260    -1.2410    -1.1360 H     1 <1>   0.0800 
 20 H       -9.9590    -0.5690     0.2960 H     1 <1>   0.0800 
 21 H       -4.5350    -3.3350    -0.1890 H     1 <1>   0.0800 
 22 H       -4.4990    -2.4230     1.3100 H     1 <1>   0.0800 
 23 H       -2.7480    -0.0130     0.6170 H     1 <1>   0.0800 
 24 H       -2.6480     0.1330    -1.1270 H     1 <1>   0.0800 
 25 H       -2.3160    -3.7030     0.1390 H     1 <1>   0.4500 
 26 H       -2.3220    -2.7040     1.4620 H     1 <1>   0.4500 
 27 H       -0.9330    -1.4350     0.1760 H     1 <1>   0.0800 
 28 H       -1.6820    -2.0390    -1.2990 H     1 <1>   0.0800 
@<TRIPOS>BOND
  1   1   2  2   
  2   2   3  1   
  3   2   4  1   
  4   3   5  2   
  5   3  14  1   
  6   4   6  2   
  7   4  15  1   
  8   5   7  1   
  9   5   8  1   
 10   6   7  1   
 11   6   9  1   
 12   7  16  1   
 13   8  10  1   
 14   8  11  1   
 15   8  17  1   
 16   9  18  1   
 17   9  19  1   
 18   9  20  1   
 19  10  12  1   
 20  10  21  1   
 21  10  22  1   
 22  11  13  1   
 23  11  23  1   
 24  11  24  1   
 25  12  13  1   
 26  12  25  1   
 27  12  26  1   
 28  13  27  1   
 29  13  28  1   
@<TRIPOS>SUBSTRUCTURE
  1 ****   5 GROUP 4 **** **** 0

# MOE 2024.06 (io_trps.svl 2023.06)
