@<TRIPOS>MOLECULE
NONAME
38 39 1 0 0 
SMALL
USER_CHARGES


@<TRIPOS>ATOM
  1 CL       1.8380     0.6020    -1.8960 Cl    1 <1>  -0.1770 
  2 C        0.8370     1.7170    -0.9920 C.ar  1 <1>   0.1770 
  3 C        1.2890     2.3210     0.1790 C.ar  1 <1>  -0.1440 
  4 C       -0.4240     1.9740    -1.4990 C.ar  1 <1>  -0.1500 
  5 C        0.4340     3.2050     0.8260 C.ar  1 <1>  -0.1500 
  6 C        2.6690     2.0590     0.7840 C.3   1 <1>   0.3640 
  7 C       -1.2620     2.8530    -0.8380 C.ar  1 <1>  -0.1500 
  8 C       -0.8300     3.4680     0.3230 C.ar  1 <1>  -0.1500 
  9 N        2.7630     0.6210     1.1320 N.am  1 <1>  -0.7300 
 10 C        3.8380     2.5550    -0.1160 C.3   1 <1>   0.2610 
 11 C        3.7860    -0.1760     0.7570 C.2   1 <1>   0.5690 
 12 O        5.0380     1.8180     0.1110 O.3   1 <1>  -0.5600 
 13 C        4.0790     4.0490     0.1300 C.2   1 <1>   0.5690 
 14 O        3.8080    -1.3410     1.0650 O.2   1 <1>  -0.5700 
 15 C        4.9140     0.4250    -0.0820 C.3   1 <1>   0.1810 
 16 O        3.1530     4.8230     0.0690 O.2   1 <1>  -0.5700 
 17 N        5.3380     4.4740     0.4240 N.am  1 <1>  -0.7300 
 18 C        5.7550     5.8710     0.6570 C.3   1 <1>   0.1400 
 19 C        6.9080     6.2110    -0.2840 C.3   1 <1>  -0.1600 
 20 C        7.3450     7.6620    -0.0930 C.3   1 <1>   0.1200 
 21 O        8.3710     7.9280    -0.9760 O.3   1 <1>  -0.6800 
 22 H       -0.7430     1.4900    -2.4040 H     1 <1>   0.1500 
 23 H        0.7460     3.7060     1.7270 H     1 <1>   0.1500 
 24 H        2.7360     2.6040     1.7100 H     1 <1>   0.0800 
 25 H       -2.2450     3.0600    -1.2260 H     1 <1>   0.1500 
 26 H       -1.4770     4.1590     0.8370 H     1 <1>   0.1500 
 27 H        1.9840     0.2040     1.6440 H     1 <1>   0.3700 
 28 H        3.5830     2.4400    -1.1520 H     1 <1>   0.0800 
 29 H        4.7300     0.2370    -1.1240 H     1 <1>   0.0800 
 30 H        5.8470    -0.0310     0.1960 H     1 <1>   0.0800 
 31 H        6.0660     3.7530     0.4740 H     1 <1>   0.3700 
 32 H        4.9250     6.5340     0.4760 H     1 <1>   0.0800 
 33 H        6.0630     5.9820     1.6830 H     1 <1>   0.0800 
 34 H        6.5790     6.0770    -1.3010 H     1 <1>   0.0800 
 35 H        7.7370     5.5560    -0.0830 H     1 <1>   0.0800 
 36 H        7.7020     7.8400     0.9080 H     1 <1>   0.0800 
 37 H        6.5370     8.3400    -0.3120 H     1 <1>   0.0800 
 38 H        9.1380     7.3480    -0.8060 H     1 <1>   0.4000 
@<TRIPOS>BOND
  1   1   2  1   
  2   2   3  ar  
  3   2   4  ar  
  4   3   5  ar  
  5   3   6  1   
  6   4   7  ar  
  7   4  22  1   
  8   5   8  ar  
  9   5  23  1   
 10   6   9  1   
 11   6  10  1   
 12   6  24  1   
 13   7   8  ar  
 14   7  25  1   
 15   8  26  1   
 16   9  11  am  
 17   9  27  1   
 18  10  12  1   
 19  10  13  1   
 20  10  28  1   
 21  11  14  2   
 22  11  15  1   
 23  12  15  1   
 24  13  16  2   
 25  13  17  am  
 26  15  29  1   
 27  15  30  1   
 28  17  18  1   
 29  17  31  1   
 30  18  19  1   
 31  18  32  1   
 32  18  33  1   
 33  19  20  1   
 34  19  34  1   
 35  19  35  1   
 36  20  21  1   
 37  20  36  1   
 38  20  37  1   
 39  21  38  1   
@<TRIPOS>SUBSTRUCTURE
  1 ****  10 GROUP 4 **** **** 0

# MOE 2024.06 (io_trps.svl 2023.06)
