@<TRIPOS>MOLECULE
NONAME
38 40 1 0 0 
SMALL
USER_CHARGES


@<TRIPOS>ATOM
  1 S       -0.5110     0.2000    -2.0970 S.3   1 <1>  -0.0800 
  2 C       -1.2160     1.0620    -0.7380 C.2   1 <1>  -0.1400 
  3 C       -1.8270    -0.9670    -2.0800 C.2   1 <1>  -0.1100 
  4 C       -2.3600     0.4810    -0.3510 C.2   1 <1>  -0.1810 
  5 C       -0.5750     2.3000    -0.1220 C.3   1 <1>   0.4600 
  6 C       -2.7130    -0.6810    -1.1070 C.2   1 <1>  -0.1500 
  7 C       -3.1450     1.0730     0.7980 C.3   1 <1>   0.0210 
  8 O       -1.3020     2.6540     1.0400 O.3   1 <1>  -0.5600 
  9 C        0.8560     2.0040     0.3420 C.3   1 <1>  -0.1600 
 10 C       -0.5850     3.4850    -1.0980 C.3   1 <1>  -0.1600 
 11 C       -2.7060     2.5360     1.0070 C.3   1 <1>   0.1200 
 12 C        1.5300     3.2490     0.9220 C.3   1 <1>   0.1400 
 13 C        0.0990     4.7130    -0.4970 C.3   1 <1>   0.1400 
 14 N        1.4830     4.3490    -0.0810 N.am  1 <1>  -0.6600 
 15 C        2.6280     4.9880    -0.4990 C.2   1 <1>   0.5690 
 16 O        3.7160     4.6950    -0.0590 O.2   1 <1>  -0.5700 
 17 C        2.5900     6.0950    -1.5500 C.3   1 <1>   0.1310 
 18 S        1.8980     7.6490    -0.8760 S.3   1 <1>  -0.4600 
 19 C        2.9420     7.9690     0.5730 C.3   1 <1>  -0.0100 
 20 H       -1.7960    -1.7550    -2.8120 H     1 <1>   0.1500 
 21 H       -3.6040    -1.2410    -0.8870 H     1 <1>   0.1500 
 22 H       -2.9640     0.5060     1.6930 H     1 <1>   0.0800 
 23 H       -4.1970     1.0440     0.5810 H     1 <1>   0.0800 
 24 H        1.4430     1.6560    -0.4880 H     1 <1>   0.0800 
 25 H        0.8350     1.2210     1.0770 H     1 <1>   0.0800 
 26 H       -1.5930     3.7230    -1.3800 H     1 <1>   0.0800 
 27 H       -0.0620     3.2060    -1.9950 H     1 <1>   0.0800 
 28 H       -3.0870     2.9070     1.9410 H     1 <1>   0.0800 
 29 H       -3.0820     3.1560     0.2120 H     1 <1>   0.0800 
 30 H        2.5470     3.0150     1.1880 H     1 <1>   0.0800 
 31 H        1.0170     3.5640     1.8150 H     1 <1>   0.0800 
 32 H       -0.4470     5.0510     0.3680 H     1 <1>   0.0800 
 33 H        0.0990     5.5110    -1.2170 H     1 <1>   0.0800 
 34 H        1.9880     5.8070    -2.3890 H     1 <1>   0.0800 
 35 H        3.5860     6.3180    -1.8850 H     1 <1>   0.0800 
 36 H        2.6470     8.9160     0.9880 H     1 <1>   0.0800 
 37 H        3.9670     7.9950     0.2480 H     1 <1>   0.0800 
 38 H        2.7840     7.1750     1.2820 H     1 <1>   0.0800 
@<TRIPOS>BOND
  1   1   2  1   
  2   1   3  1   
  3   2   4  2   
  4   2   5  1   
  5   3   6  2   
  6   3  20  1   
  7   4   6  1   
  8   4   7  1   
  9   5   8  1   
 10   5   9  1   
 11   5  10  1   
 12   6  21  1   
 13   7  11  1   
 14   7  22  1   
 15   7  23  1   
 16   8  11  1   
 17   9  12  1   
 18   9  24  1   
 19   9  25  1   
 20  10  13  1   
 21  10  26  1   
 22  10  27  1   
 23  11  28  1   
 24  11  29  1   
 25  12  14  1   
 26  12  30  1   
 27  12  31  1   
 28  13  14  1   
 29  13  32  1   
 30  13  33  1   
 31  14  15  am  
 32  15  16  2   
 33  15  17  1   
 34  17  18  1   
 35  17  34  1   
 36  17  35  1   
 37  18  19  1   
 38  19  36  1   
 39  19  37  1   
 40  19  38  1   
@<TRIPOS>SUBSTRUCTURE
  1 ****   5 GROUP 4 **** **** 0

# MOE 2024.06 (io_trps.svl 2023.06)
