@<TRIPOS>MOLECULE
NONAME
53 56 1 0 0 
SMALL
USER_CHARGES


@<TRIPOS>ATOM
  1 F       -1.0530    -0.8990    -2.3270 F     1 <1>  -0.1900 
  2 C       -0.8440    -1.9700    -1.6020 C.ar  1 <1>   0.1900 
  3 C        0.4320    -2.2720    -1.1540 C.ar  1 <1>   0.1900 
  4 C       -1.9140    -2.7850    -1.2930 C.ar  1 <1>  -0.1500 
  5 F        1.4440    -1.4930    -1.4510 F     1 <1>  -0.1900 
  6 C        0.6620    -3.4000    -0.3870 C.ar  1 <1>  -0.1500 
  7 C       -1.7000    -3.9240    -0.5240 C.ar  1 <1>   0.1000 
  8 C       -0.4110    -4.2200    -0.0760 C.ar  1 <1>  -0.1500 
  9 N       -2.7760    -4.7450    -0.2120 N.pl3 1 <1>  -0.8380 
 10 C       -3.3150    -4.6230     1.1600 C.3   1 <1>   0.2090 
 11 C       -2.7420    -6.1210    -0.7540 C.3   1 <1>   0.2090 
 12 C       -4.7600    -5.1120     1.1410 C.3   1 <1>  -0.1600 
 13 C       -4.1790    -6.6330    -0.8150 C.3   1 <1>  -0.1600 
 14 C       -4.8310    -6.5330     0.5720 C.3   1 <1>   0.4230 
 15 N       -6.2500    -6.9900     0.5570 N.4   1 <1>  -0.9590 
 16 C       -7.1940    -6.2650    -0.3460 C.3   1 <1>   0.3430 
 17 C       -6.4570    -8.4470     0.2900 C.3   1 <1>   0.3430 
 18 C       -8.4160    -7.1810    -0.3890 C.3   1 <1>   0.2000 
 19 C       -7.7710    -8.5660    -0.4960 C.3   1 <1>  -0.0800 
 20 O       -9.0720    -7.0630     0.8330 O.3   1 <1>  -0.6800 
 21 C       -8.6310    -9.7650    -0.0520 C.3   1 <1>  -0.0170 
 22 C       -7.8090   -11.0420    -0.1140 C.ar  1 <1>  -0.1430 
 23 C       -7.3640   -11.6800     1.0270 C.ar  1 <1>  -0.1500 
 24 C       -7.4590   -11.6260    -1.3160 C.ar  1 <1>  -0.1500 
 25 C       -6.5920   -12.8250     0.9140 C.ar  1 <1>   0.1600 
 26 C       -6.6820   -12.7720    -1.3190 C.ar  1 <1>   0.1600 
 27 N       -6.2320   -13.3760    -0.2330 N.ar  1 <1>  -0.6200 
 28 H       -2.9000    -2.5470    -1.6430 H     1 <1>   0.1500 
 29 H        1.6560    -3.6240    -0.0440 H     1 <1>   0.1500 
 30 H       -0.2520    -5.0990     0.5220 H     1 <1>   0.1500 
 31 H       -2.7180    -5.2090     1.8400 H     1 <1>   0.0800 
 32 H       -3.2760    -3.5920     1.4740 H     1 <1>   0.0800 
 33 H       -2.3090    -6.1100    -1.7410 H     1 <1>   0.0800 
 34 H       -2.1370    -6.7490    -0.1200 H     1 <1>   0.0800 
 35 H       -5.3280    -4.4270     0.5380 H     1 <1>   0.0800 
 36 H       -5.1430    -5.0930     2.1440 H     1 <1>   0.0800 
 37 H       -4.1590    -7.6500    -1.1570 H     1 <1>   0.0800 
 38 H       -4.7040    -6.0320    -1.5350 H     1 <1>   0.0800 
 39 H       -4.2750    -7.1730     1.2390 H     1 <1>   0.0800 
 40 H       -6.6490    -6.8310     1.4940 H     1 <1>   0.4500 
 41 H       -7.4500    -5.2890     0.0320 H     1 <1>   0.0800 
 42 H       -6.7760    -6.1750    -1.3340 H     1 <1>   0.0800 
 43 H       -5.6490    -8.8640    -0.2870 H     1 <1>   0.0800 
 44 H       -6.5300    -8.9830     1.2230 H     1 <1>   0.0800 
 45 H       -9.0970    -6.9410    -1.1890 H     1 <1>   0.0800 
 46 H       -7.5020    -8.7190    -1.5270 H     1 <1>   0.0800 
 47 H       -9.9870    -7.4150     0.7820 H     1 <1>   0.4000 
 48 H       -9.4890    -9.8610    -0.6950 H     1 <1>   0.0800 
 49 H       -8.9890    -9.6280     0.9540 H     1 <1>   0.0800 
 50 H       -7.6080   -11.3090     2.0060 H     1 <1>   0.1500 
 51 H       -7.7810   -11.2080    -2.2520 H     1 <1>   0.1500 
 52 H       -6.2540   -13.3150     1.8120 H     1 <1>   0.1500 
 53 H       -6.4170   -13.2180    -2.2640 H     1 <1>   0.1500 
@<TRIPOS>BOND
  1   1   2  1   
  2   2   3  ar  
  3   2   4  ar  
  4   3   5  1   
  5   3   6  ar  
  6   4   7  ar  
  7   4  28  1   
  8   6   8  ar  
  9   6  29  1   
 10   7   8  ar  
 11   7   9  1   
 12   8  30  1   
 13   9  10  1   
 14   9  11  1   
 15  10  12  1   
 16  10  31  1   
 17  10  32  1   
 18  11  13  1   
 19  11  33  1   
 20  11  34  1   
 21  12  14  1   
 22  12  35  1   
 23  12  36  1   
 24  13  14  1   
 25  13  37  1   
 26  13  38  1   
 27  14  15  1   
 28  14  39  1   
 29  15  16  1   
 30  15  17  1   
 31  15  40  1   
 32  16  18  1   
 33  16  41  1   
 34  16  42  1   
 35  17  19  1   
 36  17  43  1   
 37  17  44  1   
 38  18  19  1   
 39  18  20  1   
 40  18  45  1   
 41  19  21  1   
 42  19  46  1   
 43  20  47  1   
 44  21  22  1   
 45  21  48  1   
 46  21  49  1   
 47  22  23  ar  
 48  22  24  ar  
 49  23  25  ar  
 50  23  50  1   
 51  24  26  ar  
 52  24  51  1   
 53  25  27  ar  
 54  25  52  1   
 55  26  27  ar  
 56  26  53  1   
@<TRIPOS>SUBSTRUCTURE
  1 ****  13 GROUP 4 **** **** 0

# MOE 2024.06 (io_trps.svl 2023.06)
