@<TRIPOS>MOLECULE
NONAME
50 52 1 0 0 
SMALL
USER_CHARGES


@<TRIPOS>ATOM
  1 F       -2.6030     1.8610     1.1700 F     1 <1>  -0.1900 
  2 C       -1.6850     2.4180     0.4180 C.ar  1 <1>   0.1900 
  3 C       -0.6430     3.1230     1.0170 C.ar  1 <1>   0.0830 
  4 C       -1.8090     2.2810    -0.9530 C.ar  1 <1>  -0.1440 
  5 O       -0.6160     3.2050     2.3750 O.3   1 <1>  -0.3630 
  6 C        0.3170     3.7130     0.1940 C.ar  1 <1>  -0.1500 
  7 C       -0.8380     2.8850    -1.7280 C.ar  1 <1>   0.1900 
  8 C       -2.9570     1.5120    -1.5650 C.3   1 <1>   0.4870 
  9 C        0.4420     3.8430     3.0570 C.3   1 <1>   0.0400 
 10 C        0.2190     3.5940    -1.1850 C.ar  1 <1>  -0.1500 
 11 F       -0.9290     2.7950    -3.0290 F     1 <1>  -0.1900 
 12 N       -4.1970     2.3140    -1.4260 N.4   1 <1>  -0.9590 
 13 C       -5.4470     1.5520    -1.6430 C.3   1 <1>   0.3430 
 14 C       -4.1740     3.5970    -2.1870 C.3   1 <1>   0.3430 
 15 C       -6.6310     2.3400    -1.0650 C.3   1 <1>  -0.1600 
 16 C       -5.5060     4.3460    -2.0400 C.3   1 <1>  -0.1600 
 17 C       -6.3540     3.8460    -0.8590 C.3   1 <1>   0.2800 
 18 O       -5.5370     3.9530     0.2840 O.3   1 <1>  -0.5600 
 19 C       -7.6510     4.6730    -0.7300 C.3   1 <1>  -0.1600 
 20 C       -6.0120     4.5950     1.4360 C.3   1 <1>   0.1200 
 21 C       -8.3870     4.4750     0.6080 C.3   1 <1>   0.2800 
 22 C       -7.4270     4.1120     1.7480 C.3   1 <1>  -0.1600 
 23 O       -8.9580     5.6840     0.9230 O.3   1 <1>  -0.6800 
 24 C       -9.5500     3.4880     0.5150 C.3   1 <1>  -0.2400 
 25 H        1.1420     4.2670     0.6060 H     1 <1>   0.1500 
 26 H       -3.0660     0.5740    -1.0440 H     1 <1>   0.0800 
 27 H       -2.7600     1.3050    -2.6050 H     1 <1>   0.0800 
 28 H        0.2580     3.7570     4.1130 H     1 <1>   0.0800 
 29 H        0.4680     4.8810     2.7770 H     1 <1>   0.0800 
 30 H        1.3670     3.3520     2.8090 H     1 <1>   0.0800 
 31 H        0.9540     4.0450    -1.8300 H     1 <1>   0.1500 
 32 H       -4.2540     2.6220    -0.4330 H     1 <1>   0.4500 
 33 H       -5.3900     0.5890    -1.1610 H     1 <1>   0.0800 
 34 H       -5.5930     1.3970    -2.7000 H     1 <1>   0.0800 
 35 H       -3.9730     3.4120    -3.2300 H     1 <1>   0.0800 
 36 H       -3.3830     4.2190    -1.7990 H     1 <1>   0.0800 
 37 H       -6.9210     1.8950    -0.1310 H     1 <1>   0.0800 
 38 H       -7.4600     2.2130    -1.7380 H     1 <1>   0.0800 
 39 H       -6.0660     4.2330    -2.9500 H     1 <1>   0.0800 
 40 H       -5.3030     5.3960    -1.9300 H     1 <1>   0.0800 
 41 H       -8.3120     4.4460    -1.5470 H     1 <1>   0.0800 
 42 H       -7.3840     5.7100    -0.8360 H     1 <1>   0.0800 
 43 H       -5.9880     5.6590     1.2710 H     1 <1>   0.0800 
 44 H       -5.3430     4.3550     2.2450 H     1 <1>   0.0800 
 45 H       -7.7720     4.5300     2.6780 H     1 <1>   0.0800 
 46 H       -7.3890     3.0460     1.8810 H     1 <1>   0.0800 
 47 H       -8.2700     6.3520     1.0950 H     1 <1>   0.4000 
 48 H       -9.2030     2.5050     0.2630 H     1 <1>   0.0800 
 49 H      -10.2510     3.8050    -0.2370 H     1 <1>   0.0800 
 50 H      -10.0620     3.4320     1.4590 H     1 <1>   0.0800 
@<TRIPOS>BOND
  1   1   2  1   
  2   2   3  ar  
  3   2   4  ar  
  4   3   5  1   
  5   3   6  ar  
  6   4   7  ar  
  7   4   8  1   
  8   5   9  1   
  9   6  10  ar  
 10   6  25  1   
 11   7  10  ar  
 12   7  11  1   
 13   8  12  1   
 14   8  26  1   
 15   8  27  1   
 16   9  28  1   
 17   9  29  1   
 18   9  30  1   
 19  10  31  1   
 20  12  13  1   
 21  12  14  1   
 22  12  32  1   
 23  13  15  1   
 24  13  33  1   
 25  13  34  1   
 26  14  16  1   
 27  14  35  1   
 28  14  36  1   
 29  15  17  1   
 30  15  37  1   
 31  15  38  1   
 32  16  17  1   
 33  16  39  1   
 34  16  40  1   
 35  17  18  1   
 36  17  19  1   
 37  18  20  1   
 38  19  21  1   
 39  19  41  1   
 40  19  42  1   
 41  20  22  1   
 42  20  43  1   
 43  20  44  1   
 44  21  22  1   
 45  21  23  1   
 46  21  24  1   
 47  22  45  1   
 48  22  46  1   
 49  23  47  1   
 50  24  48  1   
 51  24  49  1   
 52  24  50  1   
@<TRIPOS>SUBSTRUCTURE
  1 ****  12 GROUP 4 **** **** 0

# MOE 2024.06 (io_trps.svl 2023.06)
