@<TRIPOS>MOLECULE
NONAME
46 48 1 0 0 
SMALL
USER_CHARGES


@<TRIPOS>ATOM
  1 CL       1.9510     0.8040    -2.4120 Cl    1 <1>  -0.1770 
  2 C        0.9420     1.9330    -1.5350 C.ar  1 <1>   0.1770 
  3 C        1.2600     2.3500    -0.2440 C.ar  1 <1>  -0.1440 
  4 C       -0.1840     2.4010    -2.1880 C.ar  1 <1>  -0.1500 
  5 C        0.4140     3.2650     0.3700 C.ar  1 <1>  -0.1500 
  6 C        2.4870     1.8610     0.5240 C.3   1 <1>   0.3640 
  7 C       -1.0170     3.3070    -1.5580 C.ar  1 <1>  -0.1500 
  8 C       -0.7140     3.7390    -0.2790 C.ar  1 <1>  -0.1500 
  9 N        2.4220     0.3850     0.6540 N.am  1 <1>  -0.7300 
 10 C        3.8180     2.3480    -0.1180 C.3   1 <1>   0.2610 
 11 C        3.4850    -0.4250     0.4610 C.2   1 <1>   0.5690 
 12 O        4.9180     1.5620     0.3200 O.3   1 <1>  -0.5600 
 13 C        4.0720     3.8440     0.1530 C.2   1 <1>   0.5690 
 14 O        3.3900    -1.6150     0.6210 O.2   1 <1>  -0.5700 
 15 C        4.8150     0.1870     0.0130 C.3   1 <1>   0.1810 
 16 O        3.3890     4.4040     0.9840 O.2   1 <1>  -0.5700 
 17 N        5.0480     4.5370    -0.5340 N.am  1 <1>  -0.6600 
 18 C        6.0240     3.9170    -1.4720 C.3   1 <1>   0.1400 
 19 C        5.3350     5.9670    -0.2260 C.3   1 <1>   0.1400 
 20 C        7.4210     3.9830    -0.8490 C.3   1 <1>  -0.1600 
 21 C        6.7290     6.0750     0.4010 C.3   1 <1>  -0.1600 
 22 C        7.8230     5.4110    -0.4510 C.3   1 <1>   0.2800 
 23 O        7.9530     6.1510    -1.6180 O.3   1 <1>  -0.6800 
 24 C        9.1890     5.4170     0.2730 C.3   1 <1>   0.1200 
 25 O        9.6630     6.7150     0.4090 O.3   1 <1>  -0.6800 
 26 H       -0.4050     2.0570    -3.1830 H     1 <1>   0.1500 
 27 H        0.6320     3.6250     1.3630 H     1 <1>   0.1500 
 28 H        2.4440     2.2530     1.5250 H     1 <1>   0.0800 
 29 H       -1.8950     3.6760    -2.0590 H     1 <1>   0.1500 
 30 H       -1.3570     4.4490     0.2140 H     1 <1>   0.1500 
 31 H        1.5320    -0.0300     0.9320 H     1 <1>   0.3700 
 32 H        3.7500     2.2320    -1.1810 H     1 <1>   0.0800 
 33 H        4.9230     0.0650    -1.0490 H     1 <1>   0.0800 
 34 H        5.6230    -0.3210     0.5070 H     1 <1>   0.0800 
 35 H        5.7790     2.8920    -1.6820 H     1 <1>   0.0800 
 36 H        6.0070     4.4520    -2.4060 H     1 <1>   0.0800 
 37 H        5.2840     6.5430    -1.1330 H     1 <1>   0.0800 
 38 H        4.6050     6.3690     0.4560 H     1 <1>   0.0800 
 39 H        8.1450     3.5790    -1.5340 H     1 <1>   0.0800 
 40 H        7.4230     3.3580     0.0270 H     1 <1>   0.0800 
 41 H        6.6950     5.5970     1.3630 H     1 <1>   0.0800 
 42 H        6.9720     7.1080     0.5720 H     1 <1>   0.0800 
 43 H        7.0820     6.2300    -2.0480 H     1 <1>   0.4000 
 44 H        9.9120     4.8590    -0.2950 H     1 <1>   0.0800 
 45 H        9.1090     4.9830     1.2550 H     1 <1>   0.0800 
 46 H        9.5090     7.1710    -0.4470 H     1 <1>   0.4000 
@<TRIPOS>BOND
  1   1   2  1   
  2   2   3  ar  
  3   2   4  ar  
  4   3   5  ar  
  5   3   6  1   
  6   4   7  ar  
  7   4  26  1   
  8   5   8  ar  
  9   5  27  1   
 10   6   9  1   
 11   6  10  1   
 12   6  28  1   
 13   7   8  ar  
 14   7  29  1   
 15   8  30  1   
 16   9  11  am  
 17   9  31  1   
 18  10  12  1   
 19  10  13  1   
 20  10  32  1   
 21  11  14  2   
 22  11  15  1   
 23  12  15  1   
 24  13  16  2   
 25  13  17  am  
 26  15  33  1   
 27  15  34  1   
 28  17  18  1   
 29  17  19  1   
 30  18  20  1   
 31  18  35  1   
 32  18  36  1   
 33  19  21  1   
 34  19  37  1   
 35  19  38  1   
 36  20  22  1   
 37  20  39  1   
 38  20  40  1   
 39  21  22  1   
 40  21  41  1   
 41  21  42  1   
 42  22  23  1   
 43  22  24  1   
 44  23  43  1   
 45  24  25  1   
 46  24  44  1   
 47  24  45  1   
 48  25  46  1   
@<TRIPOS>SUBSTRUCTURE
  1 ****  10 GROUP 4 **** **** 0

# MOE 2024.06 (io_trps.svl 2023.06)
