@<TRIPOS>MOLECULE
NONAME
45 48 1 0 0 
SMALL
USER_CHARGES


@<TRIPOS>ATOM
  1 O       -0.0550    -0.3640     0.5520 O.3   1 <1>  -0.0190 
  2 N        0.3780     0.8580     0.5040 N.2   1 <1>  -0.4100 
  3 C        0.8840    -1.0600    -0.0430 C.2   1 <1>   0.2980 
  4 C        1.5090     0.8300    -0.0810 C.2   1 <1>   0.4300 
  5 N        1.8870    -0.3850    -0.4480 N.2   1 <1>  -0.5650 
  6 C        0.7060    -2.5720    -0.1570 C.3   1 <1>   0.2900 
  7 C        2.3890     2.0380    -0.3630 C.3   1 <1>  -0.0140 
  8 N       -0.0790    -3.0310    -1.3400 N.3   1 <1>  -0.8100 
  9 C        3.5620     2.3420     0.5200 C.3   1 <1>  -0.2000 
 10 C        2.3710     3.2530     0.5170 C.3   1 <1>  -0.2000 
 11 C       -1.4540    -2.5080    -1.3680 C.3   1 <1>   0.1100 
 12 C       -0.2400    -4.4920    -1.3140 C.3   1 <1>   0.1100 
 13 C       -2.2930    -3.4420    -0.4920 C.3   1 <1>   0.2000 
 14 C       -1.6340    -4.8040    -0.7390 C.3   1 <1>  -0.0800 
 15 O       -2.1760    -3.0900     0.8620 O.3   1 <1>  -0.5600 
 16 C       -1.5950    -5.7400     0.4830 C.3   1 <1>   0.0200 
 17 C       -2.9890    -2.0360     1.2750 C.3   1 <1>   0.0400 
 18 C       -0.9850    -7.0840     0.1320 C.2   1 <1>  -0.0400 
 19 O       -1.5320    -7.8350    -0.7860 O.3   1 <1>  -0.0190 
 20 C        0.0960    -7.7260     0.5990 C.2   1 <1>  -0.1500 
 21 N       -0.8720    -8.9430    -0.9620 N.2   1 <1>  -0.4100 
 22 C        0.1130    -8.9060    -0.1390 C.2   1 <1>   0.1080 
 23 C        1.1460   -10.0020     0.0000 C.3   1 <1>  -0.0590 
 24 H        0.2600    -2.9340     0.7520 H     1 <1>   0.0800 
 25 H        1.6890    -3.0020    -0.2250 H     1 <1>   0.0800 
 26 H        2.5160     2.1920    -1.4190 H     1 <1>   0.1000 
 27 H        3.7320     1.7110     1.3760 H     1 <1>   0.1000 
 28 H        4.4760     2.6700     0.0590 H     1 <1>   0.1000 
 29 H        2.4540     4.2210     0.0560 H     1 <1>   0.1000 
 30 H        1.7200     3.2570     1.3740 H     1 <1>   0.1000 
 31 H       -1.5230    -1.4780    -1.0750 H     1 <1>   0.0800 
 32 H       -1.8110    -2.5820    -2.3800 H     1 <1>   0.0800 
 33 H       -0.1840    -4.8620    -2.3240 H     1 <1>   0.0800 
 34 H        0.5470    -4.9620    -0.7480 H     1 <1>   0.0800 
 35 H       -3.3340    -3.4450    -0.7670 H     1 <1>   0.0800 
 36 H       -2.1890    -5.2960    -1.5180 H     1 <1>   0.0800 
 37 H       -2.5950    -5.8960     0.8480 H     1 <1>   0.0800 
 38 H       -1.0190    -5.2930     1.2740 H     1 <1>   0.0800 
 39 H       -2.8170    -1.8740     2.3240 H     1 <1>   0.0800 
 40 H       -4.0210    -2.2980     1.1150 H     1 <1>   0.0800 
 41 H       -2.7360    -1.1440     0.7300 H     1 <1>   0.0800 
 42 H        0.8000    -7.4330     1.3560 H     1 <1>   0.1500 
 43 H        1.1510   -10.3720     1.0090 H     1 <1>   0.0800 
 44 H        2.1190    -9.6190    -0.2440 H     1 <1>   0.0800 
 45 H        0.9130   -10.8120    -0.6670 H     1 <1>   0.0800 
@<TRIPOS>BOND
  1   1   2  1   
  2   1   3  1   
  3   2   4  2   
  4   3   5  2   
  5   3   6  1   
  6   4   5  1   
  7   4   7  1   
  8   6   8  1   
  9   6  24  1   
 10   6  25  1   
 11   7   9  1   
 12   7  10  1   
 13   7  26  1   
 14   8  11  1   
 15   8  12  1   
 16   9  10  1   
 17   9  27  1   
 18   9  28  1   
 19  10  29  1   
 20  10  30  1   
 21  11  13  1   
 22  11  31  1   
 23  11  32  1   
 24  12  14  1   
 25  12  33  1   
 26  12  34  1   
 27  13  14  1   
 28  13  15  1   
 29  13  35  1   
 30  14  16  1   
 31  14  36  1   
 32  15  17  1   
 33  16  18  1   
 34  16  37  1   
 35  16  38  1   
 36  17  39  1   
 37  17  40  1   
 38  17  41  1   
 39  18  19  1   
 40  18  20  2   
 41  19  21  1   
 42  20  22  1   
 43  20  42  1   
 44  21  22  2   
 45  22  23  1   
 46  23  43  1   
 47  23  44  1   
 48  23  45  1   
@<TRIPOS>SUBSTRUCTURE
  1 ****   6 GROUP 4 **** **** 0

# MOE 2024.06 (io_trps.svl 2023.06)
