@<TRIPOS>MOLECULE
NONAME
46 48 1 0 0 
SMALL
USER_CHARGES


@<TRIPOS>ATOM
  1 O       -5.0530     0.6860     1.1930 O.2   1 <1>  -0.5700 
  2 C       -3.8670     0.4320     1.1640 C.2   1 <1>   0.7800 
  3 O       -3.0110     1.4120     1.4590 O.3   1 <1>  -0.4300 
  4 N       -3.3910    -0.8130     0.8340 N.am  1 <1>  -0.6600 
  5 C       -1.6350     1.1750     1.6500 C.3   1 <1>   0.1200 
  6 C       -1.9470    -1.1180     0.7020 C.3   1 <1>   0.1400 
  7 C       -4.3210    -1.9420     0.5670 C.3   1 <1>   0.1400 
  8 C       -1.1450     0.1780     0.6020 C.3   1 <1>  -0.1600 
  9 C       -4.7730    -1.9210    -0.8960 C.3   1 <1>   0.1400 
 10 N       -5.5260    -3.1560    -1.2210 N.am  1 <1>  -0.7300 
 11 C       -4.9640    -4.3610    -1.4990 C.2   1 <1>   0.5690 
 12 O       -3.7670    -4.5270    -1.4790 O.2   1 <1>  -0.5700 
 13 C       -5.8740    -5.5350    -1.8440 C.3   1 <1>   0.2010 
 14 N       -6.7400    -5.9440    -0.6900 N.am  1 <1>  -0.4770 
 15 C       -6.4030    -7.0560     0.1140 C.ar  1 <1>   0.1170 
 16 C       -7.9240    -5.2860    -0.4810 C.2   1 <1>   0.5690 
 17 C       -7.4120    -7.6840     0.8530 C.ar  1 <1>   0.0820 
 18 C       -5.1080    -7.5570     0.2100 C.ar  1 <1>  -0.1500 
 19 O       -8.2260    -4.2850    -1.0920 O.2   1 <1>  -0.5700 
 20 C       -8.8730    -5.8200     0.5890 C.3   1 <1>   0.1810 
 21 O       -8.6870    -7.2090     0.8480 O.3   1 <1>  -0.3630 
 22 C       -7.1390    -8.8040     1.6160 C.ar  1 <1>  -0.1500 
 23 C       -4.8280    -8.6750     0.9810 C.ar  1 <1>  -0.1430 
 24 C       -5.8490    -9.3000     1.6780 C.ar  1 <1>  -0.1500 
 25 C       -3.4110    -9.2140     1.0690 C.3   1 <1>  -0.0970 
 26 H       -1.5020     0.7870     2.6450 H     1 <1>   0.0800 
 27 H       -1.1220     2.1170     1.5610 H     1 <1>   0.0800 
 28 H       -1.7770    -1.7220    -0.1740 H     1 <1>   0.0800 
 29 H       -1.6340    -1.6770     1.5680 H     1 <1>   0.0800 
 30 H       -5.1830    -1.8590     1.2070 H     1 <1>   0.0800 
 31 H       -3.8240    -2.8730     0.7810 H     1 <1>   0.0800 
 32 H       -0.1010    -0.0310     0.7520 H     1 <1>   0.0800 
 33 H       -1.2580     0.6030    -0.3800 H     1 <1>   0.0800 
 34 H       -3.9080    -1.8650    -1.5350 H     1 <1>   0.0800 
 35 H       -5.3950    -1.0610    -1.0740 H     1 <1>   0.0800 
 36 H       -6.5550    -3.0960    -1.1820 H     1 <1>   0.3700 
 37 H       -5.2770    -6.3650    -2.1710 H     1 <1>   0.0800 
 38 H       -6.4970    -5.2470    -2.6710 H     1 <1>   0.0800 
 39 H       -4.3020    -7.0730    -0.3110 H     1 <1>   0.1500 
 40 H       -9.8910    -5.6780     0.2780 H     1 <1>   0.0800 
 41 H       -8.7060    -5.2900     1.5080 H     1 <1>   0.0800 
 42 H       -7.9330    -9.2810     2.1610 H     1 <1>   0.1500 
 43 H       -5.6430   -10.1710     2.2760 H     1 <1>   0.1500 
 44 H       -2.8210    -8.8720     0.2380 H     1 <1>   0.0800 
 45 H       -3.4200   -10.2890     1.0590 H     1 <1>   0.0800 
 46 H       -2.9510    -8.8780     1.9810 H     1 <1>   0.0800 
@<TRIPOS>BOND
  1   1   2  2   
  2   2   3  1   
  3   2   4  am  
  4   3   5  1   
  5   4   6  1   
  6   4   7  1   
  7   5   8  1   
  8   5  26  1   
  9   5  27  1   
 10   6   8  1   
 11   6  28  1   
 12   6  29  1   
 13   7   9  1   
 14   7  30  1   
 15   7  31  1   
 16   8  32  1   
 17   8  33  1   
 18   9  10  1   
 19   9  34  1   
 20   9  35  1   
 21  10  11  am  
 22  10  36  1   
 23  11  12  2   
 24  11  13  1   
 25  13  14  1   
 26  13  37  1   
 27  13  38  1   
 28  14  15  1   
 29  14  16  am  
 30  15  17  ar  
 31  15  18  ar  
 32  16  19  2   
 33  16  20  1   
 34  17  21  1   
 35  17  22  ar  
 36  18  23  ar  
 37  18  39  1   
 38  20  21  1   
 39  20  40  1   
 40  20  41  1   
 41  22  24  ar  
 42  22  42  1   
 43  23  24  ar  
 44  23  25  1   
 45  24  43  1   
 46  25  44  1   
 47  25  45  1   
 48  25  46  1   
@<TRIPOS>SUBSTRUCTURE
  1 ****  11 GROUP 4 **** **** 0

# MOE 2024.06 (io_trps.svl 2023.06)
