@<TRIPOS>MOLECULE
NONAME
51 53 1 0 0 
SMALL
USER_CHARGES


@<TRIPOS>ATOM
  1 S        2.1530     2.7430     0.2850 S.o2  1 <1>   1.3330 
  2 O        1.4840     3.7960    -0.4430 O.2   1 <1>  -0.6500 
  3 O        2.7520     3.0410     1.5670 O.2   1 <1>  -0.6500 
  4 N        1.0500     1.4680     0.4950 N.am  1 <1>  -0.8490 
  5 C        3.4250     2.0410    -0.7670 C.3   1 <1>  -0.0550 
  6 C        0.3350     1.5550     1.7720 C.3   1 <1>   0.1160 
  7 C        0.0850     1.3470    -0.6040 C.3   1 <1>   0.1160 
  8 C        4.2690     0.9460    -0.0870 C.3   1 <1>  -0.0800 
  9 C        5.5000     0.5760    -0.8940 C.3   1 <1>   0.2890 
 10 C        3.5480    -0.3940     0.0930 C.3   1 <1>   0.1200 
 11 N        6.6460     1.4410    -0.5360 N.pl3 1 <1>  -0.8690 
 12 C        5.7130    -0.8780    -0.5060 C.3   1 <1>   0.1200 
 13 O        4.4330    -1.3930    -0.3150 O.3   1 <1>  -0.5600 
 14 C        6.8700     2.5840    -1.2520 C.ar  1 <1>   0.4100 
 15 N        6.6610     3.6820    -0.5610 N.ar  1 <1>  -0.6200 
 16 C        7.2710     2.5800    -2.5960 C.ar  1 <1>   0.1600 
 17 C        6.8750     4.8100    -1.2640 C.ar  1 <1>   0.3960 
 18 N        7.4750     3.6620    -3.3170 N.ar  1 <1>  -0.6200 
 19 C        6.6980     6.1300    -0.6560 C.2   1 <1>   0.5440 
 20 C        7.2740     4.7650    -2.6040 C.ar  1 <1>   0.1600 
 21 O        7.4230     7.0460    -1.0110 O.2   1 <1>  -0.5700 
 22 N        5.7270     6.4200     0.2850 N.am  1 <1>  -0.6600 
 23 C        5.5800     7.7570     0.9010 C.3   1 <1>   0.1400 
 24 C        4.6360     5.5190     0.7180 C.3   1 <1>   0.1400 
 25 C        4.4710     7.5940     1.9350 C.3   1 <1>  -0.1600 
 26 C        3.6360     6.4220     1.4260 C.3   1 <1>  -0.1600 
 27 H        2.9830     1.6540    -1.6640 H     1 <1>   0.0800 
 28 H        4.0820     2.8370    -1.0550 H     1 <1>   0.0800 
 29 H       -0.3420     0.7250     1.8790 H     1 <1>   0.0800 
 30 H       -0.2220     2.4760     1.8290 H     1 <1>   0.0800 
 31 H        1.0350     1.5240     2.5910 H     1 <1>   0.0800 
 32 H       -0.5280     0.4720    -0.4630 H     1 <1>   0.0800 
 33 H        0.6000     1.2520    -1.5450 H     1 <1>   0.0800 
 34 H       -0.5510     2.2160    -0.6460 H     1 <1>   0.0800 
 35 H        4.5750     1.2830     0.8890 H     1 <1>   0.0800 
 36 H        5.2970     0.6250    -1.9510 H     1 <1>   0.0800 
 37 H        2.6670    -0.4700    -0.5210 H     1 <1>   0.0800 
 38 H        3.2840    -0.5650     1.1230 H     1 <1>   0.0800 
 39 H        6.6470     1.6580     0.4660 H     1 <1>   0.4000 
 40 H        6.2450    -0.9590     0.4260 H     1 <1>   0.0800 
 41 H        6.2090    -1.4400    -1.2770 H     1 <1>   0.0800 
 42 H        7.4260     1.6270    -3.0670 H     1 <1>   0.1500 
 43 H        7.4340     5.7010    -3.1110 H     1 <1>   0.1500 
 44 H        6.5050     8.0720     1.3530 H     1 <1>   0.0800 
 45 H        5.2900     8.4630     0.1410 H     1 <1>   0.0800 
 46 H        4.1840     5.0260    -0.1240 H     1 <1>   0.0800 
 47 H        5.0290     4.7870     1.4050 H     1 <1>   0.0800 
 48 H        4.9130     7.3410     2.8830 H     1 <1>   0.0800 
 49 H        3.8920     8.4930     2.0460 H     1 <1>   0.0800 
 50 H        2.9110     6.7670     0.7100 H     1 <1>   0.0800 
 51 H        3.1250     5.9020     2.2170 H     1 <1>   0.0800 
@<TRIPOS>BOND
  1   1   2  2   
  2   1   3  2   
  3   1   4  am  
  4   1   5  1   
  5   4   6  1   
  6   4   7  1   
  7   5   8  1   
  8   5  27  1   
  9   5  28  1   
 10   6  29  1   
 11   6  30  1   
 12   6  31  1   
 13   7  32  1   
 14   7  33  1   
 15   7  34  1   
 16   8   9  1   
 17   8  10  1   
 18   8  35  1   
 19   9  11  1   
 20   9  12  1   
 21   9  36  1   
 22  10  13  1   
 23  10  37  1   
 24  10  38  1   
 25  11  14  1   
 26  11  39  1   
 27  12  13  1   
 28  12  40  1   
 29  12  41  1   
 30  14  15  ar  
 31  14  16  ar  
 32  15  17  ar  
 33  16  18  ar  
 34  16  42  1   
 35  17  19  1   
 36  17  20  ar  
 37  18  20  ar  
 38  19  21  2   
 39  19  22  am  
 40  20  43  1   
 41  22  23  1   
 42  22  24  1   
 43  23  25  1   
 44  23  44  1   
 45  23  45  1   
 46  24  26  1   
 47  24  46  1   
 48  24  47  1   
 49  25  26  1   
 50  25  48  1   
 51  25  49  1   
 52  26  50  1   
 53  26  51  1   
@<TRIPOS>SUBSTRUCTURE
  1 ****   5 GROUP 4 **** **** 0

# MOE 2024.06 (io_trps.svl 2023.06)
