@<TRIPOS>MOLECULE
NONAME
59 61 1 0 0 
SMALL
USER_CHARGES


@<TRIPOS>ATOM
  1 O       -0.4560     0.6150     0.4510 O.2   1 <1>  -0.5700 
  2 C       -0.4330     1.8240     0.4560 C.2   1 <1>   0.5690 
  3 N       -1.4320     2.5740     1.0150 N.am  1 <1>  -0.6600 
  4 C        0.7500     2.5210    -0.2230 C.3   1 <1>   0.1810 
  5 C       -1.3850     4.0710     0.9860 C.3   1 <1>   0.3640 
  6 C       -2.5300     1.9680     1.8230 C.3   1 <1>   0.0600 
  7 O        0.9300     3.8550     0.1910 O.3   1 <1>  -0.5600 
  8 C       -2.7310     4.6720     0.5420 C.ar  1 <1>  -0.1430 
  9 C       -0.2400     4.6470     0.1140 C.3   1 <1>   0.2610 
 10 C       -3.4450     4.2840    -0.5980 C.ar  1 <1>  -0.1430 
 11 C       -3.2490     5.6820     1.3440 C.ar  1 <1>  -0.1500 
 12 C        0.0710     6.1110     0.4800 C.2   1 <1>   0.5690 
 13 C       -4.6460     4.9140    -0.8950 C.ar  1 <1>  -0.1500 
 14 C       -2.9980     3.1780    -1.5490 C.3   1 <1>  -0.0960 
 15 C       -4.4450     6.3020     1.0370 C.ar  1 <1>  -0.1500 
 16 O       -0.1360     6.4890     1.6140 O.2   1 <1>  -0.5700 
 17 N        0.5730     6.9900    -0.4610 N.am  1 <1>  -0.6600 
 18 C       -5.1460     5.9170    -0.0880 C.ar  1 <1>  -0.1500 
 19 C        0.6940     8.4320    -0.1090 C.3   1 <1>   0.2200 
 20 C        1.1270     6.5350    -1.7760 C.3   1 <1>   0.0600 
 21 C        0.3060     9.3600    -1.2610 C.3   1 <1>  -0.1600 
 22 C        2.1080     8.7350     0.3840 C.3   1 <1>  -0.1600 
 23 C        0.4310    10.8140    -0.8110 C.3   1 <1>   0.3430 
 24 C        2.2100    10.1970     0.8030 C.3   1 <1>   0.3430 
 25 N        1.8230    11.0870    -0.3390 N.4   1 <1>  -0.9590 
 26 C        1.9760    12.5260     0.0030 C.3   1 <1>   0.3430 
 27 C        3.4560    12.8870     0.0580 C.3   1 <1>  -0.2400 
 28 H        0.6080     2.5100    -1.2870 H     1 <1>   0.0800 
 29 H        1.6520     1.9850     0.0100 H     1 <1>   0.0800 
 30 H       -1.2010     4.3740     2.0020 H     1 <1>   0.0800 
 31 H       -3.4840     2.1940     1.3780 H     1 <1>   0.0800 
 32 H       -2.5070     2.3620     2.8230 H     1 <1>   0.0800 
 33 H       -2.4210     0.8980     1.8730 H     1 <1>   0.0800 
 34 H       -0.5610     4.6400    -0.9080 H     1 <1>   0.0800 
 35 H       -2.7200     6.0020     2.2260 H     1 <1>   0.1500 
 36 H       -5.2100     4.6230    -1.7640 H     1 <1>   0.1500 
 37 H       -3.5370     3.2290    -2.4780 H     1 <1>   0.0800 
 38 H       -3.1910     2.2170    -1.1080 H     1 <1>   0.0800 
 39 H       -1.9540     3.2470    -1.7780 H     1 <1>   0.0800 
 40 H       -4.8300     7.0800     1.6720 H     1 <1>   0.1500 
 41 H       -6.0790     6.3940    -0.3330 H     1 <1>   0.1500 
 42 H        0.0130     8.6420     0.7010 H     1 <1>   0.0800 
 43 H        2.0000     7.1060    -2.0340 H     1 <1>   0.0800 
 44 H        0.3850     6.6570    -2.5460 H     1 <1>   0.0800 
 45 H        1.4200     5.5010    -1.7330 H     1 <1>   0.0800 
 46 H        0.9300     9.2060    -2.1210 H     1 <1>   0.0800 
 47 H       -0.7150     9.1670    -1.5410 H     1 <1>   0.0800 
 48 H        2.3220     8.1160     1.2380 H     1 <1>   0.0800 
 49 H        2.8370     8.5230    -0.3760 H     1 <1>   0.0800 
 50 H       -0.2690    11.0020    -0.0120 H     1 <1>   0.0800 
 51 H        0.1850    11.4650    -1.6350 H     1 <1>   0.0800 
 52 H        3.2220    10.4060     1.1130 H     1 <1>   0.0800 
 53 H        1.5570    10.3750     1.6420 H     1 <1>   0.0800 
 54 H        2.4620    10.8870    -1.1200 H     1 <1>   0.4500 
 55 H        1.5010    13.1310    -0.7520 H     1 <1>   0.0800 
 56 H        1.5050    12.7380     0.9500 H     1 <1>   0.0800 
 57 H        3.9420    12.6630    -0.8750 H     1 <1>   0.0800 
 58 H        3.9590    12.3810     0.8620 H     1 <1>   0.0800 
 59 H        3.5510    13.9450     0.2330 H     1 <1>   0.0800 
@<TRIPOS>BOND
  1   1   2  2   
  2   2   3  am  
  3   2   4  1   
  4   3   5  1   
  5   3   6  1   
  6   4   7  1   
  7   4  28  1   
  8   4  29  1   
  9   5   8  1   
 10   5   9  1   
 11   5  30  1   
 12   6  31  1   
 13   6  32  1   
 14   6  33  1   
 15   7   9  1   
 16   8  10  ar  
 17   8  11  ar  
 18   9  12  1   
 19   9  34  1   
 20  10  13  ar  
 21  10  14  1   
 22  11  15  ar  
 23  11  35  1   
 24  12  16  2   
 25  12  17  am  
 26  13  18  ar  
 27  13  36  1   
 28  14  37  1   
 29  14  38  1   
 30  14  39  1   
 31  15  18  ar  
 32  15  40  1   
 33  17  19  1   
 34  17  20  1   
 35  18  41  1   
 36  19  21  1   
 37  19  22  1   
 38  19  42  1   
 39  20  43  1   
 40  20  44  1   
 41  20  45  1   
 42  21  23  1   
 43  21  46  1   
 44  21  47  1   
 45  22  24  1   
 46  22  48  1   
 47  22  49  1   
 48  23  25  1   
 49  23  50  1   
 50  23  51  1   
 51  24  25  1   
 52  24  52  1   
 53  24  53  1   
 54  25  26  1   
 55  25  54  1   
 56  26  27  1   
 57  26  55  1   
 58  26  56  1   
 59  27  57  1   
 60  27  58  1   
 61  27  59  1   
@<TRIPOS>SUBSTRUCTURE
  1 ****  12 GROUP 4 **** **** 0

# MOE 2024.06 (io_trps.svl 2023.06)
