@<TRIPOS>MOLECULE
NONAME
58 61 1 0 0 
SMALL
USER_CHARGES


@<TRIPOS>ATOM
  1 F       -0.6830    -2.7180    -3.5370 F     1 <1>  -0.1900 
  2 C       -0.1850    -2.9970    -2.3590 C.ar  1 <1>   0.1900 
  3 C        0.1370    -4.2980    -2.0650 C.ar  1 <1>  -0.1500 
  4 C       -0.0140    -1.9450    -1.4570 C.ar  1 <1>  -0.1500 
  5 C        0.6480    -4.5790    -0.7920 C.ar  1 <1>   0.0000 
  6 C        0.5010    -2.2130    -0.2100 C.ar  1 <1>  -0.1500 
  7 C        0.8310    -3.5350     0.1130 C.ar  1 <1>  -0.1520 
  8 C        1.0470    -5.7610    -0.1230 C.2   1 <1>  -0.1810 
  9 N        1.3490    -4.0570     1.2700 N.pl3 1 <1>   0.0330 
 10 C        1.4720    -5.4090     1.1160 C.2   1 <1>  -0.3320 
 11 C        0.9780    -7.1640    -0.7230 C.3   1 <1>   0.0820 
 12 C        2.0090    -6.2840     2.2360 C.3   1 <1>  -0.0600 
 13 C        0.0750    -8.1340     0.0430 C.2   1 <1>   0.5690 
 14 O        0.6150    -9.1170     0.4980 O.2   1 <1>  -0.5700 
 15 N       -1.2850    -7.9350     0.1920 N.am  1 <1>  -0.6600 
 16 C       -1.9950    -6.7510    -0.3760 C.3   1 <1>   0.2200 
 17 C       -2.0930    -8.9230     0.9740 C.3   1 <1>   0.0600 
 18 C       -2.3440    -5.7070     0.6740 C.3   1 <1>  -0.1600 
 19 C       -3.3370    -7.0400    -1.0420 C.3   1 <1>  -0.1600 
 20 C       -3.3420    -4.7900    -0.0460 C.3   1 <1>  -0.0800 
 21 C       -4.0030    -5.6570    -1.1320 C.3   1 <1>  -0.0800 
 22 C       -4.4670    -4.2740     0.8560 C.3   1 <1>  -0.1600 
 23 C       -5.5080    -5.6640    -0.8290 C.3   1 <1>  -0.1600 
 24 C       -5.6090    -5.2660     0.6410 C.3   1 <1>   0.4230 
 25 N       -6.9620    -4.7510     1.0170 N.4   1 <1>  -0.9590 
 26 C       -7.3790    -3.4820     0.3320 C.3   1 <1>   0.2630 
 27 C       -7.0690    -4.5890     2.5000 C.3   1 <1>   0.2630 
 28 H        0.0020    -5.0780    -2.7890 H     1 <1>   0.1500 
 29 H       -0.2830    -0.9470    -1.7540 H     1 <1>   0.1500 
 30 H        0.6530    -1.4280     0.5100 H     1 <1>   0.1500 
 31 H        1.6010    -3.5170     2.1030 H     1 <1>   0.2700 
 32 H        1.9740    -7.5670    -0.7360 H     1 <1>   0.0800 
 33 H        0.6470    -7.1220    -1.7420 H     1 <1>   0.0800 
 34 H        2.1010    -7.3060     1.9140 H     1 <1>   0.0800 
 35 H        1.3430    -6.2550     3.0800 H     1 <1>   0.0800 
 36 H        2.9800    -5.9410     2.5420 H     1 <1>   0.0800 
 37 H       -1.3820    -6.2850    -1.1230 H     1 <1>   0.0800 
 38 H       -2.8010    -8.4190     1.6040 H     1 <1>   0.0800 
 39 H       -1.4580    -9.5230     1.6030 H     1 <1>   0.0800 
 40 H       -2.6150    -9.5770     0.2980 H     1 <1>   0.0800 
 41 H       -2.8020    -6.1800     1.5230 H     1 <1>   0.0800 
 42 H       -1.4760    -5.1640     0.9990 H     1 <1>   0.0800 
 43 H       -3.2020    -7.4790    -2.0150 H     1 <1>   0.0800 
 44 H       -3.9300    -7.6950    -0.4310 H     1 <1>   0.0800 
 45 H       -2.8040    -3.9710    -0.4990 H     1 <1>   0.0800 
 46 H       -3.8130    -5.2320    -2.1050 H     1 <1>   0.0800 
 47 H       -4.7340    -3.2910     0.5140 H     1 <1>   0.0800 
 48 H       -4.1600    -4.2220     1.8850 H     1 <1>   0.0800 
 49 H       -5.9510    -6.6260    -1.0170 H     1 <1>   0.0800 
 50 H       -5.9730    -4.9320    -1.4620 H     1 <1>   0.0800 
 51 H       -5.3890    -6.1460     1.2260 H     1 <1>   0.0800 
 52 H       -7.6310    -5.4830     0.7360 H     1 <1>   0.4500 
 53 H       -6.7270    -2.6700     0.6090 H     1 <1>   0.0800 
 54 H       -8.3860    -3.2200     0.6150 H     1 <1>   0.0800 
 55 H       -7.3490    -3.5990    -0.7390 H     1 <1>   0.0800 
 56 H       -6.3890    -3.8260     2.8430 H     1 <1>   0.0800 
 57 H       -6.8260    -5.5150     2.9970 H     1 <1>   0.0800 
 58 H       -8.0720    -4.3060     2.7750 H     1 <1>   0.0800 
@<TRIPOS>BOND
  1   1   2  1   
  2   2   3  ar  
  3   2   4  ar  
  4   3   5  ar  
  5   3  28  1   
  6   4   6  ar  
  7   4  29  1   
  8   5   7  ar  
  9   5   8  1   
 10   6   7  ar  
 11   6  30  1   
 12   7   9  1   
 13   8  10  2   
 14   8  11  1   
 15   9  10  1   
 16   9  31  1   
 17  10  12  1   
 18  11  13  1   
 19  11  32  1   
 20  11  33  1   
 21  12  34  1   
 22  12  35  1   
 23  12  36  1   
 24  13  14  2   
 25  13  15  am  
 26  15  16  1   
 27  15  17  1   
 28  16  18  1   
 29  16  19  1   
 30  16  37  1   
 31  17  38  1   
 32  17  39  1   
 33  17  40  1   
 34  18  20  1   
 35  18  41  1   
 36  18  42  1   
 37  19  21  1   
 38  19  43  1   
 39  19  44  1   
 40  20  21  1   
 41  20  22  1   
 42  20  45  1   
 43  21  23  1   
 44  21  46  1   
 45  22  24  1   
 46  22  47  1   
 47  22  48  1   
 48  23  24  1   
 49  23  49  1   
 50  23  50  1   
 51  24  25  1   
 52  24  51  1   
 53  25  26  1   
 54  25  27  1   
 55  25  52  1   
 56  26  53  1   
 57  26  54  1   
 58  26  55  1   
 59  27  56  1   
 60  27  57  1   
 61  27  58  1   
@<TRIPOS>SUBSTRUCTURE
  1 ****  18 GROUP 4 **** **** 0

# MOE 2024.06 (io_trps.svl 2023.06)
