@<TRIPOS>MOLECULE
NONAME
46 48 1 0 0 
SMALL
USER_CHARGES


@<TRIPOS>ATOM
  1 O        0.3040    -0.5620    -0.4830 O.3   1 <1>  -0.5600 
  2 C        1.5570    -1.0700    -0.8790 C.3   1 <1>   0.2000 
  3 C        0.0930     0.7940    -0.7380 C.3   1 <1>   0.1200 
  4 C        2.7200    -0.2500    -0.2560 C.3   1 <1>   0.5660 
  5 C        1.6440    -2.5400    -0.4380 C.3   1 <1>   0.1200 
  6 C        1.1440     1.6400     0.0020 C.3   1 <1>   0.3430 
  7 N        2.5420     1.2390    -0.3780 N.4   1 <1>  -0.9590 
  8 C        4.0540    -0.6210    -0.8920 C.ar  1 <1>  -0.1440 
  9 O        1.8580    -2.6170     0.9370 O.3   1 <1>  -0.6800 
 10 C        3.5930     1.9550     0.3990 C.3   1 <1>   0.3430 
 11 C        5.0060    -1.2730    -0.1220 C.ar  1 <1>  -0.1500 
 12 C        4.3440    -0.3170    -2.2180 C.ar  1 <1>  -0.1500 
 13 C        3.5890     3.4370     0.0380 C.3   1 <1>  -0.1600 
 14 C        6.2350    -1.6050    -0.6620 C.ar  1 <1>  -0.1500 
 15 C        5.5750    -0.6500    -2.7560 C.ar  1 <1>  -0.1500 
 16 C        4.8330     4.1540     0.5920 C.3   1 <1>   0.0960 
 17 C        6.5210    -1.2920    -1.9780 C.ar  1 <1>  -0.1500 
 18 N        4.8150     5.5820     0.2190 N.pl3 1 <1>   0.3140 
 19 N        4.5780     5.9820    -1.0430 N.2   1 <1>  -0.7070 
 20 C        5.0160     6.6350     1.0360 C.2   1 <1>  -0.3020 
 21 C        4.6390     7.2790    -0.9990 C.2   1 <1>   0.1390 
 22 C        4.9100     7.7470     0.2800 C.2   1 <1>  -0.1500 
 23 H        1.5980    -1.0260    -1.9520 H     1 <1>   0.0800 
 24 H        0.1300     0.9620    -1.8010 H     1 <1>   0.0800 
 25 H       -0.8930     1.0410    -0.3860 H     1 <1>   0.0800 
 26 H        2.7610    -0.5040     0.7900 H     1 <1>   0.0800 
 27 H        2.4670    -3.0350    -0.9270 H     1 <1>   0.0800 
 28 H        0.7290    -3.0550    -0.6780 H     1 <1>   0.0800 
 29 H        1.0000     1.5070     1.0620 H     1 <1>   0.0800 
 30 H        0.9830     2.6800    -0.2270 H     1 <1>   0.0800 
 31 H        2.6910     1.4540    -1.3690 H     1 <1>   0.4500 
 32 H        1.6740    -3.5240     1.2630 H     1 <1>   0.4000 
 33 H        3.4300     1.8270     1.4580 H     1 <1>   0.0800 
 34 H        4.5610     1.5440     0.1560 H     1 <1>   0.0800 
 35 H        4.8020    -1.5350     0.9040 H     1 <1>   0.1500 
 36 H        3.6290     0.1740    -2.8550 H     1 <1>   0.1500 
 37 H        2.7130     3.9160     0.4350 H     1 <1>   0.0800 
 38 H        3.5930     3.5350    -1.0350 H     1 <1>   0.0800 
 39 H        6.9730    -2.1110    -0.0610 H     1 <1>   0.1500 
 40 H        5.8020    -0.4150    -3.7820 H     1 <1>   0.1500 
 41 H        5.7290     3.7220     0.1840 H     1 <1>   0.0800 
 42 H        4.8670     4.0820     1.6640 H     1 <1>   0.0800 
 43 H        7.4780    -1.5520    -2.3980 H     1 <1>   0.1500 
 44 H        5.2220     6.5430     2.0870 H     1 <1>   0.1500 
 45 H        4.4960     7.9110    -1.8610 H     1 <1>   0.1500 
 46 H        5.0080     8.7780     0.5700 H     1 <1>   0.1500 
@<TRIPOS>BOND
  1   1   2  1   
  2   1   3  1   
  3   2   4  1   
  4   2   5  1   
  5   2  23  1   
  6   3   6  1   
  7   3  24  1   
  8   3  25  1   
  9   4   7  1   
 10   4   8  1   
 11   4  26  1   
 12   5   9  1   
 13   5  27  1   
 14   5  28  1   
 15   6   7  1   
 16   6  29  1   
 17   6  30  1   
 18   7  10  1   
 19   7  31  1   
 20   8  11  ar  
 21   8  12  ar  
 22   9  32  1   
 23  10  13  1   
 24  10  33  1   
 25  10  34  1   
 26  11  14  ar  
 27  11  35  1   
 28  12  15  ar  
 29  12  36  1   
 30  13  16  1   
 31  13  37  1   
 32  13  38  1   
 33  14  17  ar  
 34  14  39  1   
 35  15  17  ar  
 36  15  40  1   
 37  16  18  1   
 38  16  41  1   
 39  16  42  1   
 40  17  43  1   
 41  18  19  1   
 42  18  20  1   
 43  19  21  2   
 44  20  22  2   
 45  20  44  1   
 46  21  22  1   
 47  21  45  1   
 48  22  46  1   
@<TRIPOS>SUBSTRUCTURE
  1 ****  10 GROUP 4 **** **** 0

# MOE 2024.06 (io_trps.svl 2023.06)
