@<TRIPOS>MOLECULE
NONAME
44 46 1 0 0 
SMALL
USER_CHARGES


@<TRIPOS>ATOM
  1 O        0.0490    -0.2000     1.4680 O.2   1 <1>  -0.5700 
  2 C        1.0960    -0.6000     1.0010 C.2   1 <1>   0.5440 
  3 N        2.1570     0.2500     0.7970 N.am  1 <1>  -0.4940 
  4 C        1.2420    -1.9930     0.6550 C.ar  1 <1>   0.0860 
  5 C        2.2700     1.6420     1.0400 C.2   1 <1>  -0.0880 
  6 C        0.4720    -2.6060    -0.3460 C.ar  1 <1>  -0.0230 
  7 C        2.1860    -2.7680     1.3300 C.ar  1 <1>  -0.1500 
  8 N        3.3760     2.4040     0.7900 N.pl3 1 <1>   0.3140 
  9 C        1.3450     2.4880     1.5520 C.2   1 <1>  -0.1500 
 10 N       -0.4930    -1.8830    -1.0940 N.pl3 1 <1>   0.3260 
 11 C        0.6670    -3.9540    -0.6360 C.ar  1 <1>  -0.1500 
 12 C        2.3730    -4.1030     1.0300 C.ar  1 <1>  -0.1500 
 13 N        3.1680     3.6980     1.1320 N.2   1 <1>  -0.7070 
 14 C        4.6880     1.9970     0.2090 C.3   1 <1>   0.1760 
 15 C        1.9560     3.7320     1.5830 C.2   1 <1>   0.1080 
 16 C       -0.5410    -1.7220    -2.4250 C.2   1 <1>   0.0370 
 17 C       -1.6520    -1.3190    -0.7210 C.2   1 <1>   0.0370 
 18 C        1.6100    -4.6980     0.0440 C.ar  1 <1>  -0.1500 
 19 C        4.5130     1.5150    -1.2470 C.3   1 <1>  -0.1600 
 20 C        5.3970     0.9700     1.1110 C.3   1 <1>  -0.2400 
 21 C        1.3120     5.0060     2.0780 C.3   1 <1>  -0.0590 
 22 N       -1.6120    -1.1270    -2.8170 N.2   1 <1>  -0.3380 
 23 N       -2.3270    -0.8680    -1.7200 N.2   1 <1>  -0.3380 
 24 C        5.8450     1.2850    -1.9750 C.3   1 <1>  -0.2400 
 25 H        2.9860    -0.1900     0.4020 H     1 <1>   0.3700 
 26 H        2.7760    -2.3170     2.1110 H     1 <1>   0.1500 
 27 H        0.3430     2.2650     1.8710 H     1 <1>   0.1500 
 28 H        0.0740    -4.4320    -1.3990 H     1 <1>   0.1500 
 29 H        3.1070    -4.6830     1.5660 H     1 <1>   0.1500 
 30 H        5.2950     2.8860     0.1890 H     1 <1>   0.0800 
 31 H        0.2400    -2.0680    -3.0740 H     1 <1>   0.1500 
 32 H       -1.9580    -1.2620     0.3080 H     1 <1>   0.1500 
 33 H        1.7510    -5.7410    -0.1900 H     1 <1>   0.1500 
 34 H        3.9630     2.2690    -1.7850 H     1 <1>   0.0800 
 35 H        3.9410     0.6060    -1.2760 H     1 <1>   0.0800 
 36 H        4.9060     0.0160     1.0840 H     1 <1>   0.0800 
 37 H        5.4140     1.3310     2.1250 H     1 <1>   0.0800 
 38 H        6.4150     0.8390     0.7930 H     1 <1>   0.0800 
 39 H        0.3110     4.8130     2.4150 H     1 <1>   0.0800 
 40 H        1.2850     5.7250     1.2800 H     1 <1>   0.0800 
 41 H        1.8900     5.4060     2.8900 H     1 <1>   0.0800 
 42 H        6.4510     2.1740    -1.9410 H     1 <1>   0.0800 
 43 H        5.6600     1.0450    -3.0080 H     1 <1>   0.0800 
 44 H        6.3950     0.4720    -1.5360 H     1 <1>   0.0800 
@<TRIPOS>BOND
  1   1   2  2   
  2   2   3  am  
  3   2   4  1   
  4   3   5  1   
  5   3  25  1   
  6   4   6  ar  
  7   4   7  ar  
  8   5   8  1   
  9   5   9  2   
 10   6  10  1   
 11   6  11  ar  
 12   7  12  ar  
 13   7  26  1   
 14   8  13  1   
 15   8  14  1   
 16   9  15  1   
 17   9  27  1   
 18  10  16  1   
 19  10  17  1   
 20  11  18  ar  
 21  11  28  1   
 22  12  18  ar  
 23  12  29  1   
 24  13  15  2   
 25  14  19  1   
 26  14  20  1   
 27  14  30  1   
 28  15  21  1   
 29  16  22  2   
 30  16  31  1   
 31  17  23  2   
 32  17  32  1   
 33  18  33  1   
 34  19  24  1   
 35  19  34  1   
 36  19  35  1   
 37  20  36  1   
 38  20  37  1   
 39  20  38  1   
 40  21  39  1   
 41  21  40  1   
 42  21  41  1   
 43  22  23  1   
 44  24  42  1   
 45  24  43  1   
 46  24  44  1   
@<TRIPOS>SUBSTRUCTURE
  1 ****   3 GROUP 4 **** **** 0

# MOE 2024.06 (io_trps.svl 2023.06)
