@<TRIPOS>MOLECULE
NONAME
49 51 1 0 0 
SMALL
USER_CHARGES


@<TRIPOS>ATOM
  1 O       -0.3540     0.2980    -0.4580 O.2   1 <1>  -0.5700 
  2 C       -1.4180     0.8440    -0.2870 C.2   1 <1>   0.5690 
  3 N       -2.5690     0.1210    -0.1430 N.am  1 <1>  -0.6600 
  4 C       -1.4830     2.3670    -0.2450 C.3   1 <1>  -0.0990 
  5 C       -3.9480     0.6560    -0.0210 C.3   1 <1>   0.1400 
  6 C       -2.5810    -1.3620    -0.1610 C.3   1 <1>   0.1400 
  7 C       -0.1110     3.0600    -0.1430 C.3   1 <1>  -0.1600 
  8 C       -4.8540    -0.5600    -0.2040 C.3   1 <1>   0.2000 
  9 C       -4.0090    -1.7590     0.2190 C.3   1 <1>  -0.0800 
 10 C       -0.2480     4.5870    -0.0940 C.3   1 <1>  -0.0160 
 11 O       -5.9920    -0.4700     0.5800 O.3   1 <1>  -0.6800 
 12 C       -4.4690    -3.0800    -0.4130 C.3   1 <1>   0.0210 
 13 C        1.1160     5.2480     0.0130 C.ar  1 <1>  -0.1440 
 14 C       -3.5400    -4.2150    -0.0310 C.2   1 <1>   0.1080 
 15 C        1.8300     5.5690    -1.1310 C.ar  1 <1>  -0.1500 
 16 C        1.6610     5.5360     1.2550 C.ar  1 <1>  -0.1500 
 17 N       -3.3770    -4.6070     1.1940 N.2   1 <1>  -0.7070 
 18 C       -2.7610    -4.9440    -0.9240 C.2   1 <1>  -0.1500 
 19 C        3.0720     6.1750    -1.0360 C.ar  1 <1>  -0.1500 
 20 C        2.9020     6.1410     1.3530 C.ar  1 <1>  -0.1500 
 21 N       -2.4800    -5.6080     1.1150 N.pl3 1 <1>   0.3000 
 22 C       -2.0910    -5.8300    -0.1580 C.2   1 <1>  -0.3320 
 23 C        3.6080     6.4620     0.2070 C.ar  1 <1>  -0.1500 
 24 C       -1.0860    -6.8890    -0.5710 C.3   1 <1>  -0.0600 
 25 H       -1.9800     2.6990    -1.1380 H     1 <1>   0.0800 
 26 H       -2.0770     2.6550     0.6010 H     1 <1>   0.0800 
 27 H       -4.0750     1.0820     0.9580 H     1 <1>   0.0800 
 28 H       -4.1400     1.3920    -0.7820 H     1 <1>   0.0800 
 29 H       -2.3330    -1.7010    -1.1520 H     1 <1>   0.0800 
 30 H       -1.8640    -1.7610     0.5380 H     1 <1>   0.0800 
 31 H        0.3970     2.7180     0.7420 H     1 <1>   0.0800 
 32 H        0.4940     2.7860    -0.9910 H     1 <1>   0.0800 
 33 H       -5.1560    -0.6340    -1.2350 H     1 <1>   0.0800 
 34 H       -4.0310    -1.8570     1.2910 H     1 <1>   0.0800 
 35 H       -0.8500     4.8720     0.7510 H     1 <1>   0.0800 
 36 H       -0.7450     4.9380    -0.9820 H     1 <1>   0.0800 
 37 H       -5.7680    -0.6210     1.5190 H     1 <1>   0.4000 
 38 H       -4.5000    -2.9890    -1.4840 H     1 <1>   0.0800 
 39 H       -5.4600    -3.3170    -0.0690 H     1 <1>   0.0800 
 40 H        1.4230     5.3470    -2.1020 H     1 <1>   0.1500 
 41 H        1.1220     5.2880     2.1520 H     1 <1>   0.1500 
 42 H       -2.7200    -4.8080    -1.9900 H     1 <1>   0.1500 
 43 H        3.6190     6.4210    -1.9280 H     1 <1>   0.1500 
 44 H        3.3180     6.3610     2.3200 H     1 <1>   0.1500 
 45 H       -2.1540    -6.1160     1.9450 H     1 <1>   0.2700 
 46 H        4.5730     6.9320     0.2820 H     1 <1>   0.1500 
 47 H       -0.9440    -6.8690    -1.6370 H     1 <1>   0.0800 
 48 H       -1.4390    -7.8660    -0.2910 H     1 <1>   0.0800 
 49 H       -0.1380    -6.7080    -0.0960 H     1 <1>   0.0800 
@<TRIPOS>BOND
  1   1   2  2   
  2   2   3  am  
  3   2   4  1   
  4   3   5  1   
  5   3   6  1   
  6   4   7  1   
  7   4  25  1   
  8   4  26  1   
  9   5   8  1   
 10   5  27  1   
 11   5  28  1   
 12   6   9  1   
 13   6  29  1   
 14   6  30  1   
 15   7  10  1   
 16   7  31  1   
 17   7  32  1   
 18   8   9  1   
 19   8  11  1   
 20   8  33  1   
 21   9  12  1   
 22   9  34  1   
 23  10  13  1   
 24  10  35  1   
 25  10  36  1   
 26  11  37  1   
 27  12  14  1   
 28  12  38  1   
 29  12  39  1   
 30  13  15  ar  
 31  13  16  ar  
 32  14  17  2   
 33  14  18  1   
 34  15  19  ar  
 35  15  40  1   
 36  16  20  ar  
 37  16  41  1   
 38  17  21  1   
 39  18  22  2   
 40  18  42  1   
 41  19  23  ar  
 42  19  43  1   
 43  20  23  ar  
 44  20  44  1   
 45  21  22  1   
 46  21  45  1   
 47  22  24  1   
 48  23  46  1   
 49  24  47  1   
 50  24  48  1   
 51  24  49  1   
@<TRIPOS>SUBSTRUCTURE
  1 ****   2 GROUP 4 **** **** 0

# MOE 2024.06 (io_trps.svl 2023.06)
