@<TRIPOS>MOLECULE
NONAME
42 44 1 0 0 
SMALL
USER_CHARGES


@<TRIPOS>ATOM
  1 S       -1.4290    -0.5280    -0.6550 S.3   1 <1>  -0.3320 
  2 C       -0.8220    -2.2170    -0.5020 C.ar  1 <1>   0.1020 
  3 C       -0.0830     0.5890    -0.0620 C.3   1 <1>  -0.0100 
  4 C       -1.6550    -3.2290    -0.8890 C.ar  1 <1>  -0.1500 
  5 C        0.4550    -2.4950    -0.0050 C.ar  1 <1>  -0.1500 
  6 C       -1.2600    -4.5710    -0.7970 C.ar  1 <1>   0.3100 
  7 C        0.8670    -3.7980     0.0930 C.ar  1 <1>  -0.1500 
  8 N       -2.1480    -5.5150    -1.1890 N.ar  1 <1>  -0.6200 
  9 C        0.0320    -4.8690    -0.2950 C.ar  1 <1>   0.0000 
 10 C       -1.7770    -6.7520    -1.0800 C.ar  1 <1>   0.4100 
 11 C        0.4040    -6.2300    -0.2150 C.ar  1 <1>  -0.1430 
 12 N       -2.7100    -7.6660    -1.4510 N.pl3 1 <1>  -0.8690 
 13 C       -0.5130    -7.1530    -0.6130 C.ar  1 <1>  -0.1500 
 14 C        1.7750    -6.6590     0.2900 C.3   1 <1>  -0.0970 
 15 C       -3.2160    -8.6370    -0.4680 C.3   1 <1>   0.3900 
 16 C       -4.6280    -8.2410    -0.0830 C.2   1 <1>  -0.1810 
 17 C       -5.6870    -9.0900     0.2280 C.2   1 <1>   0.1080 
 18 C       -5.1460    -7.0000     0.0470 C.2   1 <1>  -0.3020 
 19 N       -6.7670    -8.4380     0.5230 N.2   1 <1>  -0.7070 
 20 C       -5.6390   -10.6010     0.2350 C.3   1 <1>  -0.0590 
 21 N       -6.4320    -7.1420     0.4100 N.pl3 1 <1>   0.3140 
 22 C       -7.3930    -6.0670     0.6740 C.3   1 <1>   0.0160 
 23 H       -0.4390     1.6000    -0.1510 H     1 <1>   0.0800 
 24 H        0.7780     0.4320    -0.6850 H     1 <1>   0.0800 
 25 H        0.1210     0.3470     0.9660 H     1 <1>   0.0800 
 26 H       -2.6340    -3.0140    -1.2730 H     1 <1>   0.1500 
 27 H        1.1080    -1.7010     0.2970 H     1 <1>   0.1500 
 28 H        1.8480    -4.0100     0.4740 H     1 <1>   0.1500 
 29 H       -3.5120    -7.1800    -1.8610 H     1 <1>   0.4000 
 30 H       -0.3040    -8.2050    -0.5940 H     1 <1>   0.1500 
 31 H        2.5440    -6.2370    -0.3310 H     1 <1>   0.0800 
 32 H        1.8730    -7.7290     0.2690 H     1 <1>   0.0800 
 33 H        1.9160    -6.3260     1.3030 H     1 <1>   0.0800 
 34 H       -2.5930    -8.6500     0.4100 H     1 <1>   0.0800 
 35 H       -3.2130    -9.6170    -0.9130 H     1 <1>   0.0800 
 36 H       -4.6720    -6.0440    -0.0930 H     1 <1>   0.1500 
 37 H       -4.8210   -10.9420     0.8400 H     1 <1>   0.0800 
 38 H       -5.5230   -10.9650    -0.7690 H     1 <1>   0.0800 
 39 H       -6.5550   -10.9910     0.6410 H     1 <1>   0.0800 
 40 H       -7.1550    -5.2180     0.0610 H     1 <1>   0.0800 
 41 H       -7.3390    -5.7990     1.7120 H     1 <1>   0.0800 
 42 H       -8.3810    -6.4180     0.4410 H     1 <1>   0.0800 
@<TRIPOS>BOND
  1   1   2  1   
  2   1   3  1   
  3   2   4  ar  
  4   2   5  ar  
  5   3  23  1   
  6   3  24  1   
  7   3  25  1   
  8   4   6  ar  
  9   4  26  1   
 10   5   7  ar  
 11   5  27  1   
 12   6   8  ar  
 13   6   9  ar  
 14   7   9  ar  
 15   7  28  1   
 16   8  10  ar  
 17   9  11  ar  
 18  10  12  1   
 19  10  13  ar  
 20  11  13  ar  
 21  11  14  1   
 22  12  15  1   
 23  12  29  1   
 24  13  30  1   
 25  14  31  1   
 26  14  32  1   
 27  14  33  1   
 28  15  16  1   
 29  15  34  1   
 30  15  35  1   
 31  16  17  1   
 32  16  18  2   
 33  17  19  2   
 34  17  20  1   
 35  18  21  1   
 36  18  36  1   
 37  19  21  1   
 38  20  37  1   
 39  20  38  1   
 40  20  39  1   
 41  21  22  1   
 42  22  40  1   
 43  22  41  1   
 44  22  42  1   
@<TRIPOS>SUBSTRUCTURE
  1 ****   8 GROUP 4 **** **** 0

# MOE 2024.06 (io_trps.svl 2023.06)
