@<TRIPOS>MOLECULE
NONAME
48 51 1 0 0 
SMALL
USER_CHARGES


@<TRIPOS>ATOM
  1 O        0.0830     0.4980    -0.0430 O.2   1 <1>  -0.5700 
  2 C        0.0710     1.7150    -0.0260 C.2   1 <1>   0.5440 
  3 N       -1.1410     2.3680    -0.1150 N.am  1 <1>  -0.6600 
  4 C        1.3250     2.4340     0.1010 C.ar  1 <1>   0.0860 
  5 C       -2.3710     1.6140    -0.5000 C.3   1 <1>   0.1400 
  6 C       -1.3220     3.7860     0.3210 C.3   1 <1>   0.1400 
  7 C        1.6620     3.4830    -0.7540 C.ar  1 <1>  -0.1500 
  8 C        2.2500     2.0910     1.0860 C.ar  1 <1>  -0.1500 
  9 C       -3.4140     2.5580    -1.1010 C.3   1 <1>  -0.1600 
 10 C       -2.7180     3.9740     0.9100 C.3   1 <1>  -0.1600 
 11 C        2.8560     4.1680    -0.6220 C.ar  1 <1>  -0.1500 
 12 C        3.4450     2.7720     1.2250 C.ar  1 <1>  -0.1500 
 13 C       -3.8020     3.7050    -0.1480 C.3   1 <1>   0.4180 
 14 C        3.7660     3.8230     0.3720 C.ar  1 <1>  -0.0230 
 15 O       -3.9170     4.8430    -0.9680 O.3   1 <1>  -0.5600 
 16 C       -5.1360     3.3880     0.5260 C.2   1 <1>  -0.2880 
 17 N        4.9910     4.5220     0.5090 N.pl3 1 <1>   0.3260 
 18 C       -4.7180     5.9020    -0.5160 C.3   1 <1>   0.1200 
 19 C       -6.2250     4.1540     0.4380 C.2   1 <1>  -0.2760 
 20 C        6.2330     4.0180     0.7380 C.2   1 <1>   0.0360 
 21 C        5.2030     5.8570     0.4480 C.2   1 <1>  -0.3020 
 22 C       -6.1740     5.4510    -0.3460 C.3   1 <1>  -0.0220 
 23 C       -7.5660     3.8230     1.0680 C.3   1 <1>  -0.1020 
 24 N        7.1720     4.9020     0.8240 N.2   1 <1>  -0.5650 
 25 C        6.5220     6.0670     0.6400 C.2   1 <1>   0.0770 
 26 H       -2.7700     1.1250     0.3720 H     1 <1>   0.0800 
 27 H       -2.1160     0.8540    -1.2210 H     1 <1>   0.0800 
 28 H       -1.1990     4.4390    -0.5270 H     1 <1>   0.0800 
 29 H       -0.5840     4.0400     1.0620 H     1 <1>   0.0800 
 30 H        0.9750     3.7550    -1.5370 H     1 <1>   0.1500 
 31 H        2.0160     1.2740     1.7470 H     1 <1>   0.1500 
 32 H       -4.2890     1.9960    -1.3680 H     1 <1>   0.0800 
 33 H       -3.0020     2.9610    -2.0090 H     1 <1>   0.0800 
 34 H       -2.8200     4.9610     1.3150 H     1 <1>   0.0800 
 35 H       -2.8310     3.2860     1.7280 H     1 <1>   0.0800 
 36 H        3.0840     4.9710    -1.3020 H     1 <1>   0.1500 
 37 H        4.1300     2.4810     2.0030 H     1 <1>   0.1500 
 38 H       -5.1110     2.4650     1.0770 H     1 <1>   0.1500 
 39 H       -4.6550     6.6940    -1.2410 H     1 <1>   0.0800 
 40 H       -4.3260     6.2580     0.4190 H     1 <1>   0.0800 
 41 H        6.3920     2.9590     0.8310 H     1 <1>   0.1500 
 42 H        4.4130     6.5630     0.2780 H     1 <1>   0.1500 
 43 H       -6.6290     5.3150    -1.3110 H     1 <1>   0.0800 
 44 H       -6.7110     6.2240     0.1740 H     1 <1>   0.0800 
 45 H       -7.8460     4.5870     1.7710 H     1 <1>   0.0800 
 46 H       -7.5160     2.8830     1.5880 H     1 <1>   0.0800 
 47 H       -8.3240     3.7520     0.3080 H     1 <1>   0.0800 
 48 H        7.0510     7.0070     0.6580 H     1 <1>   0.1500 
@<TRIPOS>BOND
  1   1   2  2   
  2   2   3  am  
  3   2   4  1   
  4   3   5  1   
  5   3   6  1   
  6   4   7  ar  
  7   4   8  ar  
  8   5   9  1   
  9   5  26  1   
 10   5  27  1   
 11   6  10  1   
 12   6  28  1   
 13   6  29  1   
 14   7  11  ar  
 15   7  30  1   
 16   8  12  ar  
 17   8  31  1   
 18   9  13  1   
 19   9  32  1   
 20   9  33  1   
 21  10  13  1   
 22  10  34  1   
 23  10  35  1   
 24  11  14  ar  
 25  11  36  1   
 26  12  14  ar  
 27  12  37  1   
 28  13  15  1   
 29  13  16  1   
 30  14  17  1   
 31  15  18  1   
 32  16  19  2   
 33  16  38  1   
 34  17  20  1   
 35  17  21  1   
 36  18  22  1   
 37  18  39  1   
 38  18  40  1   
 39  19  22  1   
 40  19  23  1   
 41  20  24  2   
 42  20  41  1   
 43  21  25  2   
 44  21  42  1   
 45  22  43  1   
 46  22  44  1   
 47  23  45  1   
 48  23  46  1   
 49  23  47  1   
 50  24  25  1   
 51  25  48  1   
@<TRIPOS>SUBSTRUCTURE
  1 ****   6 GROUP 4 **** **** 0

# MOE 2024.06 (io_trps.svl 2023.06)
