@<TRIPOS>MOLECULE
NONAME
46 47 1 0 0 
SMALL
USER_CHARGES


@<TRIPOS>ATOM
  1 O        2.8940    -0.9380    -2.4320 O.2   1 <1>  -0.5700 
  2 C        2.5480    -1.2560    -1.3170 C.2   1 <1>   0.5690 
  3 N        2.3250    -0.3130    -0.3410 N.am  1 <1>  -0.6600 
  4 C        2.4120    -2.7510    -1.0400 C.3   1 <1>   0.1810 
  5 C        2.4020     1.1400    -0.6630 C.3   1 <1>   0.3210 
  6 C        1.9590    -0.6180     1.0750 C.3   1 <1>   0.0600 
  7 O        1.0910    -3.0830    -0.6400 O.3   1 <1>  -0.3630 
  8 C        3.5250     1.7920     0.1210 C.2   1 <1>  -0.1810 
  9 C        0.7440    -4.3430    -0.3040 C.ar  1 <1>   0.0830 
 10 C        3.4800     2.6520     1.1520 C.2   1 <1>  -0.0400 
 11 C        4.8930     1.6140    -0.0870 C.2   1 <1>   0.1080 
 12 C        1.6100    -5.4310    -0.3610 C.ar  1 <1>  -0.1500 
 13 C       -0.5570    -4.5420     0.1240 C.ar  1 <1>  -0.1500 
 14 O        4.7080     2.9320     1.4960 O.3   1 <1>  -0.0190 
 15 C        2.3370     3.2910     1.9130 C.3   1 <1>  -0.0600 
 16 N        5.5750     2.3080     0.7530 N.2   1 <1>  -0.4100 
 17 C        5.5190     0.7330    -1.1470 C.3   1 <1>  -0.0590 
 18 C        1.1690    -6.6890     0.0070 C.ar  1 <1>  -0.1500 
 19 C       -0.9880    -5.8020     0.4890 C.ar  1 <1>  -0.1500 
 20 C       -0.1440    -6.9150     0.4380 C.ar  1 <1>   0.0860 
 21 C       -0.6390    -8.2190     0.8260 C.2   1 <1>   0.4230 
 22 O       -1.6430    -8.3570     1.4800 O.2   1 <1>  -0.5700 
 23 C        0.1220    -9.4780     0.4050 C.3   1 <1>  -0.0990 
 24 C       -0.7310   -10.7580     0.3830 C.3   1 <1>  -0.2400 
 25 H        3.0910    -3.0340    -0.2580 H     1 <1>   0.0800 
 26 H        2.6370    -3.3000    -1.9360 H     1 <1>   0.0800 
 27 H        1.4640     1.6020    -0.4130 H     1 <1>   0.0800 
 28 H        2.5670     1.2970    -1.7140 H     1 <1>   0.0800 
 29 H        1.9630    -1.6740     1.2700 H     1 <1>   0.0800 
 30 H        0.9740    -0.2370     1.2840 H     1 <1>   0.0800 
 31 H        2.6630    -0.1530     1.7440 H     1 <1>   0.0800 
 32 H        2.6260    -5.3170    -0.6880 H     1 <1>   0.1500 
 33 H       -1.2280    -3.7040     0.1690 H     1 <1>   0.1500 
 34 H        1.3910     2.9600     1.5290 H     1 <1>   0.0800 
 35 H        2.3970     4.3610     1.8230 H     1 <1>   0.0800 
 36 H        2.4040     3.0270     2.9530 H     1 <1>   0.0800 
 37 H        5.0550     0.9120    -2.0990 H     1 <1>   0.0800 
 38 H        5.3910    -0.2990    -0.8810 H     1 <1>   0.0800 
 39 H        6.5700     0.9450    -1.2280 H     1 <1>   0.0800 
 40 H        1.8670    -7.5040    -0.0390 H     1 <1>   0.1500 
 41 H       -2.0040    -5.9360     0.8220 H     1 <1>   0.1500 
 42 H        0.9430    -9.6190     1.0840 H     1 <1>   0.0800 
 43 H        0.5210    -9.3310    -0.5820 H     1 <1>   0.0800 
 44 H       -1.1090   -10.9700     1.3680 H     1 <1>   0.0800 
 45 H       -0.1420   -11.5950     0.0530 H     1 <1>   0.0800 
 46 H       -1.5670   -10.6360    -0.2840 H     1 <1>   0.0800 
@<TRIPOS>BOND
  1   1   2  2   
  2   2   3  am  
  3   2   4  1   
  4   3   5  1   
  5   3   6  1   
  6   4   7  1   
  7   4  25  1   
  8   4  26  1   
  9   5   8  1   
 10   5  27  1   
 11   5  28  1   
 12   6  29  1   
 13   6  30  1   
 14   6  31  1   
 15   7   9  1   
 16   8  10  2   
 17   8  11  1   
 18   9  12  ar  
 19   9  13  ar  
 20  10  14  1   
 21  10  15  1   
 22  11  16  2   
 23  11  17  1   
 24  12  18  ar  
 25  12  32  1   
 26  13  19  ar  
 27  13  33  1   
 28  14  16  1   
 29  15  34  1   
 30  15  35  1   
 31  15  36  1   
 32  17  37  1   
 33  17  38  1   
 34  17  39  1   
 35  18  20  ar  
 36  18  40  1   
 37  19  20  ar  
 38  19  41  1   
 39  20  21  1   
 40  21  22  2   
 41  21  23  1   
 42  23  24  1   
 43  23  42  1   
 44  23  43  1   
 45  24  44  1   
 46  24  45  1   
 47  24  46  1   
@<TRIPOS>SUBSTRUCTURE
  1 ****   7 GROUP 4 **** **** 0

# MOE 2024.06 (io_trps.svl 2023.06)
