@<TRIPOS>MOLECULE
NONAME
41 43 1 0 0 
SMALL
USER_CHARGES


@<TRIPOS>ATOM
  1 F        1.7120    -1.6330     1.9490 F     1 <1>  -0.1900 
  2 C        1.6480    -1.5770     0.6360 C.ar  1 <1>   0.1900 
  3 C        1.3640    -2.7300    -0.0890 C.ar  1 <1>   0.4100 
  4 C        1.8520    -0.3920    -0.0290 C.ar  1 <1>   0.1660 
  5 N        1.2870    -2.6820    -1.4070 N.ar  1 <1>  -0.6200 
  6 N        1.1390    -3.9470     0.5150 N.pl3 1 <1>  -0.8690 
  7 N        1.7750    -0.3460    -1.3510 N.ar  1 <1>  -0.6200 
  8 C        2.1700     0.9130     0.6900 C.3   1 <1>  -0.0170 
  9 C        1.4980    -1.4940    -1.9520 C.ar  1 <1>   0.4700 
 10 C        0.9380    -5.2440    -0.1810 C.3   1 <1>   0.2890 
 11 C        0.9280     1.8030     0.8160 C.3   1 <1>  -0.2400 
 12 C       -0.5230    -5.6650    -0.1480 C.3   1 <1>  -0.0800 
 13 C        1.5700    -6.3590     0.6440 C.3   1 <1>   0.1200 
 14 C       -0.6540    -6.3290     1.2260 C.3   1 <1>   0.1200 
 15 C       -1.5490    -4.5470    -0.4100 C.3   1 <1>  -0.0160 
 16 O        0.6370    -6.6790     1.6350 O.3   1 <1>  -0.5600 
 17 C       -2.9660    -5.1010    -0.4250 C.ar  1 <1>  -0.1430 
 18 C       -3.7980    -5.0120     0.6730 C.ar  1 <1>  -0.1500 
 19 C       -3.4900    -5.7230    -1.5390 C.ar  1 <1>  -0.1500 
 20 C       -5.0770    -5.5390     0.6060 C.ar  1 <1>   0.1600 
 21 C       -4.7840    -6.2160    -1.5020 C.ar  1 <1>   0.1600 
 22 N       -5.5900    -6.1400    -0.4550 N.ar  1 <1>  -0.6200 
 23 H        1.1730    -4.0110     1.5380 H     1 <1>   0.4000 
 24 H        2.5660     0.7140     1.6690 H     1 <1>   0.0800 
 25 H        2.9290     1.4370     0.1360 H     1 <1>   0.0800 
 26 H        1.4370    -1.4550    -3.0270 H     1 <1>   0.1500 
 27 H        1.3390    -5.2120    -1.1800 H     1 <1>   0.0800 
 28 H        0.1650     1.3000     1.3820 H     1 <1>   0.0800 
 29 H        0.5380     2.0340    -0.1610 H     1 <1>   0.0800 
 30 H        1.1790     2.7230     1.3130 H     1 <1>   0.0800 
 31 H       -0.6610    -6.4300    -0.8900 H     1 <1>   0.0800 
 32 H        2.4980    -6.0630     1.1000 H     1 <1>   0.0800 
 33 H        1.7190    -7.2370     0.0410 H     1 <1>   0.0800 
 34 H       -1.2650    -7.2150     1.1880 H     1 <1>   0.0800 
 35 H       -1.0490    -5.6450     1.9560 H     1 <1>   0.0800 
 36 H       -1.3370    -4.0840    -1.3580 H     1 <1>   0.0800 
 37 H       -1.4730    -3.7830     0.3440 H     1 <1>   0.0800 
 38 H       -3.4650    -4.5380     1.5780 H     1 <1>   0.1500 
 39 H       -2.9060    -5.8270    -2.4350 H     1 <1>   0.1500 
 40 H       -5.7120    -5.4610     1.4710 H     1 <1>   0.1500 
 41 H       -5.1780    -6.6980    -2.3810 H     1 <1>   0.1500 
@<TRIPOS>BOND
  1   1   2  1   
  2   2   3  ar  
  3   2   4  ar  
  4   3   5  ar  
  5   3   6  1   
  6   4   7  ar  
  7   4   8  1   
  8   5   9  ar  
  9   6  10  1   
 10   6  23  1   
 11   7   9  ar  
 12   8  11  1   
 13   8  24  1   
 14   8  25  1   
 15   9  26  1   
 16  10  12  1   
 17  10  13  1   
 18  10  27  1   
 19  11  28  1   
 20  11  29  1   
 21  11  30  1   
 22  12  14  1   
 23  12  15  1   
 24  12  31  1   
 25  13  16  1   
 26  13  32  1   
 27  13  33  1   
 28  14  16  1   
 29  14  34  1   
 30  14  35  1   
 31  15  17  1   
 32  15  36  1   
 33  15  37  1   
 34  17  18  ar  
 35  17  19  ar  
 36  18  20  ar  
 37  18  38  1   
 38  19  21  ar  
 39  19  39  1   
 40  20  22  ar  
 41  20  40  1   
 42  21  22  ar  
 43  21  41  1   
@<TRIPOS>SUBSTRUCTURE
  1 ****  15 GROUP 4 **** **** 0

# MOE 2024.06 (io_trps.svl 2023.06)
