@<TRIPOS>MOLECULE
NONAME
49 52 1 0 0 
SMALL
USER_CHARGES


@<TRIPOS>ATOM
  1 S        0.0100     0.4370     2.0060 S.3   1 <1>  -0.0800 
  2 C       -1.0570     1.2810     0.8940 C.2   1 <1>  -0.1400 
  3 C       -1.2910    -0.6470     2.4810 C.2   1 <1>  -0.1100 
  4 C       -2.2880     0.7550     0.9270 C.2   1 <1>  -0.1810 
  5 C       -0.5930     2.4500     0.0310 C.3   1 <1>   0.4600 
  6 C       -2.4300    -0.3500     1.8250 C.2   1 <1>  -0.1500 
  7 C       -3.3740     1.3430     0.0550 C.3   1 <1>   0.0210 
  8 O       -1.6410     2.7990    -0.8550 O.3   1 <1>  -0.5600 
  9 C       -0.2340     3.6730     0.8860 C.3   1 <1>  -0.1600 
 10 C        0.5960     2.0460    -0.8460 C.3   1 <1>  -0.1600 
 11 C       -2.9620     2.7670    -0.3670 C.3   1 <1>   0.1200 
 12 C        0.2720     4.8320     0.0260 C.3   1 <1>   0.1400 
 13 C        1.1000     3.2200    -1.6880 C.3   1 <1>   0.1400 
 14 N        1.4250     4.3660    -0.7920 N.am  1 <1>  -0.6600 
 15 C        2.7060     4.8420    -0.6830 C.2   1 <1>   0.6900 
 16 O        3.6360     4.2750    -1.2280 O.2   1 <1>  -0.5700 
 17 N        2.9400     5.9670     0.0290 N.am  1 <1>  -0.7300 
 18 C        4.2190     6.6740     0.0470 C.3   1 <1>   0.3640 
 19 C        3.9260     8.1620     0.2070 C.ar  1 <1>  -0.1430 
 20 C        5.0740     6.1300     1.1890 C.3   1 <1>  -0.2400 
 21 C        4.2830     9.0450    -0.8020 C.ar  1 <1>  -0.1500 
 22 C        3.2960     8.6570     1.3420 C.ar  1 <1>  -0.1500 
 23 C        4.0190    10.3980    -0.6800 C.ar  1 <1>  -0.1500 
 24 C        3.0310    10.0090     1.4660 C.ar  1 <1>  -0.1500 
 25 C        3.3920    10.8810     0.4550 C.ar  1 <1>  -0.1500 
 26 H       -1.0610    -1.4030     3.2100 H     1 <1>   0.1500 
 27 H       -3.3690    -0.8640     1.9350 H     1 <1>   0.1500 
 28 H       -4.3010     1.3860     0.5960 H     1 <1>   0.0800 
 29 H       -3.5140     0.7290    -0.8160 H     1 <1>   0.0800 
 30 H       -1.0830     3.9830     1.4650 H     1 <1>   0.0800 
 31 H        0.5410     3.4020     1.5790 H     1 <1>   0.0800 
 32 H        1.4060     1.7030    -0.2280 H     1 <1>   0.0800 
 33 H        0.3070     1.2330    -1.4850 H     1 <1>   0.0800 
 34 H       -3.0340     3.4400     0.4680 H     1 <1>   0.0800 
 35 H       -3.6080     3.1220    -1.1510 H     1 <1>   0.0800 
 36 H        0.5500     5.6510     0.6640 H     1 <1>   0.0800 
 37 H       -0.5100     5.1700    -0.6330 H     1 <1>   0.0800 
 38 H        0.3400     3.5250    -2.3860 H     1 <1>   0.0800 
 39 H        1.9650     2.9160    -2.2520 H     1 <1>   0.0800 
 40 H        2.1470     6.5770     0.1930 H     1 <1>   0.3700 
 41 H        4.7320     6.5040    -0.8860 H     1 <1>   0.0800 
 42 H        4.5620     6.2120     2.1290 H     1 <1>   0.0800 
 43 H        5.9940     6.6820     1.2440 H     1 <1>   0.0800 
 44 H        5.3080     5.0970     1.0030 H     1 <1>   0.0800 
 45 H        4.7690     8.6830    -1.6920 H     1 <1>   0.1500 
 46 H        3.0080     7.9900     2.1360 H     1 <1>   0.1500 
 47 H        4.3000    11.0750    -1.4680 H     1 <1>   0.1500 
 48 H        2.5440    10.3840     2.3500 H     1 <1>   0.1500 
 49 H        3.1870    11.9330     0.5510 H     1 <1>   0.1500 
@<TRIPOS>BOND
  1   1   2  1   
  2   1   3  1   
  3   2   4  2   
  4   2   5  1   
  5   3   6  2   
  6   3  26  1   
  7   4   6  1   
  8   4   7  1   
  9   5   8  1   
 10   5   9  1   
 11   5  10  1   
 12   6  27  1   
 13   7  11  1   
 14   7  28  1   
 15   7  29  1   
 16   8  11  1   
 17   9  12  1   
 18   9  30  1   
 19   9  31  1   
 20  10  13  1   
 21  10  32  1   
 22  10  33  1   
 23  11  34  1   
 24  11  35  1   
 25  12  14  1   
 26  12  36  1   
 27  12  37  1   
 28  13  14  1   
 29  13  38  1   
 30  13  39  1   
 31  14  15  am  
 32  15  16  2   
 33  15  17  am  
 34  17  18  1   
 35  17  40  1   
 36  18  19  1   
 37  18  20  1   
 38  18  41  1   
 39  19  21  ar  
 40  19  22  ar  
 41  20  42  1   
 42  20  43  1   
 43  20  44  1   
 44  21  23  ar  
 45  21  45  1   
 46  22  24  ar  
 47  22  46  1   
 48  23  25  ar  
 49  23  47  1   
 50  24  25  ar  
 51  24  48  1   
 52  25  49  1   
@<TRIPOS>SUBSTRUCTURE
  1 ****  12 GROUP 4 **** **** 0

# MOE 2024.06 (io_trps.svl 2023.06)
