@<TRIPOS>MOLECULE
NONAME
50 54 1 0 0 
SMALL
USER_CHARGES


@<TRIPOS>ATOM
  1 O       -0.5730    -0.0900    -0.6720 O.2   1 <1>  -0.5700 
  2 C       -1.4550     0.6880    -1.0040 C.2   1 <1>   0.7160 
  3 N       -2.6830     0.1670    -1.3570 N.am  1 <1>  -0.6600 
  4 C       -1.2200     2.0970    -1.0220 C.2   1 <1>  -0.0860 
  5 C       -3.9660     0.7900    -0.9050 C.3   1 <1>   0.1400 
  6 C       -2.8340    -1.2680    -1.7490 C.3   1 <1>   0.1400 
  7 C       -0.3730     2.8700    -0.2670 C.2   1 <1>  -0.0680 
  8 C       -1.8310     3.0420    -1.8600 C.2   1 <1>   0.1390 
  9 C       -4.6470    -0.0680     0.1800 C.3   1 <1>   0.1900 
 10 C       -3.5440    -2.0690    -0.6460 C.3   1 <1>   0.1100 
 11 N       -0.5300     4.1420    -0.6640 N.pl3 1 <1>   0.6010 
 12 N        0.5680     2.8140     0.7410 N.pl3 1 <1>  -0.5530 
 13 N       -1.4460     4.2660    -1.6570 N.2   1 <1>  -0.7070 
 14 N       -4.8470    -1.4590    -0.2960 N.3   1 <1>  -0.8100 
 15 C       -5.9920     0.5610     0.5980 C.3   1 <1>   0.1200 
 16 C        0.3220     4.9270     0.0890 C.2   1 <1>  -0.1810 
 17 C        0.9910     4.1190     0.9390 C.2   1 <1>  -0.0500 
 18 C        1.0980     1.5850     1.3690 C.3   1 <1>   0.1290 
 19 C       -5.5640    -2.2480     0.7340 C.3   1 <1>   0.3330 
 20 O       -6.6130    -0.2180     1.5790 O.3   1 <1>  -0.5600 
 21 C       -5.9020    -3.6460     0.2160 C.ar  1 <1>  -0.1430 
 22 C       -6.8640    -1.5350     1.1630 C.3   1 <1>   0.1200 
 23 C       -6.4810    -3.8210    -1.0330 C.ar  1 <1>  -0.1500 
 24 C       -5.6330    -4.7610     0.9970 C.ar  1 <1>  -0.1500 
 25 C       -6.7890    -5.0890    -1.4950 C.ar  1 <1>  -0.1500 
 26 C       -5.9400    -6.0300     0.5370 C.ar  1 <1>  -0.1500 
 27 C       -6.5180    -6.1950    -0.7090 C.ar  1 <1>  -0.1500 
 28 H       -3.7880     1.7720    -0.5050 H     1 <1>   0.0800 
 29 H       -4.6270     0.8860    -1.7490 H     1 <1>   0.0800 
 30 H       -3.4150    -1.3270    -2.6520 H     1 <1>   0.0800 
 31 H       -1.8720    -1.7080    -1.9480 H     1 <1>   0.0800 
 32 H       -2.5570     2.7790    -2.6110 H     1 <1>   0.1500 
 33 H       -4.0060    -0.0750     1.0460 H     1 <1>   0.0800 
 34 H       -2.9080    -2.1140     0.2220 H     1 <1>   0.0800 
 35 H       -3.6930    -3.0730    -1.0020 H     1 <1>   0.0800 
 36 H       -6.6530     0.6410    -0.2480 H     1 <1>   0.0800 
 37 H       -5.8350     1.5400     1.0130 H     1 <1>   0.0800 
 38 H        0.3620     5.9860    -0.0670 H     1 <1>   0.1500 
 39 H        1.7410     4.3700     1.6720 H     1 <1>   0.1500 
 40 H        1.7770     1.8390     2.1630 H     1 <1>   0.0800 
 41 H        1.6150     0.9990     0.6290 H     1 <1>   0.0800 
 42 H        0.2840     1.0050     1.7670 H     1 <1>   0.0800 
 43 H       -4.9360    -2.3400     1.6040 H     1 <1>   0.0800 
 44 H       -7.3160    -2.0600     1.9850 H     1 <1>   0.0800 
 45 H       -7.5630    -1.5090     0.3460 H     1 <1>   0.0800 
 46 H       -6.6870    -2.9640    -1.6500 H     1 <1>   0.1500 
 47 H       -5.1850    -4.6490     1.9690 H     1 <1>   0.1500 
 48 H       -7.2370    -5.2140    -2.4650 H     1 <1>   0.1500 
 49 H       -5.7280    -6.8900     1.1490 H     1 <1>   0.1500 
 50 H       -6.7560    -7.1810    -1.0670 H     1 <1>   0.1500 
@<TRIPOS>BOND
  1   1   2  2   
  2   2   3  am  
  3   2   4  1   
  4   3   5  1   
  5   3   6  1   
  6   4   7  2   
  7   4   8  1   
  8   5   9  1   
  9   5  28  1   
 10   5  29  1   
 11   6  10  1   
 12   6  30  1   
 13   6  31  1   
 14   7  11  1   
 15   7  12  1   
 16   8  13  2   
 17   8  32  1   
 18   9  14  1   
 19   9  15  1   
 20   9  33  1   
 21  10  14  1   
 22  10  34  1   
 23  10  35  1   
 24  11  13  1   
 25  11  16  1   
 26  12  17  1   
 27  12  18  1   
 28  14  19  1   
 29  15  20  1   
 30  15  36  1   
 31  15  37  1   
 32  16  17  2   
 33  16  38  1   
 34  17  39  1   
 35  18  40  1   
 36  18  41  1   
 37  18  42  1   
 38  19  21  1   
 39  19  22  1   
 40  19  43  1   
 41  20  22  1   
 42  21  23  ar  
 43  21  24  ar  
 44  22  44  1   
 45  22  45  1   
 46  23  25  ar  
 47  23  46  1   
 48  24  26  ar  
 49  24  47  1   
 50  25  27  ar  
 51  25  48  1   
 52  26  27  ar  
 53  26  49  1   
 54  27  50  1   
@<TRIPOS>SUBSTRUCTURE
  1 ****   3 GROUP 4 **** **** 0

# MOE 2024.06 (io_trps.svl 2023.06)
