@<TRIPOS>MOLECULE
NONAME
47 48 1 0 0 
SMALL
USER_CHARGES


@<TRIPOS>ATOM
  1 CL      -1.2990    -0.4600    -2.3970 Cl    1 <1>  -0.1770 
  2 C       -2.1090    -1.0360    -0.9630 C.ar  1 <1>   0.1770 
  3 C       -2.0900    -2.3870    -0.6710 C.ar  1 <1>  -0.1500 
  4 C       -2.7560    -0.1320    -0.1420 C.ar  1 <1>  -0.1500 
  5 C       -2.7340    -2.8500     0.4660 C.ar  1 <1>  -0.1440 
  6 C       -3.3980    -0.5930     0.9950 C.ar  1 <1>  -0.1500 
  7 C       -3.3850    -1.9460     1.2950 C.ar  1 <1>  -0.1500 
  8 C       -2.7310    -4.3340     0.7990 C.3   1 <1>  -0.0160 
  9 C       -3.9370    -5.0280     0.1480 C.3   1 <1>  -0.0990 
 10 C       -4.0290    -6.5150     0.4570 C.2   1 <1>   0.5690 
 11 O       -3.1330    -7.0500     1.0640 O.2   1 <1>  -0.5700 
 12 N       -5.1230    -7.2190     0.0380 N.am  1 <1>  -0.6600 
 13 C       -6.2600    -6.6930    -0.7570 C.3   1 <1>   0.1400 
 14 C       -5.2990    -8.6630     0.3260 C.3   1 <1>   0.1400 
 15 C       -7.0790    -7.9300    -1.1200 C.3   1 <1>   0.2000 
 16 C       -6.7530    -8.9650    -0.0470 C.3   1 <1>  -0.0800 
 17 O       -8.4380    -7.6650    -1.1280 O.3   1 <1>  -0.6800 
 18 C       -7.0010   -10.4040    -0.5290 C.3   1 <1>  -0.0550 
 19 S       -6.7400   -11.6320     0.7480 S.o2  1 <1>   1.3330 
 20 O       -7.6730   -11.3570     1.8170 O.2   1 <1>  -0.6500 
 21 O       -5.3250   -11.7170     1.0350 O.2   1 <1>  -0.6500 
 22 N       -7.2050   -13.0760    -0.0130 N.am  1 <1>  -0.8490 
 23 C       -6.1390   -13.6800    -0.8190 C.3   1 <1>   0.1160 
 24 C       -7.7300   -14.0610     0.9370 C.3   1 <1>   0.1160 
 25 H       -1.5770    -3.0620    -1.3310 H     1 <1>   0.1500 
 26 H       -2.7550     0.9140    -0.3910 H     1 <1>   0.1500 
 27 H       -3.9050     0.0980     1.6450 H     1 <1>   0.1500 
 28 H       -3.8870    -2.2940     2.1810 H     1 <1>   0.1500 
 29 H       -1.8190    -4.7850     0.4490 H     1 <1>   0.0800 
 30 H       -2.7680    -4.4680     1.8670 H     1 <1>   0.0800 
 31 H       -3.8760    -4.9060    -0.9170 H     1 <1>   0.0800 
 32 H       -4.8350    -4.5520     0.4930 H     1 <1>   0.0800 
 33 H       -6.8360    -6.0170    -0.1480 H     1 <1>   0.0800 
 34 H       -5.9080    -6.1960    -1.6430 H     1 <1>   0.0800 
 35 H       -4.6120    -9.2260    -0.2840 H     1 <1>   0.0800 
 36 H       -5.1000    -8.8740     1.3650 H     1 <1>   0.0800 
 37 H       -6.7960    -8.2770    -2.1000 H     1 <1>   0.0800 
 38 H       -7.3520    -8.7730     0.8280 H     1 <1>   0.0800 
 39 H       -8.7500    -7.4310    -0.2320 H     1 <1>   0.4000 
 40 H       -6.3650   -10.6160    -1.3660 H     1 <1>   0.0800 
 41 H       -8.0180   -10.4780    -0.8650 H     1 <1>   0.0800 
 42 H       -6.5160   -14.5390    -1.3480 H     1 <1>   0.0800 
 43 H       -5.3190   -13.9880    -0.1900 H     1 <1>   0.0800 
 44 H       -5.7720   -12.9720    -1.5420 H     1 <1>   0.0800 
 45 H       -8.0300   -14.9560     0.4200 H     1 <1>   0.0800 
 46 H       -8.5930   -13.6610     1.4440 H     1 <1>   0.0800 
 47 H       -6.9820   -14.3080     1.6720 H     1 <1>   0.0800 
@<TRIPOS>BOND
  1   1   2  1   
  2   2   3  ar  
  3   2   4  ar  
  4   3   5  ar  
  5   3  25  1   
  6   4   6  ar  
  7   4  26  1   
  8   5   7  ar  
  9   5   8  1   
 10   6   7  ar  
 11   6  27  1   
 12   7  28  1   
 13   8   9  1   
 14   8  29  1   
 15   8  30  1   
 16   9  10  1   
 17   9  31  1   
 18   9  32  1   
 19  10  11  2   
 20  10  12  am  
 21  12  13  1   
 22  12  14  1   
 23  13  15  1   
 24  13  33  1   
 25  13  34  1   
 26  14  16  1   
 27  14  35  1   
 28  14  36  1   
 29  15  16  1   
 30  15  17  1   
 31  15  37  1   
 32  16  18  1   
 33  16  38  1   
 34  17  39  1   
 35  18  19  1   
 36  18  40  1   
 37  18  41  1   
 38  19  20  2   
 39  19  21  2   
 40  19  22  am  
 41  22  23  1   
 42  22  24  1   
 43  23  42  1   
 44  23  43  1   
 45  23  44  1   
 46  24  45  1   
 47  24  46  1   
 48  24  47  1   
@<TRIPOS>SUBSTRUCTURE
  1 ****  12 GROUP 4 **** **** 0

# MOE 2024.06 (io_trps.svl 2023.06)
