@<TRIPOS>MOLECULE
NONAME
50 53 1 0 0 
SMALL
USER_CHARGES


@<TRIPOS>ATOM
  1 O       -0.1260    -2.8150     2.8580 O.3   1 <1>  -0.8290 
  2 C        0.3260    -2.2630     1.8230 C.ar  1 <1>   0.1390 
  3 N       -0.0110    -0.9720     1.5890 N.ar  1 <1>  -0.3100 
  4 C        1.1410    -2.9920     0.9470 C.ar  1 <1>  -0.1440 
  5 N        0.4270    -0.3580     0.5120 N.ar  1 <1>  -0.3100 
  6 C        1.5910    -2.3410    -0.1670 C.ar  1 <1>  -0.1500 
  7 C        1.4990    -4.4510     1.2160 C.3   1 <1>   0.0450 
  8 C        1.2000    -1.0250    -0.3310 C.ar  1 <1>   0.3920 
  9 C        1.0930    -5.3610     0.0640 C.2   1 <1>   0.5690 
 10 O        1.6240    -0.3650    -1.4270 O.3   1 <1>  -0.5320 
 11 O        1.9870    -5.8200    -0.6150 O.2   1 <1>  -0.5700 
 12 N       -0.2260    -5.6530    -0.2010 N.am  1 <1>  -0.6600 
 13 C       -0.6270    -6.4970    -1.3570 C.3   1 <1>   0.1400 
 14 C       -1.3800    -5.0480     0.5310 C.3   1 <1>   0.1400 
 15 C       -1.5450    -7.6220    -0.8730 C.3   1 <1>  -0.1600 
 16 C       -2.3110    -6.1570     1.0200 C.3   1 <1>  -0.1600 
 17 C       -2.7700    -7.0770    -0.1230 C.3   1 <1>   0.4240 
 18 O       -3.4680    -6.3060    -1.0730 O.3   1 <1>  -0.5600 
 19 C       -3.6430    -8.2350     0.4110 C.ar  1 <1>  -0.1430 
 20 C       -4.8030    -6.0150    -0.8040 C.3   1 <1>   0.1200 
 21 C       -4.9850    -8.3480     0.0580 C.ar  1 <1>  -0.1430 
 22 C       -3.1030    -9.1860     1.2700 C.ar  1 <1>  -0.1500 
 23 C       -5.6040    -7.3120    -0.8610 C.3   1 <1>  -0.0170 
 24 C       -5.7590    -9.3930     0.5380 C.ar  1 <1>  -0.1500 
 25 C       -3.8740   -10.2270     1.7530 C.ar  1 <1>  -0.1500 
 26 C       -5.2040   -10.3420     1.3910 C.ar  1 <1>   0.0820 
 27 O       -5.8910   -11.3930     1.9040 O.3   1 <1>  -0.3620 
 28 C       -7.2450   -11.6140     1.5800 C.3   1 <1>   0.0400 
 29 H        2.2170    -2.8360    -0.8830 H     1 <1>   0.1500 
 30 H        1.0380    -4.8060     2.1180 H     1 <1>   0.0800 
 31 H        2.5590    -4.5190     1.3600 H     1 <1>   0.0800 
 32 H        2.1520    -0.9570    -1.9820 H     1 <1>   0.4500 
 33 H        0.2380    -6.9200    -1.8380 H     1 <1>   0.0800 
 34 H       -1.1430    -5.8830    -2.0760 H     1 <1>   0.0800 
 35 H       -1.9070    -4.3810    -0.1290 H     1 <1>   0.0800 
 36 H       -1.0590    -4.4760     1.3800 H     1 <1>   0.0800 
 37 H       -0.9710    -8.2640    -0.2330 H     1 <1>   0.0800 
 38 H       -1.8770    -8.2080    -1.7090 H     1 <1>   0.0800 
 39 H       -3.1550    -5.7260     1.5210 H     1 <1>   0.0800 
 40 H       -1.7770    -6.7320     1.7530 H     1 <1>   0.0800 
 41 H       -5.1470    -5.3240    -1.5530 H     1 <1>   0.0800 
 42 H       -4.8790    -5.5510     0.1630 H     1 <1>   0.0800 
 43 H       -2.0730    -9.1240     1.5750 H     1 <1>   0.1500 
 44 H       -5.6090    -7.6830    -1.8710 H     1 <1>   0.0800 
 45 H       -6.6190    -7.1130    -0.5680 H     1 <1>   0.0800 
 46 H       -6.7880    -9.4550     0.2430 H     1 <1>   0.1500 
 47 H       -3.4490   -10.9590     2.4150 H     1 <1>   0.1500 
 48 H       -7.5700   -12.5020     2.0910 H     1 <1>   0.0800 
 49 H       -7.3300   -11.7520     0.5160 H     1 <1>   0.0800 
 50 H       -7.8250   -10.7700     1.9080 H     1 <1>   0.0800 
@<TRIPOS>BOND
  1   1   2  1   
  2   2   3  ar  
  3   2   4  ar  
  4   3   5  ar  
  5   4   6  ar  
  6   4   7  1   
  7   5   8  ar  
  8   6   8  ar  
  9   6  29  1   
 10   7   9  1   
 11   7  30  1   
 12   7  31  1   
 13   8  10  1   
 14   9  11  2   
 15   9  12  am  
 16  10  32  1   
 17  12  13  1   
 18  12  14  1   
 19  13  15  1   
 20  13  33  1   
 21  13  34  1   
 22  14  16  1   
 23  14  35  1   
 24  14  36  1   
 25  15  17  1   
 26  15  37  1   
 27  15  38  1   
 28  16  17  1   
 29  16  39  1   
 30  16  40  1   
 31  17  18  1   
 32  17  19  1   
 33  18  20  1   
 34  19  21  ar  
 35  19  22  ar  
 36  20  23  1   
 37  20  41  1   
 38  20  42  1   
 39  21  23  1   
 40  21  24  ar  
 41  22  25  ar  
 42  22  43  1   
 43  23  44  1   
 44  23  45  1   
 45  24  26  ar  
 46  24  46  1   
 47  25  26  ar  
 48  25  47  1   
 49  26  27  1   
 50  27  28  1   
 51  28  48  1   
 52  28  49  1   
 53  28  50  1   
@<TRIPOS>SUBSTRUCTURE
  1 ****  16 GROUP 4 **** **** 0

# MOE 2024.06 (io_trps.svl 2023.06)
