@<TRIPOS>MOLECULE
NONAME
55 57 1 0 0 
SMALL
USER_CHARGES


@<TRIPOS>ATOM
  1 O        3.1450    -2.5450    -1.1580 O.2   1 <1>  -0.5700 
  2 C        2.9090    -1.9630    -0.1190 C.2   1 <1>   0.5690 
  3 N        3.9090    -1.2530     0.5040 N.am  1 <1>  -0.6600 
  4 C        1.4520    -2.0470     0.4100 C.3   1 <1>   0.0610 
  5 C        5.3300    -1.4900     0.0910 C.3   1 <1>   0.1400 
  6 C        3.7250    -0.1910     1.5350 C.3   1 <1>   0.1400 
  7 C        0.7380    -3.1820    -0.3330 C.3   1 <1>   0.3430 
  8 C        0.6310    -0.8240    -0.0400 C.3   1 <1>  -0.1600 
  9 C        1.3380    -2.3190     1.9280 C.3   1 <1>  -0.2400 
 10 C        5.7280    -0.6000    -1.0970 C.3   1 <1>   0.1100 
 11 C        4.6080     1.0460     1.3150 C.3   1 <1>  -0.1600 
 12 N        0.3720    -2.5970    -1.6480 N.4   1 <1>  -0.9590 
 13 C        0.0080    -1.1820    -1.3920 C.3   1 <1>   0.3430 
 14 N        5.9560     0.8170    -0.7370 N.3   1 <1>  -0.8100 
 15 C        4.7700     1.4670    -0.1490 C.3   1 <1>   0.1100 
 16 C       -0.6430    -3.3800    -2.4080 C.3   1 <1>   0.2630 
 17 C        6.4420     1.5610    -1.9210 C.3   1 <1>   0.2480 
 18 C        7.0650     2.8900    -1.5080 C.2   1 <1>  -0.0380 
 19 N        7.7630     2.9230    -0.3330 N.pl3 1 <1>  -0.5500 
 20 C        6.9880     4.0490    -2.1970 C.2   1 <1>  -0.1360 
 21 C        8.3490     4.0630     0.1240 C.2   1 <1>   0.4390 
 22 C        7.6200     5.2150    -1.6890 C.2   1 <1>   0.7670 
 23 N        8.3030     5.1800    -0.5020 N.2   1 <1>  -0.6610 
 24 C        9.0760     3.9670     1.4420 C.3   1 <1>  -0.1790 
 25 O        7.5610     6.2680    -2.3040 O.2   1 <1>  -0.5700 
 26 H        5.4400    -2.5190    -0.2040 H     1 <1>   0.0800 
 27 H        5.9990    -1.3240     0.9170 H     1 <1>   0.0800 
 28 H        3.9330    -0.6040     2.5080 H     1 <1>   0.0800 
 29 H        2.7050     0.1420     1.5290 H     1 <1>   0.0800 
 30 H       -0.1530    -3.4650     0.2020 H     1 <1>   0.0800 
 31 H        1.3790    -4.0420    -0.4470 H     1 <1>   0.0800 
 32 H        1.2340     0.0610    -0.1350 H     1 <1>   0.0800 
 33 H       -0.1630    -0.6160     0.6560 H     1 <1>   0.0800 
 34 H        1.9780    -3.1380     2.2070 H     1 <1>   0.0800 
 35 H        0.3280    -2.5740     2.1990 H     1 <1>   0.0800 
 36 H        1.6150    -1.4640     2.5150 H     1 <1>   0.0800 
 37 H        4.9780    -0.6750    -1.8650 H     1 <1>   0.0800 
 38 H        6.6450    -0.9970    -1.4970 H     1 <1>   0.0800 
 39 H        5.5770     0.8940     1.7560 H     1 <1>   0.0800 
 40 H        4.1560     1.8600     1.8510 H     1 <1>   0.0800 
 41 H        1.2740    -2.5900    -2.1680 H     1 <1>   0.4500 
 42 H        0.3920    -0.5480    -2.1760 H     1 <1>   0.0800 
 43 H       -1.0640    -1.0700    -1.3400 H     1 <1>   0.0800 
 44 H        4.9070     2.5360    -0.1630 H     1 <1>   0.0800 
 45 H        3.8860     1.2420    -0.7230 H     1 <1>   0.0800 
 46 H       -1.5720    -3.4200    -1.8620 H     1 <1>   0.0800 
 47 H       -0.2920    -4.3870    -2.5700 H     1 <1>   0.0800 
 48 H       -0.8250    -2.9220    -3.3670 H     1 <1>   0.0800 
 49 H        5.6390     1.7200    -2.6200 H     1 <1>   0.0800 
 50 H        7.2060     0.9830    -2.4130 H     1 <1>   0.0800 
 51 H        7.7650     2.0650     0.2300 H     1 <1>   0.4000 
 52 H        6.4690     4.1520    -3.1290 H     1 <1>   0.1500 
 53 H        9.8770     3.2560     1.3660 H     1 <1>   0.0800 
 54 H        8.3960     3.6610     2.2140 H     1 <1>   0.0800 
 55 H        9.4890     4.9250     1.7040 H     1 <1>   0.0800 
@<TRIPOS>BOND
  1   1   2  2   
  2   2   3  am  
  3   2   4  1   
  4   3   5  1   
  5   3   6  1   
  6   4   7  1   
  7   4   8  1   
  8   4   9  1   
  9   5  10  1   
 10   5  26  1   
 11   5  27  1   
 12   6  11  1   
 13   6  28  1   
 14   6  29  1   
 15   7  12  1   
 16   7  30  1   
 17   7  31  1   
 18   8  13  1   
 19   8  32  1   
 20   8  33  1   
 21   9  34  1   
 22   9  35  1   
 23   9  36  1   
 24  10  14  1   
 25  10  37  1   
 26  10  38  1   
 27  11  15  1   
 28  11  39  1   
 29  11  40  1   
 30  12  13  1   
 31  12  16  1   
 32  12  41  1   
 33  13  42  1   
 34  13  43  1   
 35  14  15  1   
 36  14  17  1   
 37  15  44  1   
 38  15  45  1   
 39  16  46  1   
 40  16  47  1   
 41  16  48  1   
 42  17  18  1   
 43  17  49  1   
 44  17  50  1   
 45  18  19  1   
 46  18  20  2   
 47  19  21  1   
 48  19  51  1   
 49  20  22  1   
 50  20  52  1   
 51  21  23  2   
 52  21  24  1   
 53  22  23  1   
 54  22  25  2   
 55  24  53  1   
 56  24  54  1   
 57  24  55  1   
@<TRIPOS>SUBSTRUCTURE
  1 ****  15 GROUP 4 **** **** 0

# MOE 2024.06 (io_trps.svl 2023.06)
