@<TRIPOS>MOLECULE
NONAME
48 50 1 0 0 
SMALL
USER_CHARGES


@<TRIPOS>ATOM
  1 S        0.3440    -0.1800     0.0130 S.3   1 <1>  -0.0800 
  2 C       -1.2850     0.4680    -0.1520 C.2   1 <1>   0.3250 
  3 C        0.9880     1.4290     0.0240 C.2   1 <1>  -0.1100 
  4 N       -1.2930     1.7550    -0.1940 N.2   1 <1>  -0.5650 
  5 C       -2.4140    -0.4330    -0.2240 C.ar  1 <1>   0.0530 
  6 C       -0.0280     2.2980    -0.0950 C.2   1 <1>   0.0460 
  7 C       -2.2870    -1.8260    -0.2010 C.ar  1 <1>   0.1600 
  8 C       -3.7080     0.0670    -0.3200 C.ar  1 <1>  -0.1500 
  9 C        0.0480     3.8150    -0.1320 C.3   1 <1>   0.0210 
 10 N       -3.2780    -2.7010    -0.2630 N.ar  1 <1>  -0.6200 
 11 C       -4.7550    -0.8250    -0.3860 C.ar  1 <1>  -0.1500 
 12 C        1.4850     4.3370    -0.1890 C.3   1 <1>   0.1400 
 13 C       -4.4910    -2.1820    -0.3540 C.ar  1 <1>   0.1600 
 14 N        1.4890     5.8180    -0.2410 N.am  1 <1>  -0.7300 
 15 C        1.8810     6.6290     0.7770 C.2   1 <1>   0.5690 
 16 O        2.2560     6.1860     1.8340 O.2   1 <1>  -0.5700 
 17 C        1.8350     8.1430     0.5860 C.3   1 <1>  -0.0190 
 18 C        0.4140     8.6430     0.2620 C.3   1 <1>  -0.1600 
 19 C        2.8590     8.6250    -0.4720 C.3   1 <1>  -0.1600 
 20 C        0.3350    10.1840     0.2330 C.3   1 <1>   0.2000 
 21 C        2.5150     9.9970    -1.0860 C.3   1 <1>  -0.1600 
 22 O       -0.6290    10.5480    -0.7250 O.3   1 <1>  -0.5600 
 23 C        1.6890    10.8540    -0.1240 C.3   1 <1>   0.2000 
 24 C       -1.9490    10.5140    -0.2790 C.3   1 <1>   0.0400 
 25 O        1.4480    12.0680    -0.7330 O.3   1 <1>  -0.6800 
 26 H        2.0520     1.5420     0.1200 H     1 <1>   0.1500 
 27 H       -1.3040    -2.2530    -0.1280 H     1 <1>   0.1500 
 28 H       -3.8820     1.1290    -0.3430 H     1 <1>   0.1500 
 29 H       -0.4880     4.1600    -0.9970 H     1 <1>   0.0800 
 30 H       -0.4360     4.2010     0.7480 H     1 <1>   0.0800 
 31 H       -5.7690    -0.4740    -0.4610 H     1 <1>   0.1500 
 32 H        1.9830     3.9510    -1.0620 H     1 <1>   0.0800 
 33 H        2.0230     4.0030     0.6840 H     1 <1>   0.0800 
 34 H       -5.3150    -2.8740    -0.4060 H     1 <1>   0.1500 
 35 H        1.1740     6.2410    -1.1170 H     1 <1>   0.3700 
 36 H        2.1160     8.5770     1.5310 H     1 <1>   0.0800 
 37 H       -0.2720     8.2690     1.0020 H     1 <1>   0.0800 
 38 H        0.1210     8.2550    -0.6980 H     1 <1>   0.0800 
 39 H        3.8260     8.6780    -0.0010 H     1 <1>   0.0800 
 40 H        2.9380     7.9110    -1.2720 H     1 <1>   0.0800 
 41 H        0.0290    10.5590     1.1950 H     1 <1>   0.0800 
 42 H        1.9400     9.8450    -1.9840 H     1 <1>   0.0800 
 43 H        3.4220    10.5130    -1.3490 H     1 <1>   0.0800 
 44 H        2.2610    11.0400     0.7690 H     1 <1>   0.0800 
 45 H       -2.5850    10.8090    -1.0940 H     1 <1>   0.0800 
 46 H       -2.0660    11.2060     0.5380 H     1 <1>   0.0800 
 47 H       -2.2000     9.5150     0.0310 H     1 <1>   0.0800 
 48 H        0.5890    11.9660    -1.2030 H     1 <1>   0.4000 
@<TRIPOS>BOND
  1   1   2  1   
  2   1   3  1   
  3   2   4  2   
  4   2   5  1   
  5   3   6  2   
  6   3  26  1   
  7   4   6  1   
  8   5   7  ar  
  9   5   8  ar  
 10   6   9  1   
 11   7  10  ar  
 12   7  27  1   
 13   8  11  ar  
 14   8  28  1   
 15   9  12  1   
 16   9  29  1   
 17   9  30  1   
 18  10  13  ar  
 19  11  13  ar  
 20  11  31  1   
 21  12  14  1   
 22  12  32  1   
 23  12  33  1   
 24  13  34  1   
 25  14  15  am  
 26  14  35  1   
 27  15  16  2   
 28  15  17  1   
 29  17  18  1   
 30  17  19  1   
 31  17  36  1   
 32  18  20  1   
 33  18  37  1   
 34  18  38  1   
 35  19  21  1   
 36  19  39  1   
 37  19  40  1   
 38  20  22  1   
 39  20  23  1   
 40  20  41  1   
 41  21  23  1   
 42  21  42  1   
 43  21  43  1   
 44  22  24  1   
 45  23  25  1   
 46  23  44  1   
 47  24  45  1   
 48  24  46  1   
 49  24  47  1   
 50  25  48  1   
@<TRIPOS>SUBSTRUCTURE
  1 ****   9 GROUP 4 **** **** 0

# MOE 2024.06 (io_trps.svl 2023.06)
