@<TRIPOS>MOLECULE
NONAME
51 54 1 0 0 
SMALL
USER_CHARGES


@<TRIPOS>ATOM
  1 S       -0.0830     1.1300    -0.2870 S.3   1 <1>  -0.0800 
  2 C        1.4760     1.9280    -0.1520 C.2   1 <1>  -0.1400 
  3 C        0.4550    -0.2130     0.7030 C.2   1 <1>  -0.1400 
  4 C        2.3110     1.1830     0.6040 C.2   1 <1>  -0.1500 
  5 C        1.5520     3.2530    -0.8950 C.3   1 <1>   0.5230 
  6 C        1.7290    -0.0310     1.0870 C.2   1 <1>  -0.1500 
  7 C       -0.5410    -1.3240     0.9670 C.3   1 <1>  -0.0600 
  8 N        2.8760     3.9230    -0.7570 N.4   1 <1>  -0.9590 
  9 C        3.1580     4.3080     0.6730 C.3   1 <1>   0.3430 
 10 C        3.9660     3.1350    -1.4200 C.3   1 <1>   0.3430 
 11 C        4.2780     5.3660     0.7890 C.3   1 <1>   0.2200 
 12 C        5.3240     3.8600    -1.5180 C.3   1 <1>  -0.0800 
 13 N        4.4800     6.0750    -0.5300 N.am  1 <1>  -0.6600 
 14 C        5.5680     4.7300     1.3350 C.3   1 <1>   0.1200 
 15 C        6.3130     3.3810    -0.4450 C.3   1 <1>   0.1200 
 16 C        5.2630     5.3970    -1.6120 C.3   1 <1>   0.1400 
 17 C        4.1090     7.3940    -0.7050 C.2   1 <1>   0.7150 
 18 O        5.7430     3.4450     0.8180 O.3   1 <1>  -0.5600 
 19 O        4.5630     7.9970    -1.6570 O.2   1 <1>  -0.5700 
 20 C        3.1960     8.0450     0.1940 C.2   1 <1>  -0.2370 
 21 N        3.4430     9.2740     0.7550 N.pl3 1 <1>   0.0480 
 22 C        1.9690     7.6250     0.6500 C.2   1 <1>  -0.1500 
 23 C        2.4010     9.5850     1.5610 C.2   1 <1>  -0.3020 
 24 C        4.6150    10.1390     0.5130 C.3   1 <1>   0.0160 
 25 C        1.4760     8.5920     1.5180 C.2   1 <1>  -0.1500 
 26 H        3.3310     1.4060     0.8650 H     1 <1>   0.1500 
 27 H        0.7780     3.9010    -0.5170 H     1 <1>   0.0800 
 28 H        1.3450     3.0740    -1.9380 H     1 <1>   0.0800 
 29 H        2.2950    -0.7120     1.7020 H     1 <1>   0.1500 
 30 H       -0.0940    -2.0840     1.5820 H     1 <1>   0.0800 
 31 H       -0.8520    -1.7670     0.0380 H     1 <1>   0.0800 
 32 H       -1.4040    -0.9310     1.4730 H     1 <1>   0.0800 
 33 H        2.8450     4.8250    -1.2550 H     1 <1>   0.4500 
 34 H        2.2660     4.7230     1.1110 H     1 <1>   0.0800 
 35 H        3.4220     3.4410     1.2540 H     1 <1>   0.0800 
 36 H        4.1100     2.2000    -0.9040 H     1 <1>   0.0800 
 37 H        3.6480     2.8980    -2.4220 H     1 <1>   0.0800 
 38 H        3.9810     6.0830     1.5330 H     1 <1>   0.0800 
 39 H        5.7640     3.5350    -2.4440 H     1 <1>   0.0800 
 40 H        5.4790     4.6180     2.4020 H     1 <1>   0.0800 
 41 H        6.4330     5.3390     1.1340 H     1 <1>   0.0800 
 42 H        7.2260     3.9550    -0.4530 H     1 <1>   0.0800 
 43 H        6.5680     2.3490    -0.6180 H     1 <1>   0.0800 
 44 H        4.8300     5.6640    -2.5630 H     1 <1>   0.0800 
 45 H        6.2650     5.7960    -1.6080 H     1 <1>   0.0800 
 46 H        1.4420     6.7260     0.3930 H     1 <1>   0.1500 
 47 H        2.3570    10.5030     2.1230 H     1 <1>   0.1500 
 48 H        4.5680    11.0010     1.1530 H     1 <1>   0.0800 
 49 H        4.6130    10.4570    -0.5140 H     1 <1>   0.0800 
 50 H        5.5160     9.5910     0.7160 H     1 <1>   0.0800 
 51 H        0.5350     8.5530     2.0420 H     1 <1>   0.1500 
@<TRIPOS>BOND
  1   1   2  1   
  2   1   3  1   
  3   2   4  2   
  4   2   5  1   
  5   3   6  2   
  6   3   7  1   
  7   4   6  1   
  8   4  26  1   
  9   5   8  1   
 10   5  27  1   
 11   5  28  1   
 12   6  29  1   
 13   7  30  1   
 14   7  31  1   
 15   7  32  1   
 16   8   9  1   
 17   8  10  1   
 18   8  33  1   
 19   9  11  1   
 20   9  34  1   
 21   9  35  1   
 22  10  12  1   
 23  10  36  1   
 24  10  37  1   
 25  11  13  1   
 26  11  14  1   
 27  11  38  1   
 28  12  15  1   
 29  12  16  1   
 30  12  39  1   
 31  13  16  1   
 32  13  17  am  
 33  14  18  1   
 34  14  40  1   
 35  14  41  1   
 36  15  18  1   
 37  15  42  1   
 38  15  43  1   
 39  16  44  1   
 40  16  45  1   
 41  17  19  2   
 42  17  20  1   
 43  20  21  1   
 44  20  22  2   
 45  21  23  1   
 46  21  24  1   
 47  22  25  1   
 48  22  46  1   
 49  23  25  2   
 50  23  47  1   
 51  24  48  1   
 52  24  49  1   
 53  24  50  1   
 54  25  51  1   
@<TRIPOS>SUBSTRUCTURE
  1 ****   9 GROUP 4 **** **** 0

# MOE 2024.06 (io_trps.svl 2023.06)
