@<TRIPOS>MOLECULE
NONAME
47 49 1 0 0 
SMALL
USER_CHARGES


@<TRIPOS>ATOM
  1 O       -1.5800     1.1470     2.2440 O.2   1 <1>  -0.5700 
  2 C       -1.7680     1.5690     1.1060 C.2   1 <1>   0.5440 
  3 N       -3.0640     1.5060     0.6430 N.am  1 <1>  -0.6600 
  4 C       -0.6790     2.1200     0.3370 C.ar  1 <1>   0.0860 
  5 C       -3.4170     0.1810     0.0510 C.3   1 <1>   0.1400 
  6 C       -3.5920     2.7430     0.0100 C.3   1 <1>   0.1400 
  7 C       -0.5410     2.0530    -1.0730 C.ar  1 <1>  -0.1710 
  8 C        0.3600     2.7840     0.9850 C.ar  1 <1>  -0.1500 
  9 C       -4.2490     0.2130    -1.2400 C.3   1 <1>   0.1400 
 10 C       -5.1180     2.8370     0.1040 C.3   1 <1>  -0.1600 
 11 O       -1.3560     1.4460    -1.8140 O.3   1 <1>  -0.8290 
 12 C        0.5730     2.6790    -1.6680 C.ar  1 <1>   0.1600 
 13 C        1.4020     3.3470     0.2890 C.ar  1 <1>   0.1600 
 14 N       -5.6550     0.6650    -0.9870 N.am  1 <1>  -0.6600 
 15 C       -5.8360     2.1360    -1.0530 C.3   1 <1>   0.1400 
 16 N        1.5270     3.3180    -1.0390 N.ar  1 <1>  -0.6200 
 17 C       -6.7050    -0.1750    -0.7230 C.2   1 <1>   0.5690 
 18 O       -7.8370     0.2340    -0.5990 O.2   1 <1>  -0.5700 
 19 C       -6.4670    -1.6730    -0.5850 C.3   1 <1>  -0.0990 
 20 C       -7.6550    -2.4370     0.0170 C.3   1 <1>  -0.0170 
 21 C       -7.3150    -3.9120     0.1620 C.ar  1 <1>  -0.1430 
 22 C       -7.6020    -4.8110    -0.8560 C.ar  1 <1>   0.1600 
 23 C       -6.7050    -4.3800     1.3080 C.ar  1 <1>  -0.1500 
 24 N       -7.3340    -6.1070    -0.8230 N.ar  1 <1>  -0.6200 
 25 C       -6.4220    -5.7280     1.3620 C.ar  1 <1>  -0.1500 
 26 C       -6.7530    -6.5340     0.2860 C.ar  1 <1>   0.1600 
 27 H       -3.9280    -0.3980     0.7970 H     1 <1>   0.0800 
 28 H       -2.4990    -0.3330    -0.1820 H     1 <1>   0.0800 
 29 H       -3.2650     2.8030    -1.0150 H     1 <1>   0.0800 
 30 H       -3.1670     3.5860     0.5270 H     1 <1>   0.0800 
 31 H        0.3350     2.8520     2.0560 H     1 <1>   0.1500 
 32 H       -4.2540    -0.7730    -1.6650 H     1 <1>   0.0800 
 33 H       -3.7690     0.8500    -1.9630 H     1 <1>   0.0800 
 34 H       -5.3820     3.8770     0.0570 H     1 <1>   0.0800 
 35 H       -5.4610     2.4570     1.0500 H     1 <1>   0.0800 
 36 H        0.6230     2.6090    -2.7390 H     1 <1>   0.1500 
 37 H        2.1820     3.8530     0.8280 H     1 <1>   0.1500 
 38 H       -5.4540     2.4970    -1.9930 H     1 <1>   0.0800 
 39 H       -6.8830     2.3820    -1.0120 H     1 <1>   0.0800 
 40 H       -5.6120    -1.8320     0.0440 H     1 <1>   0.0800 
 41 H       -6.2480    -2.0710    -1.5590 H     1 <1>   0.0800 
 42 H       -8.5200    -2.3210    -0.6140 H     1 <1>   0.0800 
 43 H       -7.8990    -2.0230     0.9800 H     1 <1>   0.0800 
 44 H       -8.0780    -4.4430    -1.7490 H     1 <1>   0.1500 
 45 H       -6.4590    -3.7250     2.1260 H     1 <1>   0.1500 
 46 H       -5.9490    -6.1520     2.2280 H     1 <1>   0.1500 
 47 H       -6.5270    -7.5850     0.3400 H     1 <1>   0.1500 
@<TRIPOS>BOND
  1   1   2  2   
  2   2   3  am  
  3   2   4  1   
  4   3   5  1   
  5   3   6  1   
  6   4   7  ar  
  7   4   8  ar  
  8   5   9  1   
  9   5  27  1   
 10   5  28  1   
 11   6  10  1   
 12   6  29  1   
 13   6  30  1   
 14   7  11  1   
 15   7  12  ar  
 16   8  13  ar  
 17   8  31  1   
 18   9  14  1   
 19   9  32  1   
 20   9  33  1   
 21  10  15  1   
 22  10  34  1   
 23  10  35  1   
 24  12  16  ar  
 25  12  36  1   
 26  13  16  ar  
 27  13  37  1   
 28  14  15  1   
 29  14  17  am  
 30  15  38  1   
 31  15  39  1   
 32  17  18  2   
 33  17  19  1   
 34  19  20  1   
 35  19  40  1   
 36  19  41  1   
 37  20  21  1   
 38  20  42  1   
 39  20  43  1   
 40  21  22  ar  
 41  21  23  ar  
 42  22  24  ar  
 43  22  44  1   
 44  23  25  ar  
 45  23  45  1   
 46  24  26  ar  
 47  25  26  ar  
 48  25  46  1   
 49  26  47  1   
@<TRIPOS>SUBSTRUCTURE
  1 ****   5 GROUP 4 **** **** 0

# MOE 2024.06 (io_trps.svl 2023.06)
