@<TRIPOS>MOLECULE
NONAME
56 59 1 0 0 
SMALL
USER_CHARGES


@<TRIPOS>ATOM
  1 O        0.6920    -0.5400     0.4340 O.3   1 <1>  -0.5600 
  2 C        0.1480    -1.7240     0.9720 C.3   1 <1>   0.2800 
  3 C       -0.1280     0.3250    -0.3030 C.3   1 <1>   0.1200 
  4 C       -1.3770    -1.8150     0.7450 C.3   1 <1>  -0.1600 
  5 C        0.4730    -1.7030     2.4730 C.3   1 <1>  -0.1600 
  6 C        0.9090    -2.8970     0.3190 C.3   1 <1>  -0.1600 
  7 C       -0.9140    -0.4600    -1.3570 C.3   1 <1>  -0.1600 
  8 C       -1.7840    -1.5530    -0.7120 C.3   1 <1>   0.2800 
  9 C        1.9720    -1.5410     2.7580 C.3   1 <1>   0.3430 
 10 C        2.2950    -3.1670     0.9110 C.3   1 <1>   0.3430 
 11 O       -1.5880    -2.7180    -1.4140 O.3   1 <1>  -0.6800 
 12 C       -3.2770    -1.2440    -0.8160 C.3   1 <1>  -0.2400 
 13 N        2.7870    -1.9390     1.5810 N.4   1 <1>  -0.9590 
 14 C        4.2510    -1.8950     1.8140 C.3   1 <1>   0.4860 
 15 C        4.9560    -2.0120     0.4760 C.ar  1 <1>  -0.1440 
 16 C        4.8610    -0.9510    -0.3920 C.ar  1 <1>   0.0820 
 17 C        5.6750    -3.1850     0.1330 C.ar  1 <1>   0.0000 
 18 O        4.1340     0.1300    -0.0030 O.3   1 <1>  -0.3620 
 19 C        5.4940    -1.0120    -1.6460 C.ar  1 <1>  -0.1500 
 20 C        6.3000    -3.2350    -1.1350 C.ar  1 <1>   0.0000 
 21 C        5.8080    -4.3190     0.9710 C.ar  1 <1>  -0.1500 
 22 C        3.8910     1.2210    -0.8660 C.3   1 <1>   0.0400 
 23 C        6.1930    -2.1300    -2.0000 C.ar  1 <1>  -0.1500 
 24 C        7.0160    -4.3890    -1.5100 C.ar  1 <1>  -0.1500 
 25 C        6.5090    -5.4270     0.5810 C.ar  1 <1>  -0.1500 
 26 C        7.1210    -5.4640    -0.6740 C.ar  1 <1>  -0.1500 
 27 H        0.5060     1.0570    -0.7730 H     1 <1>   0.0800 
 28 H       -0.7910     0.8310     0.3790 H     1 <1>   0.0800 
 29 H       -1.8520    -1.0810     1.3710 H     1 <1>   0.0800 
 30 H       -1.7530    -2.7720     1.0610 H     1 <1>   0.0800 
 31 H        0.1350    -2.6220     2.9170 H     1 <1>   0.0800 
 32 H       -0.0640    -0.9070     2.9570 H     1 <1>   0.0800 
 33 H        1.0090    -2.7150    -0.7360 H     1 <1>   0.0800 
 34 H        0.3350    -3.8010     0.4180 H     1 <1>   0.0800 
 35 H       -0.2070    -0.8870    -2.0470 H     1 <1>   0.0800 
 36 H       -1.5270     0.2310    -1.9080 H     1 <1>   0.0800 
 37 H        2.2410    -2.1320     3.6190 H     1 <1>   0.0800 
 38 H        2.1720    -0.5050     2.9820 H     1 <1>   0.0800 
 39 H        2.9660    -3.4650     0.1210 H     1 <1>   0.0800 
 40 H        2.2370    -3.9680     1.6290 H     1 <1>   0.0800 
 41 H       -1.9670    -2.6260    -2.3080 H     1 <1>   0.4000 
 42 H       -3.5040    -0.3360    -0.2860 H     1 <1>   0.0800 
 43 H       -3.8550    -2.0400    -0.3800 H     1 <1>   0.0800 
 44 H       -3.5730    -1.1140    -1.8410 H     1 <1>   0.0800 
 45 H        2.6090    -1.1890     0.8800 H     1 <1>   0.4500 
 46 H        4.5490    -2.6760     2.4890 H     1 <1>   0.0800 
 47 H        4.5150    -0.9490     2.2560 H     1 <1>   0.0800 
 48 H        5.4390    -0.1900    -2.3340 H     1 <1>   0.1500 
 49 H        5.3590    -4.3330     1.9440 H     1 <1>   0.1500 
 50 H        3.2630     1.9250    -0.3500 H     1 <1>   0.0800 
 51 H        3.3910     0.8660    -1.7500 H     1 <1>   0.0800 
 52 H        4.8290     1.6870    -1.1150 H     1 <1>   0.0800 
 53 H        6.6790    -2.1820    -2.9580 H     1 <1>   0.1500 
 54 H        7.4860    -4.4110    -2.4770 H     1 <1>   0.1500 
 55 H        6.6050    -6.2820     1.2280 H     1 <1>   0.1500 
 56 H        7.6710    -6.3430    -0.9670 H     1 <1>   0.1500 
@<TRIPOS>BOND
  1   1   2  1   
  2   1   3  1   
  3   2   4  1   
  4   2   5  1   
  5   2   6  1   
  6   3   7  1   
  7   3  27  1   
  8   3  28  1   
  9   4   8  1   
 10   4  29  1   
 11   4  30  1   
 12   5   9  1   
 13   5  31  1   
 14   5  32  1   
 15   6  10  1   
 16   6  33  1   
 17   6  34  1   
 18   7   8  1   
 19   7  35  1   
 20   7  36  1   
 21   8  11  1   
 22   8  12  1   
 23   9  13  1   
 24   9  37  1   
 25   9  38  1   
 26  10  13  1   
 27  10  39  1   
 28  10  40  1   
 29  11  41  1   
 30  12  42  1   
 31  12  43  1   
 32  12  44  1   
 33  13  14  1   
 34  13  45  1   
 35  14  15  1   
 36  14  46  1   
 37  14  47  1   
 38  15  16  ar  
 39  15  17  ar  
 40  16  18  1   
 41  16  19  ar  
 42  17  20  ar  
 43  17  21  ar  
 44  18  22  1   
 45  19  23  ar  
 46  19  48  1   
 47  20  23  ar  
 48  20  24  ar  
 49  21  25  ar  
 50  21  49  1   
 51  22  50  1   
 52  22  51  1   
 53  22  52  1   
 54  23  53  1   
 55  24  26  ar  
 56  24  54  1   
 57  25  26  ar  
 58  25  55  1   
 59  26  56  1   
@<TRIPOS>SUBSTRUCTURE
  1 ****  10 GROUP 4 **** **** 0

# MOE 2024.06 (io_trps.svl 2023.06)
