@<TRIPOS>MOLECULE
NONAME
47 49 1 0 0 
SMALL
USER_CHARGES


@<TRIPOS>ATOM
  1 O       -1.2220     1.0690    -2.0760 O.2   1 <1>  -0.5700 
  2 C       -1.5710     1.9050    -1.2610 C.2   1 <1>   0.5440 
  3 N       -2.9230     2.1530    -1.1000 N.am  1 <1>  -0.6600 
  4 C       -0.5590     2.6380    -0.5330 C.ar  1 <1>   0.0860 
  5 C       -3.9400     1.3020    -1.7820 C.3   1 <1>   0.1400 
  6 C       -3.4580     3.1800    -0.1720 C.3   1 <1>   0.1400 
  7 C       -0.2420     2.3620     0.8020 C.ar  1 <1>   0.0820 
  8 C        0.1430     3.6640    -1.1640 C.ar  1 <1>  -0.1500 
  9 C       -4.3550     0.1360    -0.8770 C.3   1 <1>   0.1400 
 10 C       -4.1880     2.5380     1.0110 C.3   1 <1>  -0.1600 
 11 O       -0.8700     1.3780     1.4630 O.3   1 <1>  -0.5320 
 12 C        0.7270     3.0920     1.4720 C.ar  1 <1>  -0.1500 
 13 C        1.1110     4.4000    -0.5020 C.ar  1 <1>  -0.1430 
 14 N       -5.3790     0.4740     0.1700 N.am  1 <1>  -0.6600 
 15 C       -5.5230     1.8910     0.6290 C.3   1 <1>   0.1400 
 16 C        1.3990     4.1100     0.8220 C.ar  1 <1>  -0.1500 
 17 C        1.8620     5.5130    -1.2100 C.3   1 <1>  -0.0970 
 18 C       -6.2560    -0.4970     0.6310 C.2   1 <1>   0.7150 
 19 O       -7.2920    -0.1250     1.1600 O.2   1 <1>  -0.5700 
 20 C       -6.0060    -1.9230     0.4920 C.2   1 <1>   0.0550 
 21 O       -4.7630    -2.4040     0.4740 O.3   1 <1>  -0.2800 
 22 C       -6.8670    -2.9810     0.3840 C.2   1 <1>  -0.1810 
 23 C       -4.8060    -3.7100     0.3600 C.2   1 <1>  -0.0100 
 24 C       -6.0840    -4.1340     0.2990 C.2   1 <1>  -0.1500 
 25 C       -8.3850    -2.9970     0.3560 C.3   1 <1>  -0.0590 
 26 H       -3.5140     0.8970    -2.6830 H     1 <1>   0.0800 
 27 H       -4.7960     1.8850    -2.0690 H     1 <1>   0.0800 
 28 H       -4.1280     3.8260    -0.7110 H     1 <1>   0.0800 
 29 H       -2.6580     3.7920     0.2060 H     1 <1>   0.0800 
 30 H       -0.0840     3.8720    -2.1950 H     1 <1>   0.1500 
 31 H       -3.4750    -0.2630    -0.4010 H     1 <1>   0.0800 
 32 H       -4.7580    -0.6350    -1.5100 H     1 <1>   0.0800 
 33 H       -4.4020     3.3250     1.7110 H     1 <1>   0.0800 
 34 H       -3.5550     1.8290     1.5140 H     1 <1>   0.0800 
 35 H       -0.5170     1.2010     2.3530 H     1 <1>   0.4500 
 36 H        0.9630     2.8740     2.4970 H     1 <1>   0.1500 
 37 H       -6.0180     2.4660    -0.1330 H     1 <1>   0.0800 
 38 H       -6.1520     1.9150     1.5030 H     1 <1>   0.0800 
 39 H        2.1520     4.6750     1.3450 H     1 <1>   0.1500 
 40 H        1.4850     5.6590    -2.2070 H     1 <1>   0.0800 
 41 H        2.9070     5.2670    -1.2720 H     1 <1>   0.0800 
 42 H        1.7540     6.4340    -0.6660 H     1 <1>   0.0800 
 43 H       -3.8830    -4.2630     0.3300 H     1 <1>   0.1500 
 44 H       -6.4510    -5.1400     0.2060 H     1 <1>   0.1500 
 45 H       -8.7790    -2.0010     0.2640 H     1 <1>   0.0800 
 46 H       -8.7600    -3.4310     1.2650 H     1 <1>   0.0800 
 47 H       -8.7310    -3.5780    -0.4790 H     1 <1>   0.0800 
@<TRIPOS>BOND
  1   1   2  2   
  2   2   3  am  
  3   2   4  1   
  4   3   5  1   
  5   3   6  1   
  6   4   7  ar  
  7   4   8  ar  
  8   5   9  1   
  9   5  26  1   
 10   5  27  1   
 11   6  10  1   
 12   6  28  1   
 13   6  29  1   
 14   7  11  1   
 15   7  12  ar  
 16   8  13  ar  
 17   8  30  1   
 18   9  14  1   
 19   9  31  1   
 20   9  32  1   
 21  10  15  1   
 22  10  33  1   
 23  10  34  1   
 24  11  35  1   
 25  12  16  ar  
 26  12  36  1   
 27  13  16  ar  
 28  13  17  1   
 29  14  15  1   
 30  14  18  am  
 31  15  37  1   
 32  15  38  1   
 33  16  39  1   
 34  17  40  1   
 35  17  41  1   
 36  17  42  1   
 37  18  19  2   
 38  18  20  1   
 39  20  21  1   
 40  20  22  2   
 41  21  23  1   
 42  22  24  1   
 43  22  25  1   
 44  23  24  2   
 45  23  43  1   
 46  24  44  1   
 47  25  45  1   
 48  25  46  1   
 49  25  47  1   
@<TRIPOS>SUBSTRUCTURE
  1 ****   9 GROUP 4 **** **** 0

# MOE 2024.06 (io_trps.svl 2023.06)
