@<TRIPOS>MOLECULE
NONAME
49 51 1 0 0 
SMALL
USER_CHARGES


@<TRIPOS>ATOM
  1 F        0.5220    -1.2000     1.2880 F     1 <1>  -0.1900 
  2 C       -0.3550    -2.0750     0.8650 C.ar  1 <1>   0.1900 
  3 C       -0.1640    -2.8100    -0.3100 C.ar  1 <1>   0.0820 
  4 C       -1.4880    -2.2340     1.6400 C.ar  1 <1>  -0.1500 
  5 O        0.9060    -2.7430    -1.1550 O.3   1 <1>  -0.3630 
  6 C       -1.1530    -3.7090    -0.6730 C.ar  1 <1>  -0.1500 
  7 C       -2.4550    -3.1390     1.2460 C.ar  1 <1>  -0.1500 
  8 C        2.0280    -1.9250    -0.9110 C.3   1 <1>   0.0400 
  9 C       -2.3120    -3.9000     0.0840 C.ar  1 <1>   0.0530 
 10 C       -3.3170    -4.8500    -0.3330 C.2   1 <1>   0.0870 
 11 O       -3.3980    -5.2180    -1.5920 O.3   1 <1>  -0.0190 
 12 C       -4.2890    -5.5270     0.3290 C.2   1 <1>  -0.2330 
 13 N       -4.3540    -6.0840    -1.8100 N.2   1 <1>  -0.4100 
 14 C       -4.9070    -6.2810    -0.6660 C.2   1 <1>   0.3720 
 15 C       -4.6520    -5.5420     1.7060 C.2   1 <1>   1.0330 
 16 N       -5.9830    -7.1570    -0.4910 N.pl3 1 <1>  -0.8210 
 17 O       -4.2760    -6.4620     2.4530 O.co2 1 <1>  -0.9000 
 18 O       -5.3610    -4.6360     2.1780 O.co2 1 <1>  -0.9000 
 19 C       -5.6210    -8.3510     0.3400 C.3   1 <1>   0.2090 
 20 C       -7.2030    -6.4670     0.0130 C.3   1 <1>   0.1290 
 21 C       -5.6990    -9.6760    -0.4590 C.3   1 <1>   0.0000 
 22 C       -5.2950   -10.8310     0.4770 C.3   1 <1>  -0.1600 
 23 C       -7.1550   -10.0350    -0.7980 C.3   1 <1>  -0.1600 
 24 C       -4.8060    -9.5460    -1.7180 C.3   1 <1>   0.1200 
 25 C       -6.5470   -11.1480     1.3020 C.3   1 <1>  -0.1600 
 26 C       -7.7400   -10.6520     0.4760 C.3   1 <1>  -0.1600 
 27 O       -4.6950   -10.7530    -2.4070 O.3   1 <1>  -0.6800 
 28 H       -1.6140    -1.6590     2.5390 H     1 <1>   0.1500 
 29 H       -1.0160    -4.2810    -1.5730 H     1 <1>   0.1500 
 30 H       -3.3380    -3.2510     1.8530 H     1 <1>   0.1500 
 31 H        2.7350    -2.0800    -1.7060 H     1 <1>   0.0800 
 32 H        2.4690    -2.2080     0.0290 H     1 <1>   0.0800 
 33 H        1.7150    -0.8960    -0.8970 H     1 <1>   0.0800 
 34 H       -6.2530    -8.3980     1.2090 H     1 <1>   0.0800 
 35 H       -4.6120    -8.2400     0.7020 H     1 <1>   0.0800 
 36 H       -7.2920    -5.4980    -0.4490 H     1 <1>   0.0800 
 37 H       -7.1510    -6.3310     1.0810 H     1 <1>   0.0800 
 38 H       -8.0760    -7.0460    -0.2260 H     1 <1>   0.0800 
 39 H       -4.4560   -10.5770     1.1030 H     1 <1>   0.0800 
 40 H       -5.0450   -11.7090    -0.0900 H     1 <1>   0.0800 
 41 H       -7.1690   -10.7770    -1.5780 H     1 <1>   0.0800 
 42 H       -7.7170    -9.1840    -1.1380 H     1 <1>   0.0800 
 43 H       -3.8160    -9.2250    -1.4440 H     1 <1>   0.0800 
 44 H       -5.2210    -8.8180    -2.3950 H     1 <1>   0.0800 
 45 H       -6.5110   -10.6180     2.2390 H     1 <1>   0.0800 
 46 H       -6.6180   -12.2030     1.5030 H     1 <1>   0.0800 
 47 H       -8.4150   -11.4550     0.2350 H     1 <1>   0.0800 
 48 H       -8.2770    -9.9010     1.0310 H     1 <1>   0.0800 
 49 H       -4.3390   -11.4360    -1.8110 H     1 <1>   0.4000 
@<TRIPOS>BOND
  1   1   2  1   
  2   2   3  ar  
  3   2   4  ar  
  4   3   5  1   
  5   3   6  ar  
  6   4   7  ar  
  7   4  28  1   
  8   5   8  1   
  9   6   9  ar  
 10   6  29  1   
 11   7   9  ar  
 12   7  30  1   
 13   8  31  1   
 14   8  32  1   
 15   8  33  1   
 16   9  10  1   
 17  10  11  1   
 18  10  12  2   
 19  11  13  1   
 20  12  14  1   
 21  12  15  1   
 22  13  14  2   
 23  14  16  1   
 24  15  17  ar  
 25  15  18  ar  
 26  16  19  1   
 27  16  20  1   
 28  19  21  1   
 29  19  34  1   
 30  19  35  1   
 31  20  36  1   
 32  20  37  1   
 33  20  38  1   
 34  21  22  1   
 35  21  23  1   
 36  21  24  1   
 37  22  25  1   
 38  22  39  1   
 39  22  40  1   
 40  23  26  1   
 41  23  41  1   
 42  23  42  1   
 43  24  27  1   
 44  24  43  1   
 45  24  44  1   
 46  25  26  1   
 47  25  45  1   
 48  25  46  1   
 49  26  47  1   
 50  26  48  1   
 51  27  49  1   
@<TRIPOS>SUBSTRUCTURE
  1 ****  12 GROUP 4 **** **** 0

# MOE 2024.06 (io_trps.svl 2023.06)
