@<TRIPOS>MOLECULE
NONAME
50 53 1 0 0 
SMALL
USER_CHARGES


@<TRIPOS>ATOM
  1 O       -1.0370    -0.4490     0.4080 O.3   1 <1>  -0.5600 
  2 C       -1.6210     0.6370     1.0550 C.3   1 <1>   0.1200 
  3 C       -1.1740    -0.5110    -0.9720 C.3   1 <1>   0.1200 
  4 C       -3.1640     0.5760     1.0600 C.3   1 <1>   0.4230 
  5 C       -2.5890    -0.9540    -1.3730 C.3   1 <1>  -0.0800 
  6 N       -3.7490     1.0860    -0.2490 N.4   1 <1>  -0.9590 
  7 C       -3.6810    -0.8110     1.5510 C.3   1 <1>   0.2090 
  8 C       -3.1200    -2.1510    -0.5610 C.3   1 <1>   0.2090 
  9 C       -3.5980     0.2000    -1.4610 C.3   1 <1>   0.3430 
 10 C       -5.2060     1.3830    -0.0800 C.3   1 <1>   0.2630 
 11 N       -4.1170    -1.7430     0.4670 N.pl3 1 <1>  -0.8380 
 12 C       -5.4450    -2.1060     0.3340 C.ar  1 <1>   0.4100 
 13 N       -6.0740    -1.7240    -0.7810 N.ar  1 <1>  -0.3100 
 14 C       -6.0930    -2.8060     1.3320 C.ar  1 <1>  -0.1500 
 15 N       -7.3420    -1.9970    -0.9530 N.ar  1 <1>  -0.3100 
 16 C       -7.4180    -3.1040     1.1430 C.ar  1 <1>  -0.1500 
 17 C       -8.0290    -2.6880    -0.0310 C.ar  1 <1>   0.3100 
 18 C       -9.4280    -2.9620    -0.2810 C.ar  1 <1>   0.0000 
 19 C       -9.9670    -4.2540    -0.2020 C.ar  1 <1>   0.0820 
 20 C      -10.2870    -1.9150    -0.6170 C.ar  1 <1>  -0.1500 
 21 O       -9.1230    -5.2740     0.1030 O.3   1 <1>  -0.3630 
 22 C      -11.3230    -4.4640    -0.4390 C.ar  1 <1>  -0.1500 
 23 C      -11.6310    -2.1290    -0.8540 C.ar  1 <1>  -0.1500 
 24 C       -9.5180    -6.6260     0.0300 C.3   1 <1>   0.0400 
 25 C      -12.1520    -3.4060    -0.7630 C.ar  1 <1>  -0.1500 
 26 H       -1.2700     0.6030     2.0720 H     1 <1>   0.0800 
 27 H       -1.2600     1.5490     0.6130 H     1 <1>   0.0800 
 28 H       -0.9040     0.4380    -1.4040 H     1 <1>   0.0800 
 29 H       -0.4640    -1.2460    -1.3130 H     1 <1>   0.0800 
 30 H       -3.4560     1.2780     1.8220 H     1 <1>   0.0800 
 31 H       -2.4910    -1.3170    -2.3790 H     1 <1>   0.0800 
 32 H       -3.2700     1.9680    -0.4670 H     1 <1>   0.4500 
 33 H       -4.5140    -0.6380     2.2090 H     1 <1>   0.0800 
 34 H       -2.9190    -1.2930     2.1390 H     1 <1>   0.0800 
 35 H       -2.3080    -2.6750    -0.0850 H     1 <1>   0.0800 
 36 H       -3.5940    -2.8460    -1.2350 H     1 <1>   0.0800 
 37 H       -4.5540    -0.2330    -1.7010 H     1 <1>   0.0800 
 38 H       -3.3270     0.8180    -2.3000 H     1 <1>   0.0800 
 39 H       -5.7430     0.4830     0.1730 H     1 <1>   0.0800 
 40 H       -5.6190     1.7740    -0.9960 H     1 <1>   0.0800 
 41 H       -5.3590     2.1060     0.7040 H     1 <1>   0.0800 
 42 H       -5.5650    -3.1110     2.2150 H     1 <1>   0.1500 
 43 H       -7.9790    -3.6530     1.8780 H     1 <1>   0.1500 
 44 H       -9.8920    -0.9170    -0.6950 H     1 <1>   0.1500 
 45 H      -11.7550    -5.4440    -0.3760 H     1 <1>   0.1500 
 46 H      -12.2720    -1.3030    -1.1110 H     1 <1>   0.1500 
 47 H       -8.6580    -7.2370     0.2400 H     1 <1>   0.0800 
 48 H       -9.8770    -6.8320    -0.9630 H     1 <1>   0.0800 
 49 H      -10.2830    -6.8080     0.7630 H     1 <1>   0.0800 
 50 H      -13.1990    -3.5740    -0.9460 H     1 <1>   0.1500 
@<TRIPOS>BOND
  1   1   2  1   
  2   1   3  1   
  3   2   4  1   
  4   2  26  1   
  5   2  27  1   
  6   3   5  1   
  7   3  28  1   
  8   3  29  1   
  9   4   6  1   
 10   4   7  1   
 11   4  30  1   
 12   5   8  1   
 13   5   9  1   
 14   5  31  1   
 15   6   9  1   
 16   6  10  1   
 17   6  32  1   
 18   7  11  1   
 19   7  33  1   
 20   7  34  1   
 21   8  11  1   
 22   8  35  1   
 23   8  36  1   
 24   9  37  1   
 25   9  38  1   
 26  10  39  1   
 27  10  40  1   
 28  10  41  1   
 29  11  12  1   
 30  12  13  ar  
 31  12  14  ar  
 32  13  15  ar  
 33  14  16  ar  
 34  14  42  1   
 35  15  17  ar  
 36  16  17  ar  
 37  16  43  1   
 38  17  18  1   
 39  18  19  ar  
 40  18  20  ar  
 41  19  21  1   
 42  19  22  ar  
 43  20  23  ar  
 44  20  44  1   
 45  21  24  1   
 46  22  25  ar  
 47  22  45  1   
 48  23  25  ar  
 49  23  46  1   
 50  24  47  1   
 51  24  48  1   
 52  24  49  1   
 53  25  50  1   
@<TRIPOS>SUBSTRUCTURE
  1 ****  13 GROUP 4 **** **** 0

# MOE 2024.06 (io_trps.svl 2023.06)
