@<TRIPOS>MOLECULE
NONAME
61 63 1 0 0 
SMALL
USER_CHARGES


@<TRIPOS>ATOM
  1 O       -4.0810     2.8920     0.3720 O.2   1 <1>  -0.5700 
  2 C       -3.3100     2.3170    -0.3680 C.2   1 <1>   0.6300 
  3 N       -3.5790     1.0250    -0.7510 N.am  1 <1>  -0.6600 
  4 C       -1.9960     3.0300    -0.7200 C.3   1 <1>   0.0320 
  5 C       -2.6860     0.2070    -1.6350 C.3   1 <1>   0.3210 
  6 C       -4.8080     0.3290    -0.2430 C.3   1 <1>   0.1400 
  7 C       -0.9940     2.8110     0.4090 C.ar  1 <1>  -0.0320 
  8 C       -2.0080     4.3640    -1.4320 C.3   1 <1>  -0.1900 
  9 C       -1.5180     3.1630    -2.1560 C.3   1 <1>  -0.2000 
 10 C       -2.5290    -1.2370    -1.1590 C.2   1 <1>   0.0460 
 11 C       -4.6180    -0.2770     1.1680 C.3   1 <1>   0.3430 
 12 C        0.0080     1.8570     0.3190 C.ar  1 <1>  -0.1500 
 13 C       -1.1160     3.5540     1.5750 C.ar  1 <1>  -0.1500 
 14 C       -3.3360     4.9860    -1.8880 C.3   1 <1>  -0.1450 
 15 C       -0.9750     5.4510    -1.1000 C.3   1 <1>  -0.1450 
 16 N       -1.8880    -1.5240    -0.0050 N.2   1 <1>  -0.5650 
 17 C       -2.9480    -2.3740    -1.7670 C.2   1 <1>  -0.3320 
 18 N       -4.0120     0.6940     2.1380 N.4   1 <1>  -0.9590 
 19 C        0.8640     1.6420     1.3850 C.ar  1 <1>  -0.1500 
 20 C       -0.2580     3.3480     2.6400 C.ar  1 <1>  -0.1500 
 21 C       -1.9070    -2.8150     0.0520 C.2   1 <1>   0.0360 
 22 N       -2.5400    -3.3930    -0.9880 N.pl3 1 <1>   0.0330 
 23 C       -3.7030    -2.6040    -3.0680 C.3   1 <1>  -0.0600 
 24 C       -2.5440     0.4450     2.2900 C.3   1 <1>   0.2630 
 25 C       -4.7040     0.7100     3.4540 C.3   1 <1>   0.2630 
 26 C        0.7380     2.3810     2.5490 C.ar  1 <1>   0.0830 
 27 O        1.6120     2.1070     3.5470 O.3   1 <1>  -0.3620 
 28 C        1.7380     2.9580     4.6650 C.3   1 <1>   0.0400 
 29 H       -1.7030     0.6320    -1.6810 H     1 <1>   0.0800 
 30 H       -3.0900     0.2150    -2.6310 H     1 <1>   0.0800 
 31 H       -5.0960    -0.4500    -0.9280 H     1 <1>   0.0800 
 32 H       -5.6240     1.0310    -0.2110 H     1 <1>   0.0800 
 33 H       -2.1220     2.7840    -2.9610 H     1 <1>   0.1000 
 34 H       -0.4650     3.0800    -2.3620 H     1 <1>   0.1000 
 35 H       -3.9970    -1.1540     1.0950 H     1 <1>   0.0800 
 36 H       -5.5820    -0.5950     1.5270 H     1 <1>   0.0800 
 37 H        0.1290     1.2710    -0.5730 H     1 <1>   0.1500 
 38 H       -1.8920     4.2980     1.6470 H     1 <1>   0.1500 
 39 H       -4.0300     4.2350    -2.2200 H     1 <1>   0.0800 
 40 H       -3.1680     5.6680    -2.7020 H     1 <1>   0.0800 
 41 H       -3.7870     5.5260    -1.0740 H     1 <1>   0.0800 
 42 H       -0.0200     5.0220    -0.8500 H     1 <1>   0.0800 
 43 H       -1.3110     6.0400    -0.2660 H     1 <1>   0.0800 
 44 H       -0.8350     6.1020    -1.9450 H     1 <1>   0.0800 
 45 H       -4.1100     1.6330     1.6900 H     1 <1>   0.4500 
 46 H        1.6390     0.8990     1.3180 H     1 <1>   0.1500 
 47 H       -0.3780     3.9440     3.5250 H     1 <1>   0.1500 
 48 H       -1.4620    -3.3980     0.8410 H     1 <1>   0.1500 
 49 H       -2.6600    -4.3980    -1.1560 H     1 <1>   0.2700 
 50 H       -3.9630    -1.6730    -3.5360 H     1 <1>   0.0800 
 51 H       -4.6090    -3.1540    -2.8800 H     1 <1>   0.0800 
 52 H       -3.0940    -3.1680    -3.7530 H     1 <1>   0.0800 
 53 H       -2.3650    -0.5330     2.7030 H     1 <1>   0.0800 
 54 H       -2.0990     1.1870     2.9330 H     1 <1>   0.0800 
 55 H       -2.0580     0.4990     1.3300 H     1 <1>   0.0800 
 56 H       -4.6200    -0.2520     3.9330 H     1 <1>   0.0800 
 57 H       -5.7480     0.9460     3.3230 H     1 <1>   0.0800 
 58 H       -4.2620     1.4560     4.0950 H     1 <1>   0.0800 
 59 H        2.5520     2.5970     5.2690 H     1 <1>   0.0800 
 60 H        0.8250     2.9320     5.2320 H     1 <1>   0.0800 
 61 H        1.9530     3.9550     4.3230 H     1 <1>   0.0800 
@<TRIPOS>BOND
  1   1   2  2   
  2   2   3  am  
  3   2   4  1   
  4   3   5  1   
  5   3   6  1   
  6   4   7  1   
  7   4   8  1   
  8   4   9  1   
  9   5  10  1   
 10   5  29  1   
 11   5  30  1   
 12   6  11  1   
 13   6  31  1   
 14   6  32  1   
 15   7  12  ar  
 16   7  13  ar  
 17   8   9  1   
 18   8  14  1   
 19   8  15  1   
 20   9  33  1   
 21   9  34  1   
 22  10  16  1   
 23  10  17  2   
 24  11  18  1   
 25  11  35  1   
 26  11  36  1   
 27  12  19  ar  
 28  12  37  1   
 29  13  20  ar  
 30  13  38  1   
 31  14  39  1   
 32  14  40  1   
 33  14  41  1   
 34  15  42  1   
 35  15  43  1   
 36  15  44  1   
 37  16  21  2   
 38  17  22  1   
 39  17  23  1   
 40  18  24  1   
 41  18  25  1   
 42  18  45  1   
 43  19  26  ar  
 44  19  46  1   
 45  20  26  ar  
 46  20  47  1   
 47  21  22  1   
 48  21  48  1   
 49  22  49  1   
 50  23  50  1   
 51  23  51  1   
 52  23  52  1   
 53  24  53  1   
 54  24  54  1   
 55  24  55  1   
 56  25  56  1   
 57  25  57  1   
 58  25  58  1   
 59  26  27  1   
 60  27  28  1   
 61  28  59  1   
 62  28  60  1   
 63  28  61  1   
@<TRIPOS>SUBSTRUCTURE
  1 ****   2 GROUP 4 **** **** 0

# MOE 2024.06 (io_trps.svl 2023.06)
