@<TRIPOS>MOLECULE
NONAME
39 40 1 0 0 
SMALL
USER_CHARGES


@<TRIPOS>ATOM
  1 O        2.1030    -0.4140    -2.3620 O.2   1 <1>  -0.5700 
  2 C        1.3720    -0.7740    -1.4720 C.2   1 <1>   0.5690 
  3 N        1.7600    -1.1280    -0.2270 N.am  1 <1>  -0.6600 
  4 C       -0.1220    -0.8590    -1.6090 C.3   1 <1>  -0.0990 
  5 C        0.6330    -1.4710     0.6540 C.3   1 <1>   0.1400 
  6 C        3.1560    -1.1450     0.2520 C.3   1 <1>   0.1400 
  7 C       -0.5760    -1.5150    -0.2920 C.3   1 <1>  -0.1600 
  8 C        3.5220     0.2410     0.7840 C.3   1 <1>  -0.1600 
  9 C        5.0160     0.3280     1.1340 C.3   1 <1>  -0.0990 
 10 C        5.4130     1.7120     1.6120 C.2   1 <1>   0.5690 
 11 O        5.7180     1.8540     2.7710 O.2   1 <1>  -0.5700 
 12 N        5.4040     2.7220     0.7000 N.am  1 <1>  -0.4930 
 13 C        5.7450     4.0870     0.8710 C.2   1 <1>   0.0630 
 14 C        5.6480     5.0600    -0.0620 C.2   1 <1>  -0.3320 
 15 C        6.2490     4.7300     2.0020 C.2   1 <1>   0.1390 
 16 N        6.0830     6.2030     0.5270 N.pl3 1 <1>   0.3140 
 17 C        5.1590     4.9810    -1.5020 C.3   1 <1>  -0.0600 
 18 N        6.4550     5.9980     1.8010 N.2   1 <1>  -0.7070 
 19 C        6.1680     7.5390    -0.0770 C.3   1 <1>   0.0160 
 20 H       -0.3880    -1.4500    -2.4660 H     1 <1>   0.0800 
 21 H       -0.5200     0.1340    -1.7080 H     1 <1>   0.0800 
 22 H        0.5130    -0.7030     1.4000 H     1 <1>   0.0800 
 23 H        0.7950    -2.4240     1.1280 H     1 <1>   0.0800 
 24 H        3.8000    -1.3990    -0.5740 H     1 <1>   0.0800 
 25 H        3.2730    -1.8920     1.0180 H     1 <1>   0.0800 
 26 H       -0.8400    -2.5420    -0.4720 H     1 <1>   0.0800 
 27 H       -1.4250    -1.0110     0.1350 H     1 <1>   0.0800 
 28 H        2.9360     0.4560     1.6610 H     1 <1>   0.0800 
 29 H        3.2880     0.9720     0.0290 H     1 <1>   0.0800 
 30 H        5.6120     0.0800     0.2750 H     1 <1>   0.0800 
 31 H        5.2460    -0.3810     1.9110 H     1 <1>   0.0800 
 32 H        5.0940     2.4830    -0.2390 H     1 <1>   0.3700 
 33 H        6.4470     4.2360     2.9380 H     1 <1>   0.1500 
 34 H        4.8570     3.9800    -1.7490 H     1 <1>   0.0800 
 35 H        5.9440     5.2750    -2.1760 H     1 <1>   0.0800 
 36 H        4.3150     5.6330    -1.6420 H     1 <1>   0.0800 
 37 H        6.8320     7.5030    -0.9190 H     1 <1>   0.0800 
 38 H        6.5490     8.2300     0.6530 H     1 <1>   0.0800 
 39 H        5.1890     7.8480    -0.3890 H     1 <1>   0.0800 
@<TRIPOS>BOND
  1   1   2  2   
  2   2   3  am  
  3   2   4  1   
  4   3   5  1   
  5   3   6  1   
  6   4   7  1   
  7   4  20  1   
  8   4  21  1   
  9   5   7  1   
 10   5  22  1   
 11   5  23  1   
 12   6   8  1   
 13   6  24  1   
 14   6  25  1   
 15   7  26  1   
 16   7  27  1   
 17   8   9  1   
 18   8  28  1   
 19   8  29  1   
 20   9  10  1   
 21   9  30  1   
 22   9  31  1   
 23  10  11  2   
 24  10  12  am  
 25  12  13  1   
 26  12  32  1   
 27  13  14  2   
 28  13  15  1   
 29  14  16  1   
 30  14  17  1   
 31  15  18  2   
 32  15  33  1   
 33  16  18  1   
 34  16  19  1   
 35  17  34  1   
 36  17  35  1   
 37  17  36  1   
 38  19  37  1   
 39  19  38  1   
 40  19  39  1   
@<TRIPOS>SUBSTRUCTURE
  1 ****  12 GROUP 4 **** **** 0

# MOE 2024.06 (io_trps.svl 2023.06)
