@<TRIPOS>MOLECULE
NONAME
48 49 1 0 0 
SMALL
USER_CHARGES


@<TRIPOS>ATOM
  1 S       -0.7640     0.4260    -1.0740 S.3   1 <1>  -0.0800 
  2 C       -1.0810     1.6070     0.1860 C.2   1 <1>  -0.1400 
  3 C       -1.7230    -0.7930    -0.2580 C.2   1 <1>  -0.1400 
  4 C       -1.8770     1.0690     1.1310 C.2   1 <1>  -0.1500 
  5 C       -0.4330     2.9740     0.0140 C.3   1 <1>   0.3800 
  6 C       -2.2420    -0.2920     0.8830 C.2   1 <1>  -0.1500 
  7 C       -1.7690    -2.1320    -0.9630 C.3   1 <1>   0.5230 
  8 O        0.9510     2.8060     0.0990 O.3   1 <1>  -0.5600 
  9 C       -0.8760     3.9840     1.0850 C.3   1 <1>  -0.1600 
 10 N       -2.7040    -3.0510    -0.2530 N.4   1 <1>  -0.9590 
 11 C        1.7000     3.9500    -0.1760 C.3   1 <1>   0.1200 
 12 C       -0.1180     5.3090     0.9380 C.3   1 <1>  -0.1600 
 13 C       -2.4850    -4.5320    -0.5040 C.3   1 <1>   0.5640 
 14 C       -4.1220    -2.6180    -0.5160 C.3   1 <1>   0.2630 
 15 C        1.3880     5.0310     0.8670 C.3   1 <1>  -0.1600 
 16 C       -3.5780    -5.4260     0.2020 C.2   1 <1>   0.5690 
 17 C       -1.0820    -4.8840     0.0260 C.3   1 <1>  -0.2400 
 18 C       -2.4980    -4.8070    -2.0200 C.3   1 <1>  -0.2400 
 19 O       -4.6910    -5.4440    -0.2710 O.2   1 <1>  -0.5700 
 20 N       -3.3060    -6.1330     1.3450 N.am  1 <1>  -0.7300 
 21 C       -4.2850    -6.9930     2.0680 C.3   1 <1>   0.0600 
 22 H       -2.2240     1.5780     2.0150 H     1 <1>   0.1500 
 23 H       -0.6640     3.3520    -0.9670 H     1 <1>   0.0800 
 24 H       -2.8680    -0.8020     1.5930 H     1 <1>   0.1500 
 25 H       -0.7710    -2.5340    -0.9770 H     1 <1>   0.0800 
 26 H       -2.0890    -1.9940    -1.9830 H     1 <1>   0.0800 
 27 H       -0.6820     3.5650     2.0570 H     1 <1>   0.0800 
 28 H       -1.9330     4.1570     1.0010 H     1 <1>   0.0800 
 29 H       -2.5240    -2.9020     0.7460 H     1 <1>   0.4500 
 30 H        1.4650     4.2860    -1.1720 H     1 <1>   0.0800 
 31 H        2.7400     3.6770    -0.1350 H     1 <1>   0.0800 
 32 H       -0.3360     5.9570     1.7700 H     1 <1>   0.0800 
 33 H       -0.4330     5.8040     0.0350 H     1 <1>   0.0800 
 34 H       -4.3940    -2.8160    -1.5400 H     1 <1>   0.0800 
 35 H       -4.2380    -1.5630    -0.3290 H     1 <1>   0.0800 
 36 H       -4.8070    -3.1510     0.1250 H     1 <1>   0.0800 
 37 H        1.9170     5.9340     0.6190 H     1 <1>   0.0800 
 38 H        1.7440     4.6960     1.8260 H     1 <1>   0.0800 
 39 H       -0.9770    -4.6060     1.0600 H     1 <1>   0.0800 
 40 H       -0.3000    -4.4160    -0.5430 H     1 <1>   0.0800 
 41 H       -0.9230    -5.9460    -0.0530 H     1 <1>   0.0800 
 42 H       -3.4410    -4.5310    -2.4570 H     1 <1>   0.0800 
 43 H       -2.3720    -5.8620    -2.1890 H     1 <1>   0.0800 
 44 H       -1.7030    -4.3030    -2.5380 H     1 <1>   0.0800 
 45 H       -2.3590    -6.1660     1.7310 H     1 <1>   0.3700 
 46 H       -5.2590    -6.9330     1.6100 H     1 <1>   0.0800 
 47 H       -4.3680    -6.6740     3.0930 H     1 <1>   0.0800 
 48 H       -3.9580    -8.0180     2.0440 H     1 <1>   0.0800 
@<TRIPOS>BOND
  1   1   2  1   
  2   1   3  1   
  3   2   4  2   
  4   2   5  1   
  5   3   6  2   
  6   3   7  1   
  7   4   6  1   
  8   4  22  1   
  9   5   8  1   
 10   5   9  1   
 11   5  23  1   
 12   6  24  1   
 13   7  10  1   
 14   7  25  1   
 15   7  26  1   
 16   8  11  1   
 17   9  12  1   
 18   9  27  1   
 19   9  28  1   
 20  10  13  1   
 21  10  14  1   
 22  10  29  1   
 23  11  15  1   
 24  11  30  1   
 25  11  31  1   
 26  12  15  1   
 27  12  32  1   
 28  12  33  1   
 29  13  16  1   
 30  13  17  1   
 31  13  18  1   
 32  14  34  1   
 33  14  35  1   
 34  14  36  1   
 35  15  37  1   
 36  15  38  1   
 37  16  19  2   
 38  16  20  am  
 39  17  39  1   
 40  17  40  1   
 41  17  41  1   
 42  18  42  1   
 43  18  43  1   
 44  18  44  1   
 45  20  21  1   
 46  20  45  1   
 47  21  46  1   
 48  21  47  1   
 49  21  48  1   
@<TRIPOS>SUBSTRUCTURE
  1 ****   3 GROUP 4 **** **** 0

# MOE 2024.06 (io_trps.svl 2023.06)
