@<TRIPOS>MOLECULE
NONAME
55 60 1 0 0 
SMALL
USER_CHARGES


@<TRIPOS>ATOM
  1 O        0.0890     0.7140    -0.1710 O.2   1 <1>  -0.5700 
  2 C       -0.5190     1.7710    -0.0690 C.2   1 <1>   0.7160 
  3 N       -1.9050     1.6980    -0.1430 N.am  1 <1>  -0.6600 
  4 C        0.2430     3.0070     0.1350 C.2   1 <1>   0.2030 
  5 C       -2.8370     2.8080     0.2160 C.3   1 <1>   0.1400 
  6 C       -2.5740     0.4160    -0.5270 C.3   1 <1>   0.1400 
  7 N       -0.0910     4.2590    -0.1730 N.2   1 <1>  -0.7070 
  8 C        1.5240     3.0170     0.7040 C.2   1 <1>  -0.1810 
  9 C       -3.7630     3.1600    -0.9710 C.3   1 <1>   0.1430 
 10 C       -4.0570     0.6150    -0.8910 C.3   1 <1>  -0.1600 
 11 N        0.9550     5.0250     0.1960 N.pl3 1 <1>   0.3000 
 12 C        1.9310     4.2760     0.7280 C.2   1 <1>  -0.3320 
 13 C        2.5510     2.0740     1.2670 C.3   1 <1>   0.0210 
 14 C       -4.8990     4.0020    -0.4130 C.ar  1 <1>   0.1670 
 15 C       -4.2570     1.8930    -1.7210 C.3   1 <1>  -0.1600 
 16 C       -3.0860     4.1550    -1.9470 C.3   1 <1>  -0.1600 
 17 C        3.3030     4.4740     1.3060 C.3   1 <1>   0.0200 
 18 C        3.6710     3.0340     1.7450 C.3   1 <1>  -0.1600 
 19 N       -5.9280     3.5480     0.2610 N.ar  1 <1>  -0.6200 
 20 C       -4.7150     5.3240    -0.6800 C.ar  1 <1>  -0.1440 
 21 C       -3.4440     5.5660    -1.4550 C.3   1 <1>  -0.0170 
 22 C       -6.8130     4.4680     0.6680 C.ar  1 <1>   0.6200 
 23 C       -5.6620     6.2040    -0.2270 C.ar  1 <1>   0.1600 
 24 N       -6.7120     5.7870     0.4440 N.ar  1 <1>  -0.6200 
 25 C       -7.9740     3.9970     1.4120 C.ar  1 <1>   0.0000 
 26 C       -7.9310     2.8280     2.1780 C.ar  1 <1>  -0.1500 
 27 C       -9.1870     4.6920     1.3950 C.ar  1 <1>  -0.1500 
 28 C       -9.0310     2.3770     2.8840 C.ar  1 <1>  -0.1500 
 29 C      -10.2920     4.2480     2.0990 C.ar  1 <1>  -0.1500 
 30 C      -10.2170     3.0870     2.8460 C.ar  1 <1>  -0.1500 
 31 H       -2.3170     3.6820     0.5580 H     1 <1>   0.0800 
 32 H       -3.4430     2.4750     1.0410 H     1 <1>   0.0800 
 33 H       -2.4860    -0.2870     0.2830 H     1 <1>   0.0800 
 34 H       -2.0570     0.0060    -1.3780 H     1 <1>   0.0800 
 35 H       -4.6450     0.6730     0.0090 H     1 <1>   0.0800 
 36 H       -4.4020    -0.2400    -1.4440 H     1 <1>   0.0800 
 37 H        0.9770     6.0440     0.0700 H     1 <1>   0.2700 
 38 H        2.9020     1.4110     0.4960 H     1 <1>   0.0800 
 39 H        2.1400     1.5030     2.0820 H     1 <1>   0.0800 
 40 H       -3.6980     1.7730    -2.6330 H     1 <1>   0.0800 
 41 H       -5.2940     2.0010    -1.9880 H     1 <1>   0.0800 
 42 H       -3.5070     4.0360    -2.9300 H     1 <1>   0.0800 
 43 H       -2.0230     4.0030    -2.0150 H     1 <1>   0.0800 
 44 H        3.2810     5.1460     2.1460 H     1 <1>   0.0800 
 45 H        3.9820     4.8360     0.5540 H     1 <1>   0.0800 
 46 H        4.6190     2.7420     1.3280 H     1 <1>   0.0800 
 47 H        3.7390     2.9940     2.8180 H     1 <1>   0.0800 
 48 H       -3.5910     6.2470    -2.2750 H     1 <1>   0.0800 
 49 H       -2.6790     5.9400    -0.7960 H     1 <1>   0.0800 
 50 H       -5.5600     7.2590    -0.4140 H     1 <1>   0.1500 
 51 H       -7.0170     2.2610     2.2200 H     1 <1>   0.1500 
 52 H       -9.2660     5.5970     0.8180 H     1 <1>   0.1500 
 53 H       -8.9660     1.4730     3.4630 H     1 <1>   0.1500 
 54 H      -11.2110     4.8060     2.0640 H     1 <1>   0.1500 
 55 H      -11.0750     2.7390     3.3940 H     1 <1>   0.1500 
@<TRIPOS>BOND
  1   1   2  2   
  2   2   3  am  
  3   2   4  1   
  4   3   5  1   
  5   3   6  1   
  6   4   7  2   
  7   4   8  1   
  8   5   9  1   
  9   5  31  1   
 10   5  32  1   
 11   6  10  1   
 12   6  33  1   
 13   6  34  1   
 14   7  11  1   
 15   8  12  2   
 16   8  13  1   
 17   9  14  1   
 18   9  15  1   
 19   9  16  1   
 20  10  15  1   
 21  10  35  1   
 22  10  36  1   
 23  11  12  1   
 24  11  37  1   
 25  12  17  1   
 26  13  18  1   
 27  13  38  1   
 28  13  39  1   
 29  14  19  ar  
 30  14  20  ar  
 31  15  40  1   
 32  15  41  1   
 33  16  21  1   
 34  16  42  1   
 35  16  43  1   
 36  17  18  1   
 37  17  44  1   
 38  17  45  1   
 39  18  46  1   
 40  18  47  1   
 41  19  22  ar  
 42  20  21  1   
 43  20  23  ar  
 44  21  48  1   
 45  21  49  1   
 46  22  24  ar  
 47  22  25  1   
 48  23  24  ar  
 49  23  50  1   
 50  25  26  ar  
 51  25  27  ar  
 52  26  28  ar  
 53  26  51  1   
 54  27  29  ar  
 55  27  52  1   
 56  28  30  ar  
 57  28  53  1   
 58  29  30  ar  
 59  29  54  1   
 60  30  55  1   
@<TRIPOS>SUBSTRUCTURE
  1 ****   5 GROUP 4 **** **** 0

# MOE 2024.06 (io_trps.svl 2023.06)
