@<TRIPOS>MOLECULE
NONAME
55 58 1 0 0 
SMALL
USER_CHARGES


@<TRIPOS>ATOM
  1 O       -0.8730     0.0610     0.4370 O.2   1 <1>  -0.5700 
  2 C       -1.8680     0.7240     0.6210 C.2   1 <1>   0.5690 
  3 N       -3.0000     0.1800     1.1600 N.am  1 <1>  -0.6600 
  4 C       -1.8590     2.1930     0.2290 C.3   1 <1>  -0.0990 
  5 C       -4.3160     0.8400     1.3020 C.3   1 <1>   0.1400 
  6 C       -3.1460    -1.2610     1.4380 C.3   1 <1>   0.1400 
  7 C       -0.4580     2.7360    -0.0740 C.3   1 <1>   0.0210 
  8 C       -5.3470    -0.2680     1.0470 C.3   1 <1>  -0.0800 
  9 C       -4.5610    -1.6010     0.9650 C.3   1 <1>  -0.0800 
 10 C       -0.4000     4.2260    -0.4080 C.2   1 <1>  -0.1810 
 11 C       -6.2890     0.0280    -0.1480 C.3   1 <1>   0.4240 
 12 C       -4.5390    -2.2230    -0.4430 C.3   1 <1>  -0.1600 
 13 C       -1.3120     5.2050    -0.5800 C.2   1 <1>  -0.0400 
 14 C        0.8110     4.8910    -0.6190 C.2   1 <1>   0.1080 
 15 O       -5.5310     0.4710    -1.2200 O.3   1 <1>  -0.6800 
 16 C       -7.3260     1.1080     0.2260 C.ar  1 <1>  -0.1440 
 17 C       -6.9480    -1.2800    -0.6160 C.3   1 <1>  -0.1600 
 18 C       -5.9460    -2.3720    -1.0560 C.3   1 <1>  -0.1600 
 19 O       -0.6660     6.3070    -0.8560 O.3   1 <1>  -0.0190 
 20 C       -2.8260     5.3100    -0.5320 C.3   1 <1>  -0.0600 
 21 N        0.6190     6.1320    -0.8830 N.2   1 <1>  -0.4100 
 22 C        2.1880     4.2650    -0.5530 C.3   1 <1>  -0.0590 
 23 C       -7.3220     2.3770    -0.3500 C.ar  1 <1>  -0.1500 
 24 C       -8.3040     0.8310     1.1780 C.ar  1 <1>  -0.1500 
 25 C       -8.2580     3.3300     0.0110 C.ar  1 <1>  -0.1500 
 26 C       -9.2420     1.7820     1.5410 C.ar  1 <1>  -0.1500 
 27 C       -9.2200     3.0350     0.9580 C.ar  1 <1>  -0.1500 
 28 H       -2.4730     2.3000    -0.6450 H     1 <1>   0.0800 
 29 H       -2.2800     2.7620     1.0360 H     1 <1>   0.0800 
 30 H       -4.4170     1.2140     2.3070 H     1 <1>   0.0800 
 31 H       -4.4250     1.6610     0.6160 H     1 <1>   0.0800 
 32 H       -2.3960    -1.8430     0.9270 H     1 <1>   0.0800 
 33 H       -3.0550    -1.4210     2.4990 H     1 <1>   0.0800 
 34 H       -0.0440     2.1850    -0.9010 H     1 <1>   0.0800 
 35 H        0.1680     2.5550     0.7820 H     1 <1>   0.0800 
 36 H       -5.9590    -0.3270     1.9280 H     1 <1>   0.0800 
 37 H       -4.9940    -2.3210     1.6380 H     1 <1>   0.0800 
 38 H       -3.9290    -1.6140    -1.0880 H     1 <1>   0.0800 
 39 H       -4.0680    -3.1910    -0.4030 H     1 <1>   0.0800 
 40 H       -4.9110    -0.2440    -1.4510 H     1 <1>   0.4000 
 41 H       -7.5280    -1.6750     0.1970 H     1 <1>   0.0800 
 42 H       -7.6370    -1.0660    -1.4150 H     1 <1>   0.0800 
 43 H       -6.3510    -3.3330    -0.7860 H     1 <1>   0.0800 
 44 H       -5.8550    -2.3600    -2.1290 H     1 <1>   0.0800 
 45 H       -3.2970     4.3740    -0.3160 H     1 <1>   0.0800 
 46 H       -3.1880     5.6620    -1.4810 H     1 <1>   0.0800 
 47 H       -3.1100     6.0180     0.2260 H     1 <1>   0.0800 
 48 H        2.3760     3.9000     0.4390 H     1 <1>   0.0800 
 49 H        2.9360     4.9970    -0.8000 H     1 <1>   0.0800 
 50 H        2.2550     3.4530    -1.2520 H     1 <1>   0.0800 
 51 H       -6.5900     2.6400    -1.0930 H     1 <1>   0.1500 
 52 H       -8.3500    -0.1320     1.6520 H     1 <1>   0.1500 
 53 H       -8.2380     4.3030    -0.4490 H     1 <1>   0.1500 
 54 H       -9.9910     1.5470     2.2770 H     1 <1>   0.1500 
 55 H       -9.9500     3.7750     1.2380 H     1 <1>   0.1500 
@<TRIPOS>BOND
  1   1   2  2   
  2   2   3  am  
  3   2   4  1   
  4   3   5  1   
  5   3   6  1   
  6   4   7  1   
  7   4  28  1   
  8   4  29  1   
  9   5   8  1   
 10   5  30  1   
 11   5  31  1   
 12   6   9  1   
 13   6  32  1   
 14   6  33  1   
 15   7  10  1   
 16   7  34  1   
 17   7  35  1   
 18   8   9  1   
 19   8  11  1   
 20   8  36  1   
 21   9  12  1   
 22   9  37  1   
 23  10  13  2   
 24  10  14  1   
 25  11  15  1   
 26  11  16  1   
 27  11  17  1   
 28  12  18  1   
 29  12  38  1   
 30  12  39  1   
 31  13  19  1   
 32  13  20  1   
 33  14  21  2   
 34  14  22  1   
 35  15  40  1   
 36  16  23  ar  
 37  16  24  ar  
 38  17  18  1   
 39  17  41  1   
 40  17  42  1   
 41  18  43  1   
 42  18  44  1   
 43  19  21  1   
 44  20  45  1   
 45  20  46  1   
 46  20  47  1   
 47  22  48  1   
 48  22  49  1   
 49  22  50  1   
 50  23  25  ar  
 51  23  51  1   
 52  24  26  ar  
 53  24  52  1   
 54  25  27  ar  
 55  25  53  1   
 56  26  27  ar  
 57  26  54  1   
 58  27  55  1   
@<TRIPOS>SUBSTRUCTURE
  1 ****   5 GROUP 4 **** **** 0

# MOE 2024.06 (io_trps.svl 2023.06)
