@<TRIPOS>MOLECULE
NONAME
51 54 1 0 0 
SMALL
USER_CHARGES


@<TRIPOS>ATOM
  1 O        0.2260    -0.0810    -1.0940 O.3   1 <1>  -0.3630 
  2 C        1.2860     0.5170    -0.4750 C.ar  1 <1>   0.0830 
  3 C        0.1630    -1.4890    -1.1530 C.3   1 <1>   0.1200 
  4 C        1.5100     1.8780    -0.6920 C.ar  1 <1>   0.0830 
  5 C        2.1260    -0.2100     0.3690 C.ar  1 <1>  -0.1440 
  6 C        0.4470    -2.0480     0.2440 C.3   1 <1>   0.2890 
  7 O        0.6510     2.5440    -1.5160 O.3   1 <1>  -0.3630 
  8 C        2.5880     2.4980    -0.0670 C.ar  1 <1>  -0.1500 
  9 C        3.1950     0.4250     0.9810 C.ar  1 <1>  -0.1500 
 10 C        1.8820    -1.6900     0.6300 C.3   1 <1>  -0.0160 
 11 N        0.2420    -3.5210     0.2900 N.pl3 1 <1>  -0.8690 
 12 C        0.8300     3.9080    -1.8240 C.3   1 <1>   0.0400 
 13 C        3.4240     1.7710     0.7630 C.ar  1 <1>  -0.1500 
 14 C       -0.7090    -4.2750     0.8500 C.ar  1 <1>   0.7710 
 15 N       -0.5550    -5.5760     0.7330 N.ar  1 <1>  -0.6200 
 16 N       -1.7530    -3.7140     1.4880 N.ar  1 <1>  -0.1790 
 17 C       -1.4720    -6.3650     1.2670 C.ar  1 <1>   0.4100 
 18 C       -2.7050    -4.4840     2.0670 C.ar  1 <1>   0.2110 
 19 N       -1.3140    -7.7090     1.1240 N.pl3 1 <1>  -0.8380 
 20 C       -2.5720    -5.8280     1.9660 C.ar  1 <1>  -0.1500 
 21 C       -2.4390    -8.6930     1.0630 C.3   1 <1>   0.2090 
 22 C        0.0310    -8.3400     0.9330 C.3   1 <1>   0.2090 
 23 C       -2.4130    -9.4190    -0.2830 C.3   1 <1>  -0.1600 
 24 C        0.0810    -9.0470    -0.4200 C.3   1 <1>  -0.1600 
 25 C       -1.0510   -10.0680    -0.5160 C.3   1 <1>   0.2000 
 26 O       -1.0390   -10.6210    -1.7760 O.3   1 <1>  -0.6800 
 27 H        0.8960    -1.8210    -1.8670 H     1 <1>   0.0800 
 28 H       -0.8220    -1.7530    -1.4910 H     1 <1>   0.0800 
 29 H       -0.2210    -1.5630     0.9350 H     1 <1>   0.0800 
 30 H        2.7940     3.5410    -0.2110 H     1 <1>   0.1500 
 31 H        3.8570    -0.1230     1.6300 H     1 <1>   0.1500 
 32 H        2.0450    -1.9090     1.6700 H     1 <1>   0.0800 
 33 H        2.5790    -2.2570     0.0390 H     1 <1>   0.0800 
 34 H        0.9700    -4.0650    -0.1890 H     1 <1>   0.4000 
 35 H        0.0460     4.2020    -2.4990 H     1 <1>   0.0800 
 36 H        1.7870     4.0370    -2.2970 H     1 <1>   0.0800 
 37 H        0.7650     4.4830    -0.9170 H     1 <1>   0.0800 
 38 H        4.2570     2.2580     1.2410 H     1 <1>   0.1500 
 39 H       -1.7840    -2.7000     1.5130 H     1 <1>   0.4570 
 40 H       -3.5250    -4.0130     2.5860 H     1 <1>   0.1500 
 41 H       -3.2820    -6.4910     2.4220 H     1 <1>   0.1500 
 42 H       -3.3920    -8.2050     1.1660 H     1 <1>   0.0800 
 43 H       -2.3330    -9.4040     1.8650 H     1 <1>   0.0800 
 44 H        0.1970    -9.0550     1.7210 H     1 <1>   0.0800 
 45 H        0.8190    -7.6090     0.9890 H     1 <1>   0.0800 
 46 H       -2.6250    -8.7070    -1.0610 H     1 <1>   0.0800 
 47 H       -3.1760   -10.1760    -0.2910 H     1 <1>   0.0800 
 48 H        1.0270    -9.5470    -0.5230 H     1 <1>   0.0800 
 49 H       -0.0080    -8.3080    -1.1960 H     1 <1>   0.0800 
 50 H       -0.8930   -10.8650     0.1910 H     1 <1>   0.0800 
 51 H       -1.1560    -9.9270    -2.4510 H     1 <1>   0.4000 
@<TRIPOS>BOND
  1   1   2  1   
  2   1   3  1   
  3   2   4  ar  
  4   2   5  ar  
  5   3   6  1   
  6   3  27  1   
  7   3  28  1   
  8   4   7  1   
  9   4   8  ar  
 10   5   9  ar  
 11   5  10  1   
 12   6  10  1   
 13   6  11  1   
 14   6  29  1   
 15   7  12  1   
 16   8  13  ar  
 17   8  30  1   
 18   9  13  ar  
 19   9  31  1   
 20  10  32  1   
 21  10  33  1   
 22  11  14  1   
 23  11  34  1   
 24  12  35  1   
 25  12  36  1   
 26  12  37  1   
 27  13  38  1   
 28  14  15  ar  
 29  14  16  ar  
 30  15  17  ar  
 31  16  18  ar  
 32  16  39  1   
 33  17  19  1   
 34  17  20  ar  
 35  18  20  ar  
 36  18  40  1   
 37  19  21  1   
 38  19  22  1   
 39  20  41  1   
 40  21  23  1   
 41  21  42  1   
 42  21  43  1   
 43  22  24  1   
 44  22  44  1   
 45  22  45  1   
 46  23  25  1   
 47  23  46  1   
 48  23  47  1   
 49  24  25  1   
 50  24  48  1   
 51  24  49  1   
 52  25  26  1   
 53  25  50  1   
 54  26  51  1   
@<TRIPOS>SUBSTRUCTURE
  1 ****  11 GROUP 4 **** **** 0

# MOE 2024.06 (io_trps.svl 2023.06)
