@<TRIPOS>MOLECULE
NONAME
43 46 1 0 0 
SMALL
USER_CHARGES


@<TRIPOS>ATOM
  1 S       -0.6540     0.6670     2.0060 S.3   1 <1>  -0.0800 
  2 C       -1.9930     0.9020     0.9010 C.ar  1 <1>   0.0400 
  3 C        0.2020     1.9840     1.2140 C.2   1 <1>   0.2280 
  4 C       -1.6650     1.9400     0.0490 C.ar  1 <1>   0.2270 
  5 C       -3.1860     0.2110     0.8380 C.ar  1 <1>  -0.1500 
  6 N       -0.4230     2.5320     0.2520 N.2   1 <1>  -0.5650 
  7 C       -2.5870     2.2970    -0.9230 C.ar  1 <1>  -0.1500 
  8 C       -4.1240     0.5740    -0.1270 C.ar  1 <1>   0.0860 
  9 C       -3.7920     1.6180    -1.0060 C.ar  1 <1>  -0.1500 
 10 C       -5.3950    -0.1190    -0.2180 C.2   1 <1>   0.5440 
 11 O       -5.4080    -1.3350    -0.2390 O.2   1 <1>  -0.5700 
 12 N       -6.5950     0.5600    -0.2680 N.am  1 <1>  -0.6600 
 13 C       -7.8540    -0.1730    -0.6010 C.3   1 <1>   0.1400 
 14 C       -6.7330     1.9850     0.1610 C.3   1 <1>   0.1400 
 15 C       -8.9070     0.7900    -1.1500 C.3   1 <1>  -0.1600 
 16 C       -8.0930     2.1970     0.8220 C.3   1 <1>  -0.1600 
 17 C       -9.2360     1.9340    -0.1730 C.3   1 <1>   0.4180 
 18 O       -9.3980     3.0740    -0.9810 O.3   1 <1>  -0.5600 
 19 C      -10.5290     1.6160     0.5770 C.2   1 <1>  -0.2880 
 20 C      -10.1720     4.1320    -0.4820 C.3   1 <1>   0.1200 
 21 C      -11.6220     2.3820     0.5530 C.2   1 <1>  -0.2760 
 22 C      -11.6160     3.6810    -0.2300 C.3   1 <1>  -0.0220 
 23 C      -12.9240     2.0500     1.2590 C.3   1 <1>  -0.1020 
 24 H        1.1770     2.2250     1.6000 H     1 <1>   0.1500 
 25 H       -3.3930    -0.5960     1.5190 H     1 <1>   0.1500 
 26 H       -2.3450     3.0960    -1.6000 H     1 <1>   0.1500 
 27 H       -4.5010     1.8910    -1.7690 H     1 <1>   0.1500 
 28 H       -8.2210    -0.6590     0.2870 H     1 <1>   0.0800 
 29 H       -7.6430    -0.9330    -1.3350 H     1 <1>   0.0800 
 30 H       -6.6470     2.6270    -0.7000 H     1 <1>   0.0800 
 31 H       -5.9540     2.2370     0.8590 H     1 <1>   0.0800 
 32 H       -9.8020     0.2430    -1.3830 H     1 <1>   0.0800 
 33 H       -8.5280     1.1940    -2.0720 H     1 <1>   0.0800 
 34 H       -8.1590     3.1900     1.2210 H     1 <1>   0.0800 
 35 H       -8.1700     1.5180     1.6520 H     1 <1>   0.0800 
 36 H      -10.4740     0.6920     1.1230 H     1 <1>   0.1500 
 37 H      -10.1500     4.9260    -1.2080 H     1 <1>   0.0800 
 38 H       -9.7270     4.4860     0.4310 H     1 <1>   0.0800 
 39 H      -12.1250     3.5460    -1.1680 H     1 <1>   0.0800 
 40 H      -12.1230     4.4520     0.3210 H     1 <1>   0.0800 
 41 H      -13.1630     2.8120     1.9780 H     1 <1>   0.0800 
 42 H      -12.8450     1.1090     1.7730 H     1 <1>   0.0800 
 43 H      -13.7250     1.9810     0.5440 H     1 <1>   0.0800 
@<TRIPOS>BOND
  1   1   2  1   
  2   1   3  1   
  3   2   4  ar  
  4   2   5  ar  
  5   3   6  2   
  6   3  24  1   
  7   4   6  1   
  8   4   7  ar  
  9   5   8  ar  
 10   5  25  1   
 11   7   9  ar  
 12   7  26  1   
 13   8   9  ar  
 14   8  10  1   
 15   9  27  1   
 16  10  11  2   
 17  10  12  am  
 18  12  13  1   
 19  12  14  1   
 20  13  15  1   
 21  13  28  1   
 22  13  29  1   
 23  14  16  1   
 24  14  30  1   
 25  14  31  1   
 26  15  17  1   
 27  15  32  1   
 28  15  33  1   
 29  16  17  1   
 30  16  34  1   
 31  16  35  1   
 32  17  18  1   
 33  17  19  1   
 34  18  20  1   
 35  19  21  2   
 36  19  36  1   
 37  20  22  1   
 38  20  37  1   
 39  20  38  1   
 40  21  22  1   
 41  21  23  1   
 42  22  39  1   
 43  22  40  1   
 44  23  41  1   
 45  23  42  1   
 46  23  43  1   
@<TRIPOS>SUBSTRUCTURE
  1 ****  14 GROUP 4 **** **** 0

# MOE 2024.06 (io_trps.svl 2023.06)
