@<TRIPOS>MOLECULE
NONAME
55 58 1 0 0 
SMALL
USER_CHARGES


@<TRIPOS>ATOM
  1 O        0.6060    -0.3380    -0.4540 O.2   1 <1>  -0.5700 
  2 C        1.1860    -1.3410    -0.1170 C.2   1 <1>   0.5690 
  3 N        2.4580    -1.2970     0.4050 N.am  1 <1>  -0.6600 
  4 C        0.4540    -2.6510    -0.3000 C.3   1 <1>  -0.1790 
  5 C        3.0940     0.0430     0.6680 C.3   1 <1>   0.1400 
  6 C        3.2950    -2.5150     0.6260 C.3   1 <1>   0.1400 
  7 C        4.3550     0.3320    -0.1850 C.3   1 <1>   0.4230 
  8 C        4.7090    -2.4000     0.0220 C.3   1 <1>  -0.0800 
  9 N        5.6090    -0.1070     0.4950 N.4   1 <1>  -0.9590 
 10 C        4.3280    -0.3930    -1.5430 C.3   1 <1>  -0.1600 
 11 C        5.6040    -1.5320     0.9240 C.3   1 <1>   0.3430 
 12 C        4.6990    -1.8930    -1.4400 C.3   1 <1>  -0.1600 
 13 C        6.1430     0.8220     1.5250 C.3   1 <1>   0.4860 
 14 C        6.3100     2.2170     0.9290 C.ar  1 <1>  -0.1430 
 15 C        7.3370     2.4800     0.0090 C.ar  1 <1>  -0.0230 
 16 C        5.4350     3.2390     1.2980 C.ar  1 <1>  -0.1430 
 17 N        8.3210     1.5180    -0.3720 N.pl3 1 <1>   0.5930 
 18 C        7.4260     3.7470    -0.5590 C.ar  1 <1>  -0.1500 
 19 C        5.5570     4.4900     0.7140 C.ar  1 <1>  -0.1500 
 20 C        4.3320     3.0680     2.3390 C.3   1 <1>  -0.0970 
 21 N        8.0290     0.2830    -0.8680 N.2   1 <1>  -0.7070 
 22 C        9.6630     1.6830    -0.3250 C.2   1 <1>  -0.3020 
 23 C        6.5410     4.7490    -0.2180 C.ar  1 <1>  -0.1430 
 24 C        9.1760    -0.2650    -1.1330 C.2   1 <1>   0.1390 
 25 C       10.2400     0.5640    -0.8070 C.2   1 <1>  -0.1500 
 26 C        6.6480     6.1270    -0.8470 C.3   1 <1>  -0.0970 
 27 H        0.4930    -3.2280     0.6040 H     1 <1>   0.0800 
 28 H        0.8890    -3.2030    -1.1110 H     1 <1>   0.0800 
 29 H       -0.5770    -2.4560    -0.5350 H     1 <1>   0.0800 
 30 H        2.3870     0.8240     0.4520 H     1 <1>   0.0800 
 31 H        3.3250     0.1240     1.7140 H     1 <1>   0.0800 
 32 H        3.3560    -2.7090     1.6840 H     1 <1>   0.0800 
 33 H        2.8230    -3.3690     0.1760 H     1 <1>   0.0800 
 34 H        4.4010     1.3940    -0.3650 H     1 <1>   0.0800 
 35 H        5.1230    -3.3940     0.0340 H     1 <1>   0.0800 
 36 H        6.3210    -0.0610    -0.2620 H     1 <1>   0.4500 
 37 H        3.3470    -0.2880    -1.9740 H     1 <1>   0.0800 
 38 H        5.0110     0.0970    -2.2150 H     1 <1>   0.0800 
 39 H        6.6140    -1.9080     0.8830 H     1 <1>   0.0800 
 40 H        5.2610    -1.6120     1.9430 H     1 <1>   0.0800 
 41 H        5.6810    -2.0330    -1.8590 H     1 <1>   0.0800 
 42 H        4.0140    -2.4780    -2.0330 H     1 <1>   0.0800 
 43 H        5.4790     0.8480     2.3710 H     1 <1>   0.0800 
 44 H        7.1040     0.4700     1.8650 H     1 <1>   0.0800 
 45 H        8.2000     3.9540    -1.2790 H     1 <1>   0.1500 
 46 H        4.8800     5.2820     0.9860 H     1 <1>   0.1500 
 47 H        3.9840     4.0270     2.6800 H     1 <1>   0.0800 
 48 H        4.6890     2.5400     3.2040 H     1 <1>   0.0800 
 49 H        3.4910     2.5510     1.9180 H     1 <1>   0.0800 
 50 H       10.1190     2.5840     0.0430 H     1 <1>   0.1500 
 51 H        9.2920    -1.2500    -1.5590 H     1 <1>   0.1500 
 52 H       11.2860     0.3360    -0.9290 H     1 <1>   0.1500 
 53 H        5.6700     6.4990    -1.0960 H     1 <1>   0.0800 
 54 H        7.2360     6.0950    -1.7470 H     1 <1>   0.0800 
 55 H        7.1120     6.8090    -0.1570 H     1 <1>   0.0800 
@<TRIPOS>BOND
  1   1   2  2   
  2   2   3  am  
  3   2   4  1   
  4   3   5  1   
  5   3   6  1   
  6   4  27  1   
  7   4  28  1   
  8   4  29  1   
  9   5   7  1   
 10   5  30  1   
 11   5  31  1   
 12   6   8  1   
 13   6  32  1   
 14   6  33  1   
 15   7   9  1   
 16   7  10  1   
 17   7  34  1   
 18   8  11  1   
 19   8  12  1   
 20   8  35  1   
 21   9  11  1   
 22   9  13  1   
 23   9  36  1   
 24  10  12  1   
 25  10  37  1   
 26  10  38  1   
 27  11  39  1   
 28  11  40  1   
 29  12  41  1   
 30  12  42  1   
 31  13  14  1   
 32  13  43  1   
 33  13  44  1   
 34  14  15  ar  
 35  14  16  ar  
 36  15  17  1   
 37  15  18  ar  
 38  16  19  ar  
 39  16  20  1   
 40  17  21  1   
 41  17  22  1   
 42  18  23  ar  
 43  18  45  1   
 44  19  23  ar  
 45  19  46  1   
 46  20  47  1   
 47  20  48  1   
 48  20  49  1   
 49  21  24  2   
 50  22  25  2   
 51  22  50  1   
 52  23  26  1   
 53  24  25  1   
 54  24  51  1   
 55  25  52  1   
 56  26  53  1   
 57  26  54  1   
 58  26  55  1   
@<TRIPOS>SUBSTRUCTURE
  1 ****   9 GROUP 4 **** **** 0

# MOE 2024.06 (io_trps.svl 2023.06)
