@<TRIPOS>MOLECULE
NONAME
38 39 1 0 0 
SMALL
USER_CHARGES


@<TRIPOS>ATOM
  1 O        0.1690    -0.4190    -0.3270 O.2   1 <1>  -0.5700 
  2 C        1.3660    -0.4880    -0.1380 C.2   1 <1>   0.7800 
  3 O        2.1020     0.6030     0.0850 O.3   1 <1>  -0.4300 
  4 N        2.0230    -1.6830    -0.1220 N.am  1 <1>  -0.6600 
  5 C        1.6620     1.9420     0.1050 C.3   1 <1>   0.2800 
  6 C        3.4300    -1.8680     0.3130 C.3   1 <1>   0.2200 
  7 C        1.3420    -3.0010    -0.1550 C.3   1 <1>   0.1400 
  8 C        0.6530     2.1520     1.2400 C.3   1 <1>  -0.2400 
  9 C        2.9170     2.7690     0.3850 C.3   1 <1>  -0.2400 
 10 C        1.0940     2.3340    -1.2640 C.3   1 <1>  -0.2400 
 11 C        3.5550    -3.3610     0.7040 C.3   1 <1>   0.2000 
 12 C        4.3930    -1.4750    -0.8180 C.3   1 <1>  -0.1600 
 13 C        2.1110    -3.8410     0.8620 C.3   1 <1>   0.2000 
 14 O        4.1560    -4.0900    -0.3360 O.3   1 <1>  -0.5600 
 15 C        5.7130    -2.2430    -0.6660 C.3   1 <1>  -0.1600 
 16 O        1.6560    -3.5120     2.1380 O.3   1 <1>  -0.6800 
 17 C        5.4930    -3.7670    -0.5910 C.3   1 <1>   0.1200 
 18 H        3.6100    -1.2640     1.1860 H     1 <1>   0.0800 
 19 H        0.2950    -2.9290     0.0870 H     1 <1>   0.0800 
 20 H        1.4560    -3.4240    -1.1380 H     1 <1>   0.0800 
 21 H        0.4250     3.1980     1.3380 H     1 <1>   0.0800 
 22 H        1.0590     1.8030     2.1720 H     1 <1>   0.0800 
 23 H       -0.2690     1.6390     1.0400 H     1 <1>   0.0800 
 24 H        2.6750     3.8160     0.4180 H     1 <1>   0.0800 
 25 H        3.6460     2.6140    -0.3890 H     1 <1>   0.0800 
 26 H        3.3440     2.4910     1.3320 H     1 <1>   0.0800 
 27 H        0.8900     3.3890    -1.2890 H     1 <1>   0.0800 
 28 H        0.1710     1.8210    -1.4630 H     1 <1>   0.0800 
 29 H        1.8000     2.1040    -2.0420 H     1 <1>   0.0800 
 30 H        4.1310    -3.5150     1.6000 H     1 <1>   0.0800 
 31 H        3.9550    -1.7350    -1.7660 H     1 <1>   0.0800 
 32 H        4.5690    -0.4140    -0.8000 H     1 <1>   0.0800 
 33 H        2.0050    -4.9030     0.7220 H     1 <1>   0.0800 
 34 H        6.2110    -1.9210     0.2330 H     1 <1>   0.0800 
 35 H        6.3700    -2.0180    -1.4880 H     1 <1>   0.0800 
 36 H        1.4500    -2.5550     2.1630 H     1 <1>   0.4000 
 37 H        6.1020    -4.2060     0.1810 H     1 <1>   0.0800 
 38 H        5.7500    -4.2250    -1.5310 H     1 <1>   0.0800 
@<TRIPOS>BOND
  1   1   2  2   
  2   2   3  1   
  3   2   4  am  
  4   3   5  1   
  5   4   6  1   
  6   4   7  1   
  7   5   8  1   
  8   5   9  1   
  9   5  10  1   
 10   6  11  1   
 11   6  12  1   
 12   6  18  1   
 13   7  13  1   
 14   7  19  1   
 15   7  20  1   
 16   8  21  1   
 17   8  22  1   
 18   8  23  1   
 19   9  24  1   
 20   9  25  1   
 21   9  26  1   
 22  10  27  1   
 23  10  28  1   
 24  10  29  1   
 25  11  13  1   
 26  11  14  1   
 27  11  30  1   
 28  12  15  1   
 29  12  31  1   
 30  12  32  1   
 31  13  16  1   
 32  13  33  1   
 33  14  17  1   
 34  15  17  1   
 35  15  34  1   
 36  15  35  1   
 37  16  36  1   
 38  17  37  1   
 39  17  38  1   
@<TRIPOS>SUBSTRUCTURE
  1 ****   4 GROUP 4 **** **** 0

# MOE 2024.06 (io_trps.svl 2023.06)
