@<TRIPOS>MOLECULE
NONAME
43 45 1 0 0 
SMALL
USER_CHARGES


@<TRIPOS>ATOM
  1 O        1.7050    -0.1390     2.6130 O.2   1 <1>  -0.5700 
  2 C        1.8240    -0.7070     1.5510 C.2   1 <1>   0.5690 
  3 N        2.2860    -0.0300     0.4390 N.am  1 <1>  -0.6600 
  4 C        1.4480    -2.1750     1.5270 C.3   1 <1>   0.1570 
  5 C        2.5240     1.4490     0.5330 C.3   1 <1>   0.1400 
  6 C        2.6680    -0.7310    -0.8330 C.3   1 <1>   0.1400 
  7 N        0.3070    -2.3780     0.6250 N.pl3 1 <1>   0.3140 
  8 C        4.0180     1.8630     0.4930 C.3   1 <1>   0.4230 
  9 C        4.0380    -0.3300    -1.4190 C.3   1 <1>  -0.0800 
 10 N        0.4400    -2.9800    -0.5750 N.2   1 <1>  -0.7070 
 11 C       -0.9710    -2.0090     0.8440 C.2   1 <1>  -0.3020 
 12 N        4.5350     2.0950    -0.9060 N.4   1 <1>  -0.9590 
 13 C        4.9680     0.9130     1.2720 C.3   1 <1>   0.1200 
 14 C        5.2560    -0.6880    -0.5400 C.3   1 <1>   0.1200 
 15 C        4.0350     1.1160    -1.9160 C.3   1 <1>   0.3430 
 16 C       -0.7530    -2.9840    -1.0800 C.2   1 <1>   0.1080 
 17 C       -1.6820    -2.3850    -0.2390 C.2   1 <1>  -0.1500 
 18 C        4.2720     3.4940    -1.3640 C.3   1 <1>   0.2630 
 19 O        5.0360    -0.4120     0.8080 O.3   1 <1>  -0.5600 
 20 C       -1.0600    -3.5830    -2.4320 C.3   1 <1>  -0.0590 
 21 H        1.1650    -2.4910     2.5120 H     1 <1>   0.0800 
 22 H        2.2770    -2.7700     1.2000 H     1 <1>   0.0800 
 23 H        1.9760     1.9470    -0.2450 H     1 <1>   0.0800 
 24 H        2.1200     1.8170     1.4600 H     1 <1>   0.0800 
 25 H        2.7070    -1.7920    -0.6700 H     1 <1>   0.0800 
 26 H        1.8930    -0.5590    -1.5610 H     1 <1>   0.0800 
 27 H        4.0730     2.8090     1.0050 H     1 <1>   0.0800 
 28 H        4.1400    -0.9240    -2.3110 H     1 <1>   0.0800 
 29 H       -1.2950    -1.5090     1.7390 H     1 <1>   0.1500 
 30 H        5.5540     1.9620    -0.8450 H     1 <1>   0.4500 
 31 H        4.6300     0.8550     2.2930 H     1 <1>   0.0800 
 32 H        5.9670     1.3110     1.2830 H     1 <1>   0.0800 
 33 H        6.1560    -0.1920    -0.8600 H     1 <1>   0.0800 
 34 H        5.4270    -1.7500    -0.6000 H     1 <1>   0.0800 
 35 H        3.0300     1.3750    -2.2110 H     1 <1>   0.0800 
 36 H        4.6560     1.1790    -2.7950 H     1 <1>   0.0800 
 37 H       -2.7330    -2.2630    -0.4310 H     1 <1>   0.1500 
 38 H        3.2110     3.6730    -1.4360 H     1 <1>   0.0800 
 39 H        4.7150     3.6620    -2.3330 H     1 <1>   0.0800 
 40 H        4.6940     4.2030    -0.6700 H     1 <1>   0.0800 
 41 H       -2.1080    -3.5010    -2.6500 H     1 <1>   0.0800 
 42 H       -0.7800    -4.6210    -2.4350 H     1 <1>   0.0800 
 43 H       -0.5000    -3.0690    -3.1910 H     1 <1>   0.0800 
@<TRIPOS>BOND
  1   1   2  2   
  2   2   3  am  
  3   2   4  1   
  4   3   5  1   
  5   3   6  1   
  6   4   7  1   
  7   4  21  1   
  8   4  22  1   
  9   5   8  1   
 10   5  23  1   
 11   5  24  1   
 12   6   9  1   
 13   6  25  1   
 14   6  26  1   
 15   7  10  1   
 16   7  11  1   
 17   8  12  1   
 18   8  13  1   
 19   8  27  1   
 20   9  14  1   
 21   9  15  1   
 22   9  28  1   
 23  10  16  2   
 24  11  17  2   
 25  11  29  1   
 26  12  15  1   
 27  12  18  1   
 28  12  30  1   
 29  13  19  1   
 30  13  31  1   
 31  13  32  1   
 32  14  19  1   
 33  14  33  1   
 34  14  34  1   
 35  15  35  1   
 36  15  36  1   
 37  16  17  1   
 38  16  20  1   
 39  17  37  1   
 40  18  38  1   
 41  18  39  1   
 42  18  40  1   
 43  20  41  1   
 44  20  42  1   
 45  20  43  1   
@<TRIPOS>SUBSTRUCTURE
  1 ****   3 GROUP 4 **** **** 0

# MOE 2024.06 (io_trps.svl 2023.06)
