@<TRIPOS>MOLECULE
NONAME
38 40 1 0 0 
SMALL
USER_CHARGES


@<TRIPOS>ATOM
  1 O       -2.4570     0.8250    -1.8500 O.2   1 <1>  -0.5700 
  2 C       -2.1390     0.7130    -0.6780 C.2   1 <1>   0.7160 
  3 N       -1.9920    -0.5430    -0.1650 N.am  1 <1>  -0.7300 
  4 C       -1.9320     1.8690     0.1810 C.2   1 <1>   0.2030 
  5 C       -2.1720    -1.8210    -0.8890 C.3   1 <1>   0.2200 
  6 N       -1.6130     1.8230     1.4640 N.2   1 <1>  -0.7070 
  7 C       -2.0490     3.1990    -0.2460 C.2   1 <1>  -0.1500 
  8 C       -3.4820    -2.4950    -0.5070 C.3   1 <1>  -0.0800 
  9 C       -1.1680    -2.8410    -0.3680 C.3   1 <1>   0.1200 
 10 N       -1.5310     3.1160     1.8460 N.pl3 1 <1>   0.3000 
 11 C       -1.7830     3.9720     0.8260 C.2   1 <1>  -0.0680 
 12 C       -3.1200    -3.2390     0.7810 C.3   1 <1>   0.1200 
 13 C       -4.7070    -1.5700    -0.3800 C.3   1 <1>  -0.0160 
 14 O       -1.7270    -3.3610     0.8010 O.3   1 <1>  -0.5600 
 15 N       -1.7730     5.3700     0.9110 N.pl3 1 <1>  -0.8840 
 16 C       -5.9600    -2.3710    -0.0600 C.ar  1 <1>  -0.1440 
 17 C       -6.4600    -2.4650     1.2230 C.ar  1 <1>  -0.1500 
 18 C       -6.6610    -3.0470    -1.0380 C.ar  1 <1>  -0.1500 
 19 C       -7.6010    -3.2140     1.4600 C.ar  1 <1>   0.1600 
 20 C       -7.7920    -3.7690    -0.6950 C.ar  1 <1>   0.1600 
 21 N       -8.2780    -3.8710     0.5310 N.ar  1 <1>  -0.6200 
 22 H       -1.7400    -0.6110     0.8260 H     1 <1>   0.3700 
 23 H       -2.0800    -1.6690    -1.9520 H     1 <1>   0.0800 
 24 H       -2.3050     3.5030    -1.2450 H     1 <1>   0.1500 
 25 H       -3.6990    -3.2380    -1.2550 H     1 <1>   0.0800 
 26 H       -0.2070    -2.4080    -0.1500 H     1 <1>   0.0800 
 27 H       -1.0550    -3.6530    -1.0650 H     1 <1>   0.0800 
 28 H       -1.3270     3.4040     2.8080 H     1 <1>   0.2700 
 29 H       -3.5610    -4.2200     0.8170 H     1 <1>   0.0800 
 30 H       -3.4070    -2.6780     1.6540 H     1 <1>   0.0800 
 31 H       -4.8500    -1.0370    -1.3050 H     1 <1>   0.0800 
 32 H       -4.5490    -0.8380     0.3920 H     1 <1>   0.0800 
 33 H       -0.9670     5.7860     1.3930 H     1 <1>   0.4000 
 34 H       -1.9170     5.8470     0.0130 H     1 <1>   0.4000 
 35 H       -5.9750    -1.9630     2.0400 H     1 <1>   0.1500 
 36 H       -6.3380    -3.0180    -2.0630 H     1 <1>   0.1500 
 37 H       -7.9760    -3.2770     2.4670 H     1 <1>   0.1500 
 38 H       -8.3260    -4.2900    -1.4720 H     1 <1>   0.1500 
@<TRIPOS>BOND
  1   1   2  2   
  2   2   3  am  
  3   2   4  1   
  4   3   5  1   
  5   3  22  1   
  6   4   6  2   
  7   4   7  1   
  8   5   8  1   
  9   5   9  1   
 10   5  23  1   
 11   6  10  1   
 12   7  11  2   
 13   7  24  1   
 14   8  12  1   
 15   8  13  1   
 16   8  25  1   
 17   9  14  1   
 18   9  26  1   
 19   9  27  1   
 20  10  11  1   
 21  10  28  1   
 22  11  15  1   
 23  12  14  1   
 24  12  29  1   
 25  12  30  1   
 26  13  16  1   
 27  13  31  1   
 28  13  32  1   
 29  15  33  1   
 30  15  34  1   
 31  16  17  ar  
 32  16  18  ar  
 33  17  19  ar  
 34  17  35  1   
 35  18  20  ar  
 36  18  36  1   
 37  19  21  ar  
 38  19  37  1   
 39  20  21  ar  
 40  20  38  1   
@<TRIPOS>SUBSTRUCTURE
  1 ****  13 GROUP 4 **** **** 0

# MOE 2024.06 (io_trps.svl 2023.06)
