@<TRIPOS>MOLECULE
NONAME
49 51 1 0 0 
SMALL
USER_CHARGES


@<TRIPOS>ATOM
  1 F        0.8480    -0.5090    -0.0300 F     1 <1>  -0.1900 
  2 C        0.4890    -1.7580    -0.1400 C.ar  1 <1>   0.1900 
  3 C        0.8670    -2.6680     0.8350 C.ar  1 <1>  -0.1440 
  4 C       -0.2630    -2.1260    -1.2390 C.ar  1 <1>  -0.1500 
  5 C        0.4620    -3.9850     0.6840 C.ar  1 <1>  -0.1500 
  6 C        1.7040    -2.2420     2.0320 C.3   1 <1>  -0.0960 
  7 C       -0.6530    -3.4460    -1.3670 C.ar  1 <1>  -0.1500 
  8 C       -0.3090    -4.4030    -0.4060 C.ar  1 <1>   0.0860 
  9 C       -0.7320    -5.7870    -0.5290 C.2   1 <1>   0.5440 
 10 O       -0.0300    -6.6910    -0.1130 O.2   1 <1>  -0.5700 
 11 N       -1.9490    -6.1380    -1.0740 N.am  1 <1>  -0.6600 
 12 C       -2.1680    -7.5430    -1.5040 C.3   1 <1>   0.1400 
 13 C       -3.1960    -5.4460    -0.6490 C.3   1 <1>   0.1400 
 14 C       -2.7240    -8.3420    -0.3060 C.3   1 <1>   0.4230 
 15 C       -3.7880    -6.2160     0.5400 C.3   1 <1>  -0.1600 
 16 N       -2.7870    -9.8450    -0.5390 N.4   1 <1>  -0.9590 
 17 C       -4.0450    -7.7240     0.2460 C.3   1 <1>   0.0000 
 18 C       -3.6820   -10.5750     0.4170 C.3   1 <1>   0.3430 
 19 C       -3.0800   -10.2710    -1.9460 C.3   1 <1>   0.2630 
 20 C       -4.4280    -8.4350     1.5780 C.3   1 <1>  -0.1600 
 21 C       -5.1870    -7.8820    -0.8000 C.3   1 <1>   0.1200 
 22 C       -3.7910    -9.8280     1.7450 C.3   1 <1>  -0.1600 
 23 O       -6.3150    -7.1660    -0.4400 O.3   1 <1>  -0.6800 
 24 H       -0.5290    -1.3900    -1.9760 H     1 <1>   0.1500 
 25 H        0.7450    -4.7180     1.4200 H     1 <1>   0.1500 
 26 H        1.8990    -3.0740     2.6850 H     1 <1>   0.0800 
 27 H        1.1870    -1.4820     2.5900 H     1 <1>   0.0800 
 28 H        2.6450    -1.8430     1.6970 H     1 <1>   0.0800 
 29 H       -1.2300    -3.7450    -2.2250 H     1 <1>   0.1500 
 30 H       -2.8420    -7.5490    -2.3400 H     1 <1>   0.0800 
 31 H       -1.2290    -7.9650    -1.8220 H     1 <1>   0.0800 
 32 H       -2.9850    -4.4320    -0.3500 H     1 <1>   0.0800 
 33 H       -3.8940    -5.4110    -1.4680 H     1 <1>   0.0800 
 34 H       -1.9980    -8.1940     0.4780 H     1 <1>   0.0800 
 35 H       -3.0930    -6.1180     1.3580 H     1 <1>   0.0800 
 36 H       -4.6940    -5.7270     0.8520 H     1 <1>   0.0800 
 37 H       -1.8290   -10.1650    -0.3270 H     1 <1>   0.4500 
 38 H       -4.6700   -10.6650    -0.0050 H     1 <1>   0.0800 
 39 H       -3.3020   -11.5700     0.5870 H     1 <1>   0.0800 
 40 H       -4.0540    -9.9240    -2.2510 H     1 <1>   0.0800 
 41 H       -3.0600   -11.3460    -2.0220 H     1 <1>   0.0800 
 42 H       -2.3430    -9.8720    -2.6240 H     1 <1>   0.0800 
 43 H       -4.1240    -7.8420     2.4250 H     1 <1>   0.0800 
 44 H       -5.4970    -8.5290     1.6530 H     1 <1>   0.0800 
 45 H       -5.4810    -8.9100    -0.9110 H     1 <1>   0.0800 
 46 H       -4.8910    -7.5080    -1.7640 H     1 <1>   0.0800 
 47 H       -4.3870   -10.4070     2.4300 H     1 <1>   0.0800 
 48 H       -2.8100    -9.7380     2.1810 H     1 <1>   0.0800 
 49 H       -6.6990    -7.4770     0.4040 H     1 <1>   0.4000 
@<TRIPOS>BOND
  1   1   2  1   
  2   2   3  ar  
  3   2   4  ar  
  4   3   5  ar  
  5   3   6  1   
  6   4   7  ar  
  7   4  24  1   
  8   5   8  ar  
  9   5  25  1   
 10   6  26  1   
 11   6  27  1   
 12   6  28  1   
 13   7   8  ar  
 14   7  29  1   
 15   8   9  1   
 16   9  10  2   
 17   9  11  am  
 18  11  12  1   
 19  11  13  1   
 20  12  14  1   
 21  12  30  1   
 22  12  31  1   
 23  13  15  1   
 24  13  32  1   
 25  13  33  1   
 26  14  16  1   
 27  14  17  1   
 28  14  34  1   
 29  15  17  1   
 30  15  35  1   
 31  15  36  1   
 32  16  18  1   
 33  16  19  1   
 34  16  37  1   
 35  17  20  1   
 36  17  21  1   
 37  18  22  1   
 38  18  38  1   
 39  18  39  1   
 40  19  40  1   
 41  19  41  1   
 42  19  42  1   
 43  20  22  1   
 44  20  43  1   
 45  20  44  1   
 46  21  23  1   
 47  21  45  1   
 48  21  46  1   
 49  22  47  1   
 50  22  48  1   
 51  23  49  1   
@<TRIPOS>SUBSTRUCTURE
  1 ****  11 GROUP 4 **** **** 0

# MOE 2024.06 (io_trps.svl 2023.06)
