@<TRIPOS>MOLECULE
NONAME
47 50 1 0 0 
SMALL
USER_CHARGES


@<TRIPOS>ATOM
  1 CL      -1.7780     0.5530     0.4480 Cl    1 <1>  -0.1230 
  2 C       -2.8860    -0.0340    -0.7790 C.2   1 <1>   0.1230 
  3 C       -3.4920    -1.2800    -0.7730 C.2   1 <1>   0.1080 
  4 C       -3.3150     0.6000    -1.8870 C.2   1 <1>  -0.3320 
  5 N       -4.2690    -1.4350    -1.8130 N.2   1 <1>  -0.7070 
  6 C       -3.2820    -2.3320     0.3050 C.3   1 <1>   0.5240 
  7 N       -4.1510    -0.2690    -2.5020 N.pl3 1 <1>   0.3000 
  8 C       -2.9820     1.9880    -2.4110 C.3   1 <1>  -0.0600 
  9 N       -4.4390    -3.2700     0.2560 N.4   1 <1>  -0.9590 
 10 C       -5.6080    -2.6790     0.9730 C.3   1 <1>   0.3430 
 11 C       -4.1310    -4.5850     0.8890 C.3   1 <1>   0.3430 
 12 C       -5.6750    -3.4180     2.3120 C.3   1 <1>   0.2000 
 13 C       -5.2150    -4.8280     1.9500 C.3   1 <1>  -0.0800 
 14 O       -4.7260    -2.8620     3.1640 O.3   1 <1>  -0.6800 
 15 C       -6.3820    -5.6930     1.4270 C.3   1 <1>  -0.0170 
 16 C       -5.8700    -7.0200     0.8760 C.ar  1 <1>  -0.1430 
 17 C       -5.5960    -7.2400    -0.4980 C.ar  1 <1>   0.0000 
 18 C       -5.6420    -8.0530     1.7370 C.ar  1 <1>  -0.1500 
 19 C       -5.0630    -8.5010    -0.8650 C.ar  1 <1>   0.3100 
 20 C       -5.8090    -6.2920    -1.5280 C.ar  1 <1>  -0.1500 
 21 C       -5.1320    -9.2690     1.2660 C.ar  1 <1>   0.1600 
 22 N       -4.8390    -9.4980     0.0260 N.ar  1 <1>  -0.6200 
 23 C       -4.7420    -8.7410    -2.2100 C.ar  1 <1>  -0.1500 
 24 C       -5.4880    -6.5600    -2.8310 C.ar  1 <1>  -0.1500 
 25 C       -4.9430    -7.7970    -3.1780 C.ar  1 <1>  -0.1500 
 26 H       -3.2050    -1.8720     1.2770 H     1 <1>   0.0800 
 27 H       -2.3670    -2.8610     0.0940 H     1 <1>   0.0800 
 28 H       -4.6480    -0.0930    -3.3870 H     1 <1>   0.2700 
 29 H       -2.2960     2.4840    -1.7470 H     1 <1>   0.0800 
 30 H       -3.8740     2.5850    -2.4840 H     1 <1>   0.0800 
 31 H       -2.5250     1.9220    -3.3820 H     1 <1>   0.0800 
 32 H       -4.6530    -3.3260    -0.7560 H     1 <1>   0.4500 
 33 H       -5.5080    -1.6150     1.1150 H     1 <1>   0.0800 
 34 H       -6.5060    -2.8750     0.4120 H     1 <1>   0.0800 
 35 H       -4.0960    -5.3760     0.1590 H     1 <1>   0.0800 
 36 H       -3.1740    -4.5330     1.3820 H     1 <1>   0.0800 
 37 H       -6.6450    -3.3630     2.7780 H     1 <1>   0.0800 
 38 H       -4.7860    -5.3290     2.8000 H     1 <1>   0.0800 
 39 H       -4.8530    -3.1700     4.0880 H     1 <1>   0.4000 
 40 H       -6.9660    -5.1750     0.6910 H     1 <1>   0.0800 
 41 H       -7.0500    -5.8990     2.2470 H     1 <1>   0.0800 
 42 H       -5.8390    -7.9700     2.7910 H     1 <1>   0.1500 
 43 H       -6.2400    -5.3380    -1.3020 H     1 <1>   0.1500 
 44 H       -4.9700   -10.0610     1.9780 H     1 <1>   0.1500 
 45 H       -4.3310    -9.7040    -2.4550 H     1 <1>   0.1500 
 46 H       -5.6540    -5.8320    -3.6080 H     1 <1>   0.1500 
 47 H       -4.6930    -7.9980    -4.2070 H     1 <1>   0.1500 
@<TRIPOS>BOND
  1   1   2  1   
  2   2   3  1   
  3   2   4  2   
  4   3   5  2   
  5   3   6  1   
  6   4   7  1   
  7   4   8  1   
  8   5   7  1   
  9   6   9  1   
 10   6  26  1   
 11   6  27  1   
 12   7  28  1   
 13   8  29  1   
 14   8  30  1   
 15   8  31  1   
 16   9  10  1   
 17   9  11  1   
 18   9  32  1   
 19  10  12  1   
 20  10  33  1   
 21  10  34  1   
 22  11  13  1   
 23  11  35  1   
 24  11  36  1   
 25  12  13  1   
 26  12  14  1   
 27  12  37  1   
 28  13  15  1   
 29  13  38  1   
 30  14  39  1   
 31  15  16  1   
 32  15  40  1   
 33  15  41  1   
 34  16  17  ar  
 35  16  18  ar  
 36  17  19  ar  
 37  17  20  ar  
 38  18  21  ar  
 39  18  42  1   
 40  19  22  ar  
 41  19  23  ar  
 42  20  24  ar  
 43  20  43  1   
 44  21  22  ar  
 45  21  44  1   
 46  23  25  ar  
 47  23  45  1   
 48  24  25  ar  
 49  24  46  1   
 50  25  47  1   
@<TRIPOS>SUBSTRUCTURE
  1 ****   9 GROUP 4 **** **** 0

# MOE 2024.06 (io_trps.svl 2023.06)
