@<TRIPOS>MOLECULE
NONAME
57 60 1 0 0 
SMALL
USER_CHARGES


@<TRIPOS>ATOM
  1 O        0.1850     0.2360    -2.4550 O.2   1 <1>  -0.5700 
  2 C       -0.1240     1.4020    -2.5120 C.2   1 <1>   0.5690 
  3 N       -1.2210     1.9270    -1.8710 N.am  1 <1>  -0.6600 
  4 C        0.8590     2.3620    -3.1760 C.3   1 <1>   0.2700 
  5 C       -1.5670     3.4010    -1.9360 C.3   1 <1>   0.1400 
  6 C       -1.8070     1.1820    -0.7250 C.3   1 <1>   0.2840 
  7 N        0.8700     3.6510    -2.4030 N.pl3 1 <1>  -0.8380 
  8 C       -0.4670     4.3020    -2.5580 C.3   1 <1>   0.2090 
  9 C       -0.8940     1.4020     0.4790 C.ar  1 <1>  -0.1440 
 10 C        1.6130     3.9030    -1.2950 C.ar  1 <1>   0.7710 
 11 C        0.2060     0.5800     0.6700 C.ar  1 <1>  -0.1500 
 12 C       -1.1280     2.4390     1.3720 C.ar  1 <1>  -0.1500 
 13 N        1.6650     5.1460    -0.8470 N.ar  1 <1>  -0.6200 
 14 N        2.2400     2.8900    -0.6630 N.ar  1 <1>  -0.1790 
 15 C        1.0920     0.8210     1.7130 C.ar  1 <1>   0.0820 
 16 C       -0.2590     2.6680     2.4250 C.ar  1 <1>  -0.1500 
 17 C        2.3700     5.3970     0.2410 C.ar  1 <1>   0.4100 
 18 C        2.9920     3.1060     0.4400 C.ar  1 <1>   0.2110 
 19 O        2.2190     0.0960     1.8920 O.3   1 <1>  -0.3630 
 20 C        0.8510     1.8620     2.5930 C.ar  1 <1>  -0.1500 
 21 N        2.3920     6.6770     0.6960 N.pl3 1 <1>  -0.8380 
 22 C        3.0740     4.3740     0.9060 C.ar  1 <1>  -0.1500 
 23 C        2.2090    -1.2880     1.6000 C.3   1 <1>   0.0400 
 24 C        2.5250     7.0670     2.1380 C.3   1 <1>   0.2090 
 25 C        2.2180     7.8530    -0.2120 C.3   1 <1>   0.2090 
 26 C        3.7180     8.0200     2.3270 C.3   1 <1>   0.2000 
 27 C        3.4120     8.8040    -0.0510 C.3   1 <1>  -0.1600 
 28 O        3.7600     8.4610     3.6380 O.3   1 <1>  -0.6800 
 29 C        3.6190     9.2430     1.4100 C.3   1 <1>  -0.1600 
 30 H        0.5480     2.5400    -4.1900 H     1 <1>   0.0800 
 31 H        1.8400     1.9230    -3.2040 H     1 <1>   0.0800 
 32 H       -1.7480     3.7620    -0.9400 H     1 <1>   0.0800 
 33 H       -2.4830     3.5260    -2.4870 H     1 <1>   0.0800 
 34 H       -1.8680     0.1320    -0.9600 H     1 <1>   0.0800 
 35 H       -2.8030     1.5360    -0.5210 H     1 <1>   0.0800 
 36 H       -0.4920     5.2750    -2.0950 H     1 <1>   0.0800 
 37 H       -0.6740     4.4490    -3.6050 H     1 <1>   0.0800 
 38 H        0.3740    -0.2400    -0.0050 H     1 <1>   0.1500 
 39 H       -1.9880     3.0760     1.2560 H     1 <1>   0.1500 
 40 H        2.0400     1.9480    -0.9870 H     1 <1>   0.4570 
 41 H       -0.4530     3.4710     3.1170 H     1 <1>   0.1500 
 42 H        3.4870     2.2720     0.9130 H     1 <1>   0.1500 
 43 H        1.5290     2.0320     3.4120 H     1 <1>   0.1500 
 44 H        3.6690     4.6120     1.7660 H     1 <1>   0.1500 
 45 H        3.0960    -1.7260     2.0210 H     1 <1>   0.0800 
 46 H        2.2040    -1.4290     0.5340 H     1 <1>   0.0800 
 47 H        1.3370    -1.7340     2.0470 H     1 <1>   0.0800 
 48 H        2.6480     6.2050     2.7660 H     1 <1>   0.0800 
 49 H        1.6210     7.5690     2.4370 H     1 <1>   0.0800 
 50 H        1.3020     8.3610     0.0380 H     1 <1>   0.0800 
 51 H        2.1570     7.5410    -1.2410 H     1 <1>   0.0800 
 52 H        4.6320     7.4820     2.1380 H     1 <1>   0.0800 
 53 H        3.2560     9.6720    -0.6680 H     1 <1>   0.0800 
 54 H        4.2960     8.3070    -0.4080 H     1 <1>   0.0800 
 55 H        3.0910     9.1560     3.7870 H     1 <1>   0.4000 
 56 H        4.5210     9.8250     1.4840 H     1 <1>   0.0800 
 57 H        2.7850     9.8550     1.7060 H     1 <1>   0.0800 
@<TRIPOS>BOND
  1   1   2  2   
  2   2   3  am  
  3   2   4  1   
  4   3   5  1   
  5   3   6  1   
  6   4   7  1   
  7   4  30  1   
  8   4  31  1   
  9   5   8  1   
 10   5  32  1   
 11   5  33  1   
 12   6   9  1   
 13   6  34  1   
 14   6  35  1   
 15   7   8  1   
 16   7  10  1   
 17   8  36  1   
 18   8  37  1   
 19   9  11  ar  
 20   9  12  ar  
 21  10  13  ar  
 22  10  14  ar  
 23  11  15  ar  
 24  11  38  1   
 25  12  16  ar  
 26  12  39  1   
 27  13  17  ar  
 28  14  18  ar  
 29  14  40  1   
 30  15  19  1   
 31  15  20  ar  
 32  16  20  ar  
 33  16  41  1   
 34  17  21  1   
 35  17  22  ar  
 36  18  22  ar  
 37  18  42  1   
 38  19  23  1   
 39  20  43  1   
 40  21  24  1   
 41  21  25  1   
 42  22  44  1   
 43  23  45  1   
 44  23  46  1   
 45  23  47  1   
 46  24  26  1   
 47  24  48  1   
 48  24  49  1   
 49  25  27  1   
 50  25  50  1   
 51  25  51  1   
 52  26  28  1   
 53  26  29  1   
 54  26  52  1   
 55  27  29  1   
 56  27  53  1   
 57  27  54  1   
 58  28  55  1   
 59  29  56  1   
 60  29  57  1   
@<TRIPOS>SUBSTRUCTURE
  1 ****  10 GROUP 4 **** **** 0

# MOE 2024.06 (io_trps.svl 2023.06)
