@<TRIPOS>MOLECULE
NONAME
53 57 1 0 0 
SMALL
USER_CHARGES


@<TRIPOS>ATOM
  1 O       -0.7360    -0.6980     1.4300 O.3   1 <1>  -0.2800 
  2 C       -0.5840    -1.6740     0.5430 C.2   1 <1>   0.0870 
  3 C        0.2060     0.2010     1.2360 C.2   1 <1>  -0.0100 
  4 C       -1.4980    -2.7960     0.5360 C.ar  1 <1>   0.0530 
  5 C        0.4910    -1.3840    -0.2390 C.2   1 <1>  -0.1500 
  6 C        1.0030    -0.1650     0.2120 C.2   1 <1>  -0.1500 
  7 C       -1.5150    -3.7120    -0.5140 C.ar  1 <1>  -0.1500 
  8 C       -2.3960    -3.0070     1.5810 C.ar  1 <1>  -0.1500 
  9 C       -2.3920    -4.7810    -0.5270 C.ar  1 <1>  -0.1500 
 10 C       -3.2750    -4.0730     1.5780 C.ar  1 <1>  -0.1500 
 11 C       -3.2860    -4.9660     0.5170 C.ar  1 <1>  -0.1430 
 12 C       -4.2680    -6.1210     0.4930 C.3   1 <1>   0.4860 
 13 N       -5.3800    -5.7560    -0.4230 N.4   1 <1>  -0.9590 
 14 C       -6.2000    -4.6290     0.1460 C.3   1 <1>   0.3430 
 15 C       -6.2310    -6.9290    -0.7650 C.3   1 <1>   0.3430 
 16 C       -7.2810    -4.1480    -0.8360 C.3   1 <1>   0.1440 
 17 C       -7.2830    -6.5170    -1.8000 C.3   1 <1>  -0.1600 
 18 C       -8.1420    -3.1310    -0.1280 C.ar  1 <1>   0.1670 
 19 C       -8.1430    -5.3370    -1.3130 C.3   1 <1>  -0.1600 
 20 C       -6.6990    -3.3310    -2.0210 C.3   1 <1>  -0.1600 
 21 N       -8.6470    -3.2930     1.0730 N.ar  1 <1>  -0.6200 
 22 C       -8.3250    -2.0100    -0.8770 C.ar  1 <1>  -0.1430 
 23 C       -7.6150    -2.1030    -2.2040 C.3   1 <1>  -0.0170 
 24 C       -9.3740    -2.2650     1.4950 C.ar  1 <1>   0.4770 
 25 C       -9.0910    -1.0050    -0.3390 C.ar  1 <1>   0.1600 
 26 N       -9.6230    -1.1280     0.8600 N.ar  1 <1>  -0.6200 
 27 C       -9.9890    -2.3980     2.8680 C.3   1 <1>  -0.0970 
 28 H        0.2370     1.0700     1.8710 H     1 <1>   0.1500 
 29 H        0.8990    -1.9560    -1.0510 H     1 <1>   0.1500 
 30 H        1.8570     0.3490    -0.1920 H     1 <1>   0.1500 
 31 H       -0.8300    -3.5830    -1.3330 H     1 <1>   0.1500 
 32 H       -2.3990    -2.3200     2.4110 H     1 <1>   0.1500 
 33 H       -2.3620    -5.4640    -1.3600 H     1 <1>   0.1500 
 34 H       -3.9450    -4.1930     2.4130 H     1 <1>   0.1500 
 35 H       -4.6430    -6.3130     1.4850 H     1 <1>   0.0800 
 36 H       -3.7650    -7.0060     0.1380 H     1 <1>   0.0800 
 37 H       -4.9410    -5.4030    -1.2820 H     1 <1>   0.4500 
 38 H       -5.5680    -3.7930     0.3970 H     1 <1>   0.0800 
 39 H       -6.6860    -4.9580     1.0510 H     1 <1>   0.0800 
 40 H       -6.7250    -7.2930     0.1220 H     1 <1>   0.0800 
 41 H       -5.6240    -7.7260    -1.1670 H     1 <1>   0.0800 
 42 H       -7.9240    -7.3590    -1.9960 H     1 <1>   0.0800 
 43 H       -6.7960    -6.2700    -2.7270 H     1 <1>   0.0800 
 44 H       -8.8130    -5.0180    -2.0930 H     1 <1>   0.0800 
 45 H       -8.7530    -5.6730    -0.4900 H     1 <1>   0.0800 
 46 H       -6.6310    -3.8980    -2.9320 H     1 <1>   0.0800 
 47 H       -5.7160    -2.9730    -1.7680 H     1 <1>   0.0800 
 48 H       -8.3340    -2.2730    -2.9870 H     1 <1>   0.0800 
 49 H       -7.0490    -1.2120    -2.4170 H     1 <1>   0.0800 
 50 H       -9.2700    -0.0950    -0.8870 H     1 <1>   0.1500 
 51 H      -10.0780    -3.4330     3.1410 H     1 <1>   0.0800 
 52 H      -10.9670    -1.9530     2.8730 H     1 <1>   0.0800 
 53 H       -9.3700    -1.8930     3.5850 H     1 <1>   0.0800 
@<TRIPOS>BOND
  1   1   2  1   
  2   1   3  1   
  3   2   4  1   
  4   2   5  2   
  5   3   6  2   
  6   3  28  1   
  7   4   7  ar  
  8   4   8  ar  
  9   5   6  1   
 10   5  29  1   
 11   6  30  1   
 12   7   9  ar  
 13   7  31  1   
 14   8  10  ar  
 15   8  32  1   
 16   9  11  ar  
 17   9  33  1   
 18  10  11  ar  
 19  10  34  1   
 20  11  12  1   
 21  12  13  1   
 22  12  35  1   
 23  12  36  1   
 24  13  14  1   
 25  13  15  1   
 26  13  37  1   
 27  14  16  1   
 28  14  38  1   
 29  14  39  1   
 30  15  17  1   
 31  15  40  1   
 32  15  41  1   
 33  16  18  1   
 34  16  19  1   
 35  16  20  1   
 36  17  19  1   
 37  17  42  1   
 38  17  43  1   
 39  18  21  ar  
 40  18  22  ar  
 41  19  44  1   
 42  19  45  1   
 43  20  23  1   
 44  20  46  1   
 45  20  47  1   
 46  21  24  ar  
 47  22  23  1   
 48  22  25  ar  
 49  23  48  1   
 50  23  49  1   
 51  24  26  ar  
 52  24  27  1   
 53  25  26  ar  
 54  25  50  1   
 55  27  51  1   
 56  27  52  1   
 57  27  53  1   
@<TRIPOS>SUBSTRUCTURE
  1 ****  14 GROUP 4 **** **** 0

# MOE 2024.06 (io_trps.svl 2023.06)
