@<TRIPOS>MOLECULE
NONAME
44 46 1 0 0 
SMALL
USER_CHARGES


@<TRIPOS>ATOM
  1 N       -0.1070    -0.9420    -1.5390 N.ar  1 <1>  -0.6200 
  2 C        0.9830    -0.5510    -0.8900 C.ar  1 <1>   0.7710 
  3 C       -0.3220    -2.2310    -1.6510 C.ar  1 <1>   0.4100 
  4 N        1.8560    -1.4400    -0.3820 N.ar  1 <1>  -0.1790 
  5 N        1.2310     0.7790    -0.7270 N.pl3 1 <1>  -0.8380 
  6 N       -1.5070    -2.5610    -2.1840 N.pl3 1 <1>  -0.8690 
  7 C        0.6030    -3.1910    -1.2090 C.ar  1 <1>  -0.1500 
  8 C        1.7030    -2.7750    -0.5410 C.ar  1 <1>   0.2170 
  9 C        2.4810     1.4060    -0.1970 C.3   1 <1>   0.2090 
 10 C        0.2030     1.8180    -1.0650 C.3   1 <1>   0.2090 
 11 C       -2.3120    -3.7870    -1.9370 C.3   1 <1>   0.2090 
 12 C        2.7450    -3.7180     0.0330 C.3   1 <1>  -0.0970 
 13 C        2.1580     2.1490     1.1030 C.3   1 <1>  -0.1600 
 14 C       -0.1640     2.5900     0.2070 C.3   1 <1>  -0.1600 
 15 C       -2.8080    -3.8670    -0.4850 C.3   1 <1>   0.0960 
 16 C        1.0700     3.2100     0.8800 C.3   1 <1>  -0.1600 
 17 N       -1.7970    -4.4570     0.4170 N.pl3 1 <1>   0.3140 
 18 N       -1.0850    -3.7350     1.3070 N.2   1 <1>  -0.7070 
 19 C       -1.5030    -5.7700     0.5170 C.2   1 <1>  -0.3020 
 20 C       -0.3830    -4.6080     1.9630 C.2   1 <1>   0.1390 
 21 C       -0.5940    -5.9020     1.5050 C.2   1 <1>  -0.1500 
 22 H        2.6150    -1.0440     0.1520 H     1 <1>   0.4570 
 23 H       -2.0450    -1.7640    -2.5410 H     1 <1>   0.4000 
 24 H        0.4040    -4.2290    -1.3890 H     1 <1>   0.1500 
 25 H        2.8550     2.1100    -0.9240 H     1 <1>   0.0800 
 26 H        3.2560     0.6840    -0.0220 H     1 <1>   0.0800 
 27 H       -0.6920     1.3880    -1.4810 H     1 <1>   0.0800 
 28 H        0.6080     2.4950    -1.7980 H     1 <1>   0.0800 
 29 H       -1.7470    -4.6670    -2.1940 H     1 <1>   0.0800 
 30 H       -3.1690    -3.7520    -2.5880 H     1 <1>   0.0800 
 31 H        2.8170    -3.5900     1.0990 H     1 <1>   0.0800 
 32 H        3.7060    -3.5350    -0.4120 H     1 <1>   0.0800 
 33 H        2.4710    -4.7400    -0.1620 H     1 <1>   0.0800 
 34 H        3.0480     2.6270     1.4730 H     1 <1>   0.0800 
 35 H        1.8290     1.4450     1.8460 H     1 <1>   0.0800 
 36 H       -0.6540     1.9180     0.8900 H     1 <1>   0.0800 
 37 H       -0.8660     3.3670    -0.0410 H     1 <1>   0.0800 
 38 H       -3.6800    -4.4920    -0.4420 H     1 <1>   0.0800 
 39 H       -3.0740    -2.8900    -0.1260 H     1 <1>   0.0800 
 40 H        1.4580     3.9940     0.2530 H     1 <1>   0.0800 
 41 H        0.7880     3.6500     1.8220 H     1 <1>   0.0800 
 42 H       -1.9560    -6.5280    -0.0950 H     1 <1>   0.1500 
 43 H        0.2810    -4.3520     2.7720 H     1 <1>   0.1500 
 44 H       -0.1300    -6.7960     1.8840 H     1 <1>   0.1500 
@<TRIPOS>BOND
  1   1   2  ar  
  2   1   3  ar  
  3   2   4  ar  
  4   2   5  1   
  5   3   6  1   
  6   3   7  ar  
  7   4   8  ar  
  8   4  22  1   
  9   5   9  1   
 10   5  10  1   
 11   6  11  1   
 12   6  23  1   
 13   7   8  ar  
 14   7  24  1   
 15   8  12  1   
 16   9  13  1   
 17   9  25  1   
 18   9  26  1   
 19  10  14  1   
 20  10  27  1   
 21  10  28  1   
 22  11  15  1   
 23  11  29  1   
 24  11  30  1   
 25  12  31  1   
 26  12  32  1   
 27  12  33  1   
 28  13  16  1   
 29  13  34  1   
 30  13  35  1   
 31  14  16  1   
 32  14  36  1   
 33  14  37  1   
 34  15  17  1   
 35  15  38  1   
 36  15  39  1   
 37  16  40  1   
 38  16  41  1   
 39  17  18  1   
 40  17  19  1   
 41  18  20  2   
 42  19  21  2   
 43  19  42  1   
 44  20  21  1   
 45  20  43  1   
 46  21  44  1   
@<TRIPOS>SUBSTRUCTURE
  1 ****   3 GROUP 4 **** **** 0

# MOE 2024.06 (io_trps.svl 2023.06)
