@<TRIPOS>MOLECULE
NONAME
54 58 1 0 0 
SMALL
USER_CHARGES


@<TRIPOS>ATOM
  1 O       -0.6230     4.6490    -2.1910 O.2   1 <1>  -0.5700 
  2 C       -0.4400     4.3280    -1.0330 C.2   1 <1>   0.5440 
  3 N       -1.5130     3.9080    -0.2740 N.am  1 <1>  -0.6600 
  4 C        0.9030     4.3930    -0.4890 C.ar  1 <1>   0.0860 
  5 C       -2.9060     3.9630    -0.8370 C.3   1 <1>   0.1400 
  6 C       -1.3480     3.2400     1.0530 C.3   1 <1>   0.1400 
  7 C        1.9460     3.6980    -1.0630 C.ar  1 <1>  -0.1500 
  8 C        1.1870     5.1810     0.6430 C.ar  1 <1>  -0.1500 
  9 C       -3.9530     4.1540     0.2760 C.3   1 <1>   0.1440 
 10 C       -2.5150     2.2900     1.3470 C.3   1 <1>  -0.1600 
 11 C        3.2480     3.7340    -0.5490 C.ar  1 <1>   0.3100 
 12 C        2.4510     5.2400     1.1680 C.ar  1 <1>  -0.1500 
 13 C       -5.3520     4.2660    -0.3040 C.ar  1 <1>   0.1660 
 14 C       -3.8930     2.9830     1.2900 C.3   1 <1>  -0.1600 
 15 C       -3.7830     5.5290     0.9810 C.3   1 <1>  -0.1600 
 16 N        4.2210     3.0090    -1.1560 N.ar  1 <1>  -0.6200 
 17 C        3.5110     4.5220     0.5960 C.ar  1 <1>   0.3100 
 18 N       -5.8780     3.4460    -1.1870 N.ar  1 <1>  -0.6200 
 19 C       -6.0270     5.3350     0.2050 C.ar  1 <1>  -0.1430 
 20 C       -5.1940     6.1020     1.2000 C.3   1 <1>  -0.0170 
 21 C        5.3900     3.1050    -0.6060 C.ar  1 <1>   0.1670 
 22 N        4.7440     4.6000     1.1520 N.ar  1 <1>  -0.6200 
 23 C       -7.1180     3.7470    -1.5450 C.ar  1 <1>   0.4770 
 24 C       -7.3090     5.5530    -0.2350 C.ar  1 <1>   0.1600 
 25 C        5.6520     3.8990     0.5460 C.ar  1 <1>   0.1670 
 26 C        6.5040     2.3090    -1.2640 C.3   1 <1>  -0.0970 
 27 N       -7.8690     4.7560    -1.1210 N.ar  1 <1>  -0.6200 
 28 C       -7.7460     2.8280    -2.5630 C.3   1 <1>  -0.0970 
 29 C        7.0500     3.9630     1.1380 C.3   1 <1>  -0.0970 
 30 H       -3.1060     3.0460    -1.3640 H     1 <1>   0.0800 
 31 H       -2.9870     4.7690    -1.5460 H     1 <1>   0.0800 
 32 H       -1.2960     3.9920     1.8210 H     1 <1>   0.0800 
 33 H       -0.4280     2.6790     1.0660 H     1 <1>   0.0800 
 34 H        1.7720     3.1010    -1.9400 H     1 <1>   0.1500 
 35 H        0.3840     5.7450     1.0870 H     1 <1>   0.1500 
 36 H       -2.3790     1.8380     2.3130 H     1 <1>   0.0800 
 37 H       -2.4880     1.4980     0.6190 H     1 <1>   0.0800 
 38 H        2.6700     5.8420     2.0320 H     1 <1>   0.1500 
 39 H       -4.6200     2.2370     1.0170 H     1 <1>   0.0800 
 40 H       -4.1660     3.3360     2.2690 H     1 <1>   0.0800 
 41 H       -3.2510     6.1980     0.3260 H     1 <1>   0.0800 
 42 H       -3.2340     5.4590     1.9020 H     1 <1>   0.0800 
 43 H       -5.2250     7.1620     1.0140 H     1 <1>   0.0800 
 44 H       -5.5410     5.8940     2.1970 H     1 <1>   0.0800 
 45 H       -7.8810     6.3850     0.1370 H     1 <1>   0.1500 
 46 H        6.1280     1.7750    -2.1190 H     1 <1>   0.0800 
 47 H        6.9070     1.5930    -0.5710 H     1 <1>   0.0800 
 48 H        7.2850     2.9680    -1.5950 H     1 <1>   0.0800 
 49 H       -7.5580     1.8060    -2.2930 H     1 <1>   0.0800 
 50 H       -7.3180     3.0240    -3.5280 H     1 <1>   0.0800 
 51 H       -8.8080     2.9880    -2.6090 H     1 <1>   0.0800 
 52 H        7.7390     4.3590     0.4160 H     1 <1>   0.0800 
 53 H        7.3690     2.9840     1.4420 H     1 <1>   0.0800 
 54 H        7.0610     4.6040     2.0020 H     1 <1>   0.0800 
@<TRIPOS>BOND
  1   1   2  2   
  2   2   3  am  
  3   2   4  1   
  4   3   5  1   
  5   3   6  1   
  6   4   7  ar  
  7   4   8  ar  
  8   5   9  1   
  9   5  30  1   
 10   5  31  1   
 11   6  10  1   
 12   6  32  1   
 13   6  33  1   
 14   7  11  ar  
 15   7  34  1   
 16   8  12  ar  
 17   8  35  1   
 18   9  13  1   
 19   9  14  1   
 20   9  15  1   
 21  10  14  1   
 22  10  36  1   
 23  10  37  1   
 24  11  16  ar  
 25  11  17  ar  
 26  12  17  ar  
 27  12  38  1   
 28  13  18  ar  
 29  13  19  ar  
 30  14  39  1   
 31  14  40  1   
 32  15  20  1   
 33  15  41  1   
 34  15  42  1   
 35  16  21  ar  
 36  17  22  ar  
 37  18  23  ar  
 38  19  20  1   
 39  19  24  ar  
 40  20  43  1   
 41  20  44  1   
 42  21  25  ar  
 43  21  26  1   
 44  22  25  ar  
 45  23  27  ar  
 46  23  28  1   
 47  24  27  ar  
 48  24  45  1   
 49  25  29  1   
 50  26  46  1   
 51  26  47  1   
 52  26  48  1   
 53  28  49  1   
 54  28  50  1   
 55  28  51  1   
 56  29  52  1   
 57  29  53  1   
 58  29  54  1   
@<TRIPOS>SUBSTRUCTURE
  1 ****   3 GROUP 4 **** **** 0

# MOE 2024.06 (io_trps.svl 2023.06)
