@<TRIPOS>MOLECULE
NONAME
62 65 1 0 0 
SMALL
USER_CHARGES


@<TRIPOS>ATOM
  1 O       -0.1290    -0.4320     0.1480 O.2   1 <1>  -0.5700 
  2 C        0.7860    -1.2220     0.1930 C.2   1 <1>   0.5690 
  3 N        2.0440    -0.8850    -0.2500 N.am  1 <1>  -0.6600 
  4 C        0.4830    -2.5910     0.7960 C.3   1 <1>   0.1810 
  5 C        2.3150     0.4330    -0.8990 C.3   1 <1>   0.1400 
  6 C        3.2430    -1.7780    -0.2170 C.3   1 <1>   0.1400 
  7 O        0.8090    -3.6420    -0.1030 O.3   1 <1>  -0.3620 
  8 C        3.6010     1.0630    -0.3400 C.3   1 <1>   0.1200 
  9 C        4.4780    -1.0180     0.2950 C.3   1 <1>   0.1200 
 10 C        0.6270    -4.9420     0.2280 C.ar  1 <1>   0.0820 
 11 O        4.6710     0.1660    -0.4270 O.3   1 <1>  -0.5600 
 12 C        0.0410    -5.3680     1.4160 C.ar  1 <1>  -0.1500 
 13 C        1.0630    -5.8800    -0.6920 C.ar  1 <1>  -0.1500 
 14 C       -0.1110    -6.7210     1.6660 C.ar  1 <1>  -0.1500 
 15 C        0.9130    -7.2320    -0.4420 C.ar  1 <1>  -0.1500 
 16 C        0.3160    -7.6590     0.7360 C.ar  1 <1>  -0.1440 
 17 C        0.1270    -9.1400     0.9870 C.3   1 <1>   0.4860 
 18 N       -1.0250    -9.5910     0.1660 N.4   1 <1>  -0.9590 
 19 C       -1.0650   -11.0850     0.0620 C.3   1 <1>   0.5660 
 20 C       -2.3280    -9.0340     0.6570 C.3   1 <1>   0.3430 
 21 C        0.1730   -11.5310    -0.7050 C.ar  1 <1>  -0.1440 
 22 C       -2.3610   -11.6250    -0.6030 C.3   1 <1>   0.2000 
 23 C       -3.5180    -9.6070    -0.1320 C.3   1 <1>   0.1200 
 24 C        0.4350   -11.0830    -1.9960 C.ar  1 <1>  -0.1500 
 25 C        1.0660   -12.4010    -0.0950 C.ar  1 <1>  -0.1500 
 26 O       -3.5060   -11.0020    -0.0680 O.3   1 <1>  -0.5600 
 27 C       -2.4840   -13.1420    -0.3840 C.3   1 <1>   0.1200 
 28 C        1.5810   -11.4910    -2.6550 C.ar  1 <1>  -0.1500 
 29 C        2.2100   -12.8070    -0.7570 C.ar  1 <1>  -0.1500 
 30 O       -2.2360   -13.4570     0.9510 O.3   1 <1>  -0.6800 
 31 C        2.4690   -12.3500    -2.0360 C.ar  1 <1>  -0.1500 
 32 H       -0.5670    -2.6520     1.0150 H     1 <1>   0.0800 
 33 H        1.0520    -2.7200     1.6970 H     1 <1>   0.0800 
 34 H        2.4250     0.2870    -1.9590 H     1 <1>   0.0800 
 35 H        1.4940     1.1100    -0.7420 H     1 <1>   0.0800 
 36 H        3.0740    -2.6290     0.4170 H     1 <1>   0.0800 
 37 H        3.4380    -2.1390    -1.2120 H     1 <1>   0.0800 
 38 H        3.4660     1.3440     0.6900 H     1 <1>   0.0800 
 39 H        3.8600     1.9400    -0.9060 H     1 <1>   0.0800 
 40 H        5.3600    -1.6210     0.1750 H     1 <1>   0.0800 
 41 H        4.3670    -0.7710     1.3360 H     1 <1>   0.0800 
 42 H       -0.3010    -4.6640     2.1520 H     1 <1>   0.1500 
 43 H        1.5210    -5.5400    -1.6050 H     1 <1>   0.1500 
 44 H       -0.5630    -7.0290     2.5940 H     1 <1>   0.1500 
 45 H        1.2730    -7.9380    -1.1720 H     1 <1>   0.1500 
 46 H       -0.0550    -9.3280     2.0330 H     1 <1>   0.0800 
 47 H        1.0250    -9.6630     0.6960 H     1 <1>   0.0800 
 48 H       -0.8550    -9.2320    -0.7770 H     1 <1>   0.4500 
 49 H       -1.0200   -11.5010     1.0550 H     1 <1>   0.0800 
 50 H       -2.4630    -9.2790     1.6980 H     1 <1>   0.0800 
 51 H       -2.3250    -7.9590     0.5660 H     1 <1>   0.0800 
 52 H       -2.3520   -11.4280    -1.6600 H     1 <1>   0.0800 
 53 H       -3.4910    -9.3020    -1.1630 H     1 <1>   0.0800 
 54 H       -4.4440    -9.2710     0.3010 H     1 <1>   0.0800 
 55 H       -0.2390   -10.4210    -2.5110 H     1 <1>   0.1500 
 56 H        0.8800   -12.7770     0.8990 H     1 <1>   0.1500 
 57 H       -1.7650   -13.6720    -0.9860 H     1 <1>   0.0800 
 58 H       -3.4750   -13.4750    -0.6420 H     1 <1>   0.0800 
 59 H        1.7860   -11.1450    -3.6550 H     1 <1>   0.1500 
 60 H        2.9020   -13.4820    -0.2800 H     1 <1>   0.1500 
 61 H       -2.5440   -14.3660     1.1530 H     1 <1>   0.4000 
 62 H        3.3610   -12.6680    -2.5510 H     1 <1>   0.1500 
@<TRIPOS>BOND
  1   1   2  2   
  2   2   3  am  
  3   2   4  1   
  4   3   5  1   
  5   3   6  1   
  6   4   7  1   
  7   4  32  1   
  8   4  33  1   
  9   5   8  1   
 10   5  34  1   
 11   5  35  1   
 12   6   9  1   
 13   6  36  1   
 14   6  37  1   
 15   7  10  1   
 16   8  11  1   
 17   8  38  1   
 18   8  39  1   
 19   9  11  1   
 20   9  40  1   
 21   9  41  1   
 22  10  12  ar  
 23  10  13  ar  
 24  12  14  ar  
 25  12  42  1   
 26  13  15  ar  
 27  13  43  1   
 28  14  16  ar  
 29  14  44  1   
 30  15  16  ar  
 31  15  45  1   
 32  16  17  1   
 33  17  18  1   
 34  17  46  1   
 35  17  47  1   
 36  18  19  1   
 37  18  20  1   
 38  18  48  1   
 39  19  21  1   
 40  19  22  1   
 41  19  49  1   
 42  20  23  1   
 43  20  50  1   
 44  20  51  1   
 45  21  24  ar  
 46  21  25  ar  
 47  22  26  1   
 48  22  27  1   
 49  22  52  1   
 50  23  26  1   
 51  23  53  1   
 52  23  54  1   
 53  24  28  ar  
 54  24  55  1   
 55  25  29  ar  
 56  25  56  1   
 57  27  30  1   
 58  27  57  1   
 59  27  58  1   
 60  28  31  ar  
 61  28  59  1   
 62  29  31  ar  
 63  29  60  1   
 64  30  61  1   
 65  31  62  1   
@<TRIPOS>SUBSTRUCTURE
  1 ****  15 GROUP 4 **** **** 0

# MOE 2024.06 (io_trps.svl 2023.06)
