@<TRIPOS>MOLECULE
NONAME
53 56 1 0 0 
SMALL
USER_CHARGES


@<TRIPOS>ATOM
  1 O       -0.2960     0.7430     0.9450 O.2   1 <1>  -0.5700 
  2 C        0.5860     0.5200     0.1520 C.2   1 <1>   0.5690 
  3 N        1.6880     1.2950     0.0740 N.am  1 <1>  -0.7300 
  4 C        0.4550    -0.6530    -0.7970 C.3   1 <1>  -0.0990 
  5 C        1.9820     2.4360     0.9590 C.3   1 <1>   0.2840 
  6 C       -0.4900    -1.7380    -0.2660 C.3   1 <1>   0.2000 
  7 C        3.4820     2.6510     0.9580 C.ar  1 <1>  -0.1440 
  8 O       -0.3920    -2.8300    -1.1380 O.3   1 <1>  -0.5600 
  9 C       -1.9700    -1.2800    -0.1800 C.3   1 <1>   0.3430 
 10 C        4.0950     3.2450    -0.1540 C.ar  1 <1>   0.0000 
 11 C        4.2650     2.2690     2.0260 C.ar  1 <1>  -0.1500 
 12 C       -1.1400    -3.9540    -0.7720 C.3   1 <1>   0.1200 
 13 N       -2.8940    -2.4140     0.1630 N.4   1 <1>  -0.9590 
 14 C        5.4730     3.4360    -0.1630 C.ar  1 <1>  -0.1520 
 15 C        3.6190     3.7430    -1.3880 C.2   1 <1>  -0.1500 
 16 C        5.6500     2.4680     2.0100 C.ar  1 <1>  -0.1500 
 17 C       -2.6400    -3.6060    -0.7180 C.3   1 <1>   0.3430 
 18 C       -4.3190    -1.9900     0.1370 C.3   1 <1>   0.4860 
 19 N        5.8210     4.0260    -1.3520 N.pl3 1 <1>   0.0330 
 20 C        6.2600     3.0490     0.9230 C.ar  1 <1>  -0.1500 
 21 C        4.6830     4.2050    -2.0860 C.2   1 <1>  -0.3020 
 22 C       -5.1700    -3.1330     0.6530 C.ar  1 <1>  -0.1440 
 23 C       -5.9150    -3.9040    -0.2300 C.ar  1 <1>  -0.1500 
 24 C       -5.2050    -3.4240     2.0100 C.ar  1 <1>  -0.1500 
 25 C       -6.6740    -4.9610     0.2380 C.ar  1 <1>  -0.1500 
 26 C       -5.9650    -4.4820     2.4750 C.ar  1 <1>  -0.1500 
 27 C       -6.6980    -5.2520     1.5900 C.ar  1 <1>  -0.1500 
 28 H        2.4460     1.0940    -0.5840 H     1 <1>   0.3700 
 29 H        1.4300    -1.0830    -0.9360 H     1 <1>   0.0800 
 30 H        0.1030    -0.2900    -1.7450 H     1 <1>   0.0800 
 31 H        1.6290     2.2280     1.9550 H     1 <1>   0.0800 
 32 H        1.4820     3.3160     0.5950 H     1 <1>   0.0800 
 33 H       -0.1460    -2.0530     0.7050 H     1 <1>   0.0800 
 34 H       -2.2460    -0.8580    -1.1320 H     1 <1>   0.0800 
 35 H       -2.0650    -0.5040     0.5610 H     1 <1>   0.0800 
 36 H        3.8220     1.8080     2.8920 H     1 <1>   0.1500 
 37 H       -0.7890    -4.3120     0.1810 H     1 <1>   0.0800 
 38 H       -0.9650    -4.7190    -1.5090 H     1 <1>   0.0800 
 39 H       -2.6980    -2.7070     1.1280 H     1 <1>   0.4500 
 40 H        2.5860     3.7420    -1.6860 H     1 <1>   0.1500 
 41 H        6.2340     2.1600     2.8600 H     1 <1>   0.1500 
 42 H       -3.1910    -4.4590    -0.3550 H     1 <1>   0.0800 
 43 H       -2.9760    -3.3980    -1.7210 H     1 <1>   0.0800 
 44 H       -4.6150    -1.7340    -0.8680 H     1 <1>   0.0800 
 45 H       -4.4630    -1.1260     0.7670 H     1 <1>   0.0800 
 46 H        6.7740     4.2850    -1.6260 H     1 <1>   0.2700 
 47 H        7.3240     3.2050     0.9020 H     1 <1>   0.1500 
 48 H        4.7020     4.6550    -3.0630 H     1 <1>   0.1500 
 49 H       -5.9180    -3.6930    -1.2860 H     1 <1>   0.1500 
 50 H       -4.6510    -2.8340     2.7210 H     1 <1>   0.1500 
 51 H       -7.2530    -5.5590    -0.4460 H     1 <1>   0.1500 
 52 H       -5.9930    -4.7080     3.5280 H     1 <1>   0.1500 
 53 H       -7.2910    -6.0750     1.9540 H     1 <1>   0.1500 
@<TRIPOS>BOND
  1   1   2  2   
  2   2   3  am  
  3   2   4  1   
  4   3   5  1   
  5   3  28  1   
  6   4   6  1   
  7   4  29  1   
  8   4  30  1   
  9   5   7  1   
 10   5  31  1   
 11   5  32  1   
 12   6   8  1   
 13   6   9  1   
 14   6  33  1   
 15   7  10  ar  
 16   7  11  ar  
 17   8  12  1   
 18   9  13  1   
 19   9  34  1   
 20   9  35  1   
 21  10  14  ar  
 22  10  15  1   
 23  11  16  ar  
 24  11  36  1   
 25  12  17  1   
 26  12  37  1   
 27  12  38  1   
 28  13  17  1   
 29  13  18  1   
 30  13  39  1   
 31  14  19  1   
 32  14  20  ar  
 33  15  21  2   
 34  15  40  1   
 35  16  20  ar  
 36  16  41  1   
 37  17  42  1   
 38  17  43  1   
 39  18  22  1   
 40  18  44  1   
 41  18  45  1   
 42  19  21  1   
 43  19  46  1   
 44  20  47  1   
 45  21  48  1   
 46  22  23  ar  
 47  22  24  ar  
 48  23  25  ar  
 49  23  49  1   
 50  24  26  ar  
 51  24  50  1   
 52  25  27  ar  
 53  25  51  1   
 54  26  27  ar  
 55  26  52  1   
 56  27  53  1   
@<TRIPOS>SUBSTRUCTURE
  1 ****   2 GROUP 4 **** **** 0

# MOE 2024.06 (io_trps.svl 2023.06)
