@<TRIPOS>MOLECULE
NONAME
43 44 1 0 0 
SMALL
USER_CHARGES


@<TRIPOS>ATOM
  1 F       -0.6690    -0.4740    -1.5970 F     1 <1>  -0.3400 
  2 C       -0.3280    -1.1280    -0.4950 C.3   1 <1>   1.1640 
  3 F        0.9030    -1.5850    -0.6980 F     1 <1>  -0.3400 
  4 F       -0.2330    -0.2170     0.4650 F     1 <1>  -0.3400 
  5 C       -1.3290    -2.2250    -0.1490 C.ar  1 <1>  -0.1440 
  6 C       -2.6260    -1.8580     0.1680 C.ar  1 <1>   0.1600 
  7 C       -1.0060    -3.5740    -0.1360 C.ar  1 <1>  -0.1500 
  8 N       -3.5980    -2.6950     0.4870 N.ar  1 <1>  -0.6200 
  9 C       -2.0100    -4.4530     0.1950 C.ar  1 <1>  -0.1500 
 10 C       -3.2850    -3.9840     0.4960 C.ar  1 <1>   0.4100 
 11 N       -4.2880    -4.8820     0.8110 N.pl3 1 <1>  -0.8380 
 12 C       -4.7530    -5.8060    -0.2670 C.3   1 <1>   0.2090 
 13 C       -5.3010    -4.5120     1.8390 C.3   1 <1>   0.2090 
 14 C       -6.0670    -5.3110    -0.8980 C.3   1 <1>   0.2000 
 15 C       -6.5920    -4.0160     1.1710 C.3   1 <1>  -0.1600 
 16 O       -6.4970    -6.2370    -1.8490 O.3   1 <1>  -0.6800 
 17 C       -7.1830    -5.0200     0.1470 C.3   1 <1>   0.0000 
 18 C       -7.5880    -6.3410     0.8630 C.3   1 <1>   0.1200 
 19 C       -8.4520    -4.4170    -0.5250 C.3   1 <1>  -0.1600 
 20 O       -8.5410    -6.1230     1.8490 O.3   1 <1>  -0.6800 
 21 C       -8.2450    -3.1720    -1.4080 C.3   1 <1>  -0.1600 
 22 C       -9.5820    -2.6680    -1.9580 C.3   1 <1>  -0.2400 
 23 H       -2.8890    -0.8120     0.1610 H     1 <1>   0.1500 
 24 H       -0.0160    -3.9310    -0.3710 H     1 <1>   0.1500 
 25 H       -1.8280    -5.5100     0.2310 H     1 <1>   0.1500 
 26 H       -4.0060    -5.8630    -1.0400 H     1 <1>   0.0800 
 27 H       -4.8810    -6.7880     0.1500 H     1 <1>   0.0800 
 28 H       -5.4990    -5.3670     2.4610 H     1 <1>   0.0800 
 29 H       -4.9060    -3.7370     2.4740 H     1 <1>   0.0800 
 30 H       -5.8280    -4.4080    -1.4320 H     1 <1>   0.0800 
 31 H       -7.3130    -3.7790     1.9310 H     1 <1>   0.0800 
 32 H       -6.3490    -3.0930     0.6800 H     1 <1>   0.0800 
 33 H       -6.9300    -7.0000    -1.4240 H     1 <1>   0.4000 
 34 H       -6.7450    -6.8170     1.3310 H     1 <1>   0.0800 
 35 H       -8.0200    -7.0340     0.1630 H     1 <1>   0.0800 
 36 H       -8.9110    -5.1780    -1.1340 H     1 <1>   0.0800 
 37 H       -9.1650    -4.1670     0.2420 H     1 <1>   0.0800 
 38 H       -8.2440    -5.4260     2.4650 H     1 <1>   0.4000 
 39 H       -7.7860    -2.3780    -0.8460 H     1 <1>   0.0800 
 40 H       -7.6050    -3.4090    -2.2400 H     1 <1>   0.0800 
 41 H      -10.2420    -2.3950    -1.1530 H     1 <1>   0.0800 
 42 H      -10.0550    -3.4300    -2.5520 H     1 <1>   0.0800 
 43 H       -9.4220    -1.8030    -2.5770 H     1 <1>   0.0800 
@<TRIPOS>BOND
  1   1   2  1   
  2   2   3  1   
  3   2   4  1   
  4   2   5  1   
  5   5   6  ar  
  6   5   7  ar  
  7   6   8  ar  
  8   6  23  1   
  9   7   9  ar  
 10   7  24  1   
 11   8  10  ar  
 12   9  10  ar  
 13   9  25  1   
 14  10  11  1   
 15  11  12  1   
 16  11  13  1   
 17  12  14  1   
 18  12  26  1   
 19  12  27  1   
 20  13  15  1   
 21  13  28  1   
 22  13  29  1   
 23  14  16  1   
 24  14  17  1   
 25  14  30  1   
 26  15  17  1   
 27  15  31  1   
 28  15  32  1   
 29  16  33  1   
 30  17  18  1   
 31  17  19  1   
 32  18  20  1   
 33  18  34  1   
 34  18  35  1   
 35  19  21  1   
 36  19  36  1   
 37  19  37  1   
 38  20  38  1   
 39  21  22  1   
 40  21  39  1   
 41  21  40  1   
 42  22  41  1   
 43  22  42  1   
 44  22  43  1   
@<TRIPOS>SUBSTRUCTURE
  1 ****  10 GROUP 4 **** **** 0

# MOE 2024.06 (io_trps.svl 2023.06)
