@<TRIPOS>MOLECULE
NONAME
45 46 1 0 0 
SMALL
USER_CHARGES


@<TRIPOS>ATOM
  1 O       -0.9190    -0.5580    -1.1440 O.2   1 <1>  -0.5700 
  2 C       -0.6080    -1.6700    -0.7640 C.2   1 <1>   0.5440 
  3 N        0.7080    -1.9160    -0.4770 N.am  1 <1>  -0.7300 
  4 C       -1.6050    -2.7090    -0.6370 C.ar  1 <1>   0.0860 
  5 C        1.7930    -0.9180    -0.5550 C.3   1 <1>   0.1400 
  6 C       -2.8100    -2.6220    -1.3340 C.ar  1 <1>   0.1600 
  7 C       -1.4320    -3.8340     0.1680 C.ar  1 <1>  -0.1500 
  8 C        2.7900    -1.1960     0.5640 C.3   1 <1>  -0.2400 
  9 N       -3.7910    -3.5100    -1.3120 N.ar  1 <1>  -0.6200 
 10 C       -2.4410    -4.7660     0.2040 C.ar  1 <1>  -0.1500 
 11 C       -3.5980    -4.5660    -0.5440 C.ar  1 <1>   0.4100 
 12 N       -4.6280    -5.4480    -0.5460 N.pl3 1 <1>  -0.8690 
 13 C       -5.1700    -6.0160     0.7130 C.3   1 <1>   0.3530 
 14 C       -6.5710    -6.5930     0.5020 C.ar  1 <1>   0.1670 
 15 N       -7.5630    -5.7930     0.8750 N.ar  1 <1>  -0.6200 
 16 C       -6.7550    -7.8660    -0.0370 C.ar  1 <1>  -0.1430 
 17 C       -8.7870    -6.2600     0.7020 C.ar  1 <1>   0.1600 
 18 C       -8.0540    -8.3380    -0.1700 C.ar  1 <1>   0.0830 
 19 C       -5.5730    -8.7280    -0.4850 C.3   1 <1>  -0.0970 
 20 C       -9.0980    -7.5050     0.1910 C.ar  1 <1>  -0.1430 
 21 O       -8.3130    -9.5710    -0.6500 O.3   1 <1>  -0.3630 
 22 C      -10.5500    -7.9350     0.0270 C.3   1 <1>  -0.0970 
 23 C       -8.3060   -10.6260     0.2850 C.3   1 <1>   0.0400 
 24 H        1.0120    -2.8730    -0.3010 H     1 <1>   0.3700 
 25 H        1.3880     0.0750    -0.4490 H     1 <1>   0.0800 
 26 H        2.2760    -0.9900    -1.5140 H     1 <1>   0.0800 
 27 H       -2.9650    -1.7550    -1.9540 H     1 <1>   0.1500 
 28 H       -0.5380    -3.9690     0.7490 H     1 <1>   0.1500 
 29 H        2.3040    -1.1200     1.5200 H     1 <1>   0.0800 
 30 H        3.5810    -0.4690     0.5270 H     1 <1>   0.0800 
 31 H        3.2210    -2.1740     0.4520 H     1 <1>   0.0800 
 32 H       -2.3480    -5.6530     0.8000 H     1 <1>   0.1500 
 33 H       -5.3920    -5.1050    -1.1370 H     1 <1>   0.4000 
 34 H       -5.2190    -5.2420     1.4590 H     1 <1>   0.0800 
 35 H       -4.5120    -6.7850     1.0740 H     1 <1>   0.0800 
 36 H       -9.5910    -5.6040     0.9890 H     1 <1>   0.1500 
 37 H       -4.8250    -8.1310    -0.9740 H     1 <1>   0.0800 
 38 H       -5.8850    -9.4770    -1.1900 H     1 <1>   0.0800 
 39 H       -5.1320    -9.2190     0.3640 H     1 <1>   0.0800 
 40 H      -11.2150    -7.0980     0.1350 H     1 <1>   0.0800 
 41 H      -10.7990    -8.6730     0.7680 H     1 <1>   0.0800 
 42 H      -10.6970    -8.3610    -0.9500 H     1 <1>   0.0800 
 43 H       -8.5420   -11.5370    -0.2340 H     1 <1>   0.0800 
 44 H       -9.0450   -10.4270     1.0400 H     1 <1>   0.0800 
 45 H       -7.3290   -10.6940     0.7280 H     1 <1>   0.0800 
@<TRIPOS>BOND
  1   1   2  2   
  2   2   3  am  
  3   2   4  1   
  4   3   5  1   
  5   3  24  1   
  6   4   6  ar  
  7   4   7  ar  
  8   5   8  1   
  9   5  25  1   
 10   5  26  1   
 11   6   9  ar  
 12   6  27  1   
 13   7  10  ar  
 14   7  28  1   
 15   8  29  1   
 16   8  30  1   
 17   8  31  1   
 18   9  11  ar  
 19  10  11  ar  
 20  10  32  1   
 21  11  12  1   
 22  12  13  1   
 23  12  33  1   
 24  13  14  1   
 25  13  34  1   
 26  13  35  1   
 27  14  15  ar  
 28  14  16  ar  
 29  15  17  ar  
 30  16  18  ar  
 31  16  19  1   
 32  17  20  ar  
 33  17  36  1   
 34  18  20  ar  
 35  18  21  1   
 36  19  37  1   
 37  19  38  1   
 38  19  39  1   
 39  20  22  1   
 40  21  23  1   
 41  22  40  1   
 42  22  41  1   
 43  22  42  1   
 44  23  43  1   
 45  23  44  1   
 46  23  45  1   
@<TRIPOS>SUBSTRUCTURE
  1 ****  12 GROUP 4 **** **** 0

# MOE 2024.06 (io_trps.svl 2023.06)
