@<TRIPOS>MOLECULE
NONAME
54 57 1 0 0 
SMALL
USER_CHARGES


@<TRIPOS>ATOM
  1 O       -2.6220     2.6150    -2.4060 O.2   1 <1>  -0.5700 
  2 C       -2.5650     2.1510    -1.2830 C.2   1 <1>   0.5440 
  3 N       -3.2850     1.0080    -1.0050 N.am  1 <1>  -0.6600 
  4 C       -1.7570     2.8290    -0.2910 C.ar  1 <1>   0.0860 
  5 C       -3.1500     0.2470     0.2800 C.3   1 <1>   0.1400 
  6 C       -4.1760     0.4110    -2.0550 C.3   1 <1>   0.1400 
  7 C       -0.4660     2.4010     0.0760 C.ar  1 <1>   0.0000 
  8 C       -2.2810     3.9720     0.3120 C.ar  1 <1>  -0.1500 
  9 C       -3.3390    -1.2540    -0.0200 C.3   1 <1>   0.4230 
 10 C       -5.2930    -0.4380    -1.4300 C.3   1 <1>  -0.1600 
 11 C        0.1500     1.1990    -0.4560 C.ar  1 <1>   0.0000 
 12 C        0.2460     3.1580     1.0050 C.ar  1 <1>  -0.1500 
 13 C       -1.5660     4.6950     1.2440 C.ar  1 <1>  -0.1500 
 14 N       -2.8970    -2.2260     1.0340 N.4   1 <1>  -0.9590 
 15 C       -4.8090    -1.5140    -0.4080 C.3   1 <1>  -0.1060 
 16 C        0.2100     0.9350    -1.8230 C.ar  1 <1>  -0.1500 
 17 C        0.7220     0.2620     0.4050 C.ar  1 <1>  -0.1500 
 18 C       -0.2920     4.2880     1.5880 C.ar  1 <1>  -0.1500 
 19 C       -2.9450    -3.6250     0.5290 C.3   1 <1>   0.3430 
 20 C       -1.6050    -1.9090     1.6930 C.3   1 <1>   0.2630 
 21 C       -5.7110    -1.4520     0.8390 C.2   1 <1>   0.9060 
 22 C       -4.8660    -2.9300    -1.0260 C.3   1 <1>  -0.1600 
 23 C        0.7930    -0.2220    -2.3080 C.ar  1 <1>  -0.1500 
 24 C        1.3160    -0.8920    -0.0740 C.ar  1 <1>  -0.1500 
 25 C       -4.3310    -3.9750    -0.0290 C.3   1 <1>  -0.1600 
 26 O       -5.1930    -1.3510     1.9640 O.co2 1 <1>  -0.9000 
 27 O       -6.9260    -1.5670     0.6990 O.co2 1 <1>  -0.9000 
 28 C        1.3480    -1.1390    -1.4340 C.ar  1 <1>  -0.1500 
 29 H       -2.1800     0.4230     0.6960 H     1 <1>   0.0800 
 30 H       -3.8950     0.5910     0.9770 H     1 <1>   0.0800 
 31 H       -4.6210     1.1970    -2.6420 H     1 <1>   0.0800 
 32 H       -3.5790    -0.1950    -2.7150 H     1 <1>   0.0800 
 33 H       -3.2690     4.2960     0.0310 H     1 <1>   0.1500 
 34 H       -2.7350    -1.4470    -0.8890 H     1 <1>   0.0800 
 35 H       -5.9610     0.2490    -0.9350 H     1 <1>   0.0800 
 36 H       -5.8740    -0.8980    -2.2100 H     1 <1>   0.0800 
 37 H        1.2450     2.8610     1.2740 H     1 <1>   0.1500 
 38 H       -1.9940     5.5750     1.6940 H     1 <1>   0.1500 
 39 H       -3.6740    -2.1140     1.7410 H     1 <1>   0.4500 
 40 H       -0.1980     1.6460    -2.5210 H     1 <1>   0.1500 
 41 H        0.7090     0.4470     1.4650 H     1 <1>   0.1500 
 42 H        0.2790     4.8530     2.3060 H     1 <1>   0.1500 
 43 H       -2.2120    -3.7450    -0.2510 H     1 <1>   0.0800 
 44 H       -2.7060    -4.3080     1.3280 H     1 <1>   0.0800 
 45 H       -0.8110    -1.9030     0.9650 H     1 <1>   0.0800 
 46 H       -1.3860    -2.6440     2.4490 H     1 <1>   0.0800 
 47 H       -1.6580    -0.9420     2.1660 H     1 <1>   0.0800 
 48 H       -5.8870    -3.1720    -1.2750 H     1 <1>   0.0800 
 49 H       -4.2870    -2.9600    -1.9330 H     1 <1>   0.0800 
 50 H        0.8220    -0.4010    -3.3690 H     1 <1>   0.1500 
 51 H        1.7670    -1.5940     0.6070 H     1 <1>   0.1500 
 52 H       -4.2840    -4.9350    -0.5100 H     1 <1>   0.0800 
 53 H       -5.0200    -4.0710     0.7940 H     1 <1>   0.0800 
 54 H        1.8120    -2.0330    -1.8150 H     1 <1>   0.1500 
@<TRIPOS>BOND
  1   1   2  2   
  2   2   3  am  
  3   2   4  1   
  4   3   5  1   
  5   3   6  1   
  6   4   7  ar  
  7   4   8  ar  
  8   5   9  1   
  9   5  29  1   
 10   5  30  1   
 11   6  10  1   
 12   6  31  1   
 13   6  32  1   
 14   7  11  1   
 15   7  12  ar  
 16   8  13  ar  
 17   8  33  1   
 18   9  14  1   
 19   9  15  1   
 20   9  34  1   
 21  10  15  1   
 22  10  35  1   
 23  10  36  1   
 24  11  16  ar  
 25  11  17  ar  
 26  12  18  ar  
 27  12  37  1   
 28  13  18  ar  
 29  13  38  1   
 30  14  19  1   
 31  14  20  1   
 32  14  39  1   
 33  15  21  1   
 34  15  22  1   
 35  16  23  ar  
 36  16  40  1   
 37  17  24  ar  
 38  17  41  1   
 39  18  42  1   
 40  19  25  1   
 41  19  43  1   
 42  19  44  1   
 43  20  45  1   
 44  20  46  1   
 45  20  47  1   
 46  21  26  ar  
 47  21  27  ar  
 48  22  25  1   
 49  22  48  1   
 50  22  49  1   
 51  23  28  ar  
 52  23  50  1   
 53  24  28  ar  
 54  24  51  1   
 55  25  52  1   
 56  25  53  1   
 57  28  54  1   
@<TRIPOS>SUBSTRUCTURE
  1 ****   5 GROUP 4 **** **** 0

# MOE 2024.06 (io_trps.svl 2023.06)
