@<TRIPOS>MOLECULE
NONAME
41 42 1 0 0 
SMALL
USER_CHARGES


@<TRIPOS>ATOM
  1 F        2.0060     2.3340    -3.0650 F     1 <1>  -0.1900 
  2 C        2.7920     2.6590    -2.0750 C.ar  1 <1>   0.1900 
  3 C        2.2320     3.1600    -0.9160 C.ar  1 <1>  -0.1500 
  4 C        4.1550     2.4900    -2.2220 C.ar  1 <1>  -0.1500 
  5 C        3.0710     3.5040     0.1300 C.ar  1 <1>  -0.1500 
  6 C        4.9840     2.8380    -1.1690 C.ar  1 <1>  -0.1500 
  7 C        4.4470     3.3450     0.0080 C.ar  1 <1>  -0.1430 
  8 C        5.3580     3.7330     1.1600 C.3   1 <1>  -0.0160 
  9 C        5.6260     5.2420     1.1340 C.3   1 <1>  -0.1600 
 10 C        6.5990     5.6690     2.2470 C.3   1 <1>  -0.0990 
 11 C        6.8040     7.1720     2.2980 C.2   1 <1>   0.5690 
 12 O        6.4810     7.7590     3.3010 O.2   1 <1>  -0.5700 
 13 N        7.3460     7.7790     1.1990 N.am  1 <1>  -0.4940 
 14 C        7.6610     9.1460     0.9960 C.2   1 <1>  -0.0880 
 15 N        8.0560     9.6920    -0.1860 N.pl3 1 <1>   0.3140 
 16 C        7.6450    10.1630     1.8890 C.2   1 <1>  -0.1500 
 17 N        8.2940    11.0170    -0.0680 N.2   1 <1>  -0.7070 
 18 C        8.1950     9.0090    -1.4880 C.3   1 <1>   0.0960 
 19 C        8.0440    11.2850     1.1760 C.2   1 <1>   0.1390 
 20 C        9.5170     8.2310    -1.5670 C.3   1 <1>  -0.1600 
 21 C        9.6430     7.4800    -2.8970 C.3   1 <1>  -0.2400 
 22 H        1.1660     3.2770    -0.8390 H     1 <1>   0.1500 
 23 H        4.5520     2.0940    -3.1400 H     1 <1>   0.1500 
 24 H        2.6510     3.8970     1.0400 H     1 <1>   0.1500 
 25 H        6.0480     2.7110    -1.2700 H     1 <1>   0.1500 
 26 H        6.2860     3.1930     1.0860 H     1 <1>   0.0800 
 27 H        4.8950     3.4590     2.0920 H     1 <1>   0.0800 
 28 H        4.6930     5.7670     1.2610 H     1 <1>   0.0800 
 29 H        6.0260     5.5090     0.1720 H     1 <1>   0.0800 
 30 H        7.5540     5.1960     2.1080 H     1 <1>   0.0800 
 31 H        6.2120     5.3510     3.2000 H     1 <1>   0.0800 
 32 H        7.5440     7.1530     0.4210 H     1 <1>   0.3700 
 33 H        7.3830    10.1300     2.9320 H     1 <1>   0.1500 
 34 H        8.1630     9.7550    -2.2610 H     1 <1>   0.0800 
 35 H        7.3570     8.3500    -1.6190 H     1 <1>   0.0800 
 36 H        8.1380    12.2700     1.6000 H     1 <1>   0.1500 
 37 H        9.5790     7.5260    -0.7560 H     1 <1>   0.0800 
 38 H       10.3360     8.9250    -1.4740 H     1 <1>   0.0800 
 39 H        8.8450     6.7680    -3.0120 H     1 <1>   0.0800 
 40 H       10.5800     6.9520    -2.9330 H     1 <1>   0.0800 
 41 H        9.6140     8.1700    -3.7230 H     1 <1>   0.0800 
@<TRIPOS>BOND
  1   1   2  1   
  2   2   3  ar  
  3   2   4  ar  
  4   3   5  ar  
  5   3  22  1   
  6   4   6  ar  
  7   4  23  1   
  8   5   7  ar  
  9   5  24  1   
 10   6   7  ar  
 11   6  25  1   
 12   7   8  1   
 13   8   9  1   
 14   8  26  1   
 15   8  27  1   
 16   9  10  1   
 17   9  28  1   
 18   9  29  1   
 19  10  11  1   
 20  10  30  1   
 21  10  31  1   
 22  11  12  2   
 23  11  13  am  
 24  13  14  1   
 25  13  32  1   
 26  14  15  1   
 27  14  16  2   
 28  15  17  1   
 29  15  18  1   
 30  16  19  1   
 31  16  33  1   
 32  17  19  2   
 33  18  20  1   
 34  18  34  1   
 35  18  35  1   
 36  19  36  1   
 37  20  21  1   
 38  20  37  1   
 39  20  38  1   
 40  21  39  1   
 41  21  40  1   
 42  21  41  1   
@<TRIPOS>SUBSTRUCTURE
  1 ****   9 GROUP 4 **** **** 0

# MOE 2024.06 (io_trps.svl 2023.06)
