@<TRIPOS>MOLECULE
NONAME
50 52 1 0 0 
SMALL
USER_CHARGES


@<TRIPOS>ATOM
  1 O        2.4940    -0.4210     2.4530 O.2   1 <1>  -0.5700 
  2 C        1.8520    -1.1710     1.7580 C.2   1 <1>   0.5690 
  3 N        1.6220    -0.9510     0.4250 N.am  1 <1>  -0.4940 
  4 C        1.2900    -2.4230     2.4160 C.3   1 <1>   0.1570 
  5 C        1.9060     0.1270    -0.4450 C.2   1 <1>  -0.0880 
  6 N        0.1000    -2.9380     1.6960 N.pl3 1 <1>   0.0480 
  7 N        2.9540     1.0030    -0.4220 N.pl3 1 <1>   0.3140 
  8 C        1.1460     0.4660    -1.5140 C.2   1 <1>  -0.1810 
  9 C        0.0230    -3.5220     0.4400 C.ar  1 <1>  -0.1520 
 10 C       -1.1510    -2.5880     2.0650 C.2   1 <1>  -0.3020 
 11 N        2.8610     1.8940    -1.4430 N.2   1 <1>  -0.7070 
 12 C        4.1130     1.0060     0.5100 C.3   1 <1>   0.0960 
 13 C        1.7840     1.5610    -2.0810 C.2   1 <1>   0.1390 
 14 C       -0.1330    -0.1780    -2.0180 C.3   1 <1>  -0.0590 
 15 C        1.0060    -4.0900    -0.3990 C.ar  1 <1>  -0.1430 
 16 C       -1.3130    -3.4560     0.0320 C.ar  1 <1>   0.0000 
 17 C       -2.0700    -2.9010     1.1050 C.2   1 <1>  -0.0860 
 18 C        5.3930     1.6030    -0.0990 C.3   1 <1>  -0.2400 
 19 C        0.6200    -4.4860    -1.6650 C.ar  1 <1>  -0.1500 
 20 C        2.4470    -4.2890     0.0870 C.3   1 <1>  -0.0170 
 21 C       -1.6600    -3.8620    -1.2610 C.ar  1 <1>  -0.1500 
 22 C       -3.4890    -2.6870     1.2140 C.2   1 <1>   0.5950 
 23 C       -0.6990    -4.3660    -2.0970 C.ar  1 <1>  -0.1500 
 24 C        3.3520    -5.1350    -0.8180 C.3   1 <1>  -0.2400 
 25 O       -3.9710    -1.9480     2.0360 O.2   1 <1>  -0.5700 
 26 C       -4.4650    -3.4120     0.3150 C.3   1 <1>  -0.1790 
 27 H        1.0080    -1.6540    -0.0050 H     1 <1>   0.3700 
 28 H        1.0010    -2.1730     3.4190 H     1 <1>   0.0800 
 29 H        2.0460    -3.1780     2.4750 H     1 <1>   0.0800 
 30 H       -1.3650    -2.1080     3.0060 H     1 <1>   0.1500 
 31 H        4.3110    -0.0090     0.7970 H     1 <1>   0.0800 
 32 H        3.8320     1.5610     1.3860 H     1 <1>   0.0800 
 33 H        1.4340     2.0840    -2.9550 H     1 <1>   0.1500 
 34 H       -0.5770    -0.7920    -1.2550 H     1 <1>   0.0800 
 35 H        0.0790    -0.7890    -2.8760 H     1 <1>   0.0800 
 36 H       -0.8410     0.5830    -2.2960 H     1 <1>   0.0800 
 37 H        5.6630     1.0670    -0.9920 H     1 <1>   0.0800 
 38 H        6.2000     1.5330     0.6060 H     1 <1>   0.0800 
 39 H        5.2400     2.6400    -0.3420 H     1 <1>   0.0800 
 40 H        1.3190    -4.9100    -2.3620 H     1 <1>   0.1500 
 41 H        2.4110    -4.7820     1.0420 H     1 <1>   0.0800 
 42 H        2.9190    -3.3330     0.2140 H     1 <1>   0.0800 
 43 H       -2.6700    -3.7780    -1.6110 H     1 <1>   0.1500 
 44 H       -0.9540    -4.6810    -3.0940 H     1 <1>   0.1500 
 45 H        2.9160    -6.1040    -0.9850 H     1 <1>   0.0800 
 46 H        4.3110    -5.2710    -0.3510 H     1 <1>   0.0800 
 47 H        3.5070    -4.6450    -1.7630 H     1 <1>   0.0800 
 48 H       -4.1240    -4.4110     0.1230 H     1 <1>   0.0800 
 49 H       -4.5770    -2.8730    -0.6060 H     1 <1>   0.0800 
 50 H       -5.4240    -3.4680     0.7980 H     1 <1>   0.0800 
@<TRIPOS>BOND
  1   1   2  2   
  2   2   3  am  
  3   2   4  1   
  4   3   5  1   
  5   3  27  1   
  6   4   6  1   
  7   4  28  1   
  8   4  29  1   
  9   5   7  1   
 10   5   8  2   
 11   6   9  1   
 12   6  10  1   
 13   7  11  1   
 14   7  12  1   
 15   8  13  1   
 16   8  14  1   
 17   9  15  ar  
 18   9  16  ar  
 19  10  17  2   
 20  10  30  1   
 21  11  13  2   
 22  12  18  1   
 23  12  31  1   
 24  12  32  1   
 25  13  33  1   
 26  14  34  1   
 27  14  35  1   
 28  14  36  1   
 29  15  19  ar  
 30  15  20  1   
 31  16  17  1   
 32  16  21  ar  
 33  17  22  1   
 34  18  37  1   
 35  18  38  1   
 36  18  39  1   
 37  19  23  ar  
 38  19  40  1   
 39  20  24  1   
 40  20  41  1   
 41  20  42  1   
 42  21  23  ar  
 43  21  43  1   
 44  22  25  2   
 45  22  26  1   
 46  23  44  1   
 47  24  45  1   
 48  24  46  1   
 49  24  47  1   
 50  26  48  1   
 51  26  49  1   
 52  26  50  1   
@<TRIPOS>SUBSTRUCTURE
  1 ****   3 GROUP 4 **** **** 0

# MOE 2024.06 (io_trps.svl 2023.06)
