@<TRIPOS>MOLECULE
NONAME
48 50 1 0 0 
SMALL
USER_CHARGES


@<TRIPOS>ATOM
  1 S       -2.2220    -0.7880     2.5410 S.3   1 <1>  -0.0800 
  2 C       -3.1590    -1.0400     1.0800 C.2   1 <1>  -0.1100 
  3 C       -2.1950     0.9450     2.2710 C.2   1 <1>  -0.1100 
  4 C       -3.4190     0.1300     0.4640 C.2   1 <1>  -0.1810 
  5 C       -2.8620     1.2620     1.1460 C.2   1 <1>  -0.1500 
  6 C       -4.2130     0.3210    -0.8260 C.3   1 <1>   0.0820 
  7 C       -4.9370    -0.9330    -1.3050 C.2   1 <1>   0.5690 
  8 O       -4.5310    -1.4560    -2.3180 O.2   1 <1>  -0.5700 
  9 N       -6.0230    -1.4380    -0.6310 N.am  1 <1>  -0.6600 
 10 C       -6.6690    -2.7200    -1.0620 C.3   1 <1>   0.1400 
 11 C       -6.6610    -0.8100     0.5610 C.3   1 <1>   0.1400 
 12 C       -7.9900    -2.4810    -1.8110 C.3   1 <1>   0.1400 
 13 C       -7.7390     0.2090     0.1590 C.3   1 <1>  -0.1600 
 14 N       -8.9360    -1.6170    -1.0340 N.am  1 <1>  -0.6600 
 15 C       -8.5850    -0.1720    -1.0640 C.3   1 <1>   0.1400 
 16 C      -10.0520    -2.0730    -0.3540 C.2   1 <1>   0.7150 
 17 O      -10.8840    -1.2530    -0.0050 O.2   1 <1>  -0.5700 
 18 C      -10.2830    -3.4610    -0.0290 C.2   1 <1>   0.0550 
 19 O       -9.3150    -4.3450     0.0550 O.3   1 <1>  -0.0190 
 20 C      -11.4190    -4.1290     0.2730 C.2   1 <1>  -0.1500 
 21 N       -9.7300    -5.5320     0.3710 N.2   1 <1>  -0.4100 
 22 C      -11.0070    -5.4310     0.5130 C.2   1 <1>   0.1080 
 23 C      -11.9390    -6.5790     0.8920 C.3   1 <1>   0.1010 
 24 C      -11.5750    -7.1440     2.2700 C.3   1 <1>  -0.2400 
 25 C      -11.8990    -7.6860    -0.1680 C.3   1 <1>  -0.2400 
 26 H       -3.4220    -2.0550     0.8340 H     1 <1>   0.1500 
 27 H       -1.6740     1.5490     2.9920 H     1 <1>   0.1500 
 28 H       -2.9840     2.2600     0.7630 H     1 <1>   0.1500 
 29 H       -3.5370     0.6400    -1.5980 H     1 <1>   0.0800 
 30 H       -4.9350     1.1020    -0.6900 H     1 <1>   0.0800 
 31 H       -6.8510    -3.3380    -0.2000 H     1 <1>   0.0800 
 32 H       -6.0030    -3.2700    -1.7050 H     1 <1>   0.0800 
 33 H       -5.9230    -0.3340     1.1820 H     1 <1>   0.0800 
 34 H       -7.1190    -1.5810     1.1570 H     1 <1>   0.0800 
 35 H       -8.4470    -3.4260    -2.0430 H     1 <1>   0.0800 
 36 H       -7.7680    -2.0090    -2.7530 H     1 <1>   0.0800 
 37 H       -7.2770     1.1600    -0.0310 H     1 <1>   0.0800 
 38 H       -8.3970     0.3510     0.9980 H     1 <1>   0.0800 
 39 H       -8.0300     0.0420    -1.9610 H     1 <1>   0.0800 
 40 H       -9.4790     0.4290    -1.0890 H     1 <1>   0.0800 
 41 H      -12.4210    -3.7430     0.3220 H     1 <1>   0.1500 
 42 H      -12.9430    -6.1950     0.9400 H     1 <1>   0.0800 
 43 H      -10.5780    -7.5490     2.2560 H     1 <1>   0.0800 
 44 H      -12.2620    -7.9220     2.5520 H     1 <1>   0.0800 
 45 H      -11.6150    -6.3640     3.0090 H     1 <1>   0.0800 
 46 H      -10.9090    -8.1020    -0.2360 H     1 <1>   0.0800 
 47 H      -12.1660    -7.2850    -1.1290 H     1 <1>   0.0800 
 48 H      -12.5890    -8.4720     0.0810 H     1 <1>   0.0800 
@<TRIPOS>BOND
  1   1   2  1   
  2   1   3  1   
  3   2   4  2   
  4   2  26  1   
  5   3   5  2   
  6   3  27  1   
  7   4   5  1   
  8   4   6  1   
  9   5  28  1   
 10   6   7  1   
 11   6  29  1   
 12   6  30  1   
 13   7   8  2   
 14   7   9  am  
 15   9  10  1   
 16   9  11  1   
 17  10  12  1   
 18  10  31  1   
 19  10  32  1   
 20  11  13  1   
 21  11  33  1   
 22  11  34  1   
 23  12  14  1   
 24  12  35  1   
 25  12  36  1   
 26  13  15  1   
 27  13  37  1   
 28  13  38  1   
 29  14  15  1   
 30  14  16  am  
 31  15  39  1   
 32  15  40  1   
 33  16  17  2   
 34  16  18  1   
 35  18  19  1   
 36  18  20  2   
 37  19  21  1   
 38  20  22  1   
 39  20  41  1   
 40  21  22  2   
 41  22  23  1   
 42  23  24  1   
 43  23  25  1   
 44  23  42  1   
 45  24  43  1   
 46  24  44  1   
 47  24  45  1   
 48  25  46  1   
 49  25  47  1   
 50  25  48  1   
@<TRIPOS>SUBSTRUCTURE
  1 ****  10 GROUP 4 **** **** 0

# MOE 2024.06 (io_trps.svl 2023.06)
