@<TRIPOS>MOLECULE
NONAME
44 45 1 0 0 
SMALL
USER_CHARGES


@<TRIPOS>ATOM
  1 S        0.4780     0.1240    -0.7420 S.o2  1 <1>   1.3330 
  2 O        0.4750    -0.4870     0.5690 O.2   1 <1>  -0.6500 
  3 O        0.3130    -0.7090    -1.9130 O.2   1 <1>  -0.6500 
  4 N       -0.7340     1.3120    -0.7610 N.am  1 <1>  -0.8490 
  5 C        1.9880     1.0640    -0.9460 C.3   1 <1>  -0.0550 
  6 C       -2.0250     0.7790    -1.2050 C.3   1 <1>   0.1160 
  7 C       -0.8930     2.0050     0.5210 C.3   1 <1>   0.1160 
  8 C        3.2340     0.1710    -1.1140 C.3   1 <1>  -0.0800 
  9 C        4.5320     0.9170    -1.3800 C.3   1 <1>   0.2200 
 10 C        3.5790    -0.6940     0.1070 C.3   1 <1>   0.1200 
 11 N        4.6510     2.1000    -0.4950 N.am  1 <1>  -0.7300 
 12 C        5.5420    -0.1260    -0.9260 C.3   1 <1>   0.1200 
 13 O        4.9750    -0.6910     0.2160 O.3   1 <1>  -0.5600 
 14 C        4.4190     3.3930    -0.8640 C.2   1 <1>   0.5440 
 15 O        3.9960     3.5970    -1.9840 O.2   1 <1>  -0.5700 
 16 C        4.6630     4.4920     0.0570 C.ar  1 <1>   0.0860 
 17 C        4.8760     5.7870    -0.4200 C.ar  1 <1>  -0.1500 
 18 C        4.6930     4.3100     1.4400 C.ar  1 <1>  -0.1500 
 19 C        5.1220     6.8630     0.4250 C.ar  1 <1>  -0.1440 
 20 C        4.9330     5.3650     2.2990 C.ar  1 <1>  -0.1500 
 21 C        5.1470     6.6340     1.7960 C.ar  1 <1>  -0.1500 
 22 C        5.3530     8.2770    -0.1340 C.3   1 <1>   1.1630 
 23 F        6.2220     8.9740     0.5880 F     1 <1>  -0.3400 
 24 F        5.8250     8.2750    -1.3760 F     1 <1>  -0.3400 
 25 F        4.2340     8.9880    -0.1600 F     1 <1>  -0.3400 
 26 H        1.8950     1.6840    -1.8170 H     1 <1>   0.0800 
 27 H        2.1160     1.7090    -0.1000 H     1 <1>   0.0800 
 28 H       -2.7650     1.5610    -1.2260 H     1 <1>   0.0800 
 29 H       -2.3530    -0.0060    -0.5440 H     1 <1>   0.0800 
 30 H       -1.9340     0.3780    -2.2010 H     1 <1>   0.0800 
 31 H       -1.6160     2.7980     0.4250 H     1 <1>   0.0800 
 32 H        0.0430     2.4380     0.8280 H     1 <1>   0.0800 
 33 H       -1.2250     1.3190     1.2830 H     1 <1>   0.0800 
 34 H        3.0590    -0.4950    -1.9430 H     1 <1>   0.0800 
 35 H        4.6560     1.1930    -2.4140 H     1 <1>   0.0800 
 36 H        3.2390    -1.7090    -0.0130 H     1 <1>   0.0800 
 37 H        3.1790    -0.2840     1.0180 H     1 <1>   0.0800 
 38 H        5.0200     1.8770     0.4310 H     1 <1>   0.3700 
 39 H        6.5030     0.2950    -0.6880 H     1 <1>   0.0800 
 40 H        5.6520    -0.9030    -1.6620 H     1 <1>   0.0800 
 41 H        4.8450     5.9400    -1.4880 H     1 <1>   0.1500 
 42 H        4.5210     3.3340     1.8570 H     1 <1>   0.1500 
 43 H        4.9520     5.2000     3.3640 H     1 <1>   0.1500 
 44 H        5.3310     7.4450     2.4830 H     1 <1>   0.1500 
@<TRIPOS>BOND
  1   1   2  2   
  2   1   3  2   
  3   1   4  am  
  4   1   5  1   
  5   4   6  1   
  6   4   7  1   
  7   5   8  1   
  8   5  26  1   
  9   5  27  1   
 10   6  28  1   
 11   6  29  1   
 12   6  30  1   
 13   7  31  1   
 14   7  32  1   
 15   7  33  1   
 16   8   9  1   
 17   8  10  1   
 18   8  34  1   
 19   9  11  1   
 20   9  12  1   
 21   9  35  1   
 22  10  13  1   
 23  10  36  1   
 24  10  37  1   
 25  11  14  am  
 26  11  38  1   
 27  12  13  1   
 28  12  39  1   
 29  12  40  1   
 30  14  15  2   
 31  14  16  1   
 32  16  17  ar  
 33  16  18  ar  
 34  17  19  ar  
 35  17  41  1   
 36  18  20  ar  
 37  18  42  1   
 38  19  21  ar  
 39  19  22  1   
 40  20  21  ar  
 41  20  43  1   
 42  21  44  1   
 43  22  23  1   
 44  22  24  1   
 45  22  25  1   
@<TRIPOS>SUBSTRUCTURE
  1 ****  14 GROUP 4 **** **** 0

# MOE 2024.06 (io_trps.svl 2023.06)
