@<TRIPOS>MOLECULE
NONAME
46 48 1 0 0 
SMALL
USER_CHARGES


@<TRIPOS>ATOM
  1 O       -1.1660    -0.0730     1.6270 O.2   1 <1>  -0.5700 
  2 C       -1.9460    -0.8070     1.0460 C.2   1 <1>   0.6900 
  3 N       -2.7430    -1.7300     1.6150 N.am  1 <1>  -0.5390 
  4 N       -2.1480    -0.8370    -0.2880 N.am  1 <1>  -0.5390 
  5 C       -3.4750    -2.3890     0.6140 C.2   1 <1>   0.1230 
  6 C       -3.0800    -1.8200    -0.5530 C.2   1 <1>  -0.0410 
  7 C       -4.4090    -3.4610     0.9030 C.2   1 <1>   0.6160 
  8 O       -4.2950    -4.0730     1.9530 O.2   1 <1>  -0.5700 
  9 N       -5.4290    -3.8290     0.0440 N.am  1 <1>  -0.6600 
 10 C       -6.0370    -5.1920     0.1700 C.3   1 <1>   0.1400 
 11 C       -6.0500    -2.8740    -0.9220 C.3   1 <1>   0.1400 
 12 C       -7.1740    -5.2040     1.2020 C.3   1 <1>   0.1400 
 13 C       -7.5860    -2.9110    -0.9730 C.3   1 <1>  -0.1600 
 14 N       -8.4040    -4.5520     0.6630 N.am  1 <1>  -0.6600 
 15 C       -8.2730    -3.0980     0.3840 C.3   1 <1>   0.1400 
 16 C       -9.5770    -5.2380     0.3940 C.2   1 <1>   0.7150 
 17 O      -10.6020    -4.5940     0.2520 O.2   1 <1>  -0.5700 
 18 C       -9.6280    -6.6800     0.2650 C.2   1 <1>   0.0550 
 19 O       -8.6340    -7.3560    -0.3000 O.3   1 <1>  -0.2800 
 20 C      -10.5920    -7.5570     0.6190 C.2   1 <1>   0.0460 
 21 C       -9.0700    -8.5980    -0.2400 C.2   1 <1>   0.2980 
 22 N      -10.2190    -8.7880     0.2950 N.2   1 <1>  -0.5650 
 23 C      -11.9330    -7.3290     1.2860 C.3   1 <1>  -0.0590 
 24 C       -8.1600    -9.6750    -0.8150 C.3   1 <1>   0.0200 
 25 C       -8.7210   -11.0990    -0.6860 C.3   1 <1>  -0.2400 
 26 H       -2.7290    -1.9740     2.6050 H     1 <1>   0.3700 
 27 H       -1.6250    -0.2300    -0.9190 H     1 <1>   0.3700 
 28 H       -3.3890    -2.0560    -1.5570 H     1 <1>   0.1500 
 29 H       -5.2760    -5.8800     0.4970 H     1 <1>   0.0800 
 30 H       -6.3970    -5.5360    -0.7830 H     1 <1>   0.0800 
 31 H       -5.6620    -3.0690    -1.9070 H     1 <1>   0.0800 
 32 H       -5.7650    -1.8730    -0.6480 H     1 <1>   0.0800 
 33 H       -6.8550    -4.6910     2.0930 H     1 <1>   0.0800 
 34 H       -7.3830    -6.2180     1.4850 H     1 <1>   0.0800 
 35 H       -7.9140    -3.6760    -1.6540 H     1 <1>   0.0800 
 36 H       -7.9140    -1.9750    -1.3880 H     1 <1>   0.0800 
 37 H       -9.2490    -2.6420     0.3520 H     1 <1>   0.0800 
 38 H       -7.7150    -2.6160     1.1690 H     1 <1>   0.0800 
 39 H      -12.0720    -6.2930     1.5340 H     1 <1>   0.0800 
 40 H      -11.9920    -7.9120     2.1860 H     1 <1>   0.0800 
 41 H      -12.7200    -7.6350     0.6220 H     1 <1>   0.0800 
 42 H       -7.2140    -9.6220    -0.3080 H     1 <1>   0.0800 
 43 H       -7.9930    -9.4540    -1.8540 H     1 <1>   0.0800 
 44 H       -8.8810   -11.3410     0.3500 H     1 <1>   0.0800 
 45 H       -8.0340   -11.8100    -1.1080 H     1 <1>   0.0800 
 46 H       -9.6610   -11.1730    -1.2040 H     1 <1>   0.0800 
@<TRIPOS>BOND
  1   1   2  2   
  2   2   3  am  
  3   2   4  am  
  4   3   5  1   
  5   3  26  1   
  6   4   6  1   
  7   4  27  1   
  8   5   6  2   
  9   5   7  1   
 10   6  28  1   
 11   7   8  2   
 12   7   9  am  
 13   9  10  1   
 14   9  11  1   
 15  10  12  1   
 16  10  29  1   
 17  10  30  1   
 18  11  13  1   
 19  11  31  1   
 20  11  32  1   
 21  12  14  1   
 22  12  33  1   
 23  12  34  1   
 24  13  15  1   
 25  13  35  1   
 26  13  36  1   
 27  14  15  1   
 28  14  16  am  
 29  15  37  1   
 30  15  38  1   
 31  16  17  2   
 32  16  18  1   
 33  18  19  1   
 34  18  20  2   
 35  19  21  1   
 36  20  22  1   
 37  20  23  1   
 38  21  22  2   
 39  21  24  1   
 40  23  39  1   
 41  23  40  1   
 42  23  41  1   
 43  24  25  1   
 44  24  42  1   
 45  24  43  1   
 46  25  44  1   
 47  25  45  1   
 48  25  46  1   
@<TRIPOS>SUBSTRUCTURE
  1 ****  10 GROUP 4 **** **** 0

# MOE 2024.06 (io_trps.svl 2023.06)
