@<TRIPOS>MOLECULE
NONAME
42 43 1 0 0 
SMALL
USER_CHARGES


@<TRIPOS>ATOM
  1 S       -0.9290    -0.7850     1.4180 S.o2  1 <1>   1.3330 
  2 O       -1.9590     0.1900     1.6680 O.2   1 <1>  -0.6500 
  3 O       -0.7400    -1.9180     2.2930 O.2   1 <1>  -0.6500 
  4 N       -1.2700    -1.3530    -0.1180 N.am  1 <1>  -0.9140 
  5 C        0.6290     0.0410     1.1880 C.3   1 <1>  -0.1350 
  6 C       -1.9000    -2.6710    -0.1160 C.3   1 <1>   0.1960 
  7 C       -2.2100    -3.1210    -1.5470 C.3   1 <1>   0.1400 
  8 N       -2.7630    -4.4970    -1.5440 N.am  1 <1>  -0.7300 
  9 C       -4.0500    -4.8290    -1.2530 C.2   1 <1>   0.5690 
 10 O       -4.8550    -3.9770    -0.9630 O.2   1 <1>  -0.5700 
 11 C       -4.4620    -6.3070    -1.2710 C.3   1 <1>   0.2610 
 12 O       -3.3550    -7.1130    -1.6720 O.3   1 <1>  -0.5600 
 13 C       -5.0160    -6.7120     0.1250 C.3   1 <1>   0.3640 
 14 C       -3.6120    -8.4990    -1.7030 C.3   1 <1>   0.1810 
 15 N       -4.7770    -8.1390     0.4540 N.am  1 <1>  -0.7300 
 16 C       -6.5190    -6.4550     0.2230 C.ar  1 <1>  -0.1430 
 17 C       -4.1640    -9.0110    -0.3740 C.2   1 <1>   0.5690 
 18 C       -7.4400    -7.3250    -0.3490 C.ar  1 <1>  -0.1500 
 19 C       -6.9860    -5.3320     0.8920 C.ar  1 <1>  -0.1500 
 20 O       -4.0770   -10.1780    -0.0890 O.2   1 <1>  -0.5700 
 21 C       -8.7980    -7.0780    -0.2510 C.ar  1 <1>  -0.1500 
 22 C       -8.3440    -5.0830     0.9900 C.ar  1 <1>  -0.1500 
 23 C       -9.2520    -5.9570     0.4200 C.ar  1 <1>  -0.1500 
 24 H       -1.9690    -0.6860    -0.4500 H     1 <1>   0.4200 
 25 H        0.5340     0.8140     0.4520 H     1 <1>   0.0800 
 26 H        1.3730    -0.6600     0.8620 H     1 <1>   0.0800 
 27 H        0.9510     0.4810     2.1110 H     1 <1>   0.0800 
 28 H       -1.2320    -3.3860     0.3340 H     1 <1>   0.0800 
 29 H       -2.8120    -2.6370     0.4590 H     1 <1>   0.0800 
 30 H       -1.3110    -3.1030    -2.1380 H     1 <1>   0.0800 
 31 H       -2.9320    -2.4530    -1.9850 H     1 <1>   0.0800 
 32 H       -2.1260    -5.2670    -1.7780 H     1 <1>   0.3700 
 33 H       -5.2330    -6.4250    -2.0110 H     1 <1>   0.0800 
 34 H       -4.5150    -6.1190     0.8720 H     1 <1>   0.0800 
 35 H       -4.3150    -8.7000    -2.4910 H     1 <1>   0.0800 
 36 H       -2.6870    -9.0010    -1.9220 H     1 <1>   0.0800 
 37 H       -5.2040    -8.4960     1.3100 H     1 <1>   0.3700 
 38 H       -7.1100    -8.2050    -0.8730 H     1 <1>   0.1500 
 39 H       -6.2960    -4.6340     1.3350 H     1 <1>   0.1500 
 40 H       -9.5030    -7.7590    -0.6950 H     1 <1>   0.1500 
 41 H       -8.6930    -4.2070     1.5090 H     1 <1>   0.1500 
 42 H      -10.3080    -5.7630     0.4960 H     1 <1>   0.1500 
@<TRIPOS>BOND
  1   1   2  2   
  2   1   3  2   
  3   1   4  am  
  4   1   5  1   
  5   4   6  1   
  6   4  24  1   
  7   5  25  1   
  8   5  26  1   
  9   5  27  1   
 10   6   7  1   
 11   6  28  1   
 12   6  29  1   
 13   7   8  1   
 14   7  30  1   
 15   7  31  1   
 16   8   9  am  
 17   8  32  1   
 18   9  10  2   
 19   9  11  1   
 20  11  12  1   
 21  11  13  1   
 22  11  33  1   
 23  12  14  1   
 24  13  15  1   
 25  13  16  1   
 26  13  34  1   
 27  14  17  1   
 28  14  35  1   
 29  14  36  1   
 30  15  17  am  
 31  15  37  1   
 32  16  18  ar  
 33  16  19  ar  
 34  17  20  2   
 35  18  21  ar  
 36  18  38  1   
 37  19  22  ar  
 38  19  39  1   
 39  21  23  ar  
 40  21  40  1   
 41  22  23  ar  
 42  22  41  1   
 43  23  42  1   
@<TRIPOS>SUBSTRUCTURE
  1 ****   9 GROUP 4 **** **** 0

# MOE 2024.06 (io_trps.svl 2023.06)
