@<TRIPOS>MOLECULE
NONAME
55 57 1 0 0 
SMALL
USER_CHARGES


@<TRIPOS>ATOM
  1 O        0.0940    -0.4360    -0.3920 O.3   1 <1>  -0.3630 
  2 C       -0.1060    -1.7510    -0.6520 C.ar  1 <1>   0.0830 
  3 C        1.2480     0.0170     0.2800 C.3   1 <1>   0.1200 
  4 C       -1.2400    -2.0750    -1.3770 C.ar  1 <1>  -0.1500 
  5 C        0.7520    -2.7650    -0.2380 C.ar  1 <1>  -0.1500 
  6 C        1.1750     1.5420     0.3780 C.3   1 <1>  -0.1600 
  7 C       -1.5250    -3.3920    -1.6860 C.ar  1 <1>  -0.1500 
  8 C        0.4670    -4.0840    -0.5450 C.ar  1 <1>  -0.1500 
  9 C        2.3990     2.1140     1.1020 C.3   1 <1>  -0.2400 
 10 C       -0.6760    -4.4060    -1.2650 C.ar  1 <1>  -0.1430 
 11 C       -1.0040    -5.8520    -1.5820 C.3   1 <1>   0.4860 
 12 N       -1.5840    -6.4790    -0.3670 N.4   1 <1>  -0.9590 
 13 C       -2.8560    -5.8270     0.0470 C.3   1 <1>   0.3430 
 14 C       -1.9060    -7.9100    -0.5460 C.3   1 <1>   0.3430 
 15 C       -3.7130    -6.8960     0.7300 C.3   1 <1>  -0.0800 
 16 C       -2.9120    -8.2080     0.5570 C.3   1 <1>  -0.0800 
 17 C       -5.1490    -6.9500     0.1520 C.3   1 <1>   0.2800 
 18 C       -3.7540    -9.4550     0.2330 C.3   1 <1>  -0.1600 
 19 O       -5.0280    -7.0830    -1.2200 O.3   1 <1>  -0.6800 
 20 C       -5.9160    -8.1880     0.6810 C.3   1 <1>  -0.1600 
 21 C       -6.0080    -5.6880     0.4200 C.3   1 <1>  -0.1600 
 22 C       -5.0610    -9.4250     1.0220 C.3   1 <1>  -0.1600 
 23 C       -5.5980    -4.3620    -0.2490 C.3   1 <1>  -0.2400 
 24 H        1.2670    -0.4250     1.2610 H     1 <1>   0.0800 
 25 H        2.1120    -0.2860    -0.2850 H     1 <1>   0.0800 
 26 H       -1.8930    -1.2820    -1.6980 H     1 <1>   0.1500 
 27 H        1.6430    -2.5430     0.3200 H     1 <1>   0.1500 
 28 H        1.1230     1.9570    -0.6130 H     1 <1>   0.0800 
 29 H        0.2840     1.8190     0.9140 H     1 <1>   0.0800 
 30 H       -2.4130    -3.6100    -2.2560 H     1 <1>   0.1500 
 31 H        1.1490    -4.8500    -0.2190 H     1 <1>   0.1500 
 32 H        3.3020     1.8620     0.5730 H     1 <1>   0.0800 
 33 H        2.4620     1.7250     2.1030 H     1 <1>   0.0800 
 34 H        2.3240     3.1850     1.1560 H     1 <1>   0.0800 
 35 H       -0.1050    -6.3690    -1.8770 H     1 <1>   0.0800 
 36 H       -1.7100    -5.8990    -2.3960 H     1 <1>   0.0800 
 37 H       -0.9160    -6.3690     0.4030 H     1 <1>   0.4500 
 38 H       -2.6690    -4.9920     0.7030 H     1 <1>   0.0800 
 39 H       -3.3730    -5.4690    -0.8280 H     1 <1>   0.0800 
 40 H       -2.3820    -8.0580    -1.5020 H     1 <1>   0.0800 
 41 H       -1.0320    -8.5360    -0.4720 H     1 <1>   0.0800 
 42 H       -3.7880    -6.6710     1.7790 H     1 <1>   0.0800 
 43 H       -2.3690    -8.3930     1.4670 H     1 <1>   0.0800 
 44 H       -3.9890    -9.4950    -0.8170 H     1 <1>   0.0800 
 45 H       -3.2010   -10.3460     0.4780 H     1 <1>   0.0800 
 46 H       -5.9200    -7.1780    -1.6100 H     1 <1>   0.4000 
 47 H       -6.4360    -7.9190     1.5840 H     1 <1>   0.0800 
 48 H       -6.6740    -8.4660    -0.0310 H     1 <1>   0.0800 
 49 H       -7.0160    -5.9030     0.1090 H     1 <1>   0.0800 
 50 H       -6.0540    -5.5250     1.4830 H     1 <1>   0.0800 
 51 H       -4.8300    -9.4170     2.0740 H     1 <1>   0.0800 
 52 H       -5.6290   -10.3190     0.8260 H     1 <1>   0.0800 
 53 H       -5.4430    -4.4880    -1.3060 H     1 <1>   0.0800 
 54 H       -4.7130    -3.9490     0.1980 H     1 <1>   0.0800 
 55 H       -6.3860    -3.6410    -0.1170 H     1 <1>   0.0800 
@<TRIPOS>BOND
  1   1   2  1   
  2   1   3  1   
  3   2   4  ar  
  4   2   5  ar  
  5   3   6  1   
  6   3  24  1   
  7   3  25  1   
  8   4   7  ar  
  9   4  26  1   
 10   5   8  ar  
 11   5  27  1   
 12   6   9  1   
 13   6  28  1   
 14   6  29  1   
 15   7  10  ar  
 16   7  30  1   
 17   8  10  ar  
 18   8  31  1   
 19   9  32  1   
 20   9  33  1   
 21   9  34  1   
 22  10  11  1   
 23  11  12  1   
 24  11  35  1   
 25  11  36  1   
 26  12  13  1   
 27  12  14  1   
 28  12  37  1   
 29  13  15  1   
 30  13  38  1   
 31  13  39  1   
 32  14  16  1   
 33  14  40  1   
 34  14  41  1   
 35  15  16  1   
 36  15  17  1   
 37  15  42  1   
 38  16  18  1   
 39  16  43  1   
 40  17  19  1   
 41  17  20  1   
 42  17  21  1   
 43  18  22  1   
 44  18  44  1   
 45  18  45  1   
 46  19  46  1   
 47  20  22  1   
 48  20  47  1   
 49  20  48  1   
 50  21  23  1   
 51  21  49  1   
 52  21  50  1   
 53  22  51  1   
 54  22  52  1   
 55  23  53  1   
 56  23  54  1   
 57  23  55  1   
@<TRIPOS>SUBSTRUCTURE
  1 ****  13 GROUP 4 **** **** 0

# MOE 2024.06 (io_trps.svl 2023.06)
