@<TRIPOS>MOLECULE
NONAME
43 45 1 0 0 
SMALL
USER_CHARGES


@<TRIPOS>ATOM
  1 S        1.6260    -1.3590     1.9410 S.o2  1 <1>   1.4470 
  2 O        2.5660    -2.3500     1.4660 O.2   1 <1>  -0.6500 
  3 O        1.7160    -0.9110     3.3110 O.2   1 <1>  -0.6500 
  4 N        0.1050    -2.0590     1.8430 N.am  1 <1>  -0.9140 
  5 C        1.5120     0.0630     0.8160 C.ar  1 <1>  -0.0090 
  6 C       -0.0250    -3.1230     0.8510 C.3   1 <1>   0.2760 
  7 C        0.9970    -0.0830    -0.4650 C.ar  1 <1>  -0.1500 
  8 C        1.9190     1.3360     1.2040 C.ar  1 <1>  -0.1500 
  9 C       -1.4670    -3.2310     0.3780 C.3   1 <1>  -0.0800 
 10 C        0.1620    -4.4820     1.5140 C.3   1 <1>   0.1200 
 11 C        0.8190     0.9800    -1.3480 C.ar  1 <1>  -0.1790 
 12 C        1.7950     2.4130     0.3440 C.ar  1 <1>  -0.1500 
 13 C       -2.1020    -4.1730     1.4090 C.3   1 <1>   0.1200 
 14 C       -2.2090    -1.8910     0.2000 C.3   1 <1>  -0.0170 
 15 O       -1.0550    -4.7480     2.1390 O.3   1 <1>  -0.5600 
 16 C        1.2500     2.2320    -0.9130 C.ar  1 <1>   0.0820 
 17 C        0.1910     0.7720    -2.6420 C.2   1 <1>   0.9790 
 18 C       -3.4700    -2.0670    -0.6260 C.ar  1 <1>  -0.1440 
 19 O        1.1250     3.2760    -1.7370 O.3   1 <1>  -0.5320 
 20 O       -0.3130    -0.3290    -2.9300 O.co2 1 <1>  -0.9000 
 21 O        0.1250     1.7040    -3.4700 O.co2 1 <1>  -0.9000 
 22 C       -3.4650    -1.7940    -1.9790 C.ar  1 <1>  -0.1500 
 23 C       -4.6690    -2.4930    -0.0910 C.ar  1 <1>  -0.1500 
 24 C       -4.6240    -1.9640    -2.7150 C.ar  1 <1>   0.1600 
 25 C       -5.7710    -2.6330    -0.9180 C.ar  1 <1>   0.1600 
 26 N       -5.7790    -2.3830    -2.2170 N.ar  1 <1>  -0.6200 
 27 H       -0.0530    -2.4850     2.7550 H     1 <1>   0.4200 
 28 H        0.6490    -2.9910     0.0220 H     1 <1>   0.0800 
 29 H        0.7020    -1.0530    -0.8130 H     1 <1>   0.1500 
 30 H        2.3300     1.4860     2.1880 H     1 <1>   0.1500 
 31 H       -1.4600    -3.7370    -0.5710 H     1 <1>   0.0800 
 32 H        0.9590    -4.4940     2.2380 H     1 <1>   0.0800 
 33 H        0.3290    -5.2460     0.7750 H     1 <1>   0.0800 
 34 H        2.1120     3.3970     0.6390 H     1 <1>   0.1500 
 35 H       -2.6680    -4.9550     0.9330 H     1 <1>   0.0800 
 36 H       -2.7270    -3.6400     2.1040 H     1 <1>   0.0800 
 37 H       -1.5710    -1.1920    -0.3120 H     1 <1>   0.0800 
 38 H       -2.4510    -1.4580     1.1550 H     1 <1>   0.0800 
 39 H        0.7180     2.9380    -2.5980 H     1 <1>   0.4500 
 40 H       -2.5700    -1.4450    -2.4700 H     1 <1>   0.1500 
 41 H       -4.7550    -2.7140     0.9560 H     1 <1>   0.1500 
 42 H       -4.5950    -1.7410    -3.7680 H     1 <1>   0.1500 
 43 H       -6.6990    -2.9680    -0.4860 H     1 <1>   0.1500 
@<TRIPOS>BOND
  1   1   2  2   
  2   1   3  2   
  3   1   4  am  
  4   1   5  1   
  5   4   6  1   
  6   4  27  1   
  7   5   7  ar  
  8   5   8  ar  
  9   6   9  1   
 10   6  10  1   
 11   6  28  1   
 12   7  11  ar  
 13   7  29  1   
 14   8  12  ar  
 15   8  30  1   
 16   9  13  1   
 17   9  14  1   
 18   9  31  1   
 19  10  15  1   
 20  10  32  1   
 21  10  33  1   
 22  11  16  ar  
 23  11  17  1   
 24  12  16  ar  
 25  12  34  1   
 26  13  15  1   
 27  13  35  1   
 28  13  36  1   
 29  14  18  1   
 30  14  37  1   
 31  14  38  1   
 32  16  19  1   
 33  17  20  ar  
 34  17  21  ar  
 35  18  22  ar  
 36  18  23  ar  
 37  19  39  1   
 38  22  24  ar  
 39  22  40  1   
 40  23  25  ar  
 41  23  41  1   
 42  24  26  ar  
 43  24  42  1   
 44  25  26  ar  
 45  25  43  1   
@<TRIPOS>SUBSTRUCTURE
  1 ****  14 GROUP 4 **** **** 0

# MOE 2024.06 (io_trps.svl 2023.06)
