@<TRIPOS>MOLECULE
NONAME
53 56 1 0 0 
SMALL
USER_CHARGES


@<TRIPOS>ATOM
  1 S        0.7350    -1.2030     0.3420 S.o2  1 <1>   1.4470 
  2 O        1.3750    -2.4100    -0.1280 O.2   1 <1>  -0.6500 
  3 O        0.3050    -1.1620     1.7260 O.2   1 <1>  -0.6500 
  4 N       -0.7100    -1.0680    -0.5390 N.am  1 <1>  -0.8490 
  5 C        1.6760     0.2720    -0.1290 C.ar  1 <1>  -0.0090 
  6 C       -1.5260    -2.2770    -0.4160 C.3   1 <1>   0.1960 
  7 C       -1.4760     0.1370    -0.1860 C.3   1 <1>   0.1960 
  8 C        1.7400     1.3780     0.7120 C.ar  1 <1>  -0.1500 
  9 C        2.3260     0.3420    -1.3580 C.ar  1 <1>  -0.1500 
 10 C       -2.6120    -2.0610     0.6710 C.3   1 <1>   0.4230 
 11 C       -3.0150    -0.0530    -0.3340 C.3   1 <1>  -0.1600 
 12 C        2.4240     2.5190     0.3360 C.ar  1 <1>   0.0830 
 13 C        3.0150     1.4800    -1.7450 C.ar  1 <1>  -0.1500 
 14 N       -2.7180    -3.2480     1.6130 N.4   1 <1>  -0.9590 
 15 C       -3.8890    -1.3920    -0.0340 C.3   1 <1>   0.0000 
 16 O        2.4620     3.5690     1.1930 O.3   1 <1>  -0.3620 
 17 C        3.0590     2.5760    -0.9040 C.ar  1 <1>   0.0830 
 18 C       -3.1030    -4.4790     0.8920 C.3   1 <1>   0.3430 
 19 C       -1.4800    -3.4460     2.4370 C.3   1 <1>   0.2630 
 20 C       -4.8080    -2.7110     0.1770 C.3   1 <1>  -0.1600 
 21 C       -5.1490    -0.6480    -0.6930 C.3   1 <1>   0.1200 
 22 C        3.4290     4.5700     0.9340 C.3   1 <1>   0.1200 
 23 O        3.7180     3.6900    -1.3060 O.3   1 <1>  -0.3630 
 24 C       -4.1850    -4.1000    -0.1050 C.3   1 <1>  -0.1600 
 25 O       -5.2750    -1.0200    -2.0320 O.3   1 <1>  -0.6800 
 26 C        3.4880     4.8770    -0.5690 C.3   1 <1>   0.1200 
 27 H       -2.0040    -2.4560    -1.3640 H     1 <1>   0.0800 
 28 H       -0.9130    -3.1350    -0.2060 H     1 <1>   0.0800 
 29 H       -1.2760     0.4230     0.8350 H     1 <1>   0.0800 
 30 H       -1.1440     0.9570    -0.8040 H     1 <1>   0.0800 
 31 H        1.2600     1.3610     1.6750 H     1 <1>   0.1500 
 32 H        2.2930    -0.5060    -2.0230 H     1 <1>   0.1500 
 33 H       -2.2280    -1.3060     1.3340 H     1 <1>   0.0800 
 34 H       -3.4080     0.7520     0.2690 H     1 <1>   0.0800 
 35 H       -3.1420     0.2360    -1.3670 H     1 <1>   0.0800 
 36 H        3.5150     1.5250    -2.6970 H     1 <1>   0.1500 
 37 H       -3.4900    -3.0260     2.2550 H     1 <1>   0.4500 
 38 H       -2.2570    -4.9010     0.3740 H     1 <1>   0.0800 
 39 H       -3.4800    -5.2090     1.5910 H     1 <1>   0.0800 
 40 H       -0.6370    -3.6850     1.8090 H     1 <1>   0.0800 
 41 H       -1.6210    -4.2470     3.1440 H     1 <1>   0.0800 
 42 H       -1.2460    -2.5450     2.9830 H     1 <1>   0.0800 
 43 H       -5.2050    -2.6940     1.1790 H     1 <1>   0.0800 
 44 H       -5.6920    -2.7950    -0.4410 H     1 <1>   0.0800 
 45 H       -5.1600     0.4310    -0.6810 H     1 <1>   0.0800 
 46 H       -6.0850    -0.8670    -0.2010 H     1 <1>   0.0800 
 47 H        3.1570     5.4470     1.4930 H     1 <1>   0.0800 
 48 H        4.3830     4.2130     1.2800 H     1 <1>   0.0800 
 49 H       -3.7820    -4.1190    -1.1030 H     1 <1>   0.0800 
 50 H       -4.9510    -4.8570    -0.0710 H     1 <1>   0.0800 
 51 H       -4.6680    -0.5180    -2.6110 H     1 <1>   0.4000 
 52 H        4.2870     5.5620    -0.7880 H     1 <1>   0.0800 
 53 H        2.5580     5.3020    -0.9010 H     1 <1>   0.0800 
@<TRIPOS>BOND
  1   1   2  2   
  2   1   3  2   
  3   1   4  am  
  4   1   5  1   
  5   4   6  1   
  6   4   7  1   
  7   5   8  ar  
  8   5   9  ar  
  9   6  10  1   
 10   6  27  1   
 11   6  28  1   
 12   7  11  1   
 13   7  29  1   
 14   7  30  1   
 15   8  12  ar  
 16   8  31  1   
 17   9  13  ar  
 18   9  32  1   
 19  10  14  1   
 20  10  15  1   
 21  10  33  1   
 22  11  15  1   
 23  11  34  1   
 24  11  35  1   
 25  12  16  1   
 26  12  17  ar  
 27  13  17  ar  
 28  13  36  1   
 29  14  18  1   
 30  14  19  1   
 31  14  37  1   
 32  15  20  1   
 33  15  21  1   
 34  16  22  1   
 35  17  23  1   
 36  18  24  1   
 37  18  38  1   
 38  18  39  1   
 39  19  40  1   
 40  19  41  1   
 41  19  42  1   
 42  20  24  1   
 43  20  43  1   
 44  20  44  1   
 45  21  25  1   
 46  21  45  1   
 47  21  46  1   
 48  22  26  1   
 49  22  47  1   
 50  22  48  1   
 51  23  26  1   
 52  24  49  1   
 53  24  50  1   
 54  25  51  1   
 55  26  52  1   
 56  26  53  1   
@<TRIPOS>SUBSTRUCTURE
  1 ****   4 GROUP 4 **** **** 0

# MOE 2024.06 (io_trps.svl 2023.06)
