@<TRIPOS>MOLECULE
NONAME
48 50 1 0 0 
SMALL
USER_CHARGES


@<TRIPOS>ATOM
  1 CL       1.2410    -4.6990     0.7470 Cl    1 <1>  -0.1770 
  2 C       -0.4460    -4.4420     1.1200 C.ar  1 <1>   0.1770 
  3 C       -0.8800    -4.4750     2.4350 C.ar  1 <1>   0.1600 
  4 C       -1.3390    -4.2170     0.1000 C.ar  1 <1>  -0.1500 
  5 N       -2.1420    -4.2860     2.8040 N.ar  1 <1>  -0.6200 
  6 C       -2.6720    -4.0520     0.4500 C.ar  1 <1>   0.0860 
  7 C       -2.9920    -4.0790     1.8080 C.ar  1 <1>   0.1600 
  8 C       -3.7040    -3.8830    -0.5470 C.2   1 <1>   0.5440 
  9 O       -3.7570    -2.8300    -1.1500 O.2   1 <1>  -0.5700 
 10 N       -4.6290    -4.8680    -0.8360 N.am  1 <1>  -0.6600 
 11 C       -4.5690    -6.2540    -0.2300 C.3   1 <1>   0.3640 
 12 C       -5.8130    -4.5280    -1.6860 C.3   1 <1>   0.1400 
 13 C       -3.1710    -6.8330    -0.4660 C.ar  1 <1>  -0.1430 
 14 C       -5.6280    -7.2790    -0.7500 C.3   1 <1>   0.2000 
 15 C       -6.4390    -5.7590    -2.3370 C.3   1 <1>   0.1200 
 16 C       -2.4250    -7.3130     0.6010 C.ar  1 <1>  -0.1500 
 17 C       -2.6140    -6.8630    -1.7360 C.ar  1 <1>  -0.1500 
 18 O       -6.7470    -6.6850    -1.3480 O.3   1 <1>  -0.5600 
 19 C       -6.1770    -8.1820     0.3670 C.3   1 <1>   0.1200 
 20 C       -1.1360    -7.7920     0.4330 C.ar  1 <1>   0.0830 
 21 C       -1.3330    -7.3470    -1.9280 C.ar  1 <1>  -0.1500 
 22 O       -5.1560    -8.7680     1.1080 O.3   1 <1>  -0.6800 
 23 O       -0.5380    -8.1940     1.5920 O.3   1 <1>  -0.3630 
 24 C       -0.5750    -7.8020    -0.8560 C.ar  1 <1>   0.0830 
 25 C        0.8180    -8.5670     1.6740 C.3   1 <1>   0.0400 
 26 O        0.6890    -8.2540    -1.0800 O.3   1 <1>  -0.3630 
 27 C        1.5350    -7.5350    -1.9520 C.3   1 <1>   0.0400 
 28 H       -0.1580    -4.6620     3.2090 H     1 <1>   0.1500 
 29 H       -1.0250    -4.1900    -0.9270 H     1 <1>   0.1500 
 30 H       -4.0230    -3.9240     2.0790 H     1 <1>   0.1500 
 31 H       -4.7210    -6.1450     0.8300 H     1 <1>   0.0800 
 32 H       -6.5520    -4.0390    -1.0750 H     1 <1>   0.0800 
 33 H       -5.5220    -3.8400    -2.4610 H     1 <1>   0.0800 
 34 H       -5.1780    -7.9070    -1.4990 H     1 <1>   0.0800 
 35 H       -5.7730    -6.2060    -3.0550 H     1 <1>   0.0800 
 36 H       -7.3550    -5.4880    -2.8320 H     1 <1>   0.0800 
 37 H       -2.8370    -7.3080     1.5960 H     1 <1>   0.1500 
 38 H       -3.1740    -6.4970    -2.5800 H     1 <1>   0.1500 
 39 H       -6.7840    -8.9670    -0.0490 H     1 <1>   0.0800 
 40 H       -6.7710    -7.5970     1.0480 H     1 <1>   0.0800 
 41 H       -0.9350    -7.3690    -2.9250 H     1 <1>   0.1500 
 42 H       -4.6140    -9.3720     0.5610 H     1 <1>   0.4000 
 43 H        1.0480    -8.7650     2.7050 H     1 <1>   0.0800 
 44 H        1.4250    -7.7580     1.3100 H     1 <1>   0.0800 
 45 H        0.9690    -9.4560     1.0890 H     1 <1>   0.0800 
 46 H        2.5450    -7.8590    -1.7800 H     1 <1>   0.0800 
 47 H        1.4460    -6.4840    -1.7400 H     1 <1>   0.0800 
 48 H        1.2560    -7.7460    -2.9690 H     1 <1>   0.0800 
@<TRIPOS>BOND
  1   1   2  1   
  2   2   3  ar  
  3   2   4  ar  
  4   3   5  ar  
  5   3  28  1   
  6   4   6  ar  
  7   4  29  1   
  8   5   7  ar  
  9   6   7  ar  
 10   6   8  1   
 11   7  30  1   
 12   8   9  2   
 13   8  10  am  
 14  10  11  1   
 15  10  12  1   
 16  11  13  1   
 17  11  14  1   
 18  11  31  1   
 19  12  15  1   
 20  12  32  1   
 21  12  33  1   
 22  13  16  ar  
 23  13  17  ar  
 24  14  18  1   
 25  14  19  1   
 26  14  34  1   
 27  15  18  1   
 28  15  35  1   
 29  15  36  1   
 30  16  20  ar  
 31  16  37  1   
 32  17  21  ar  
 33  17  38  1   
 34  19  22  1   
 35  19  39  1   
 36  19  40  1   
 37  20  23  1   
 38  20  24  ar  
 39  21  24  ar  
 40  21  41  1   
 41  22  42  1   
 42  23  25  1   
 43  24  26  1   
 44  25  43  1   
 45  25  44  1   
 46  25  45  1   
 47  26  27  1   
 48  27  46  1   
 49  27  47  1   
 50  27  48  1   
@<TRIPOS>SUBSTRUCTURE
  1 ****  13 GROUP 4 **** **** 0

# MOE 2024.06 (io_trps.svl 2023.06)
