@<TRIPOS>MOLECULE
NONAME
45 48 1 0 0 
SMALL
USER_CHARGES


@<TRIPOS>ATOM
  1 S        0.1630     0.4540    -1.4660 S.3   1 <1>  -0.0800 
  2 C        1.1540    -0.7300    -0.6240 C.2   1 <1>  -0.1400 
  3 C        0.7630     1.7470    -0.4480 C.2   1 <1>  -0.1100 
  4 C        1.8800    -0.1380     0.3460 C.2   1 <1>  -0.1810 
  5 C        1.0520    -2.1610    -1.1040 C.3   1 <1>   0.5230 
  6 C        1.6500     1.2720     0.4440 C.2   1 <1>  -0.1500 
  7 C        2.8750    -0.7920     1.2900 C.3   1 <1>  -0.0590 
  8 N        0.0380    -2.8690    -0.2780 N.4   1 <1>  -0.9590 
  9 C       -1.3520    -2.3320    -0.5120 C.3   1 <1>   0.3430 
 10 C        0.0790    -4.3530    -0.4990 C.3   1 <1>   0.3430 
 11 C       -2.4190    -3.0970     0.2970 C.3   1 <1>   0.1900 
 12 C       -1.0090    -5.0900     0.3080 C.3   1 <1>   0.1100 
 13 N       -2.3550    -4.5540     0.0120 N.3   1 <1>  -0.8100 
 14 C       -3.8160    -2.5370    -0.0220 C.3   1 <1>   0.1200 
 15 C       -3.4530    -5.2710     0.7240 C.3   1 <1>   0.2850 
 16 O       -4.7720    -3.2190     0.7250 O.3   1 <1>  -0.5600 
 17 C       -3.4510    -6.7650     0.3260 C.3   1 <1>  -0.1950 
 18 C       -4.8160    -4.5910     0.4440 C.3   1 <1>   0.1200 
 19 C       -3.7740    -7.2250    -1.0630 C.3   1 <1>  -0.2000 
 20 C       -4.6880    -7.5780     0.0740 C.3   1 <1>  -0.2000 
 21 H        0.3880     2.7390    -0.6280 H     1 <1>   0.1500 
 22 H        2.0120    -2.6350    -0.9850 H     1 <1>   0.0800 
 23 H        0.7830    -2.1850    -2.1480 H     1 <1>   0.0800 
 24 H        2.1620     1.8710     1.1790 H     1 <1>   0.1500 
 25 H        3.8440    -0.3420     1.1630 H     1 <1>   0.0800 
 26 H        2.9620    -1.8450     1.1010 H     1 <1>   0.0800 
 27 H        2.5640    -0.6470     2.3100 H     1 <1>   0.0800 
 28 H        0.2710    -2.6720     0.7020 H     1 <1>   0.4500 
 29 H       -1.3920    -1.2910    -0.2350 H     1 <1>   0.0800 
 30 H       -1.6000    -2.4080    -1.5570 H     1 <1>   0.0800 
 31 H       -0.0800    -4.5690    -1.5430 H     1 <1>   0.0800 
 32 H        1.0460    -4.7410    -0.2230 H     1 <1>   0.0800 
 33 H       -2.2370    -2.9270     1.3450 H     1 <1>   0.0800 
 34 H       -0.8030    -5.0130     1.3630 H     1 <1>   0.0800 
 35 H       -0.9630    -6.1300     0.0360 H     1 <1>   0.0800 
 36 H       -4.0520    -2.6460    -1.0670 H     1 <1>   0.0800 
 37 H       -3.8810    -1.4970     0.2450 H     1 <1>   0.0800 
 38 H       -3.2880    -5.2120     1.7870 H     1 <1>   0.0800 
 39 H       -2.6860    -7.3010     0.8610 H     1 <1>   0.1000 
 40 H       -5.5770    -5.0210     1.0700 H     1 <1>   0.0800 
 41 H       -5.1040    -4.7190    -0.5840 H     1 <1>   0.0800 
 42 H       -4.1050    -6.5030    -1.7900 H     1 <1>   0.1000 
 43 H       -3.1750    -8.0020    -1.5040 H     1 <1>   0.1000 
 44 H       -4.7090    -8.6010     0.4100 H     1 <1>   0.1000 
 45 H       -5.6710    -7.1390     0.0740 H     1 <1>   0.1000 
@<TRIPOS>BOND
  1   1   2  1   
  2   1   3  1   
  3   2   4  2   
  4   2   5  1   
  5   3   6  2   
  6   3  21  1   
  7   4   6  1   
  8   4   7  1   
  9   5   8  1   
 10   5  22  1   
 11   5  23  1   
 12   6  24  1   
 13   7  25  1   
 14   7  26  1   
 15   7  27  1   
 16   8   9  1   
 17   8  10  1   
 18   8  28  1   
 19   9  11  1   
 20   9  29  1   
 21   9  30  1   
 22  10  12  1   
 23  10  31  1   
 24  10  32  1   
 25  11  13  1   
 26  11  14  1   
 27  11  33  1   
 28  12  13  1   
 29  12  34  1   
 30  12  35  1   
 31  13  15  1   
 32  14  16  1   
 33  14  36  1   
 34  14  37  1   
 35  15  17  1   
 36  15  18  1   
 37  15  38  1   
 38  16  18  1   
 39  17  19  1   
 40  17  20  1   
 41  17  39  1   
 42  18  40  1   
 43  18  41  1   
 44  19  20  1   
 45  19  42  1   
 46  19  43  1   
 47  20  44  1   
 48  20  45  1   
@<TRIPOS>SUBSTRUCTURE
  1 ****   9 GROUP 4 **** **** 0

# MOE 2024.06 (io_trps.svl 2023.06)
