@<TRIPOS>MOLECULE
Untitled Document
57 62 1 0 0 
SMALL
USER_CHARGES


@<TRIPOS>ATOM
  1 F        0.2600     2.0670    -1.5240 F     1 <1>  -0.3400 
  2 C        1.0540     1.4710    -0.6430 C.3   1 <1>   0.7430 
  3 F        0.3070     0.5070    -0.1190 F     1 <1>  -0.3400 
  4 C        1.4470     2.4660     0.4510 C.ar  1 <1>  -0.1440 
  5 C        2.7580     2.5770     0.9330 C.ar  1 <1>   0.0000 
  6 C        0.5050     3.3040     1.0100 C.ar  1 <1>  -0.1500 
  7 C        3.8590     1.7570     0.4820 C.ar  1 <1>   0.6200 
  8 C        2.9920     3.5390     1.9150 C.ar  1 <1>   0.1600 
  9 C        0.8680     4.2150     1.9920 C.ar  1 <1>   0.4100 
 10 N        4.9850     2.3530     0.1850 N.ar  1 <1>  -0.6200 
 11 N        3.6610     0.4660     0.4010 N.ar  1 <1>  -0.6200 
 12 N        2.0970     4.3500     2.4470 N.ar  1 <1>  -0.6200 
 13 N       -0.0320     5.0540     2.5520 N.pl3 1 <1>  -0.9000 
 14 C        5.9450     1.5560    -0.2160 C.ar  1 <1>   0.7200 
 15 C        4.6890    -0.2300    -0.0130 C.ar  1 <1>   0.7200 
 16 N        5.8560     0.2590    -0.3260 N.ar  1 <1>  -0.6200 
 17 N        7.1420     2.1350    -0.5340 N.pl3 1 <1>  -0.8380 
 18 N        4.5130    -1.5820    -0.1230 N.pl3 1 <1>  -0.8380 
 19 C        8.4180     1.4060    -0.5910 C.3   1 <1>   0.2890 
 20 C        7.5380     3.4960    -0.1350 C.3   1 <1>   0.2890 
 21 C        3.4340    -2.3320     0.5430 C.3   1 <1>   0.2890 
 22 C        5.6180    -2.5510    -0.1860 C.3   1 <1>   0.2890 
 23 C        8.9250     1.2610     0.8690 C.3   1 <1>   0.1200 
 24 C        9.2960     2.3780    -1.3870 C.3   1 <1>  -0.1600 
 25 C        8.0180     3.4190     1.3390 C.3   1 <1>   0.1200 
 26 C        8.7100     3.7680    -1.0840 C.3   1 <1>  -0.1600 
 27 C        3.8660    -2.5430     2.0190 C.3   1 <1>   0.1200 
 28 C        3.4520    -3.6540    -0.2320 C.3   1 <1>  -0.1600 
 29 C        6.1190    -2.7700     1.2670 C.3   1 <1>   0.1200 
 30 C        4.9060    -3.7990    -0.7190 C.3   1 <1>  -0.1600 
 31 O        9.0960     2.5180     1.4940 O.3   1 <1>  -0.5600 
 32 O        5.0900    -3.2430     2.1130 O.3   1 <1>  -0.5600 
 33 H        1.8650     1.0200    -1.1840 H     1 <1>   0.0800 
 34 H       -0.5220     3.2640     0.6980 H     1 <1>   0.1500 
 35 H        3.9970     3.6390     2.2880 H     1 <1>   0.1500 
 36 H        0.3820     5.7650     3.1560 H     1 <1>   0.4000 
 37 H       -0.8290     5.3730     2.0040 H     1 <1>   0.4000 
 38 H        8.3210     0.4510    -1.0790 H     1 <1>   0.0800 
 39 H        6.7390     4.2070    -0.2610 H     1 <1>   0.0800 
 40 H        2.4830    -1.8320     0.4720 H     1 <1>   0.0800 
 41 H        6.4100    -2.2230    -0.8390 H     1 <1>   0.0800 
 42 H        9.8760     0.7600     0.8840 H     1 <1>   0.0800 
 43 H        8.2240     0.6870     1.4480 H     1 <1>   0.0800 
 44 H       10.3290     2.3020    -1.0970 H     1 <1>   0.0800 
 45 H        9.2100     2.1590    -2.4370 H     1 <1>   0.0800 
 46 H        7.2120     3.0960     1.9730 H     1 <1>   0.0800 
 47 H        8.3520     4.3840     1.6710 H     1 <1>   0.0800 
 48 H        8.3410     4.2200    -1.9880 H     1 <1>   0.0800 
 49 H        9.4360     4.4230    -0.6350 H     1 <1>   0.0800 
 50 H        3.1230    -3.1150     2.5450 H     1 <1>   0.0800 
 51 H        3.9790    -1.5930     2.5100 H     1 <1>   0.0800 
 52 H        3.1510    -4.4780     0.3900 H     1 <1>   0.0800 
 53 H        2.7850    -3.5860    -1.0720 H     1 <1>   0.0800 
 54 H        6.4930    -1.8460     1.6720 H     1 <1>   0.0800 
 55 H        6.9100    -3.4970     1.2810 H     1 <1>   0.0800 
 56 H        4.9390    -3.7980    -1.7930 H     1 <1>   0.0800 
 57 H        5.3660    -4.7000    -0.3530 H     1 <1>   0.0800 
@<TRIPOS>BOND
  1   1   2  1   
  2   2   3  1   
  3   2   4  1   
  4   2  33  1   
  5   4   5  ar  
  6   4   6  ar  
  7   5   7  1   
  8   5   8  ar  
  9   6   9  ar  
 10   6  34  1   
 11   7  10  ar  
 12   7  11  ar  
 13   8  12  ar  
 14   8  35  1   
 15   9  12  ar  
 16   9  13  1   
 17  10  14  ar  
 18  11  15  ar  
 19  13  36  1   
 20  13  37  1   
 21  14  16  ar  
 22  14  17  1   
 23  15  16  ar  
 24  15  18  1   
 25  17  19  1   
 26  17  20  1   
 27  18  21  1   
 28  18  22  1   
 29  19  23  1   
 30  19  24  1   
 31  19  38  1   
 32  20  25  1   
 33  20  26  1   
 34  20  39  1   
 35  21  27  1   
 36  21  28  1   
 37  21  40  1   
 38  22  29  1   
 39  22  30  1   
 40  22  41  1   
 41  23  31  1   
 42  23  42  1   
 43  23  43  1   
 44  24  26  1   
 45  24  44  1   
 46  24  45  1   
 47  25  31  1   
 48  25  46  1   
 49  25  47  1   
 50  26  48  1   
 51  26  49  1   
 52  27  32  1   
 53  27  50  1   
 54  27  51  1   
 55  28  30  1   
 56  28  52  1   
 57  28  53  1   
 58  29  32  1   
 59  29  54  1   
 60  29  55  1   
 61  30  56  1   
 62  30  57  1   
@<TRIPOS>SUBSTRUCTURE
  1 ****   7 GROUP 4 **** **** 0

# MOE 2024.06 (io_trps.svl 2023.06)
