@<TRIPOS>MOLECULE
NONAME
38 40 1 0 0 
SMALL
USER_CHARGES


@<TRIPOS>ATOM
  1 O        0.4850     1.0460     1.4460 O.2   1 <1>  -0.5700 
  2 C        0.2530     2.1050     0.8820 C.2   1 <1>   0.7160 
  3 N       -0.9870     2.6860     1.0960 N.am  1 <1>  -0.6600 
  4 C        1.2930     2.6860     0.0330 C.2   1 <1>   0.1410 
  5 C       -2.1630     1.8970     1.5520 C.3   1 <1>   0.1400 
  6 C       -1.2960     4.1220     0.8720 C.3   1 <1>   0.1400 
  7 N        1.0900     3.5550    -1.0090 N.2   1 <1>  -0.5650 
  8 C        2.6330     2.4340     0.1140 C.2   1 <1>  -0.3020 
  9 C       -3.2590     1.9840     0.4870 C.3   1 <1>  -0.1600 
 10 C       -2.3620     4.2300    -0.2190 C.3   1 <1>  -0.1600 
 11 C        2.2640     3.7850    -1.4920 C.2   1 <1>   0.0360 
 12 N        3.2490     3.1300    -0.8480 N.pl3 1 <1>   0.0330 
 13 C       -3.6230     3.4360     0.1550 C.3   1 <1>   0.4180 
 14 O       -4.1850     3.9740     1.3290 O.3   1 <1>  -0.5600 
 15 C       -4.6430     3.4620    -0.9810 C.2   1 <1>  -0.2880 
 16 C       -4.9820     5.1170     1.1970 C.3   1 <1>   0.1200 
 17 C       -5.8320     4.0670    -0.9090 C.2   1 <1>  -0.2760 
 18 C       -6.2260     4.8140     0.3510 C.3   1 <1>  -0.0220 
 19 C       -6.8670     4.0650    -2.0190 C.3   1 <1>  -0.1020 
 20 H       -2.5200     2.3000     2.4850 H     1 <1>   0.0800 
 21 H       -1.8950     0.8660     1.7120 H     1 <1>   0.0800 
 22 H       -0.4170     4.6750     0.5980 H     1 <1>   0.0800 
 23 H       -1.6720     4.5440     1.7890 H     1 <1>   0.0800 
 24 H        3.1410     1.7880     0.8090 H     1 <1>   0.1500 
 25 H       -4.1390     1.4670     0.8240 H     1 <1>   0.0800 
 26 H       -2.9100     1.4890    -0.4010 H     1 <1>   0.0800 
 27 H       -1.9520     3.8380    -1.1320 H     1 <1>   0.0800 
 28 H       -2.6060     5.2580    -0.3980 H     1 <1>   0.0800 
 29 H        2.4610     4.4330    -2.3290 H     1 <1>   0.1500 
 30 H        4.2510     3.1580    -1.0610 H     1 <1>   0.2700 
 31 H       -4.3050     2.9320    -1.8530 H     1 <1>   0.1500 
 32 H       -4.3960     5.8950     0.7400 H     1 <1>   0.0800 
 33 H       -5.2680     5.4340     2.1830 H     1 <1>   0.0800 
 34 H       -6.7040     5.7430     0.1000 H     1 <1>   0.0800 
 35 H       -6.9190     4.2230     0.9240 H     1 <1>   0.0800 
 36 H       -7.7810     3.6180    -1.6720 H     1 <1>   0.0800 
 37 H       -6.5120     3.5020    -2.8640 H     1 <1>   0.0800 
 38 H       -7.0700     5.0710    -2.3410 H     1 <1>   0.0800 
@<TRIPOS>BOND
  1   1   2  2   
  2   2   3  am  
  3   2   4  1   
  4   3   5  1   
  5   3   6  1   
  6   4   7  1   
  7   4   8  2   
  8   5   9  1   
  9   5  20  1   
 10   5  21  1   
 11   6  10  1   
 12   6  22  1   
 13   6  23  1   
 14   7  11  2   
 15   8  12  1   
 16   8  24  1   
 17   9  13  1   
 18   9  25  1   
 19   9  26  1   
 20  10  13  1   
 21  10  27  1   
 22  10  28  1   
 23  11  12  1   
 24  11  29  1   
 25  12  30  1   
 26  13  14  1   
 27  13  15  1   
 28  14  16  1   
 29  15  17  2   
 30  15  31  1   
 31  16  18  1   
 32  16  32  1   
 33  16  33  1   
 34  17  18  1   
 35  17  19  1   
 36  18  34  1   
 37  18  35  1   
 38  19  36  1   
 39  19  37  1   
 40  19  38  1   
@<TRIPOS>SUBSTRUCTURE
  1 ****  10 GROUP 4 **** **** 0

# MOE 2024.06 (io_trps.svl 2023.06)
