@<TRIPOS>MOLECULE
NONAME
57 60 1 0 0 
SMALL
USER_CHARGES


@<TRIPOS>ATOM
  1 O        1.8960    -3.6340    -3.0790 O.3   1 <1>  -0.5600 
  2 C        0.5180    -3.7610    -3.2270 C.3   1 <1>   0.2580 
  3 C        2.2580    -2.6390    -2.1740 C.3   1 <1>   0.1200 
  4 C       -0.0720    -4.0990    -1.8660 C.2   1 <1>  -0.2880 
  5 C        1.8750    -3.0730    -0.7500 C.3   1 <1>  -0.0220 
  6 C        0.5500    -3.8540    -0.7020 C.2   1 <1>  -0.2760 
  7 C       -0.0150    -4.2900     0.6810 C.3   1 <1>   0.1380 
  8 C       -0.2890    -5.8210     0.7760 C.3   1 <1>   0.4230 
  9 C       -1.3470    -3.5330     0.9080 C.3   1 <1>   0.1200 
 10 C        0.9390    -4.0260     1.8830 C.3   1 <1>  -0.1600 
 11 N        0.9040    -6.6700     0.4130 N.4   1 <1>  -0.9590 
 12 C       -1.6150    -6.2970     0.1660 C.3   1 <1>  -0.1600 
 13 O       -2.2970    -4.3900     1.4740 O.3   1 <1>  -0.5600 
 14 C        1.9910    -5.1430     2.1150 C.3   1 <1>  -0.1600 
 15 C        2.1930    -6.0960     0.9260 C.3   1 <1>   0.3430 
 16 C        1.0540    -6.9450    -1.0430 C.3   1 <1>   0.5240 
 17 C       -2.7680    -5.3770     0.6060 C.3   1 <1>   0.1200 
 18 C        2.1350    -7.9860    -1.2100 C.2   1 <1>  -0.1810 
 19 C        3.3480    -7.7710    -1.8500 C.2   1 <1>   0.1390 
 20 C        2.1850    -9.2730    -0.7960 C.2   1 <1>  -0.3020 
 21 N        4.1000    -8.8240    -1.8250 N.2   1 <1>  -0.7070 
 22 N        3.3820    -9.7680    -1.1820 N.pl3 1 <1>   0.3140 
 23 C        3.8770   -11.1600    -0.9570 C.3   1 <1>   0.1760 
 24 C        5.1400   -11.1530    -0.0850 C.3   1 <1>  -0.2400 
 25 C        4.1430   -11.8640    -2.2960 C.3   1 <1>  -0.2400 
 26 H        0.1130    -2.8450    -3.6240 H     1 <1>   0.0800 
 27 H        0.3440    -4.5580    -3.9300 H     1 <1>   0.0800 
 28 H        3.3210    -2.4830    -2.2530 H     1 <1>   0.0800 
 29 H        1.7540    -1.7270    -2.4480 H     1 <1>   0.0800 
 30 H       -1.0390    -4.5530    -1.9670 H     1 <1>   0.1500 
 31 H        2.6860    -3.6520    -0.3570 H     1 <1>   0.0800 
 32 H        1.7990    -2.1760    -0.1620 H     1 <1>   0.0800 
 33 H       -0.4440    -5.9760     1.8320 H     1 <1>   0.0800 
 34 H       -1.7500    -3.1490    -0.0140 H     1 <1>   0.0800 
 35 H       -1.2100    -2.7010     1.5770 H     1 <1>   0.0800 
 36 H        1.4150    -3.0660     1.8100 H     1 <1>   0.0800 
 37 H        0.3450    -3.9760     2.7810 H     1 <1>   0.0800 
 38 H        0.7830    -7.5860     0.8550 H     1 <1>   0.4500 
 39 H       -1.8290    -7.2910     0.5140 H     1 <1>   0.0800 
 40 H       -1.5950    -6.3270    -0.9050 H     1 <1>   0.0800 
 41 H        1.7020    -5.7320     2.9690 H     1 <1>   0.0800 
 42 H        2.9370    -4.6920     2.3620 H     1 <1>   0.0800 
 43 H        2.8610    -6.8960     1.2060 H     1 <1>   0.0800 
 44 H        2.6730    -5.5510     0.1310 H     1 <1>   0.0800 
 45 H        0.1360    -7.3250    -1.4570 H     1 <1>   0.0800 
 46 H        1.3310    -6.0490    -1.5730 H     1 <1>   0.0800 
 47 H       -3.5210    -5.9380     1.1340 H     1 <1>   0.0800 
 48 H       -3.2330    -4.8950    -0.2390 H     1 <1>   0.0800 
 49 H        3.6530    -6.8480    -2.3190 H     1 <1>   0.1500 
 50 H        1.4630    -9.8680    -0.2670 H     1 <1>   0.1500 
 51 H        3.1060   -11.6990    -0.4370 H     1 <1>   0.0800 
 52 H        5.9340   -10.6230    -0.5830 H     1 <1>   0.0800 
 53 H        5.4670   -12.1590     0.1030 H     1 <1>   0.0800 
 54 H        4.9390   -10.6780     0.8580 H     1 <1>   0.0800 
 55 H        4.9190   -11.3520    -2.8390 H     1 <1>   0.0800 
 56 H        3.2490   -11.8770    -2.8930 H     1 <1>   0.0800 
 57 H        4.4550   -12.8780    -2.1270 H     1 <1>   0.0800 
@<TRIPOS>BOND
  1   1   2  1   
  2   1   3  1   
  3   2   4  1   
  4   2  26  1   
  5   2  27  1   
  6   3   5  1   
  7   3  28  1   
  8   3  29  1   
  9   4   6  2   
 10   4  30  1   
 11   5   6  1   
 12   5  31  1   
 13   5  32  1   
 14   6   7  1   
 15   7   8  1   
 16   7   9  1   
 17   7  10  1   
 18   8  11  1   
 19   8  12  1   
 20   8  33  1   
 21   9  13  1   
 22   9  34  1   
 23   9  35  1   
 24  10  14  1   
 25  10  36  1   
 26  10  37  1   
 27  11  15  1   
 28  11  16  1   
 29  11  38  1   
 30  12  17  1   
 31  12  39  1   
 32  12  40  1   
 33  13  17  1   
 34  14  15  1   
 35  14  41  1   
 36  14  42  1   
 37  15  43  1   
 38  15  44  1   
 39  16  18  1   
 40  16  45  1   
 41  16  46  1   
 42  17  47  1   
 43  17  48  1   
 44  18  19  1   
 45  18  20  2   
 46  19  21  2   
 47  19  49  1   
 48  20  22  1   
 49  20  50  1   
 50  21  22  1   
 51  22  23  1   
 52  23  24  1   
 53  23  25  1   
 54  23  51  1   
 55  24  52  1   
 56  24  53  1   
 57  24  54  1   
 58  25  55  1   
 59  25  56  1   
 60  25  57  1   
@<TRIPOS>SUBSTRUCTURE
  1 ****  16 GROUP 4 **** **** 0

# MOE 2024.06 (io_trps.svl 2023.06)
