@<TRIPOS>MOLECULE
NONAME
43 46 1 0 0 
SMALL
USER_CHARGES


@<TRIPOS>ATOM
  1 O        1.6400    -0.7600    -2.2730 O.3   1 <1>  -0.0190 
  2 N        1.4240    -1.9840    -2.5860 N.2   1 <1>  -0.4100 
  3 C        1.8210    -0.6440    -0.9850 C.2   1 <1>   0.4250 
  4 C        1.4700    -2.5930    -1.4620 C.2   1 <1>   0.3350 
  5 N        1.7320    -1.7960    -0.4150 N.2   1 <1>  -0.5650 
  6 C        2.0830     0.6430    -0.3770 C.ar  1 <1>   0.0530 
  7 C        1.2840    -4.1040    -1.2900 C.3   1 <1>   0.2910 
  8 C        2.2690     0.7600     1.0010 C.ar  1 <1>  -0.1500 
  9 C        2.1600     1.8150    -1.1320 C.ar  1 <1>  -0.1500 
 10 N       -0.1130    -4.5420    -1.0250 N.3   1 <1>  -0.8100 
 11 C        2.5210     1.9830     1.5960 C.ar  1 <1>  -0.1500 
 12 C        2.4110     3.0390    -0.5400 C.ar  1 <1>  -0.1500 
 13 C       -0.1980    -6.0270    -1.0250 C.3   1 <1>   0.2910 
 14 C       -0.6440    -3.9610     0.2200 C.3   1 <1>   0.0300 
 15 C        2.5950     3.1320     0.8280 C.ar  1 <1>  -0.1430 
 16 C       -1.6160    -6.5970    -0.9140 C.2   1 <1>   0.3350 
 17 C        2.8700     4.4750     1.4800 C.3   1 <1>  -0.0960 
 18 N       -2.3620    -6.8960    -1.9040 N.2   1 <1>  -0.4100 
 19 N       -2.1740    -6.8600     0.2650 N.2   1 <1>  -0.5650 
 20 O       -3.4740    -7.3580    -1.4190 O.3   1 <1>  -0.0190 
 21 C       -3.3000    -7.3110    -0.1210 C.2   1 <1>   0.3930 
 22 C       -4.4150    -7.7830     0.8030 C.3   1 <1>  -0.0150 
 23 C       -5.2930    -8.9440     0.4430 C.3   1 <1>  -0.2000 
 24 C       -5.8580    -7.5540     0.4690 C.3   1 <1>  -0.2000 
 25 H        1.9230    -4.4340    -0.4900 H     1 <1>   0.0800 
 26 H        1.6240    -4.5710    -2.1980 H     1 <1>   0.0800 
 27 H        2.2150    -0.1220     1.6150 H     1 <1>   0.1500 
 28 H        2.0210     1.7730    -2.1980 H     1 <1>   0.1500 
 29 H        2.6580     2.0360     2.6620 H     1 <1>   0.1500 
 30 H        2.4630     3.9240    -1.1510 H     1 <1>   0.1500 
 31 H        0.3900    -6.4230    -0.2150 H     1 <1>   0.0800 
 32 H        0.2190    -6.3960    -1.9460 H     1 <1>   0.0800 
 33 H       -0.6210    -2.8860     0.1710 H     1 <1>   0.0800 
 34 H       -0.0680    -4.2870     1.0700 H     1 <1>   0.0800 
 35 H       -1.6710    -4.2510     0.3600 H     1 <1>   0.0800 
 36 H        3.4790     4.3500     2.3570 H     1 <1>   0.0800 
 37 H        1.9430     4.9380     1.7640 H     1 <1>   0.0800 
 38 H        3.3890     5.1250     0.7980 H     1 <1>   0.0800 
 39 H       -4.1330    -7.6870     1.8360 H     1 <1>   0.1000 
 40 H       -5.5740    -9.6350     1.2180 H     1 <1>   0.1000 
 41 H       -5.1560    -9.4260    -0.5100 H     1 <1>   0.1000 
 42 H       -6.1090    -7.0810    -0.4650 H     1 <1>   0.1000 
 43 H       -6.5310    -7.2800     1.2630 H     1 <1>   0.1000 
@<TRIPOS>BOND
  1   1   2  1   
  2   1   3  1   
  3   2   4  2   
  4   3   5  2   
  5   3   6  1   
  6   4   5  1   
  7   4   7  1   
  8   6   8  ar  
  9   6   9  ar  
 10   7  10  1   
 11   7  25  1   
 12   7  26  1   
 13   8  11  ar  
 14   8  27  1   
 15   9  12  ar  
 16   9  28  1   
 17  10  13  1   
 18  10  14  1   
 19  11  15  ar  
 20  11  29  1   
 21  12  15  ar  
 22  12  30  1   
 23  13  16  1   
 24  13  31  1   
 25  13  32  1   
 26  14  33  1   
 27  14  34  1   
 28  14  35  1   
 29  15  17  1   
 30  16  18  2   
 31  16  19  1   
 32  17  36  1   
 33  17  37  1   
 34  17  38  1   
 35  18  20  1   
 36  19  21  2   
 37  20  21  1   
 38  21  22  1   
 39  22  23  1   
 40  22  24  1   
 41  22  39  1   
 42  23  24  1   
 43  23  40  1   
 44  23  41  1   
 45  24  42  1   
 46  24  43  1   
@<TRIPOS>SUBSTRUCTURE
  1 ****  14 GROUP 4 **** **** 0

# MOE 2024.06 (io_trps.svl 2023.06)
