@<TRIPOS>MOLECULE
NONAME
56 58 1 0 0 
SMALL
USER_CHARGES


@<TRIPOS>ATOM
  1 O       -0.7530     0.9400    -0.7470 O.2   1 <1>  -0.5700 
  2 C       -0.4530     2.0900    -0.5600 C.2   1 <1>   0.5690 
  3 N       -1.2200     2.8820     0.2240 N.am  1 <1>  -0.7300 
  4 C        0.7930     2.6790    -1.2330 C.3   1 <1>   0.1810 
  5 C       -0.8970     4.2940     0.5190 C.3   1 <1>   0.3640 
  6 O        1.2160     3.9000    -0.6570 O.3   1 <1>  -0.5600 
  7 C       -2.1730     5.1260     0.4730 C.ar  1 <1>  -0.1440 
  8 C        0.1690     4.8380    -0.4590 C.3   1 <1>   0.2610 
  9 C       -3.0190     5.0800    -0.6270 C.ar  1 <1>  -0.1500 
 10 C       -2.4970     5.9540     1.5400 C.ar  1 <1>  -0.1500 
 11 C        0.6890     6.1990     0.0230 C.2   1 <1>   0.5690 
 12 C       -4.1670     5.8530    -0.6620 C.ar  1 <1>  -0.1500 
 13 C       -3.6450     6.7250     1.5050 C.ar  1 <1>  -0.1500 
 14 O        0.3540     7.1680    -0.6220 O.2   1 <1>  -0.5700 
 15 N        1.4980     6.3710     1.1330 N.am  1 <1>  -0.6600 
 16 C       -4.4800     6.6760     0.4040 C.ar  1 <1>  -0.1500 
 17 C        1.8560     7.7490     1.5870 C.3   1 <1>   0.1400 
 18 C        2.1070     5.2710     1.9450 C.3   1 <1>   0.0600 
 19 C        2.7390     8.4630     0.5410 C.3   1 <1>   0.3430 
 20 N        2.3450     9.8920     0.3050 N.4   1 <1>  -0.9590 
 21 C        1.0210     9.9750    -0.3910 C.3   1 <1>   0.3430 
 22 C        3.3970    10.5910    -0.4860 C.3   1 <1>   0.3430 
 23 C        0.6040    11.4380    -0.5400 C.3   1 <1>  -0.1600 
 24 C        3.0380    12.0700    -0.6300 C.3   1 <1>  -0.1600 
 25 C        1.6650    12.2550    -1.2910 C.3   1 <1>  -0.0800 
 26 C        1.2780    13.7370    -1.3330 C.3   1 <1>  -0.2400 
 27 H       -2.0700     2.4970     0.6390 H     1 <1>   0.3700 
 28 H        0.5870     2.8490    -2.2740 H     1 <1>   0.0800 
 29 H        1.6050     1.9790    -1.1530 H     1 <1>   0.0800 
 30 H       -0.5020     4.3350     1.5180 H     1 <1>   0.0800 
 31 H       -0.2930     4.9970    -1.4170 H     1 <1>   0.0800 
 32 H       -2.7950     4.4400    -1.4640 H     1 <1>   0.1500 
 33 H       -1.8610     6.0060     2.4060 H     1 <1>   0.1500 
 34 H       -4.8170     5.8120    -1.5190 H     1 <1>   0.1500 
 35 H       -3.8930     7.3630     2.3360 H     1 <1>   0.1500 
 36 H       -5.3730     7.2760     0.3760 H     1 <1>   0.1500 
 37 H        0.9420     8.2930     1.7460 H     1 <1>   0.0800 
 38 H        2.3810     7.7020     2.5250 H     1 <1>   0.0800 
 39 H        1.8630     5.4050     2.9850 H     1 <1>   0.0800 
 40 H        3.1770     5.2860     1.8330 H     1 <1>   0.0800 
 41 H        1.7550     4.3020     1.6440 H     1 <1>   0.0800 
 42 H        2.6690     7.9250    -0.3910 H     1 <1>   0.0800 
 43 H        3.7620     8.4180     0.8730 H     1 <1>   0.0800 
 44 H        2.2540    10.3810     1.2030 H     1 <1>   0.4500 
 45 H        1.0900     9.5150    -1.3650 H     1 <1>   0.0800 
 46 H        0.2670     9.4440     0.1670 H     1 <1>   0.0800 
 47 H        4.3520    10.5010     0.0060 H     1 <1>   0.0800 
 48 H        3.4740    10.1430    -1.4640 H     1 <1>   0.0800 
 49 H       -0.3260    11.4760    -1.0810 H     1 <1>   0.0800 
 50 H        0.4270    11.8580     0.4350 H     1 <1>   0.0800 
 51 H        3.0530    12.5370     0.3400 H     1 <1>   0.0800 
 52 H        3.7900    12.5520    -1.2310 H     1 <1>   0.0800 
 53 H        1.7200    11.8940    -2.3060 H     1 <1>   0.0800 
 54 H        1.2080    14.1470    -0.3400 H     1 <1>   0.0800 
 55 H        0.3260    13.8620    -1.8200 H     1 <1>   0.0800 
 56 H        2.0100    14.3010    -1.8840 H     1 <1>   0.0800 
@<TRIPOS>BOND
  1   1   2  2   
  2   2   3  am  
  3   2   4  1   
  4   3   5  1   
  5   3  27  1   
  6   4   6  1   
  7   4  28  1   
  8   4  29  1   
  9   5   7  1   
 10   5   8  1   
 11   5  30  1   
 12   6   8  1   
 13   7   9  ar  
 14   7  10  ar  
 15   8  11  1   
 16   8  31  1   
 17   9  12  ar  
 18   9  32  1   
 19  10  13  ar  
 20  10  33  1   
 21  11  14  2   
 22  11  15  am  
 23  12  16  ar  
 24  12  34  1   
 25  13  16  ar  
 26  13  35  1   
 27  15  17  1   
 28  15  18  1   
 29  16  36  1   
 30  17  19  1   
 31  17  37  1   
 32  17  38  1   
 33  18  39  1   
 34  18  40  1   
 35  18  41  1   
 36  19  20  1   
 37  19  42  1   
 38  19  43  1   
 39  20  21  1   
 40  20  22  1   
 41  20  44  1   
 42  21  23  1   
 43  21  45  1   
 44  21  46  1   
 45  22  24  1   
 46  22  47  1   
 47  22  48  1   
 48  23  25  1   
 49  23  49  1   
 50  23  50  1   
 51  24  25  1   
 52  24  51  1   
 53  24  52  1   
 54  25  26  1   
 55  25  53  1   
 56  26  54  1   
 57  26  55  1   
 58  26  56  1   
@<TRIPOS>SUBSTRUCTURE
  1 ****  14 GROUP 4 **** **** 0

# MOE 2024.06 (io_trps.svl 2023.06)
