@<TRIPOS>MOLECULE
NONAME
43 44 1 0 0 
SMALL
USER_CHARGES


@<TRIPOS>ATOM
  1 O        0.4150     0.1810     0.1590 O.3   1 <1>  -0.2800 
  2 C        1.4740     0.9280     0.2450 C.2   1 <1>   0.5620 
  3 C       -0.5510     1.0300    -0.0370 C.2   1 <1>   0.2980 
  4 N        1.1890     2.1780     0.1100 N.2   1 <1>  -0.3380 
  5 N        2.7230     0.3600     0.4540 N.pl3 1 <1>  -0.8220 
  6 N       -0.1330     2.2370    -0.0740 N.2   1 <1>  -0.3380 
  7 C       -1.9670     0.4810    -0.1860 C.3   1 <1>   0.3000 
  8 C        3.9030     1.2350     0.6900 C.3   1 <1>   0.2090 
  9 C        2.9190    -1.1030     0.6400 C.3   1 <1>   0.1290 
 10 O       -2.9110     1.4940    -0.4030 O.3   1 <1>  -0.5600 
 11 C        4.5650     1.5900    -0.6410 C.3   1 <1>  -0.0160 
 12 C       -4.2180     1.0420    -0.5440 C.3   1 <1>   0.0400 
 13 C        5.8340     2.3900    -0.4000 C.ar  1 <1>  -0.1440 
 14 C        5.7610     3.7510    -0.1530 C.ar  1 <1>  -0.1500 
 15 C        7.0740     1.7740    -0.4190 C.ar  1 <1>  -0.1500 
 16 C        6.9020     4.5020     0.0750 C.ar  1 <1>   0.0820 
 17 C        8.2240     2.5070    -0.1840 C.ar  1 <1>  -0.1500 
 18 O        6.6870     5.8300     0.2950 O.3   1 <1>  -0.3630 
 19 C        8.1580     3.8750     0.0750 C.ar  1 <1>   0.0820 
 20 C        7.5800     6.7920    -0.2210 C.3   1 <1>   0.0400 
 21 O        9.2820     4.6030     0.3440 O.3   1 <1>  -0.3630 
 22 C       10.5360     3.9930     0.5540 C.3   1 <1>   0.0400 
 23 H       -2.2370    -0.0450     0.7120 H     1 <1>   0.0800 
 24 H       -1.9970    -0.1930    -1.0230 H     1 <1>   0.0800 
 25 H        4.6100     0.7300     1.3260 H     1 <1>   0.0800 
 26 H        3.5960     2.1380     1.1910 H     1 <1>   0.0800 
 27 H        2.0490    -1.6500     0.3240 H     1 <1>   0.0800 
 28 H        3.1050    -1.3140     1.6790 H     1 <1>   0.0800 
 29 H        3.7600    -1.4340     0.0560 H     1 <1>   0.0800 
 30 H        3.8800     2.1700    -1.2340 H     1 <1>   0.0800 
 31 H        4.7970     0.6890    -1.1790 H     1 <1>   0.0800 
 32 H       -4.8500     1.8980    -0.7050 H     1 <1>   0.0800 
 33 H       -4.5200     0.5350     0.3560 H     1 <1>   0.0800 
 34 H       -4.2800     0.3830    -1.3930 H     1 <1>   0.0800 
 35 H        4.8070     4.2480    -0.1360 H     1 <1>   0.1500 
 36 H        7.1500     0.7190    -0.6150 H     1 <1>   0.1500 
 37 H        9.1620     1.9880    -0.2080 H     1 <1>   0.1500 
 38 H        7.0540     7.7250    -0.3050 H     1 <1>   0.0800 
 39 H        7.9230     6.4720    -1.1890 H     1 <1>   0.0800 
 40 H        8.4050     6.9000     0.4590 H     1 <1>   0.0800 
 41 H       11.2380     4.7590     0.8290 H     1 <1>   0.0800 
 42 H       10.8520     3.5200    -0.3590 H     1 <1>   0.0800 
 43 H       10.4470     3.2760     1.3510 H     1 <1>   0.0800 
@<TRIPOS>BOND
  1   1   2  1   
  2   1   3  1   
  3   2   4  2   
  4   2   5  1   
  5   3   6  2   
  6   3   7  1   
  7   4   6  1   
  8   5   8  1   
  9   5   9  1   
 10   7  10  1   
 11   7  23  1   
 12   7  24  1   
 13   8  11  1   
 14   8  25  1   
 15   8  26  1   
 16   9  27  1   
 17   9  28  1   
 18   9  29  1   
 19  10  12  1   
 20  11  13  1   
 21  11  30  1   
 22  11  31  1   
 23  12  32  1   
 24  12  33  1   
 25  12  34  1   
 26  13  14  ar  
 27  13  15  ar  
 28  14  16  ar  
 29  14  35  1   
 30  15  17  ar  
 31  15  36  1   
 32  16  18  1   
 33  16  19  ar  
 34  17  19  ar  
 35  17  37  1   
 36  18  20  1   
 37  19  21  1   
 38  20  38  1   
 39  20  39  1   
 40  20  40  1   
 41  21  22  1   
 42  22  41  1   
 43  22  42  1   
 44  22  43  1   
@<TRIPOS>SUBSTRUCTURE
  1 ****  11 GROUP 4 **** **** 0

# MOE 2024.06 (io_trps.svl 2023.06)
