@<TRIPOS>MOLECULE
NONAME
44 45 1 0 0 
SMALL
USER_CHARGES


@<TRIPOS>ATOM
  1 O        0.2440    -0.7460     0.6850 O.3   1 <1>  -0.5600 
  2 C       -0.1030    -2.0630     0.3720 C.3   1 <1>   0.2000 
  3 C        0.2270     0.1340    -0.3920 C.3   1 <1>   0.1200 
  4 C       -0.7820    -2.6880     1.6030 C.3   1 <1>   0.2090 
  5 C        1.1740    -2.8250    -0.0150 C.3   1 <1>  -0.1600 
  6 C        0.6530     1.5080     0.1210 C.3   1 <1>  -0.1600 
  7 N       -0.9980    -4.1620     1.4230 N.pl3 1 <1>  -0.8380 
  8 C        0.8870    -4.3280    -0.1650 C.3   1 <1>  -0.1600 
  9 C        0.6640     2.5480    -1.0050 C.3   1 <1>  -0.2400 
 10 C       -2.2020    -4.6100     0.8940 C.ar  1 <1>   0.4100 
 11 C        0.2370    -4.9170     1.0920 C.3   1 <1>   0.2090 
 12 N       -2.8340    -3.8470    -0.0070 N.ar  1 <1>  -0.3100 
 13 C       -2.7140    -5.8290     1.2950 C.ar  1 <1>  -0.1500 
 14 N       -3.9640    -4.2440    -0.5430 N.ar  1 <1>  -0.3100 
 15 C       -3.8960    -6.2470     0.7370 C.ar  1 <1>  -0.1500 
 16 C       -4.4910    -5.4130    -0.1880 C.ar  1 <1>   0.1670 
 17 C       -5.8110    -5.8000    -0.8580 C.3   1 <1>   0.0630 
 18 C       -6.9420    -5.9480     0.1690 C.3   1 <1>  -0.2400 
 19 C       -5.6640    -7.0840    -1.6870 C.3   1 <1>  -0.2400 
 20 H       -0.8100    -2.0630    -0.4410 H     1 <1>   0.0800 
 21 H       -0.7720     0.1720    -0.7920 H     1 <1>   0.0800 
 22 H        0.9120    -0.2180    -1.1450 H     1 <1>   0.0800 
 23 H       -1.7260    -2.2010     1.7730 H     1 <1>   0.0800 
 24 H       -0.1590    -2.5330     2.4660 H     1 <1>   0.0800 
 25 H        1.9120    -2.6820     0.7540 H     1 <1>   0.0800 
 26 H        1.5610    -2.4440    -0.9420 H     1 <1>   0.0800 
 27 H        1.6380     1.4340     0.5470 H     1 <1>   0.0800 
 28 H       -0.0310     1.8230     0.8890 H     1 <1>   0.0800 
 29 H        1.8040    -4.8510    -0.3680 H     1 <1>   0.0800 
 30 H        0.2260    -4.4880    -1.0000 H     1 <1>   0.0800 
 31 H        1.3550     2.2580    -1.7780 H     1 <1>   0.0800 
 32 H        0.9660     3.5050    -0.6180 H     1 <1>   0.0800 
 33 H       -0.3170     2.6470    -1.4350 H     1 <1>   0.0800 
 34 H        0.0020    -5.9550     0.9250 H     1 <1>   0.0800 
 35 H        0.9190    -4.8570     1.9230 H     1 <1>   0.0800 
 36 H       -2.1930    -6.4160     2.0260 H     1 <1>   0.1500 
 37 H       -4.3370    -7.1860     1.0150 H     1 <1>   0.1500 
 38 H       -6.0860    -5.0070    -1.5330 H     1 <1>   0.0800 
 39 H       -6.7460    -6.7600     0.8450 H     1 <1>   0.0800 
 40 H       -7.8760    -6.1330    -0.3310 H     1 <1>   0.0800 
 41 H       -7.0350    -5.0400     0.7390 H     1 <1>   0.0800 
 42 H       -5.4330    -7.9250    -1.0590 H     1 <1>   0.0800 
 43 H       -4.8720    -6.9640    -2.4060 H     1 <1>   0.0800 
 44 H       -6.5760    -7.2900    -2.2180 H     1 <1>   0.0800 
@<TRIPOS>BOND
  1   1   2  1   
  2   1   3  1   
  3   2   4  1   
  4   2   5  1   
  5   2  20  1   
  6   3   6  1   
  7   3  21  1   
  8   3  22  1   
  9   4   7  1   
 10   4  23  1   
 11   4  24  1   
 12   5   8  1   
 13   5  25  1   
 14   5  26  1   
 15   6   9  1   
 16   6  27  1   
 17   6  28  1   
 18   7  10  1   
 19   7  11  1   
 20   8  11  1   
 21   8  29  1   
 22   8  30  1   
 23   9  31  1   
 24   9  32  1   
 25   9  33  1   
 26  10  12  ar  
 27  10  13  ar  
 28  11  34  1   
 29  11  35  1   
 30  12  14  ar  
 31  13  15  ar  
 32  13  36  1   
 33  14  16  ar  
 34  15  16  ar  
 35  15  37  1   
 36  16  17  1   
 37  17  18  1   
 38  17  19  1   
 39  17  38  1   
 40  18  39  1   
 41  18  40  1   
 42  18  41  1   
 43  19  42  1   
 44  19  43  1   
 45  19  44  1   
@<TRIPOS>SUBSTRUCTURE
  1 ****  12 GROUP 4 **** **** 0

# MOE 2024.06 (io_trps.svl 2023.06)
