@<TRIPOS>MOLECULE
NONAME
47 50 1 0 0 
SMALL
USER_CHARGES


@<TRIPOS>ATOM
  1 F       -0.3900    -0.2130     0.8410 F     1 <1>  -0.1900 
  2 C       -1.5720    -0.7910     0.7650 C.ar  1 <1>   0.1900 
  3 C       -2.6930    -0.1290     0.2640 C.ar  1 <1>   0.4100 
  4 C       -1.6920    -2.0870     1.1820 C.ar  1 <1>   0.1600 
  5 N       -3.8410    -0.7770     0.1920 N.ar  1 <1>  -0.6200 
  6 N       -2.6930     1.1910    -0.1890 N.pl3 1 <1>  -0.8380 
  7 N       -2.8390    -2.7310     1.1200 N.ar  1 <1>  -0.6200 
  8 C       -3.8600    -2.0340     0.6240 C.ar  1 <1>   0.7200 
  9 C       -1.8120     2.2390     0.3810 C.3   1 <1>   0.2090 
 10 C       -3.8950     1.8070    -0.8010 C.3   1 <1>   0.2090 
 11 N       -5.0710    -2.6870     0.5590 N.pl3 1 <1>  -0.8380 
 12 C       -2.5990     3.5370     0.2530 C.3   1 <1>  -0.1600 
 13 C       -3.5660     3.2900    -0.9000 C.3   1 <1>  -0.1600 
 14 C       -6.2280    -2.1240    -0.1840 C.3   1 <1>   0.2090 
 15 C       -5.1870    -4.1670     0.6310 C.3   1 <1>   0.2090 
 16 C       -7.2860    -3.2230    -0.1150 C.3   1 <1>   0.2000 
 17 C       -6.4590    -4.5120    -0.1540 C.3   1 <1>  -0.0800 
 18 O       -7.9250    -3.1260     1.1130 O.3   1 <1>  -0.6800 
 19 C       -7.1890    -5.7660     0.3620 C.3   1 <1>   0.0200 
 20 C       -6.3950    -7.0470     0.1600 C.2   1 <1>  -0.0400 
 21 O       -6.8550    -8.1560     0.6750 O.3   1 <1>  -0.0190 
 22 C       -5.2470    -7.3380    -0.4740 C.2   1 <1>  -0.1500 
 23 N       -6.0780    -9.1700     0.4240 N.2   1 <1>  -0.4100 
 24 C       -5.1010    -8.7060    -0.2670 C.2   1 <1>   0.1080 
 25 C       -3.9510    -9.5440    -0.7810 C.3   1 <1>  -0.0590 
 26 H       -0.8340    -2.6050     1.5710 H     1 <1>   0.1500 
 27 H       -1.5710     2.0320     1.4100 H     1 <1>   0.0800 
 28 H       -0.9070     2.2890    -0.2020 H     1 <1>   0.0800 
 29 H       -4.0950     1.3760    -1.7670 H     1 <1>   0.0800 
 30 H       -4.7440     1.6570    -0.1540 H     1 <1>   0.0800 
 31 H       -3.1490     3.7000     1.1630 H     1 <1>   0.0800 
 32 H       -1.9540     4.3790     0.0760 H     1 <1>   0.0800 
 33 H       -3.0740     3.4740    -1.8380 H     1 <1>   0.0800 
 34 H       -4.4490     3.9010    -0.8370 H     1 <1>   0.0800 
 35 H       -6.5730    -1.2040     0.2570 H     1 <1>   0.0800 
 36 H       -5.9400    -1.9470    -1.2060 H     1 <1>   0.0800 
 37 H       -4.3230    -4.6470     0.2040 H     1 <1>   0.0800 
 38 H       -5.2800    -4.4580     1.6640 H     1 <1>   0.0800 
 39 H       -8.0240    -3.1570    -0.8960 H     1 <1>   0.0800 
 40 H       -6.1750    -4.6790    -1.1780 H     1 <1>   0.0800 
 41 H       -7.2410    -2.9320     1.7900 H     1 <1>   0.4000 
 42 H       -8.1300    -5.8670    -0.1490 H     1 <1>   0.0800 
 43 H       -7.4020    -5.6610     1.4120 H     1 <1>   0.0800 
 44 H       -4.5730    -6.7080    -1.0220 H     1 <1>   0.1500 
 45 H       -3.8890    -9.4630    -1.8510 H     1 <1>   0.0800 
 46 H       -4.1030   -10.5760    -0.5190 H     1 <1>   0.0800 
 47 H       -3.0300    -9.2060    -0.3440 H     1 <1>   0.0800 
@<TRIPOS>BOND
  1   1   2  1   
  2   2   3  ar  
  3   2   4  ar  
  4   3   5  ar  
  5   3   6  1   
  6   4   7  ar  
  7   4  26  1   
  8   5   8  ar  
  9   6   9  1   
 10   6  10  1   
 11   7   8  ar  
 12   8  11  1   
 13   9  12  1   
 14   9  27  1   
 15   9  28  1   
 16  10  13  1   
 17  10  29  1   
 18  10  30  1   
 19  11  14  1   
 20  11  15  1   
 21  12  13  1   
 22  12  31  1   
 23  12  32  1   
 24  13  33  1   
 25  13  34  1   
 26  14  16  1   
 27  14  35  1   
 28  14  36  1   
 29  15  17  1   
 30  15  37  1   
 31  15  38  1   
 32  16  17  1   
 33  16  18  1   
 34  16  39  1   
 35  17  19  1   
 36  17  40  1   
 37  18  41  1   
 38  19  20  1   
 39  19  42  1   
 40  19  43  1   
 41  20  21  1   
 42  20  22  2   
 43  21  23  1   
 44  22  24  1   
 45  22  44  1   
 46  23  24  2   
 47  24  25  1   
 48  25  45  1   
 49  25  46  1   
 50  25  47  1   
@<TRIPOS>SUBSTRUCTURE
  1 ****  11 GROUP 4 **** **** 0

# MOE 2024.06 (io_trps.svl 2023.06)
