@<TRIPOS>MOLECULE
NONAME
53 56 1 0 0 
SMALL
USER_CHARGES


@<TRIPOS>ATOM
  1 O       -0.8340     0.3490    -0.5170 O.2   1 <1>  -0.5700 
  2 C       -1.6790     0.9980     0.0660 C.2   1 <1>   0.7030 
  3 N       -2.8270     0.3680     0.4910 N.am  1 <1>  -0.6600 
  4 C       -1.4460     2.4150     0.2890 C.2   1 <1>   0.2770 
  5 C       -2.8420    -1.1160     0.7290 C.3   1 <1>   0.1400 
  6 C       -4.1930     0.9090     0.2060 C.3   1 <1>   0.1400 
  7 N       -2.0900     3.2480     1.1940 N.pl3 1 <1>  -0.7000 
  8 C       -0.5270     3.1890    -0.3360 C.2   1 <1>   0.2000 
  9 C       -3.6320    -1.8570    -0.3640 C.3   1 <1>   0.3440 
 10 C       -4.9090     0.0630    -0.8740 C.3   1 <1>   0.2000 
 11 C       -1.5630     4.4780     1.1060 C.cat 1 <1>   0.7910 
 12 N       -0.5970     4.4750     0.1570 N.pl3 1 <1>  -0.6290 
 13 O       -4.9060    -1.2830    -0.4960 O.3   1 <1>  -0.5600 
 14 C       -3.7680    -3.3350    -0.0120 C.ar  1 <1>  -0.1430 
 15 C       -6.3740     0.4800    -1.1400 C.3   1 <1>  -0.0800 
 16 C       -1.8680     5.6480     1.8190 C.2   1 <1>  -0.1410 
 17 C        0.1070     5.6260    -0.1270 C.2   1 <1>   0.2410 
 18 C       -2.8080    -4.2340    -0.4590 C.ar  1 <1>  -0.1500 
 19 C       -4.8220    -3.8050     0.7590 C.ar  1 <1>  -0.1500 
 20 C       -6.4740     1.9060    -1.7050 C.3   1 <1>  -0.2400 
 21 C       -7.2900     0.3460     0.0880 C.3   1 <1>  -0.2400 
 22 C       -1.1810     6.7990     1.5480 C.2   1 <1>  -0.1500 
 23 C       -0.1790     6.7740     0.5560 C.2   1 <1>  -0.1500 
 24 C        1.1800     5.5640    -1.1980 C.3   1 <1>  -0.1020 
 25 C       -2.9000    -5.5770    -0.1370 C.ar  1 <1>  -0.1500 
 26 C       -4.9150    -5.1480     1.0810 C.ar  1 <1>  -0.1500 
 27 C       -3.9530    -6.0350     0.6330 C.ar  1 <1>  -0.1500 
 28 H       -1.8390    -1.5050     0.7620 H     1 <1>   0.0800 
 29 H       -3.2980    -1.3190     1.6820 H     1 <1>   0.0800 
 30 H       -4.7720     0.8920     1.1120 H     1 <1>   0.0800 
 31 H       -4.1290     1.9260    -0.1350 H     1 <1>   0.0800 
 32 H       -2.7970     2.9490     1.8700 H     1 <1>   0.4500 
 33 H        0.1730     2.8840    -1.0990 H     1 <1>   0.1500 
 34 H       -3.1250    -1.7640    -1.3090 H     1 <1>   0.0800 
 35 H       -4.3660     0.1400    -1.8010 H     1 <1>   0.0800 
 36 H       -6.7470    -0.1870    -1.9000 H     1 <1>   0.0800 
 37 H       -2.6380     5.6160     2.5660 H     1 <1>   0.1500 
 38 H       -1.9820    -3.8950    -1.0600 H     1 <1>   0.1500 
 39 H       -5.5800    -3.1260     1.1090 H     1 <1>   0.1500 
 40 H       -6.1900     2.6400    -0.9730 H     1 <1>   0.0800 
 41 H       -7.4880     2.1090    -2.0040 H     1 <1>   0.0800 
 42 H       -5.8470     2.0130    -2.5720 H     1 <1>   0.0800 
 43 H       -7.0230     1.0420     0.8610 H     1 <1>   0.0800 
 44 H       -7.2360    -0.6530     0.4870 H     1 <1>   0.0800 
 45 H       -8.3120     0.5320    -0.1940 H     1 <1>   0.0800 
 46 H       -1.3830     7.7210     2.0720 H     1 <1>   0.1500 
 47 H        0.3550     7.6870     0.3530 H     1 <1>   0.1500 
 48 H        1.9380     4.8540    -0.9210 H     1 <1>   0.0800 
 49 H        1.6470     6.5240    -1.3240 H     1 <1>   0.0800 
 50 H        0.7490     5.2720    -2.1390 H     1 <1>   0.0800 
 51 H       -2.1520    -6.2670    -0.4880 H     1 <1>   0.1500 
 52 H       -5.7380    -5.5020     1.6780 H     1 <1>   0.1500 
 53 H       -4.0250    -7.0800     0.8830 H     1 <1>   0.1500 
@<TRIPOS>BOND
  1   1   2  2   
  2   2   3  am  
  3   2   4  1   
  4   3   5  1   
  5   3   6  1   
  6   4   7  1   
  7   4   8  2   
  8   5   9  1   
  9   5  28  1   
 10   5  29  1   
 11   6  10  1   
 12   6  30  1   
 13   6  31  1   
 14   7  11  ar  
 15   7  32  1   
 16   8  12  1   
 17   8  33  1   
 18   9  13  1   
 19   9  14  1   
 20   9  34  1   
 21  10  13  1   
 22  10  15  1   
 23  10  35  1   
 24  11  12  ar  
 25  11  16  1   
 26  12  17  1   
 27  14  18  ar  
 28  14  19  ar  
 29  15  20  1   
 30  15  21  1   
 31  15  36  1   
 32  16  22  2   
 33  16  37  1   
 34  17  23  2   
 35  17  24  1   
 36  18  25  ar  
 37  18  38  1   
 38  19  26  ar  
 39  19  39  1   
 40  20  40  1   
 41  20  41  1   
 42  20  42  1   
 43  21  43  1   
 44  21  44  1   
 45  21  45  1   
 46  22  23  1   
 47  22  46  1   
 48  23  47  1   
 49  24  48  1   
 50  24  49  1   
 51  24  50  1   
 52  25  27  ar  
 53  25  51  1   
 54  26  27  ar  
 55  26  52  1   
 56  27  53  1   
@<TRIPOS>SUBSTRUCTURE
  1 ****   3 GROUP 4 **** **** 0

# MOE 2024.06 (io_trps.svl 2023.06)
