@<TRIPOS>MOLECULE
NONAME
53 57 1 0 0 
SMALL
USER_CHARGES


@<TRIPOS>ATOM
  1 CL       0.3010    -2.1150    -3.0680 Cl    1 <1>  -0.1770 
  2 C        0.5680    -1.8280    -1.3570 C.ar  1 <1>   0.1770 
  3 C       -0.5070    -1.5790    -0.4900 C.ar  1 <1>   0.4100 
  4 C        1.8580    -1.8600    -0.8870 C.ar  1 <1>  -0.1500 
  5 N       -0.3390    -1.3800     0.8170 N.ar  1 <1>  -0.6200 
  6 N       -1.8160    -1.5540    -0.9500 N.pl3 1 <1>  -0.8380 
  7 C        2.0240    -1.6420     0.4670 C.ar  1 <1>  -0.1500 
  8 C        0.9100    -1.4110     1.2560 C.ar  1 <1>   0.1600 
  9 C       -2.5500    -2.8540    -0.9060 C.3   1 <1>   0.2090 
 10 C       -2.7320    -0.4950    -0.4420 C.3   1 <1>   0.2090 
 11 C       -3.8450    -2.5890    -0.1330 C.3   1 <1>   0.2800 
 12 C       -3.7100    -1.2110     0.4990 C.3   1 <1>  -0.0800 
 13 O       -4.9490    -2.3980    -0.9470 O.3   1 <1>  -0.5600 
 14 C       -4.3800    -3.6230     0.8590 C.3   1 <1>  -0.1600 
 15 C       -5.1870    -0.7640     0.5840 C.3   1 <1>  -0.0800 
 16 C       -5.8810    -1.9980    -0.0160 C.3   1 <1>   0.2000 
 17 C       -5.8460    -3.1830     0.9600 C.3   1 <1>  -0.1600 
 18 C       -5.5200     0.5180    -0.1980 C.3   1 <1>   0.1960 
 19 N       -6.9020     0.9390     0.0190 N.am  1 <1>  -0.9140 
 20 S       -7.1380     2.0580     1.2550 S.o2  1 <1>   1.5010 
 21 O       -6.3590     1.5770     2.3770 O.2   1 <1>  -0.6500 
 22 O       -8.5770     2.0980     1.4060 O.2   1 <1>  -0.6500 
 23 C       -6.5190     3.6650     0.6070 C.2   1 <1>   0.1640 
 24 N       -5.2400     3.8870     0.1810 N.2   1 <1>  -0.5650 
 25 C       -7.2270     4.8160     0.4650 C.2   1 <1>  -0.3020 
 26 C       -5.2210     5.1230    -0.1900 C.2   1 <1>   0.0060 
 27 N       -6.4080     5.7510    -0.0410 N.pl3 1 <1>   0.0480 
 28 C       -3.9800     5.7980    -0.7380 C.3   1 <1>  -0.0600 
 29 C       -6.7580     7.1480    -0.3560 C.3   1 <1>   0.0160 
 30 H        2.6880    -2.0480    -1.5450 H     1 <1>   0.1500 
 31 H        3.0060    -1.6510     0.9040 H     1 <1>   0.1500 
 32 H        1.0530    -1.2430     2.3100 H     1 <1>   0.1500 
 33 H       -2.7650    -3.2000    -1.9010 H     1 <1>   0.0800 
 34 H       -1.9570    -3.5870    -0.3870 H     1 <1>   0.0800 
 35 H       -2.1940     0.2850     0.0710 H     1 <1>   0.0800 
 36 H       -3.2360    -0.0730    -1.2920 H     1 <1>   0.0800 
 37 H       -3.2580    -1.2840     1.4720 H     1 <1>   0.0800 
 38 H       -4.3000    -4.6120     0.4450 H     1 <1>   0.0800 
 39 H       -3.8620    -3.5780     1.8010 H     1 <1>   0.0800 
 40 H       -5.4620    -0.6400     1.6160 H     1 <1>   0.0800 
 41 H       -6.8380    -1.8190    -0.4750 H     1 <1>   0.0800 
 42 H       -6.1250    -2.8910     1.9570 H     1 <1>   0.0800 
 43 H       -6.5040    -3.9610     0.6170 H     1 <1>   0.0800 
 44 H       -5.3880     0.3300    -1.2510 H     1 <1>   0.0800 
 45 H       -4.8430     1.3080     0.0820 H     1 <1>   0.0800 
 46 H       -7.4630     0.1410     0.2970 H     1 <1>   0.4200 
 47 H       -8.2610     4.9950     0.7010 H     1 <1>   0.1500 
 48 H       -3.1660     5.0950    -0.7670 H     1 <1>   0.0800 
 49 H       -3.6980     6.6220    -0.1090 H     1 <1>   0.0800 
 50 H       -4.1610     6.1530    -1.7360 H     1 <1>   0.0800 
 51 H       -7.7900     7.3240    -0.1140 H     1 <1>   0.0800 
 52 H       -6.6010     7.3270    -1.4030 H     1 <1>   0.0800 
 53 H       -6.1390     7.8080     0.2220 H     1 <1>   0.0800 
@<TRIPOS>BOND
  1   1   2  1   
  2   2   3  ar  
  3   2   4  ar  
  4   3   5  ar  
  5   3   6  1   
  6   4   7  ar  
  7   4  30  1   
  8   5   8  ar  
  9   6   9  1   
 10   6  10  1   
 11   7   8  ar  
 12   7  31  1   
 13   8  32  1   
 14   9  11  1   
 15   9  33  1   
 16   9  34  1   
 17  10  12  1   
 18  10  35  1   
 19  10  36  1   
 20  11  12  1   
 21  11  13  1   
 22  11  14  1   
 23  12  15  1   
 24  12  37  1   
 25  13  16  1   
 26  14  17  1   
 27  14  38  1   
 28  14  39  1   
 29  15  16  1   
 30  15  18  1   
 31  15  40  1   
 32  16  17  1   
 33  16  41  1   
 34  17  42  1   
 35  17  43  1   
 36  18  19  1   
 37  18  44  1   
 38  18  45  1   
 39  19  20  am  
 40  19  46  1   
 41  20  21  2   
 42  20  22  2   
 43  20  23  1   
 44  23  24  1   
 45  23  25  2   
 46  24  26  2   
 47  25  27  1   
 48  25  47  1   
 49  26  27  1   
 50  26  28  1   
 51  27  29  1   
 52  28  48  1   
 53  28  49  1   
 54  28  50  1   
 55  29  51  1   
 56  29  52  1   
 57  29  53  1   
@<TRIPOS>SUBSTRUCTURE
  1 ****  10 GROUP 4 **** **** 0

# MOE 2024.06 (io_trps.svl 2023.06)
