@<TRIPOS>MOLECULE
NONAME
42 43 1 0 0 
SMALL
USER_CHARGES


@<TRIPOS>ATOM
  1 CL      -3.3820    -1.0930    -2.3160 Cl    1 <1>  -0.1770 
  2 C       -3.2880     0.0840    -1.0250 C.ar  1 <1>   0.1770 
  3 C       -3.2620    -0.3210     0.3050 C.ar  1 <1>  -0.1440 
  4 C       -3.2450     1.4220    -1.3730 C.ar  1 <1>  -0.1500 
  5 C       -3.1930     0.6550     1.2890 C.ar  1 <1>  -0.1500 
  6 C       -3.3120    -1.7890     0.7070 C.3   1 <1>  -0.0160 
  7 C       -3.1750     2.3830    -0.3810 C.ar  1 <1>  -0.1500 
  8 C       -3.1500     1.9970     0.9490 C.ar  1 <1>  -0.1500 
  9 C       -4.7640    -2.2640     0.8320 C.3   1 <1>  -0.0990 
 10 C       -4.8270    -3.7370     1.1930 C.2   1 <1>   0.5690 
 11 O       -4.8050    -4.0050     2.3700 O.2   1 <1>  -0.5700 
 12 N       -4.8960    -4.7180     0.2340 N.am  1 <1>  -0.6600 
 13 C       -5.0650    -6.1360     0.6460 C.3   1 <1>   0.3200 
 14 C       -4.8370    -4.4620    -1.2430 C.3   1 <1>   0.1400 
 15 C       -6.5430    -6.4710     0.6250 C.2   1 <1>  -0.3320 
 16 C       -6.2170    -4.4500    -1.9260 C.3   1 <1>   0.1200 
 17 N       -7.1360    -7.4120    -0.1370 N.pl3 1 <1>   0.0480 
 18 C       -7.5220    -5.8960     1.3580 C.2   1 <1>   0.0770 
 19 O       -7.1460    -3.7640    -1.1620 O.3   1 <1>  -0.6800 
 20 C       -8.4480    -7.3270     0.1780 C.2   1 <1>   0.0360 
 21 C       -6.5170    -8.3540    -1.0870 C.3   1 <1>   0.0160 
 22 N       -8.7210    -6.4280     1.0660 N.2   1 <1>  -0.5650 
 23 H       -3.2670     1.7030    -2.4100 H     1 <1>   0.1500 
 24 H       -3.1750     0.3730     2.3280 H     1 <1>   0.1500 
 25 H       -2.8160    -1.9230     1.6530 H     1 <1>   0.0800 
 26 H       -2.7850    -2.3890    -0.0120 H     1 <1>   0.0800 
 27 H       -3.1420     3.4270    -0.6410 H     1 <1>   0.1500 
 28 H       -3.0960     2.7440     1.7230 H     1 <1>   0.1500 
 29 H       -5.3080    -2.0700    -0.0730 H     1 <1>   0.0800 
 30 H       -5.2490    -1.7060     1.6120 H     1 <1>   0.0800 
 31 H       -4.6820    -6.2850     1.6410 H     1 <1>   0.0800 
 32 H       -4.5090    -6.7760    -0.0150 H     1 <1>   0.0800 
 33 H       -4.2230    -5.2100    -1.7110 H     1 <1>   0.0800 
 34 H       -4.3590    -3.5200    -1.4350 H     1 <1>   0.0800 
 35 H       -6.5820    -5.4510    -2.0690 H     1 <1>   0.0800 
 36 H       -6.1530    -3.9660    -2.8850 H     1 <1>   0.0800 
 37 H       -7.4180    -5.1090     2.0900 H     1 <1>   0.1500 
 38 H       -7.3080    -4.2640    -0.3300 H     1 <1>   0.4000 
 39 H       -9.1880    -7.9610    -0.2780 H     1 <1>   0.1500 
 40 H       -5.9590    -7.8070    -1.8240 H     1 <1>   0.0800 
 41 H       -7.2820    -8.9300    -1.5740 H     1 <1>   0.0800 
 42 H       -5.8600    -9.0150    -0.5520 H     1 <1>   0.0800 
@<TRIPOS>BOND
  1   1   2  1   
  2   2   3  ar  
  3   2   4  ar  
  4   3   5  ar  
  5   3   6  1   
  6   4   7  ar  
  7   4  23  1   
  8   5   8  ar  
  9   5  24  1   
 10   6   9  1   
 11   6  25  1   
 12   6  26  1   
 13   7   8  ar  
 14   7  27  1   
 15   8  28  1   
 16   9  10  1   
 17   9  29  1   
 18   9  30  1   
 19  10  11  2   
 20  10  12  am  
 21  12  13  1   
 22  12  14  1   
 23  13  15  1   
 24  13  31  1   
 25  13  32  1   
 26  14  16  1   
 27  14  33  1   
 28  14  34  1   
 29  15  17  1   
 30  15  18  2   
 31  16  19  1   
 32  16  35  1   
 33  16  36  1   
 34  17  20  1   
 35  17  21  1   
 36  18  22  1   
 37  18  37  1   
 38  19  38  1   
 39  20  22  2   
 40  20  39  1   
 41  21  40  1   
 42  21  41  1   
 43  21  42  1   
@<TRIPOS>SUBSTRUCTURE
  1 ****  10 GROUP 4 **** **** 0

# MOE 2024.06 (io_trps.svl 2023.06)
