@<TRIPOS>MOLECULE
NONAME
52 54 1 0 0 
SMALL
USER_CHARGES


@<TRIPOS>ATOM
  1 O        0.1780    -0.7450    -1.5540 O.2   1 <1>  -0.5700 
  2 C       -0.6140     0.1090    -1.2260 C.2   1 <1>   0.5690 
  3 N       -1.8310    -0.2260    -0.6810 N.am  1 <1>  -0.6600 
  4 C       -0.2040     1.5750    -1.4600 C.3   1 <1>   0.1710 
  5 C       -2.2000    -1.6430    -0.3780 C.3   1 <1>   0.1400 
  6 C       -2.8720     0.7580    -0.2490 C.3   1 <1>   0.1400 
  7 N       -0.2560     2.4740    -0.2670 N.3   1 <1>  -0.8100 
  8 C       -3.6440    -1.9520    -0.8130 C.3   1 <1>   0.3430 
  9 C       -4.2860     0.3120    -0.6840 C.3   1 <1>   0.2950 
 10 C        0.0470     3.8650    -0.6610 C.3   1 <1>   0.1100 
 11 C        0.6640     1.9900     0.7760 C.3   1 <1>   0.0300 
 12 O       -4.5280    -1.0030    -0.2750 O.3   1 <1>  -0.5600 
 13 C       -4.0550    -3.3510    -0.3590 C.ar  1 <1>  -0.1440 
 14 C       -5.4310     1.1720    -0.1190 C.3   1 <1>  -0.1950 
 15 C       -0.4130     4.8630     0.4030 C.3   1 <1>   0.1200 
 16 C       -4.6280    -3.5690     0.8870 C.ar  1 <1>  -0.1500 
 17 C       -3.8420    -4.4340    -1.2000 C.ar  1 <1>  -0.1500 
 18 C       -5.2970     2.6350     0.1850 C.3   1 <1>  -0.2000 
 19 C       -5.4970     1.6460     1.3000 C.3   1 <1>  -0.2000 
 20 O       -0.2090     6.1520    -0.0870 O.3   1 <1>  -0.5600 
 21 C       -4.9810    -4.8470     1.2860 C.ar  1 <1>  -0.1500 
 22 C       -4.1940    -5.7130    -0.8030 C.ar  1 <1>  -0.1500 
 23 C       -0.6120     7.1550     0.7870 C.3   1 <1>   0.0400 
 24 C       -4.7640    -5.9200     0.4410 C.ar  1 <1>  -0.1500 
 25 H       -0.8550     1.9660    -2.2210 H     1 <1>   0.0800 
 26 H        0.7950     1.5800    -1.8600 H     1 <1>   0.0800 
 27 H       -1.5320    -2.3220    -0.8770 H     1 <1>   0.0800 
 28 H       -2.1090    -1.8130     0.6800 H     1 <1>   0.0800 
 29 H       -2.8320     0.8510     0.8210 H     1 <1>   0.0800 
 30 H       -2.6760     1.7250    -0.6720 H     1 <1>   0.0800 
 31 H       -3.7140    -1.8970    -1.8850 H     1 <1>   0.0800 
 32 H       -4.3420     0.3410    -1.7580 H     1 <1>   0.0800 
 33 H        1.1030     3.9790    -0.8370 H     1 <1>   0.0800 
 34 H       -0.4790     4.0980    -1.5710 H     1 <1>   0.0800 
 35 H        0.6010     2.6110     1.6520 H     1 <1>   0.0800 
 36 H        1.6790     1.9940     0.4150 H     1 <1>   0.0800 
 37 H        0.4030     0.9860     1.0650 H     1 <1>   0.0800 
 38 H       -6.3670     0.8700    -0.5580 H     1 <1>   0.1000 
 39 H        0.1570     4.7490     1.3070 H     1 <1>   0.0800 
 40 H       -1.4630     4.7320     0.6000 H     1 <1>   0.0800 
 41 H       -4.8040    -2.7390     1.5500 H     1 <1>   0.1500 
 42 H       -3.3980    -4.2900    -2.1700 H     1 <1>   0.1500 
 43 H       -4.3450     3.1310     0.1200 H     1 <1>   0.1000 
 44 H       -6.1130     3.2890    -0.0720 H     1 <1>   0.1000 
 45 H       -6.4490     1.6090     1.8020 H     1 <1>   0.1000 
 46 H       -4.6810     1.4360     1.9680 H     1 <1>   0.1000 
 47 H       -5.4260    -5.0030     2.2520 H     1 <1>   0.1500 
 48 H       -4.0250    -6.5470    -1.4610 H     1 <1>   0.1500 
 49 H       -0.4180     8.1040     0.3200 H     1 <1>   0.0800 
 50 H       -0.0490     7.0790     1.7010 H     1 <1>   0.0800 
 51 H       -1.6660     7.0560     0.9810 H     1 <1>   0.0800 
 52 H       -5.0380    -6.9130     0.7500 H     1 <1>   0.1500 
@<TRIPOS>BOND
  1   1   2  2   
  2   2   3  am  
  3   2   4  1   
  4   3   5  1   
  5   3   6  1   
  6   4   7  1   
  7   4  25  1   
  8   4  26  1   
  9   5   8  1   
 10   5  27  1   
 11   5  28  1   
 12   6   9  1   
 13   6  29  1   
 14   6  30  1   
 15   7  10  1   
 16   7  11  1   
 17   8  12  1   
 18   8  13  1   
 19   8  31  1   
 20   9  12  1   
 21   9  14  1   
 22   9  32  1   
 23  10  15  1   
 24  10  33  1   
 25  10  34  1   
 26  11  35  1   
 27  11  36  1   
 28  11  37  1   
 29  13  16  ar  
 30  13  17  ar  
 31  14  18  1   
 32  14  19  1   
 33  14  38  1   
 34  15  20  1   
 35  15  39  1   
 36  15  40  1   
 37  16  21  ar  
 38  16  41  1   
 39  17  22  ar  
 40  17  42  1   
 41  18  19  1   
 42  18  43  1   
 43  18  44  1   
 44  19  45  1   
 45  19  46  1   
 46  20  23  1   
 47  21  24  ar  
 48  21  47  1   
 49  22  24  ar  
 50  22  48  1   
 51  23  49  1   
 52  23  50  1   
 53  23  51  1   
 54  24  52  1   
@<TRIPOS>SUBSTRUCTURE
  1 ****   6 GROUP 4 **** **** 0

# MOE 2024.06 (io_trps.svl 2023.06)
