@<TRIPOS>MOLECULE
NONAME
48 50 1 0 0 
SMALL
USER_CHARGES


@<TRIPOS>ATOM
  1 F       -1.2050     3.2600     0.7550 F     1 <1>  -0.1900 
  2 C       -0.1060     3.9040     0.4680 C.ar  1 <1>   0.1900 
  3 C        0.6100     4.4940     1.4900 C.ar  1 <1>  -0.1500 
  4 C        0.3040     3.9760    -0.8480 C.ar  1 <1>  -0.1500 
  5 C        1.7730     5.1750     1.1760 C.ar  1 <1>  -0.1500 
  6 C        1.4700     4.6610    -1.1430 C.ar  1 <1>  -0.1500 
  7 C        2.2330     5.2770    -0.1420 C.ar  1 <1>   0.0540 
  8 C        3.4580     5.9980    -0.4520 C.2   1 <1>   0.4620 
  9 N        3.9150     6.1490    -1.7030 N.2   1 <1>  -0.2270 
 10 N        4.2240     6.5610     0.4260 N.2   1 <1>  -0.7070 
 11 N        4.9910     6.8210    -1.6230 N.2   1 <1>  -0.4180 
 12 N        5.1670     7.0610    -0.3380 N.pl3 1 <1>   0.5800 
 13 C        6.3060     7.8350     0.1880 C.3   1 <1>   0.0960 
 14 C        5.9390     9.3190     0.3340 C.3   1 <1>  -0.1600 
 15 C        7.1400    10.1520     0.8120 C.3   1 <1>  -0.0990 
 16 C        6.7730    11.6080     1.0150 C.2   1 <1>   0.5690 
 17 O        6.7190    12.0330     2.1410 O.2   1 <1>  -0.5700 
 18 N        6.5300    12.3590    -0.0880 N.am  1 <1>  -0.7300 
 19 C        6.3080    13.8240    -0.1760 C.3   1 <1>   0.3640 
 20 C        7.6370    14.5830    -0.0890 C.ar  1 <1>   0.1670 
 21 C        5.2350    14.3090     0.8050 C.3   1 <1>  -0.2400 
 22 N        8.1090    15.0650    -1.2330 N.ar  1 <1>  -0.6200 
 23 C        8.2910    14.7300     1.1280 C.ar  1 <1>  -0.1500 
 24 C        9.2580    15.7180    -1.1560 C.ar  1 <1>   0.1600 
 25 C        9.4870    15.4120     1.1890 C.ar  1 <1>  -0.1500 
 26 C        9.9820    15.9210     0.0090 C.ar  1 <1>  -0.1430 
 27 C       11.2960    16.6840     0.0040 C.3   1 <1>  -0.0970 
 28 H        0.2630     4.4190     2.5050 H     1 <1>   0.1500 
 29 H       -0.2780     3.5050    -1.6190 H     1 <1>   0.1500 
 30 H        2.3390     5.6390     1.9670 H     1 <1>   0.1500 
 31 H        1.7930     4.7180    -2.1680 H     1 <1>   0.1500 
 32 H        7.1310     7.7170    -0.4910 H     1 <1>   0.0800 
 33 H        6.5800     7.4220     1.1410 H     1 <1>   0.0800 
 34 H        5.1380     9.4180     1.0490 H     1 <1>   0.0800 
 35 H        5.5960     9.6970    -0.6140 H     1 <1>   0.0800 
 36 H        7.9430    10.0960     0.0990 H     1 <1>   0.0800 
 37 H        7.5020     9.7630     1.7480 H     1 <1>   0.0800 
 38 H        6.7300    11.9510    -0.9990 H     1 <1>   0.3700 
 39 H        5.9130    14.0130    -1.1600 H     1 <1>   0.0800 
 40 H        5.5590    14.2260     1.8240 H     1 <1>   0.0800 
 41 H        4.3320    13.7410     0.6730 H     1 <1>   0.0800 
 42 H        5.0190    15.3430     0.6090 H     1 <1>   0.0800 
 43 H        7.8730    14.3090     2.0240 H     1 <1>   0.1500 
 44 H        9.6440    16.1140    -2.0790 H     1 <1>   0.1500 
 45 H       10.0070    15.5360     2.1230 H     1 <1>   0.1500 
 46 H       11.5440    17.0190    -0.9870 H     1 <1>   0.0800 
 47 H       12.0880    16.0500     0.3610 H     1 <1>   0.0800 
 48 H       11.2220    17.5430     0.6470 H     1 <1>   0.0800 
@<TRIPOS>BOND
  1   1   2  1   
  2   2   3  ar  
  3   2   4  ar  
  4   3   5  ar  
  5   3  28  1   
  6   4   6  ar  
  7   4  29  1   
  8   5   7  ar  
  9   5  30  1   
 10   6   7  ar  
 11   6  31  1   
 12   7   8  1   
 13   8   9  1   
 14   8  10  2   
 15   9  11  2   
 16  10  12  1   
 17  11  12  1   
 18  12  13  1   
 19  13  14  1   
 20  13  32  1   
 21  13  33  1   
 22  14  15  1   
 23  14  34  1   
 24  14  35  1   
 25  15  16  1   
 26  15  36  1   
 27  15  37  1   
 28  16  17  2   
 29  16  18  am  
 30  18  19  1   
 31  18  38  1   
 32  19  20  1   
 33  19  21  1   
 34  19  39  1   
 35  20  22  ar  
 36  20  23  ar  
 37  21  40  1   
 38  21  41  1   
 39  21  42  1   
 40  22  24  ar  
 41  23  25  ar  
 42  23  43  1   
 43  24  26  ar  
 44  24  44  1   
 45  25  26  ar  
 46  25  45  1   
 47  26  27  1   
 48  27  46  1   
 49  27  47  1   
 50  27  48  1   
@<TRIPOS>SUBSTRUCTURE
  1 ****  14 GROUP 4 **** **** 0

# MOE 2024.06 (io_trps.svl 2023.06)
