@<TRIPOS>MOLECULE
NONAME
46 48 1 0 0 
SMALL
USER_CHARGES


@<TRIPOS>ATOM
  1 O       -1.8780     0.6390    -1.6700 O.2   1 <1>  -0.5700 
  2 C       -1.7010     0.6840    -0.4750 C.2   1 <1>   0.5770 
  3 N       -1.8290    -0.4370     0.2810 N.am  1 <1>  -0.7300 
  4 C       -1.3320     2.0270     0.1640 C.3   1 <1>   0.0530 
  5 C       -2.2640    -1.7540    -0.2300 C.3   1 <1>   0.2200 
  6 C       -2.5770     2.9560     0.2960 C.3   1 <1>   0.0000 
  7 C       -1.2570     2.0490     1.7270 C.3   1 <1>   0.0000 
  8 C       -0.1330     2.6530    -0.5710 C.3   1 <1>   0.1200 
  9 C       -3.7590    -1.9000    -0.0020 C.3   1 <1>  -0.0800 
 10 C       -1.7050    -2.8590     0.6590 C.3   1 <1>   0.1200 
 11 C       -2.7720     2.3850     1.7260 C.3   1 <1>   0.0000 
 12 O        0.2370     3.8700     0.0030 O.3   1 <1>  -0.5600 
 13 C       -3.8190    -2.3890     1.4500 C.3   1 <1>   0.1200 
 14 C       -4.3860    -2.9040    -0.9870 C.3   1 <1>  -0.0160 
 15 O       -2.5730    -2.9520     1.7490 O.3   1 <1>  -0.5600 
 16 C        1.2820     4.5090    -0.6540 C.3   1 <1>   0.0400 
 17 C       -5.8890    -3.0140    -0.7830 C.ar  1 <1>  -0.1440 
 18 C       -6.4710    -4.1090    -0.1760 C.ar  1 <1>  -0.1500 
 19 C       -6.7500    -2.0190    -1.1990 C.ar  1 <1>  -0.1500 
 20 C       -7.8460    -4.1510    -0.0140 C.ar  1 <1>   0.1600 
 21 C       -8.1110    -2.1600    -0.9900 C.ar  1 <1>   0.1600 
 22 N       -8.6800    -3.2020    -0.4050 N.ar  1 <1>  -0.6200 
 23 H       -1.7340    -0.3900     1.2980 H     1 <1>   0.3700 
 24 H       -1.9750    -1.8690    -1.2620 H     1 <1>   0.0800 
 25 H       -2.3390     4.0060     0.3120 H     1 <1>   0.0000 
 26 H       -3.3840     2.7180    -0.3750 H     1 <1>   0.0000 
 27 H       -1.0170     1.1140     2.1980 H     1 <1>   0.0000 
 28 H       -0.6780     2.8640     2.1270 H     1 <1>   0.0000 
 29 H       -0.3920     2.8270    -1.6020 H     1 <1>   0.0800 
 30 H        0.7110     1.9870    -0.5240 H     1 <1>   0.0800 
 31 H       -4.2610    -0.9540    -0.1100 H     1 <1>   0.0800 
 32 H       -0.7090    -2.6500     1.0050 H     1 <1>   0.0800 
 33 H       -1.7220    -3.8040     0.1470 H     1 <1>   0.0800 
 34 H       -3.3960     1.5070     1.7440 H     1 <1>   0.0000 
 35 H       -3.0530     3.1250     2.4540 H     1 <1>   0.0000 
 36 H       -4.5850    -3.1260     1.6160 H     1 <1>   0.0800 
 37 H       -3.9700    -1.5620     2.1220 H     1 <1>   0.0800 
 38 H       -3.9330    -3.8740    -0.8720 H     1 <1>   0.0800 
 39 H       -4.2000    -2.5760    -1.9950 H     1 <1>   0.0800 
 40 H        1.4910     5.4280    -0.1350 H     1 <1>   0.0800 
 41 H        0.9860     4.7240    -1.6670 H     1 <1>   0.0800 
 42 H        2.1520     3.8760    -0.6380 H     1 <1>   0.0800 
 43 H       -5.8710    -4.9280     0.1750 H     1 <1>   0.1500 
 44 H       -6.3740    -1.1360    -1.6850 H     1 <1>   0.1500 
 45 H       -8.2820    -5.0120     0.4630 H     1 <1>   0.1500 
 46 H       -8.7670    -1.3730    -1.3210 H     1 <1>   0.1500 
@<TRIPOS>BOND
  1   1   2  2   
  2   2   3  am  
  3   2   4  1   
  4   3   5  1   
  5   3  23  1   
  6   4   6  1   
  7   4   7  1   
  8   4   8  1   
  9   5   9  1   
 10   5  10  1   
 11   5  24  1   
 12   6  11  1   
 13   6  25  1   
 14   6  26  1   
 15   7  11  1   
 16   7  27  1   
 17   7  28  1   
 18   8  12  1   
 19   8  29  1   
 20   8  30  1   
 21   9  13  1   
 22   9  14  1   
 23   9  31  1   
 24  10  15  1   
 25  10  32  1   
 26  10  33  1   
 27  11  34  1   
 28  11  35  1   
 29  12  16  1   
 30  13  15  1   
 31  13  36  1   
 32  13  37  1   
 33  14  17  1   
 34  14  38  1   
 35  14  39  1   
 36  16  40  1   
 37  16  41  1   
 38  16  42  1   
 39  17  18  ar  
 40  17  19  ar  
 41  18  20  ar  
 42  18  43  1   
 43  19  21  ar  
 44  19  44  1   
 45  20  22  ar  
 46  20  45  1   
 47  21  22  ar  
 48  21  46  1   
@<TRIPOS>SUBSTRUCTURE
  1 ****   9 GROUP 4 **** **** 0

# MOE 2024.06 (io_trps.svl 2023.06)
