@<TRIPOS>MOLECULE
NONAME
50 54 1 0 0 
SMALL
USER_CHARGES


@<TRIPOS>ATOM
  1 O        5.4340    -0.7250    -3.5910 O.2   1 <1>  -0.5700 
  2 C        5.1510    -0.9470    -2.4180 C.2   1 <1>   0.6160 
  3 N        4.5360     0.0240    -1.6420 N.am  1 <1>  -0.4690 
  4 C        5.4250    -2.2120    -1.8320 C.2   1 <1>  -0.1360 
  5 C        4.1960    -0.2500    -0.3190 C.2   1 <1>  -0.0290 
  6 C        4.1870     1.3150    -2.3210 C.3   1 <1>   0.1400 
  7 C        5.0850    -2.4830    -0.5460 C.2   1 <1>  -0.1500 
  8 C        4.4530    -1.4750     0.2190 C.2   1 <1>  -0.1500 
  9 C        3.5470     0.8450     0.5260 C.3   1 <1>   0.0580 
 10 C        3.5520     2.3870    -1.4110 C.3   1 <1>  -0.0800 
 11 C        4.6330     1.6900     1.2210 C.3   1 <1>   0.2090 
 12 C        2.6560     1.7340    -0.3510 C.3   1 <1>  -0.1600 
 13 C        4.6220     3.2750    -0.7480 C.3   1 <1>   0.2090 
 14 N        5.4170     2.5040     0.2440 N.pl3 1 <1>  -0.8380 
 15 C        6.7840     2.3570     0.0660 C.ar  1 <1>   0.4100 
 16 N        7.4480     3.4800    -0.1420 N.ar  1 <1>  -0.6200 
 17 C        7.4210     1.1060     0.1070 C.ar  1 <1>   0.1600 
 18 C        8.7740     3.3220    -0.2840 C.ar  1 <1>   0.3960 
 19 N        8.7170     0.9090    -0.0260 N.ar  1 <1>  -0.6200 
 20 C        9.6590     4.4700    -0.5060 C.2   1 <1>   0.5440 
 21 C        9.3590     2.0520    -0.2250 C.ar  1 <1>   0.1600 
 22 O       10.7150     4.2990    -1.0960 O.2   1 <1>  -0.5700 
 23 N        9.3940     5.7560    -0.0660 N.am  1 <1>  -0.6600 
 24 C       10.2960     6.8970    -0.3350 C.3   1 <1>   0.1400 
 25 C        8.2510     6.1730     0.7780 C.3   1 <1>   0.1400 
 26 C        9.5490     8.1200     0.1860 C.3   1 <1>  -0.1600 
 27 C        8.6160     7.5720     1.2620 C.3   1 <1>  -0.1600 
 28 H        5.9100    -2.9320    -2.4630 H     1 <1>   0.1500 
 29 H        5.0730     1.7140    -2.7860 H     1 <1>   0.0800 
 30 H        3.4910     1.0820    -3.1080 H     1 <1>   0.0800 
 31 H        5.2820    -3.4390    -0.0920 H     1 <1>   0.1500 
 32 H        4.1940    -1.7120     1.2360 H     1 <1>   0.1500 
 33 H        2.9410     0.3860     1.2850 H     1 <1>   0.0800 
 34 H        2.9520     3.0270    -2.0330 H     1 <1>   0.0800 
 35 H        5.2900     1.0500     1.7840 H     1 <1>   0.0800 
 36 H        4.1630     2.3630     1.9170 H     1 <1>   0.0800 
 37 H        1.8950     1.1370    -0.8230 H     1 <1>   0.0800 
 38 H        2.1760     2.4870     0.2490 H     1 <1>   0.0800 
 39 H        4.1490     4.0990    -0.2420 H     1 <1>   0.0800 
 40 H        5.2700     3.6860    -1.5040 H     1 <1>   0.0800 
 41 H        6.8070     0.2380     0.2500 H     1 <1>   0.1500 
 42 H       10.4260     1.9830    -0.3520 H     1 <1>   0.1500 
 43 H       11.2140     6.7510     0.2080 H     1 <1>   0.0800 
 44 H       10.5080     6.9760    -1.3880 H     1 <1>   0.0800 
 45 H        7.3610     6.2050     0.1730 H     1 <1>   0.0800 
 46 H        8.1060     5.4940     1.6010 H     1 <1>   0.0800 
 47 H       10.2230     8.8660     0.5670 H     1 <1>   0.0800 
 48 H        8.9730     8.5430    -0.6170 H     1 <1>   0.0800 
 49 H        7.7440     8.1860     1.4020 H     1 <1>   0.0800 
 50 H        9.1420     7.4910     2.1970 H     1 <1>   0.0800 
@<TRIPOS>BOND
  1   1   2  2   
  2   2   3  am  
  3   2   4  1   
  4   3   5  1   
  5   3   6  1   
  6   4   7  2   
  7   4  28  1   
  8   5   8  2   
  9   5   9  1   
 10   6  10  1   
 11   6  29  1   
 12   6  30  1   
 13   7   8  1   
 14   7  31  1   
 15   8  32  1   
 16   9  11  1   
 17   9  12  1   
 18   9  33  1   
 19  10  12  1   
 20  10  13  1   
 21  10  34  1   
 22  11  14  1   
 23  11  35  1   
 24  11  36  1   
 25  12  37  1   
 26  12  38  1   
 27  13  14  1   
 28  13  39  1   
 29  13  40  1   
 30  14  15  1   
 31  15  16  ar  
 32  15  17  ar  
 33  16  18  ar  
 34  17  19  ar  
 35  17  41  1   
 36  18  20  1   
 37  18  21  ar  
 38  19  21  ar  
 39  20  22  2   
 40  20  23  am  
 41  21  42  1   
 42  23  24  1   
 43  23  25  1   
 44  24  26  1   
 45  24  43  1   
 46  24  44  1   
 47  25  27  1   
 48  25  45  1   
 49  25  46  1   
 50  26  27  1   
 51  26  47  1   
 52  26  48  1   
 53  27  49  1   
 54  27  50  1   
@<TRIPOS>SUBSTRUCTURE
  1 ****  15 GROUP 4 **** **** 0

# MOE 2024.06 (io_trps.svl 2023.06)
