@<TRIPOS>MOLECULE
NONAME
49 52 1 0 0 
SMALL
USER_CHARGES


@<TRIPOS>ATOM
  1 CL      -0.8140     1.6130    -1.5070 Cl    1 <1>  -0.1770 
  2 C       -2.5160     1.4230    -1.1290 C.ar  1 <1>   0.1770 
  3 C       -3.3190     2.5080    -0.7960 C.ar  1 <1>   0.1660 
  4 C       -3.0480     0.1530    -1.1650 C.ar  1 <1>  -0.1500 
  5 N       -4.6030     2.3980    -0.4900 N.ar  1 <1>  -0.6200 
  6 C       -2.7680     3.9220    -0.7530 C.3   1 <1>  -0.0960 
  7 C       -4.3830     0.0430    -0.8520 C.ar  1 <1>  -0.1500 
  8 C       -5.1260     1.1750    -0.5130 C.ar  1 <1>   0.4100 
  9 N       -6.4680     1.0610    -0.1850 N.pl3 1 <1>  -0.8380 
 10 C       -7.4520     2.1390    -0.5320 C.3   1 <1>   0.2090 
 11 C       -6.9990    -0.0450     0.6560 C.3   1 <1>   0.2090 
 12 C       -8.1340     2.7200     0.7230 C.3   1 <1>   0.1430 
 13 C       -7.6810     0.5170     1.9090 C.3   1 <1>  -0.1600 
 14 C       -9.1720     3.7300     0.2690 C.ar  1 <1>   0.1670 
 15 C       -8.7420     1.5770     1.5650 C.3   1 <1>  -0.1600 
 16 C       -7.1670     3.6010     1.5570 C.3   1 <1>  -0.1600 
 17 N      -10.3350     3.4420    -0.2620 N.ar  1 <1>  -0.6200 
 18 C       -8.7410     5.0070     0.4640 C.ar  1 <1>  -0.1430 
 19 C       -7.3620     5.0470     1.0730 C.3   1 <1>  -0.0170 
 20 C      -11.0860     4.4950    -0.5920 C.ar  1 <1>   0.7200 
 21 C       -9.5800     6.0260     0.0920 C.ar  1 <1>   0.1600 
 22 N      -10.7560     5.7820    -0.4360 N.ar  1 <1>  -0.6200 
 23 N      -12.3220     4.2290    -1.1500 N.pl3 1 <1>  -0.8380 
 24 C      -12.6860     2.8770    -1.6550 C.3   1 <1>   0.1290 
 25 C      -13.3710     5.2770    -1.2860 C.3   1 <1>   0.1290 
 26 H       -2.4440    -0.6960    -1.4280 H     1 <1>   0.1500 
 27 H       -1.9280     4.0390    -1.4110 H     1 <1>   0.0800 
 28 H       -2.4670     4.1580     0.2500 H     1 <1>   0.0800 
 29 H       -3.5300     4.6170    -1.0570 H     1 <1>   0.0800 
 30 H       -4.8650    -0.9140    -0.8760 H     1 <1>   0.1500 
 31 H       -8.2060     1.7170    -1.1730 H     1 <1>   0.0800 
 32 H       -6.9720     2.9290    -1.0830 H     1 <1>   0.0800 
 33 H       -6.2030    -0.7040     0.9560 H     1 <1>   0.0800 
 34 H       -7.7090    -0.6110     0.0770 H     1 <1>   0.0800 
 35 H       -6.9270     0.9450     2.5460 H     1 <1>   0.0800 
 36 H       -8.1420    -0.2890     2.4490 H     1 <1>   0.0800 
 37 H       -9.5300     1.1110     0.9990 H     1 <1>   0.0800 
 38 H       -9.1810     1.9730     2.4630 H     1 <1>   0.0800 
 39 H       -6.1440     3.2840     1.4750 H     1 <1>   0.0800 
 40 H       -7.4490     3.5570     2.5940 H     1 <1>   0.0800 
 41 H       -6.6360     5.2900     0.3160 H     1 <1>   0.0800 
 42 H       -7.2980     5.7500     1.8860 H     1 <1>   0.0800 
 43 H       -9.2830     7.0520     0.2270 H     1 <1>   0.1500 
 44 H      -11.8100     2.3580    -2.0060 H     1 <1>   0.0800 
 45 H      -13.3800     2.9600    -2.4720 H     1 <1>   0.0800 
 46 H      -13.1340     2.3060    -0.8610 H     1 <1>   0.0800 
 47 H      -13.2670     6.0170    -0.5100 H     1 <1>   0.0800 
 48 H      -14.3480     4.8370    -1.2030 H     1 <1>   0.0800 
 49 H      -13.2750     5.7590    -2.2430 H     1 <1>   0.0800 
@<TRIPOS>BOND
  1   1   2  1   
  2   2   3  ar  
  3   2   4  ar  
  4   3   5  ar  
  5   3   6  1   
  6   4   7  ar  
  7   4  26  1   
  8   5   8  ar  
  9   6  27  1   
 10   6  28  1   
 11   6  29  1   
 12   7   8  ar  
 13   7  30  1   
 14   8   9  1   
 15   9  10  1   
 16   9  11  1   
 17  10  12  1   
 18  10  31  1   
 19  10  32  1   
 20  11  13  1   
 21  11  33  1   
 22  11  34  1   
 23  12  14  1   
 24  12  15  1   
 25  12  16  1   
 26  13  15  1   
 27  13  35  1   
 28  13  36  1   
 29  14  17  ar  
 30  14  18  ar  
 31  15  37  1   
 32  15  38  1   
 33  16  19  1   
 34  16  39  1   
 35  16  40  1   
 36  17  20  ar  
 37  18  19  1   
 38  18  21  ar  
 39  19  41  1   
 40  19  42  1   
 41  20  22  ar  
 42  20  23  1   
 43  21  22  ar  
 44  21  43  1   
 45  23  24  1   
 46  23  25  1   
 47  24  44  1   
 48  24  45  1   
 49  24  46  1   
 50  25  47  1   
 51  25  48  1   
 52  25  49  1   
@<TRIPOS>SUBSTRUCTURE
  1 ****  10 GROUP 4 **** **** 0

# MOE 2024.06 (io_trps.svl 2023.06)
