@<TRIPOS>MOLECULE
NONAME
56 58 1 0 0 
SMALL
USER_CHARGES


@<TRIPOS>ATOM
  1 O        0.3040    -0.0470    -0.0180 O.3   1 <1>  -0.3630 
  2 C        0.0350    -1.3050    -0.4420 C.ar  1 <1>   0.0820 
  3 C        1.4950     0.2610     0.6760 C.3   1 <1>   0.1200 
  4 C       -1.1250    -1.4780    -1.1780 C.ar  1 <1>  -0.1500 
  5 C        0.8500    -2.4030    -0.1840 C.ar  1 <1>  -0.1500 
  6 C        1.5250     1.7650     0.9390 C.3   1 <1>   0.1200 
  7 C       -1.4800    -2.7280    -1.6490 C.ar  1 <1>  -0.1500 
  8 C        0.4960    -3.6550    -0.6550 C.ar  1 <1>  -0.1500 
  9 O        2.6460     2.0760     1.6970 O.3   1 <1>  -0.6800 
 10 C       -0.6750    -3.8270    -1.3820 C.ar  1 <1>  -0.1430 
 11 C       -1.0760    -5.2030    -1.8720 C.3   1 <1>   0.4860 
 12 N       -1.6090    -5.9680    -0.7060 N.4   1 <1>  -0.9590 
 13 C       -1.7310    -7.4390    -1.0220 C.3   1 <1>   0.3430 
 14 C       -2.9080    -5.3770    -0.2600 C.3   1 <1>   0.3430 
 15 C       -2.3520    -8.2840     0.1380 C.3   1 <1>   0.4230 
 16 C       -3.4420    -6.1500     0.9510 C.3   1 <1>  -0.1600 
 17 N       -2.4520    -9.7880    -0.1220 N.4   1 <1>  -0.9590 
 18 C       -3.6700    -7.6630     0.6880 C.3   1 <1>   0.0000 
 19 C       -3.3550   -10.5110     0.8410 C.3   1 <1>   0.3430 
 20 C       -2.8410   -10.1670    -1.5230 C.3   1 <1>   0.2630 
 21 C       -4.0050    -8.3450     2.0450 C.3   1 <1>  -0.1600 
 22 C       -4.8920    -7.8420    -0.2600 C.3   1 <1>   0.1200 
 23 C       -3.4410    -9.7760     2.1790 C.3   1 <1>  -0.1600 
 24 O       -4.5880    -7.4830    -1.5660 O.3   1 <1>  -0.6800 
 25 H        1.4930    -0.2860     1.6020 H     1 <1>   0.0800 
 26 H        2.3300    -0.0240     0.0610 H     1 <1>   0.0800 
 27 H       -1.7430    -0.6200    -1.3800 H     1 <1>   0.1500 
 28 H        1.7610    -2.2970     0.3760 H     1 <1>   0.1500 
 29 H        0.6510     2.0830     1.4800 H     1 <1>   0.0800 
 30 H        1.5960     2.3040     0.0090 H     1 <1>   0.0800 
 31 H       -2.3850    -2.8240    -2.2250 H     1 <1>   0.1500 
 32 H        1.1520    -4.4830    -0.4490 H     1 <1>   0.1500 
 33 H        2.5330     1.7900     2.6240 H     1 <1>   0.4000 
 34 H       -0.2090    -5.6950    -2.2820 H     1 <1>   0.0800 
 35 H       -1.8220    -5.1210    -2.6460 H     1 <1>   0.0800 
 36 H       -0.9310    -5.8030     0.0510 H     1 <1>   0.4500 
 37 H       -2.3480    -7.5500    -1.8970 H     1 <1>   0.0800 
 38 H       -0.7550    -7.8310    -1.2510 H     1 <1>   0.0800 
 39 H       -2.7680    -4.3420     0.0130 H     1 <1>   0.0800 
 40 H       -3.6270    -5.4130    -1.0630 H     1 <1>   0.0800 
 41 H       -1.6500    -8.1810     0.9500 H     1 <1>   0.0800 
 42 H       -2.7480    -6.0060     1.7610 H     1 <1>   0.0800 
 43 H       -4.3680    -5.6940     1.2590 H     1 <1>   0.0800 
 44 H       -1.5140   -10.1840     0.0460 H     1 <1>   0.4500 
 45 H       -4.3480   -10.5830     0.4270 H     1 <1>   0.0800 
 46 H       -2.9940   -11.5150     0.9990 H     1 <1>   0.0800 
 47 H       -3.8170    -9.7790    -1.7650 H     1 <1>   0.0800 
 48 H       -2.8690   -11.2410    -1.6250 H     1 <1>   0.0800 
 49 H       -2.1310    -9.7830    -2.2370 H     1 <1>   0.0800 
 50 H       -3.6160    -7.7740     2.8720 H     1 <1>   0.0800 
 51 H       -5.0740    -8.3720     2.1850 H     1 <1>   0.0800 
 52 H       -5.7150    -7.2270     0.0700 H     1 <1>   0.0800 
 53 H       -5.2340    -8.8620    -0.2760 H     1 <1>   0.0800 
 54 H       -4.0700   -10.3390     2.8490 H     1 <1>   0.0800 
 55 H       -2.4620    -9.7490     2.6260 H     1 <1>   0.0800 
 56 H       -5.4110    -7.4500    -2.1080 H     1 <1>   0.4000 
@<TRIPOS>BOND
  1   1   2  1   
  2   1   3  1   
  3   2   4  ar  
  4   2   5  ar  
  5   3   6  1   
  6   3  25  1   
  7   3  26  1   
  8   4   7  ar  
  9   4  27  1   
 10   5   8  ar  
 11   5  28  1   
 12   6   9  1   
 13   6  29  1   
 14   6  30  1   
 15   7  10  ar  
 16   7  31  1   
 17   8  10  ar  
 18   8  32  1   
 19   9  33  1   
 20  10  11  1   
 21  11  12  1   
 22  11  34  1   
 23  11  35  1   
 24  12  13  1   
 25  12  14  1   
 26  12  36  1   
 27  13  15  1   
 28  13  37  1   
 29  13  38  1   
 30  14  16  1   
 31  14  39  1   
 32  14  40  1   
 33  15  17  1   
 34  15  18  1   
 35  15  41  1   
 36  16  18  1   
 37  16  42  1   
 38  16  43  1   
 39  17  19  1   
 40  17  20  1   
 41  17  44  1   
 42  18  21  1   
 43  18  22  1   
 44  19  23  1   
 45  19  45  1   
 46  19  46  1   
 47  20  47  1   
 48  20  48  1   
 49  20  49  1   
 50  21  23  1   
 51  21  50  1   
 52  21  51  1   
 53  22  24  1   
 54  22  52  1   
 55  22  53  1   
 56  23  54  1   
 57  23  55  1   
 58  24  56  1   
@<TRIPOS>SUBSTRUCTURE
  1 ****  12 GROUP 4 **** **** 0

# MOE 2024.06 (io_trps.svl 2023.06)
