@<TRIPOS>MOLECULE
NONAME
46 48 1 0 0 
SMALL
USER_CHARGES


@<TRIPOS>ATOM
  1 O        3.0520    -1.2820     1.5950 O.2   1 <1>  -0.5700 
  2 C        2.2600    -2.0260     1.0390 C.2   1 <1>   0.5440 
  3 N        1.5790    -1.5180    -0.0530 N.am  1 <1>  -0.6600 
  4 C        2.0590    -3.3740     1.5740 C.ar  1 <1>   0.3960 
  5 C        0.4680    -2.1780    -0.7800 C.3   1 <1>   0.1400 
  6 C        1.8440    -0.1730    -0.6070 C.3   1 <1>   0.1400 
  7 N        1.7280    -4.3980     0.7690 N.ar  1 <1>  -0.6200 
  8 C        2.2180    -3.5610     2.9530 C.ar  1 <1>   0.1600 
  9 C       -0.1320    -1.0830    -1.6540 C.3   1 <1>  -0.1600 
 10 C        1.0150    -0.1040    -1.8850 C.3   1 <1>  -0.1600 
 11 C        1.5500    -5.5360     1.4010 C.ar  1 <1>   0.4100 
 12 N        2.0520    -4.7060     3.6050 N.ar  1 <1>  -0.6200 
 13 N        1.1660    -6.5550     0.5720 N.pl3 1 <1>  -0.8690 
 14 C        1.7210    -5.6820     2.7850 C.ar  1 <1>   0.1600 
 15 C       -0.0880    -7.3080     0.8040 C.3   1 <1>   0.2090 
 16 C       -1.1540    -6.9210    -0.2340 C.3   1 <1>  -0.0800 
 17 C       -1.5990    -5.4560    -0.0500 C.3   1 <1>   0.1200 
 18 C       -2.3400    -7.9050    -0.1310 C.3   1 <1>   0.0200 
 19 O       -2.1770    -4.9890    -1.2170 O.3   1 <1>  -0.6800 
 20 C       -3.4560    -7.6000    -1.1120 C.2   1 <1>  -0.0400 
 21 O       -3.1770    -7.5600    -2.3990 O.3   1 <1>  -0.2800 
 22 C       -4.7620    -7.3300    -0.9020 C.2   1 <1>  -0.1500 
 23 C       -4.2900    -7.2660    -3.0400 C.2   1 <1>  -0.0100 
 24 C       -5.3110    -7.1100    -2.1720 C.2   1 <1>  -0.1500 
 25 H       -0.2630    -2.5780    -0.0990 H     1 <1>   0.0800 
 26 H        0.8650    -2.9690    -1.3930 H     1 <1>   0.0800 
 27 H        2.8950    -0.0410    -0.8050 H     1 <1>   0.0800 
 28 H        1.5150     0.5680     0.1010 H     1 <1>   0.0800 
 29 H        2.4960    -2.7060     3.5460 H     1 <1>   0.1500 
 30 H       -0.9250    -0.5990    -1.1110 H     1 <1>   0.0800 
 31 H       -0.5290    -1.4810    -2.5720 H     1 <1>   0.0800 
 32 H        1.6190    -0.4380    -2.7100 H     1 <1>   0.0800 
 33 H        0.6700     0.8950    -2.0840 H     1 <1>   0.0800 
 34 H        1.2680    -6.2660    -0.4070 H     1 <1>   0.4000 
 35 H        1.5740    -6.6590     3.2050 H     1 <1>   0.1500 
 36 H       -0.4570    -7.1210     1.7990 H     1 <1>   0.0800 
 37 H        0.1340    -8.3590     0.7220 H     1 <1>   0.0800 
 38 H       -0.7090    -7.0280    -1.2080 H     1 <1>   0.0800 
 39 H       -0.7670    -4.8110     0.1600 H     1 <1>   0.0800 
 40 H       -2.3170    -5.3630     0.7470 H     1 <1>   0.0800 
 41 H       -2.7440    -7.8850     0.8660 H     1 <1>   0.0800 
 42 H       -1.9930    -8.9050    -0.3260 H     1 <1>   0.0800 
 43 H       -2.7720    -5.6790    -1.5940 H     1 <1>   0.4000 
 44 H       -5.3050    -7.2800     0.0250 H     1 <1>   0.1500 
 45 H       -4.2670    -7.1880    -4.1130 H     1 <1>   0.1500 
 46 H       -6.3400    -6.8690    -2.3760 H     1 <1>   0.1500 
@<TRIPOS>BOND
  1   1   2  2   
  2   2   3  am  
  3   2   4  1   
  4   3   5  1   
  5   3   6  1   
  6   4   7  ar  
  7   4   8  ar  
  8   5   9  1   
  9   5  25  1   
 10   5  26  1   
 11   6  10  1   
 12   6  27  1   
 13   6  28  1   
 14   7  11  ar  
 15   8  12  ar  
 16   8  29  1   
 17   9  10  1   
 18   9  30  1   
 19   9  31  1   
 20  10  32  1   
 21  10  33  1   
 22  11  13  1   
 23  11  14  ar  
 24  12  14  ar  
 25  13  15  1   
 26  13  34  1   
 27  14  35  1   
 28  15  16  1   
 29  15  36  1   
 30  15  37  1   
 31  16  17  1   
 32  16  18  1   
 33  16  38  1   
 34  17  19  1   
 35  17  39  1   
 36  17  40  1   
 37  18  20  1   
 38  18  41  1   
 39  18  42  1   
 40  19  43  1   
 41  20  21  1   
 42  20  22  2   
 43  21  23  1   
 44  22  24  1   
 45  22  44  1   
 46  23  24  2   
 47  23  45  1   
 48  24  46  1   
@<TRIPOS>SUBSTRUCTURE
  1 ****  17 GROUP 4 **** **** 0

# MOE 2024.06 (io_trps.svl 2023.06)
