@<TRIPOS>MOLECULE
NONAME
51 53 1 0 0 
SMALL
USER_CHARGES


@<TRIPOS>ATOM
  1 O       -0.1780    -1.0200     2.1230 O.2   1 <1>  -0.5700 
  2 C       -0.1240    -2.1300     1.6310 C.2   1 <1>   0.5440 
  3 N       -1.1740    -2.9330     1.9160 N.am  1 <1>  -0.8000 
  4 C        1.0050    -2.5360     0.8140 C.ar  1 <1>   0.0860 
  5 C        0.9930    -3.6520    -0.0510 C.ar  1 <1>   0.4100 
  6 C        2.1870    -1.8080     0.8730 C.ar  1 <1>  -0.1500 
  7 N        2.0390    -4.0470    -0.7720 N.ar  1 <1>  -0.6200 
  8 N       -0.1270    -4.4340    -0.2400 N.pl3 1 <1>  -0.8380 
  9 C        3.2700    -2.2040     0.1190 C.ar  1 <1>  -0.1430 
 10 C        3.1400    -3.3320    -0.6840 C.ar  1 <1>   0.1670 
 11 C       -0.0200    -5.8920    -0.0110 C.3   1 <1>   0.2090 
 12 C       -1.1200    -3.9880    -1.2530 C.3   1 <1>   0.2090 
 13 C        4.5620    -1.4010     0.1960 C.3   1 <1>  -0.0970 
 14 C        4.2980    -3.8220    -1.5340 C.3   1 <1>  -0.0970 
 15 C       -1.3630    -6.4370     0.4970 C.3   1 <1>  -0.0800 
 16 C       -2.1670    -5.0750    -1.5300 C.3   1 <1>  -0.1600 
 17 C       -2.5810    -5.8320    -0.2570 C.3   1 <1>   0.2800 
 18 C       -1.3270    -7.9710     0.4360 C.3   1 <1>   0.1400 
 19 O       -3.1710    -4.9060     0.5870 O.3   1 <1>  -0.6800 
 20 C       -3.6600    -6.8790    -0.5720 C.3   1 <1>  -0.1600 
 21 N       -2.6080    -8.5680     0.9230 N.am  1 <1>  -0.6600 
 22 C       -3.8650    -7.8270     0.6100 C.3   1 <1>   0.1400 
 23 C       -2.6870    -9.7260     1.6540 C.2   1 <1>   0.5690 
 24 O       -3.7380   -10.1500     2.0690 O.2   1 <1>  -0.5700 
 25 C       -1.4460   -10.5300     1.9670 C.3   1 <1>  -0.1790 
 26 H       -1.9690    -2.5720     2.4380 H     1 <1>   0.3700 
 27 H       -1.3310    -3.7940     1.3700 H     1 <1>   0.3700 
 28 H        2.2450    -0.9430     1.5100 H     1 <1>   0.1500 
 29 H        0.2580    -6.3640    -0.9390 H     1 <1>   0.0800 
 30 H        0.7570    -6.0900     0.7090 H     1 <1>   0.0800 
 31 H       -1.6120    -3.1050    -0.8800 H     1 <1>   0.0800 
 32 H       -0.6090    -3.7250    -2.1650 H     1 <1>   0.0800 
 33 H        4.4900    -0.6280     0.9410 H     1 <1>   0.0800 
 34 H        4.7650    -0.9370    -0.7520 H     1 <1>   0.0800 
 35 H        5.3840    -2.0420     0.4580 H     1 <1>   0.0800 
 36 H        4.7030    -3.0150    -2.1160 H     1 <1>   0.0800 
 37 H        3.9670    -4.5900    -2.2100 H     1 <1>   0.0800 
 38 H        5.0640    -4.2310    -0.9020 H     1 <1>   0.0800 
 39 H       -1.4330    -6.1780     1.5390 H     1 <1>   0.0800 
 40 H       -1.7460    -5.7720    -2.2310 H     1 <1>   0.0800 
 41 H       -3.0240    -4.6350    -2.0060 H     1 <1>   0.0800 
 42 H       -0.5030    -8.3200     1.0320 H     1 <1>   0.0800 
 43 H       -1.1650    -8.2910    -0.5790 H     1 <1>   0.0800 
 44 H       -3.9590    -4.5220     0.1620 H     1 <1>   0.4000 
 45 H       -4.5890    -6.3990    -0.8200 H     1 <1>   0.0800 
 46 H       -3.3690    -7.4660    -1.4240 H     1 <1>   0.0800 
 47 H       -4.6480    -8.5310     0.3770 H     1 <1>   0.0800 
 48 H       -4.1670    -7.2710     1.4820 H     1 <1>   0.0800 
 49 H       -0.9100   -10.7490     1.0630 H     1 <1>   0.0800 
 50 H       -1.7260   -11.4560     2.4330 H     1 <1>   0.0800 
 51 H       -0.8200    -9.9810     2.6440 H     1 <1>   0.0800 
@<TRIPOS>BOND
  1   1   2  2   
  2   2   3  am  
  3   2   4  1   
  4   3  26  1   
  5   3  27  1   
  6   4   5  ar  
  7   4   6  ar  
  8   5   7  ar  
  9   5   8  1   
 10   6   9  ar  
 11   6  28  1   
 12   7  10  ar  
 13   8  11  1   
 14   8  12  1   
 15   9  10  ar  
 16   9  13  1   
 17  10  14  1   
 18  11  15  1   
 19  11  29  1   
 20  11  30  1   
 21  12  16  1   
 22  12  31  1   
 23  12  32  1   
 24  13  33  1   
 25  13  34  1   
 26  13  35  1   
 27  14  36  1   
 28  14  37  1   
 29  14  38  1   
 30  15  17  1   
 31  15  18  1   
 32  15  39  1   
 33  16  17  1   
 34  16  40  1   
 35  16  41  1   
 36  17  19  1   
 37  17  20  1   
 38  18  21  1   
 39  18  42  1   
 40  18  43  1   
 41  19  44  1   
 42  20  22  1   
 43  20  45  1   
 44  20  46  1   
 45  21  22  1   
 46  21  23  am  
 47  22  47  1   
 48  22  48  1   
 49  23  24  2   
 50  23  25  1   
 51  25  49  1   
 52  25  50  1   
 53  25  51  1   
@<TRIPOS>SUBSTRUCTURE
  1 ****   8 GROUP 4 **** **** 0

# MOE 2024.06 (io_trps.svl 2023.06)
