@<TRIPOS>MOLECULE
Untitled Document
43 46 1 0 0 
SMALL
USER_CHARGES


@<TRIPOS>ATOM
  1 O       -1.8660     8.4450     0.4880 O.3   1 <1>  -0.3630 
  2 C       -0.7050     7.7670     0.2910 C.ar  1 <1>   0.0830 
  3 C       -2.4100     9.1470    -0.6180 C.3   1 <1>   0.0400 
  4 C       -0.6610     6.3600     0.3210 C.ar  1 <1>   0.0000 
  5 C        0.4620     8.5040     0.0960 C.ar  1 <1>   0.0830 
  6 C       -1.8140     5.4860     0.5700 C.ar  1 <1>   0.0000 
  7 C        0.5950     5.7550     0.1300 C.ar  1 <1>  -0.1440 
  8 O        0.4570     9.8450     0.1950 O.3   1 <1>  -0.5320 
  9 C        1.6640     7.8830    -0.1540 C.ar  1 <1>  -0.1500 
 10 C       -1.6010     4.2260     1.1480 C.ar  1 <1>  -0.1430 
 11 C       -3.1340     5.8080     0.2390 C.ar  1 <1>  -0.1500 
 12 C        1.7370     6.5050    -0.1420 C.ar  1 <1>  -0.1430 
 13 C        0.6800     4.2350     0.2520 C.3   1 <1>   0.5660 
 14 C       -2.6490     3.3700     1.4390 C.ar  1 <1>  -0.1500 
 15 C       -0.1830     3.7760     1.4260 C.3   1 <1>  -0.0170 
 16 C       -4.1980     4.9620     0.5240 C.ar  1 <1>   0.0830 
 17 C        3.0910     5.8590    -0.4010 C.3   1 <1>  -0.0170 
 18 N        2.0810     3.7930     0.4630 N.4   1 <1>  -0.9060 
 19 C       -3.9410     3.7400     1.1320 C.ar  1 <1>   0.0830 
 20 O       -5.5010     5.2540     0.2400 O.3   1 <1>  -0.3630 
 21 C        2.9820     4.3460    -0.5810 C.3   1 <1>   0.3430 
 22 O       -4.9550     2.9090     1.4130 O.3   1 <1>  -0.5330 
 23 C       -5.8790     6.5450    -0.1850 C.3   1 <1>   0.0400 
 24 H       -3.4180     9.4290    -0.3740 H     1 <1>   0.0800 
 25 H       -2.4060     8.5030    -1.4800 H     1 <1>   0.0800 
 26 H       -1.8280    10.0280    -0.8180 H     1 <1>   0.0800 
 27 H       -0.3880    10.1540     0.5770 H     1 <1>   0.4500 
 28 H        2.5340     8.4920    -0.3340 H     1 <1>   0.1500 
 29 H       -3.3330     6.7270    -0.2590 H     1 <1>   0.1500 
 30 H        0.2930     3.7980    -0.6550 H     1 <1>   0.0800 
 31 H       -2.4910     2.4100     1.8980 H     1 <1>   0.1500 
 32 H       -0.1490     2.7050     1.5160 H     1 <1>   0.0800 
 33 H        0.1500     4.2270     2.3440 H     1 <1>   0.0800 
 34 H        3.7500     6.0770     0.4210 H     1 <1>   0.0800 
 35 H        3.5310     6.2840    -1.2870 H     1 <1>   0.0800 
 36 H        2.3760     4.1500     1.3780 H     1 <1>   0.4500 
 37 H        2.1210     2.7690     0.4820 H     1 <1>   0.4500 
 38 H        3.9630     3.9030    -0.5080 H     1 <1>   0.0800 
 39 H        2.5820     4.1290    -1.5590 H     1 <1>   0.0800 
 40 H       -5.8000     3.3170     1.1350 H     1 <1>   0.4500 
 41 H       -6.9520     6.5740    -0.2530 H     1 <1>   0.0800 
 42 H       -5.4490     6.7350    -1.1530 H     1 <1>   0.0800 
 43 H       -5.5390     7.2660     0.5380 H     1 <1>   0.0800 
@<TRIPOS>BOND
  1   1   2  1   
  2   1   3  1   
  3   2   4  ar  
  4   2   5  ar  
  5   3  24  1   
  6   3  25  1   
  7   3  26  1   
  8   4   6  1   
  9   4   7  ar  
 10   5   8  1   
 11   5   9  ar  
 12   6  10  ar  
 13   6  11  ar  
 14   7  12  ar  
 15   7  13  1   
 16   8  27  1   
 17   9  12  ar  
 18   9  28  1   
 19  10  14  ar  
 20  10  15  1   
 21  11  16  ar  
 22  11  29  1   
 23  12  17  1   
 24  13  15  1   
 25  13  18  1   
 26  13  30  1   
 27  14  19  ar  
 28  14  31  1   
 29  15  32  1   
 30  15  33  1   
 31  16  19  ar  
 32  16  20  1   
 33  17  21  1   
 34  17  34  1   
 35  17  35  1   
 36  18  21  1   
 37  18  36  1   
 38  18  37  1   
 39  19  22  1   
 40  20  23  1   
 41  21  38  1   
 42  21  39  1   
 43  22  40  1   
 44  23  41  1   
 45  23  42  1   
 46  23  43  1   
@<TRIPOS>SUBSTRUCTURE
  1 ****   4 GROUP 4 **** **** 0

# MOE 2024.06 (io_trps.svl 2023.06)
