@<TRIPOS>MOLECULE
NONAME
51 53 1 0 0 
SMALL
USER_CHARGES


@<TRIPOS>ATOM
  1 O        0.1970     1.4330    -1.2350 O.3   1 <1>  -0.2800 
  2 C        0.0530     1.8940    -0.0070 C.2   1 <1>  -0.0400 
  3 C       -0.9640     0.9400    -1.6160 C.2   1 <1>  -0.0100 
  4 C       -1.2110     1.6970     0.4240 C.2   1 <1>  -0.1500 
  5 C        1.2460     2.5190     0.6950 C.3   1 <1>   0.0200 
  6 C       -1.8810     1.0720    -0.6350 C.2   1 <1>  -0.1500 
  7 C        1.4770     4.0050     0.3410 C.3   1 <1>  -0.0800 
  8 C        1.8440     4.2270    -1.1390 C.3   1 <1>   0.1200 
  9 C        2.5830     4.5660     1.2490 C.3   1 <1>   0.2090 
 10 O        0.7190     4.0780    -1.9260 O.3   1 <1>  -0.6800 
 11 N        2.7130     6.0350     1.0590 N.pl3 1 <1>  -0.8690 
 12 C        3.8020     6.7210     0.6450 C.ar  1 <1>   0.4100 
 13 N        4.9080     6.0340     0.4530 N.ar  1 <1>  -0.6200 
 14 C        3.7280     8.1220     0.4360 C.ar  1 <1>  -0.1430 
 15 C        5.9890     6.6920     0.0720 C.ar  1 <1>   0.7710 
 16 C        4.8680     8.7710     0.0630 C.ar  1 <1>   0.2180 
 17 C        2.3770     8.8220     0.6280 C.3   1 <1>  -0.0970 
 18 N        5.9800     8.0190    -0.1150 N.ar  1 <1>  -0.1790 
 19 N        7.1410     6.0090    -0.1360 N.pl3 1 <1>  -0.8380 
 20 C        5.0150    10.2680    -0.1800 C.3   1 <1>  -0.0970 
 21 C        7.2060     4.5280     0.0200 C.3   1 <1>   0.2090 
 22 C        8.4840     6.5390    -0.5010 C.3   1 <1>   0.2090 
 23 C        8.5830     4.1320    -0.4940 C.3   1 <1>  -0.1600 
 24 C        9.4400     5.3740    -0.2870 C.3   1 <1>  -0.1600 
 25 H       -1.0500     0.5150    -2.6010 H     1 <1>   0.1500 
 26 H       -1.6500     1.9520     1.3720 H     1 <1>   0.1500 
 27 H        2.1240     1.9400     0.4660 H     1 <1>   0.0800 
 28 H        1.0730     2.4380     1.7540 H     1 <1>   0.0800 
 29 H       -2.9140     0.7720    -0.6330 H     1 <1>   0.1500 
 30 H        0.5740     4.5500     0.5580 H     1 <1>   0.0800 
 31 H        2.5880     3.5220    -1.4690 H     1 <1>   0.0800 
 32 H        2.2110     5.2240    -1.3090 H     1 <1>   0.0800 
 33 H        3.5140     4.0690     1.0350 H     1 <1>   0.0800 
 34 H        2.3400     4.3780     2.2810 H     1 <1>   0.0800 
 35 H        0.3450     3.1740    -1.7910 H     1 <1>   0.4000 
 36 H        1.8410     6.5430     1.2250 H     1 <1>   0.4000 
 37 H        1.6090     8.2960     0.0860 H     1 <1>   0.0800 
 38 H        2.3720     9.8320     0.2660 H     1 <1>   0.0800 
 39 H        2.1130     8.8340     1.6710 H     1 <1>   0.0800 
 40 H        6.8610     8.4170    -0.4080 H     1 <1>   0.4570 
 41 H        4.3000    10.8320     0.3900 H     1 <1>   0.0800 
 42 H        4.8720    10.4880    -1.2240 H     1 <1>   0.0800 
 43 H        5.9910    10.6100     0.1160 H     1 <1>   0.0800 
 44 H        6.4250     4.0400    -0.5410 H     1 <1>   0.0800 
 45 H        7.1090     4.2760     1.0630 H     1 <1>   0.0800 
 46 H        8.7670     7.3750     0.1160 H     1 <1>   0.0800 
 47 H        8.4890     6.8220    -1.5410 H     1 <1>   0.0800 
 48 H        8.5130     3.9010    -1.5430 H     1 <1>   0.0800 
 49 H        8.9700     3.2730     0.0260 H     1 <1>   0.0800 
 50 H        9.8080     5.3980     0.7250 H     1 <1>   0.0800 
 51 H       10.2770     5.4100    -0.9620 H     1 <1>   0.0800 
@<TRIPOS>BOND
  1   1   2  1   
  2   1   3  1   
  3   2   4  2   
  4   2   5  1   
  5   3   6  2   
  6   3  25  1   
  7   4   6  1   
  8   4  26  1   
  9   5   7  1   
 10   5  27  1   
 11   5  28  1   
 12   6  29  1   
 13   7   8  1   
 14   7   9  1   
 15   7  30  1   
 16   8  10  1   
 17   8  31  1   
 18   8  32  1   
 19   9  11  1   
 20   9  33  1   
 21   9  34  1   
 22  10  35  1   
 23  11  12  1   
 24  11  36  1   
 25  12  13  ar  
 26  12  14  ar  
 27  13  15  ar  
 28  14  16  ar  
 29  14  17  1   
 30  15  18  ar  
 31  15  19  1   
 32  16  18  ar  
 33  16  20  1   
 34  17  37  1   
 35  17  38  1   
 36  17  39  1   
 37  18  40  1   
 38  19  21  1   
 39  19  22  1   
 40  20  41  1   
 41  20  42  1   
 42  20  43  1   
 43  21  23  1   
 44  21  44  1   
 45  21  45  1   
 46  22  24  1   
 47  22  46  1   
 48  22  47  1   
 49  23  24  1   
 50  23  48  1   
 51  23  49  1   
 52  24  50  1   
 53  24  51  1   
@<TRIPOS>SUBSTRUCTURE
  1 ****  11 GROUP 4 **** **** 0

# MOE 2024.06 (io_trps.svl 2023.06)
