@<TRIPOS>MOLECULE
NONAME
63 65 1 0 0 
SMALL
USER_CHARGES


@<TRIPOS>ATOM
  1 O        1.7640    -0.7070     0.3110 O.2   1 <1>  -0.5700 
  2 C        2.6560    -1.4570     0.6230 C.2   1 <1>   0.5690 
  3 N        3.8130    -0.9600     1.1690 N.am  1 <1>  -0.6600 
  4 C        2.4110    -2.9560     0.4000 C.3   1 <1>  -0.0190 
  5 C        5.1910    -1.5170     0.9870 C.3   1 <1>   0.1400 
  6 C        3.7440     0.2900     1.9800 C.3   1 <1>   0.1400 
  7 C        2.1590    -3.2670    -1.0910 C.3   1 <1>  -0.1600 
  8 C        1.2070    -3.4160     1.2480 C.3   1 <1>  -0.1600 
  9 C        6.0380    -0.7160    -0.0340 C.3   1 <1>   0.3430 
 10 C        3.8440     1.5350     1.0940 C.3   1 <1>  -0.1600 
 11 C        1.7080    -4.7100    -1.3240 C.3   1 <1>   0.3430 
 12 C        0.7900    -4.8550     0.9540 C.3   1 <1>   0.3430 
 13 N        6.0110     0.7770     0.1560 N.4   1 <1>  -0.9590 
 14 C        4.6710     1.3520    -0.1750 C.3   1 <1>   0.3430 
 15 N        0.5000    -4.9950    -0.5020 N.4   1 <1>  -0.9590 
 16 C        7.0920     1.4520    -0.6130 C.3   1 <1>   0.5240 
 17 C       -0.0470    -6.3520    -0.8420 C.3   1 <1>   0.3430 
 18 C        7.1790     2.8800    -0.1350 C.2   1 <1>  -0.1810 
 19 C       -1.4500    -6.5950    -0.2720 C.3   1 <1>   0.1200 
 20 C        7.6140     3.3690     1.0390 C.2   1 <1>  -0.0400 
 21 C        6.8010     4.0230    -0.8420 C.2   1 <1>   0.1080 
 22 O       -1.8410    -7.8590    -0.6840 O.3   1 <1>  -0.5600 
 23 O        7.4710     4.6650     1.0070 O.3   1 <1>  -0.0190 
 24 C        8.1960     2.7380     2.2900 C.3   1 <1>  -0.0600 
 25 N        6.9770     5.0700    -0.1250 N.2   1 <1>  -0.4100 
 26 C        6.2640     4.0870    -2.2580 C.3   1 <1>  -0.0590 
 27 C       -3.1170    -8.2350    -0.2670 C.3   1 <1>   0.0400 
 28 H        3.2650    -3.5170     0.7290 H     1 <1>   0.0800 
 29 H        5.1440    -2.5360     0.6500 H     1 <1>   0.0800 
 30 H        5.6950    -1.5270     1.9380 H     1 <1>   0.0800 
 31 H        4.5350     0.2900     2.7100 H     1 <1>   0.0800 
 32 H        2.8120     0.3170     2.5220 H     1 <1>   0.0800 
 33 H        3.0580    -3.0860    -1.6530 H     1 <1>   0.0800 
 34 H        1.4030    -2.6050    -1.4800 H     1 <1>   0.0800 
 35 H        0.3620    -2.7710     1.0710 H     1 <1>   0.0800 
 36 H        1.4540    -3.3290     2.2920 H     1 <1>   0.0800 
 37 H        5.6860    -0.9500    -1.0250 H     1 <1>   0.0800 
 38 H        7.0550    -1.0660     0.0340 H     1 <1>   0.0800 
 39 H        4.2270     2.3600     1.6690 H     1 <1>   0.0800 
 40 H        2.8480     1.8110     0.7940 H     1 <1>   0.0800 
 41 H        2.5010    -5.3900    -1.0550 H     1 <1>   0.0800 
 42 H        1.4820    -4.8500    -2.3700 H     1 <1>   0.0800 
 43 H       -0.0850    -5.0950     1.5360 H     1 <1>   0.0800 
 44 H        1.5820    -5.5310     1.2380 H     1 <1>   0.0800 
 45 H        6.1830     1.0040     1.1410 H     1 <1>   0.4500 
 46 H        4.7760     2.3140    -0.6500 H     1 <1>   0.0800 
 47 H        4.1440     0.7000    -0.8520 H     1 <1>   0.0800 
 48 H       -0.2090    -4.2900    -0.7510 H     1 <1>   0.4500 
 49 H        6.8830     1.4220    -1.6700 H     1 <1>   0.0800 
 50 H        8.0370     0.9650    -0.4330 H     1 <1>   0.0800 
 51 H        0.6150    -7.1160    -0.4700 H     1 <1>   0.0800 
 52 H       -0.1080    -6.4530    -1.9140 H     1 <1>   0.0800 
 53 H       -2.1520    -5.8780    -0.6620 H     1 <1>   0.0800 
 54 H       -1.4450    -6.5790     0.8040 H     1 <1>   0.0800 
 55 H        8.2960     1.6750     2.1800 H     1 <1>   0.0800 
 56 H        7.5640     2.9510     3.1340 H     1 <1>   0.0800 
 57 H        9.1680     3.1570     2.4820 H     1 <1>   0.0800 
 58 H        5.2480     3.7420    -2.2920 H     1 <1>   0.0800 
 59 H        6.8710     3.4960    -2.9190 H     1 <1>   0.0800 
 60 H        6.2850     5.1060    -2.6050 H     1 <1>   0.0800 
 61 H       -3.3140    -9.2250    -0.6400 H     1 <1>   0.0800 
 62 H       -3.8430    -7.5490    -0.6690 H     1 <1>   0.0800 
 63 H       -3.1570    -8.2430     0.8090 H     1 <1>   0.0800 
@<TRIPOS>BOND
  1   1   2  2   
  2   2   3  am  
  3   2   4  1   
  4   3   5  1   
  5   3   6  1   
  6   4   7  1   
  7   4   8  1   
  8   4  28  1   
  9   5   9  1   
 10   5  29  1   
 11   5  30  1   
 12   6  10  1   
 13   6  31  1   
 14   6  32  1   
 15   7  11  1   
 16   7  33  1   
 17   7  34  1   
 18   8  12  1   
 19   8  35  1   
 20   8  36  1   
 21   9  13  1   
 22   9  37  1   
 23   9  38  1   
 24  10  14  1   
 25  10  39  1   
 26  10  40  1   
 27  11  15  1   
 28  11  41  1   
 29  11  42  1   
 30  12  15  1   
 31  12  43  1   
 32  12  44  1   
 33  13  14  1   
 34  13  16  1   
 35  13  45  1   
 36  14  46  1   
 37  14  47  1   
 38  15  17  1   
 39  15  48  1   
 40  16  18  1   
 41  16  49  1   
 42  16  50  1   
 43  17  19  1   
 44  17  51  1   
 45  17  52  1   
 46  18  20  2   
 47  18  21  1   
 48  19  22  1   
 49  19  53  1   
 50  19  54  1   
 51  20  23  1   
 52  20  24  1   
 53  21  25  2   
 54  21  26  1   
 55  22  27  1   
 56  23  25  1   
 57  24  55  1   
 58  24  56  1   
 59  24  57  1   
 60  26  58  1   
 61  26  59  1   
 62  26  60  1   
 63  27  61  1   
 64  27  62  1   
 65  27  63  1   
@<TRIPOS>SUBSTRUCTURE
  1 ****   3 GROUP 4 **** **** 0

# MOE 2024.06 (io_trps.svl 2023.06)
