@<TRIPOS>MOLECULE
NONAME
53 55 1 0 0 
SMALL
USER_CHARGES


@<TRIPOS>ATOM
  1 O        0.6060    -1.8670    -1.6900 O.3   1 <1>  -0.3630 
  2 C        0.0710    -2.2350    -0.4960 C.ar  1 <1>   0.0830 
  3 C        1.2100    -0.5950    -1.8120 C.3   1 <1>   0.0400 
  4 C        0.6790    -2.0280     0.7480 C.ar  1 <1>   0.0830 
  5 C       -1.1660    -2.8520    -0.5510 C.ar  1 <1>  -0.1500 
  6 O        1.9100    -1.4850     0.8830 O.3   1 <1>  -0.3630 
  7 C        0.0170    -2.4000     1.9060 C.ar  1 <1>  -0.1500 
  8 C       -1.8280    -3.2290     0.6100 C.ar  1 <1>  -0.1430 
  9 C        2.9880    -2.3590     0.6320 C.3   1 <1>   0.0400 
 10 C       -1.2290    -2.9990     1.8410 C.ar  1 <1>  -0.1500 
 11 C       -3.1970    -3.8730     0.5260 C.3   1 <1>   0.4860 
 12 N       -4.2240    -2.8450     0.8420 N.4   1 <1>  -0.9590 
 13 C       -5.5740    -3.4830     1.0430 C.3   1 <1>   0.3430 
 14 C       -4.1970    -1.7280    -0.1570 C.3   1 <1>   0.3430 
 15 C       -6.5000    -3.3680    -0.1860 C.3   1 <1>   0.0000 
 16 C       -5.5260    -0.9720    -0.1560 C.3   1 <1>  -0.1600 
 17 C       -7.8500    -4.0540     0.0980 C.3   1 <1>   0.2000 
 18 C       -6.7150    -1.8720    -0.5490 C.3   1 <1>  -0.1600 
 19 C       -5.9700    -4.1610    -1.4000 C.3   1 <1>  -0.1600 
 20 O       -7.5900    -5.2210     0.8240 O.3   1 <1>  -0.5600 
 21 C       -8.4060    -4.4150    -1.2830 C.3   1 <1>  -0.1600 
 22 C       -7.1990    -4.5830    -2.2110 C.3   1 <1>  -0.1600 
 23 C       -8.6900    -5.7670     1.4900 C.3   1 <1>   0.0400 
 24 H        1.2010    -0.3180    -2.8510 H     1 <1>   0.0800 
 25 H        2.2240    -0.6500    -1.4630 H     1 <1>   0.0800 
 26 H        0.6520     0.1210    -1.2340 H     1 <1>   0.0800 
 27 H       -1.5980    -3.0250    -1.5210 H     1 <1>   0.1500 
 28 H        0.4900    -2.2230     2.8560 H     1 <1>   0.1500 
 29 H        3.9040    -1.8080     0.7500 H     1 <1>   0.0800 
 30 H        2.9110    -2.7350    -0.3730 H     1 <1>   0.0800 
 31 H        2.9510    -3.1690     1.3380 H     1 <1>   0.0800 
 32 H       -1.7140    -3.2860     2.7590 H     1 <1>   0.1500 
 33 H       -3.2530    -4.6850     1.2330 H     1 <1>   0.0800 
 34 H       -3.3590    -4.2700    -0.4630 H     1 <1>   0.0800 
 35 H       -3.9400    -2.4390     1.7410 H     1 <1>   0.4500 
 36 H       -5.4570    -4.5230     1.3050 H     1 <1>   0.0800 
 37 H       -6.0700    -3.0000     1.8690 H     1 <1>   0.0800 
 38 H       -3.3860    -1.0530     0.0710 H     1 <1>   0.0800 
 39 H       -4.0280    -2.1250    -1.1440 H     1 <1>   0.0800 
 40 H       -5.6860    -0.5550     0.8230 H     1 <1>   0.0800 
 41 H       -5.4650    -0.1470    -0.8450 H     1 <1>   0.0800 
 42 H       -8.5200    -3.4300     0.6670 H     1 <1>   0.0800 
 43 H       -6.9010    -1.7790    -1.6060 H     1 <1>   0.0800 
 44 H       -7.5900    -1.4890    -0.0510 H     1 <1>   0.0800 
 45 H       -5.2780    -3.6060    -2.0080 H     1 <1>   0.0800 
 46 H       -5.4850    -5.0590    -1.0560 H     1 <1>   0.0800 
 47 H       -9.0200    -5.2980    -1.2670 H     1 <1>   0.0800 
 48 H       -9.0060    -3.5960    -1.6400 H     1 <1>   0.0800 
 49 H       -7.1030    -5.6070    -2.5310 H     1 <1>   0.0800 
 50 H       -7.3150    -3.9600    -3.0820 H     1 <1>   0.0800 
 51 H       -8.3630    -6.6500     2.0100 H     1 <1>   0.0800 
 52 H       -9.4520    -6.0350     0.7800 H     1 <1>   0.0800 
 53 H       -9.0720    -5.0520     2.1980 H     1 <1>   0.0800 
@<TRIPOS>BOND
  1   1   2  1   
  2   1   3  1   
  3   2   4  ar  
  4   2   5  ar  
  5   3  24  1   
  6   3  25  1   
  7   3  26  1   
  8   4   6  1   
  9   4   7  ar  
 10   5   8  ar  
 11   5  27  1   
 12   6   9  1   
 13   7  10  ar  
 14   7  28  1   
 15   8  10  ar  
 16   8  11  1   
 17   9  29  1   
 18   9  30  1   
 19   9  31  1   
 20  10  32  1   
 21  11  12  1   
 22  11  33  1   
 23  11  34  1   
 24  12  13  1   
 25  12  14  1   
 26  12  35  1   
 27  13  15  1   
 28  13  36  1   
 29  13  37  1   
 30  14  16  1   
 31  14  38  1   
 32  14  39  1   
 33  15  17  1   
 34  15  18  1   
 35  15  19  1   
 36  16  18  1   
 37  16  40  1   
 38  16  41  1   
 39  17  20  1   
 40  17  21  1   
 41  17  42  1   
 42  18  43  1   
 43  18  44  1   
 44  19  22  1   
 45  19  45  1   
 46  19  46  1   
 47  20  23  1   
 48  21  22  1   
 49  21  47  1   
 50  21  48  1   
 51  22  49  1   
 52  22  50  1   
 53  23  51  1   
 54  23  52  1   
 55  23  53  1   
@<TRIPOS>SUBSTRUCTURE
  1 ****  11 GROUP 4 **** **** 0

# MOE 2024.06 (io_trps.svl 2023.06)
