@<TRIPOS>MOLECULE
NONAME
49 52 1 0 0 
SMALL
USER_CHARGES


@<TRIPOS>ATOM
  1 S       -0.5980     0.2090     0.8600 S.o2  1 <1>   1.0900 
  2 O       -1.0950     1.4130     1.4800 O.2   1 <1>  -0.6500 
  3 O        0.7250    -0.3030     1.1320 O.2   1 <1>  -0.6500 
  4 C       -1.7380    -1.1270     1.0790 C.3   1 <1>  -0.0550 
  5 C       -0.8040     0.2810    -0.9140 C.3   1 <1>  -0.0550 
  6 C       -1.5630    -1.9760    -0.1770 C.3   1 <1>   0.1760 
  7 C       -1.5070    -1.0080    -1.3780 C.3   1 <1>  -0.1600 
  8 N       -2.6570    -2.9700    -0.3150 N.pl3 1 <1>   0.3140 
  9 N       -3.9470    -2.5900    -0.2660 N.2   1 <1>  -0.7070 
 10 C       -2.5410    -4.3110    -0.4930 C.2   1 <1>  -0.3320 
 11 C       -4.6260    -3.6860    -0.4000 C.2   1 <1>   0.1080 
 12 C       -3.7980    -4.8040    -0.5450 C.2   1 <1>   0.0630 
 13 C       -1.2180    -5.0600    -0.5910 C.3   1 <1>  -0.0600 
 14 C       -6.1390    -3.6830    -0.4050 C.3   1 <1>  -0.0590 
 15 N       -4.1460    -6.1650    -0.7340 N.am  1 <1>  -0.4930 
 16 C       -5.0630    -6.9390    -0.0770 C.2   1 <1>   0.7150 
 17 O       -5.7440    -6.4480     0.8060 O.2   1 <1>  -0.5700 
 18 C       -5.1990    -8.3330    -0.4330 C.2   1 <1>  -0.0450 
 19 S       -4.0990    -8.9920    -1.6540 S.3   1 <1>  -0.0800 
 20 C       -6.0200    -9.3330    -0.0070 C.2   1 <1>  -0.1810 
 21 C       -4.7980   -10.5870    -1.5360 C.2   1 <1>  -0.1100 
 22 C       -5.7970   -10.6000    -0.6360 C.2   1 <1>  -0.1810 
 23 C       -7.0770    -9.1730     1.0830 C.3   1 <1>   0.0210 
 24 C       -6.6420   -11.8220    -0.3130 C.3   1 <1>   0.0210 
 25 C       -8.0750   -10.3370     1.1260 C.3   1 <1>  -0.1600 
 26 C       -7.3490   -11.6860     1.0400 C.3   1 <1>  -0.1600 
 27 H       -2.7400    -0.7420     1.1240 H     1 <1>   0.0800 
 28 H       -1.5240    -1.6870     1.9680 H     1 <1>   0.0800 
 29 H        0.1540     0.3800    -1.3880 H     1 <1>   0.0800 
 30 H       -1.4040     1.1320    -1.1820 H     1 <1>   0.0800 
 31 H       -0.6250    -2.4960    -0.1040 H     1 <1>   0.0800 
 32 H       -0.9870    -1.4560    -2.2060 H     1 <1>   0.0800 
 33 H       -2.5090    -0.7590    -1.6880 H     1 <1>   0.0800 
 34 H       -0.6500    -4.7050    -1.4330 H     1 <1>   0.0800 
 35 H       -1.3860    -6.1140    -0.7160 H     1 <1>   0.0800 
 36 H       -0.6440    -4.9180     0.3070 H     1 <1>   0.0800 
 37 H       -6.5010    -2.7360    -0.7610 H     1 <1>   0.0800 
 38 H       -6.5000    -3.8420     0.5940 H     1 <1>   0.0800 
 39 H       -6.5110    -4.4610    -1.0440 H     1 <1>   0.0800 
 40 H       -3.5540    -6.6740    -1.3860 H     1 <1>   0.3700 
 41 H       -4.3910   -11.3580    -2.1650 H     1 <1>   0.1500 
 42 H       -7.6140    -8.2510     0.9420 H     1 <1>   0.0800 
 43 H       -6.5700    -9.1130     2.0300 H     1 <1>   0.0800 
 44 H       -6.0260   -12.7040    -0.3160 H     1 <1>   0.0800 
 45 H       -7.3830   -11.9330    -1.0840 H     1 <1>   0.0800 
 46 H       -8.7600   -10.2460     0.3000 H     1 <1>   0.0800 
 47 H       -8.6450   -10.2840     2.0370 H     1 <1>   0.0800 
 48 H       -6.6240   -11.7560     1.8320 H     1 <1>   0.0800 
 49 H       -8.0540   -12.4900     1.1580 H     1 <1>   0.0800 
@<TRIPOS>BOND
  1   1   2  2   
  2   1   3  2   
  3   1   4  1   
  4   1   5  1   
  5   4   6  1   
  6   4  27  1   
  7   4  28  1   
  8   5   7  1   
  9   5  29  1   
 10   5  30  1   
 11   6   7  1   
 12   6   8  1   
 13   6  31  1   
 14   7  32  1   
 15   7  33  1   
 16   8   9  1   
 17   8  10  1   
 18   9  11  2   
 19  10  12  2   
 20  10  13  1   
 21  11  12  1   
 22  11  14  1   
 23  12  15  1   
 24  13  34  1   
 25  13  35  1   
 26  13  36  1   
 27  14  37  1   
 28  14  38  1   
 29  14  39  1   
 30  15  16  am  
 31  15  40  1   
 32  16  17  2   
 33  16  18  1   
 34  18  19  1   
 35  18  20  2   
 36  19  21  1   
 37  20  22  1   
 38  20  23  1   
 39  21  22  2   
 40  21  41  1   
 41  22  24  1   
 42  23  25  1   
 43  23  42  1   
 44  23  43  1   
 45  24  26  1   
 46  24  44  1   
 47  24  45  1   
 48  25  26  1   
 49  25  46  1   
 50  25  47  1   
 51  26  48  1   
 52  26  49  1   
@<TRIPOS>SUBSTRUCTURE
  1 ****  12 GROUP 4 **** **** 0

# MOE 2024.06 (io_trps.svl 2023.06)
