@<TRIPOS>MOLECULE
NONAME
52 54 1 0 0 
SMALL
USER_CHARGES


@<TRIPOS>ATOM
  1 O       -0.8540    -3.4210    -0.1440 O.2   1 <1>  -0.5700 
  2 C        0.2030    -2.8640     0.0740 C.2   1 <1>   0.6900 
  3 N        1.0680    -3.3510     1.0280 N.am  1 <1>  -0.4200 
  4 N        0.5840    -1.7940    -0.6840 N.am  1 <1>  -0.5390 
  5 C        2.3720    -2.8980     1.0690 C.2   1 <1>   0.6160 
  6 C        0.5960    -4.3450     2.0360 C.3   1 <1>   0.1400 
  7 C        1.8440    -1.2350    -0.5990 C.2   1 <1>  -0.0290 
  8 O        3.1820    -3.4890     1.7580 O.2   1 <1>  -0.5700 
  9 C        2.7330    -1.7810     0.2600 C.2   1 <1>  -0.1360 
 10 C        0.8320    -5.7910     1.5700 C.3   1 <1>   0.3430 
 11 C        2.1320    -0.0440    -1.4910 C.3   1 <1>  -0.1020 
 12 N        0.2070    -6.0630     0.2300 N.4   1 <1>  -0.9590 
 13 C       -0.5670    -7.3400     0.1900 C.3   1 <1>   0.3430 
 14 C        1.2410    -6.0580    -0.8490 C.3   1 <1>   0.2630 
 15 C       -1.8650    -7.2640     1.0090 C.3   1 <1>  -0.0800 
 16 C       -2.5570    -8.6120     0.8780 C.3   1 <1>   0.2090 
 17 C       -2.8990    -6.3190     0.3840 C.3   1 <1>  -0.1600 
 18 N       -3.1820    -8.5410    -0.4570 N.pl3 1 <1>  -0.8380 
 19 C       -3.5390    -7.1270    -0.7440 C.3   1 <1>   0.2090 
 20 C       -4.1560    -9.4980    -0.7270 C.ar  1 <1>   0.1000 
 21 C       -3.9120   -10.4640    -1.6940 C.ar  1 <1>  -0.1500 
 22 C       -5.3740    -9.5220    -0.0540 C.ar  1 <1>  -0.1500 
 23 C       -4.8540   -11.4330    -1.9830 C.ar  1 <1>  -0.1500 
 24 C       -6.3200   -10.4900    -0.3390 C.ar  1 <1>  -0.1500 
 25 C       -6.0620   -11.4480    -1.3050 C.ar  1 <1>  -0.1500 
 26 H       -0.1220    -1.4300    -1.3290 H     1 <1>   0.3700 
 27 H       -0.4520    -4.1940     2.2310 H     1 <1>   0.0800 
 28 H        1.1170    -4.1850     2.9650 H     1 <1>   0.0800 
 29 H        3.7350    -1.4140     0.3760 H     1 <1>   0.1500 
 30 H        0.4160    -6.4550     2.3090 H     1 <1>   0.0800 
 31 H        1.8930    -5.9770     1.5300 H     1 <1>   0.0800 
 32 H        1.4550     0.7610    -1.2650 H     1 <1>   0.0800 
 33 H        2.0160    -0.3160    -2.5250 H     1 <1>   0.0800 
 34 H        3.1380     0.3070    -1.3420 H     1 <1>   0.0800 
 35 H       -0.4530    -5.2820     0.0260 H     1 <1>   0.4500 
 36 H        0.0440    -8.1480     0.5570 H     1 <1>   0.0800 
 37 H       -0.8320    -7.5700    -0.8310 H     1 <1>   0.0800 
 38 H        1.9470    -6.8580    -0.6970 H     1 <1>   0.0800 
 39 H        1.7750    -5.1210    -0.8510 H     1 <1>   0.0800 
 40 H        0.7730    -6.1860    -1.8120 H     1 <1>   0.0800 
 41 H       -1.6700    -7.0450     2.0420 H     1 <1>   0.0800 
 42 H       -3.3180    -8.7260     1.6330 H     1 <1>   0.0800 
 43 H       -1.8740    -9.4440     0.9340 H     1 <1>   0.0800 
 44 H       -2.4920    -5.3950     0.0190 H     1 <1>   0.0800 
 45 H       -3.6610    -6.0860     1.1070 H     1 <1>   0.0800 
 46 H       -3.1240    -6.8490    -1.6980 H     1 <1>   0.0800 
 47 H       -4.6070    -6.9870    -0.7730 H     1 <1>   0.0800 
 48 H       -2.9740   -10.4460    -2.2170 H     1 <1>   0.1500 
 49 H       -5.5800    -8.7810     0.6940 H     1 <1>   0.1500 
 50 H       -4.6500   -12.1750    -2.7340 H     1 <1>   0.1500 
 51 H       -7.2580   -10.4990     0.1870 H     1 <1>   0.1500 
 52 H       -6.7970   -12.2010    -1.5290 H     1 <1>   0.1500 
@<TRIPOS>BOND
  1   1   2  2   
  2   2   3  am  
  3   2   4  am  
  4   3   5  am  
  5   3   6  1   
  6   4   7  1   
  7   4  26  1   
  8   5   8  2   
  9   5   9  1   
 10   6  10  1   
 11   6  27  1   
 12   6  28  1   
 13   7   9  2   
 14   7  11  1   
 15   9  29  1   
 16  10  12  1   
 17  10  30  1   
 18  10  31  1   
 19  11  32  1   
 20  11  33  1   
 21  11  34  1   
 22  12  13  1   
 23  12  14  1   
 24  12  35  1   
 25  13  15  1   
 26  13  36  1   
 27  13  37  1   
 28  14  38  1   
 29  14  39  1   
 30  14  40  1   
 31  15  16  1   
 32  15  17  1   
 33  15  41  1   
 34  16  18  1   
 35  16  42  1   
 36  16  43  1   
 37  17  19  1   
 38  17  44  1   
 39  17  45  1   
 40  18  19  1   
 41  18  20  1   
 42  19  46  1   
 43  19  47  1   
 44  20  21  ar  
 45  20  22  ar  
 46  21  23  ar  
 47  21  48  1   
 48  22  24  ar  
 49  22  49  1   
 50  23  25  ar  
 51  23  50  1   
 52  24  25  ar  
 53  24  51  1   
 54  25  52  1   
@<TRIPOS>SUBSTRUCTURE
  1 ****  12 GROUP 4 **** **** 0

# MOE 2024.06 (io_trps.svl 2023.06)
