@<TRIPOS>MOLECULE
NONAME
49 49 1 0 0 
SMALL
USER_CHARGES


@<TRIPOS>ATOM
  1 O       -1.5780    -2.2020    -1.0770 O.2   1 <1>  -0.5700 
  2 C       -0.3990    -1.9900    -1.2180 C.2   1 <1>   0.5690 
  3 N        0.5520    -2.5190    -0.4090 N.am  1 <1>  -0.7300 
  4 C        0.0550    -1.1150    -2.3550 C.3   1 <1>  -0.1790 
  5 C        0.4050    -3.1710     0.9020 C.3   1 <1>   0.3000 
  6 C       -0.7300    -4.2220     0.9390 C.3   1 <1>  -0.1600 
  7 C        0.1120    -2.0700     1.9250 C.3   1 <1>  -0.2400 
  8 C        1.7700    -3.7780     1.2350 C.3   1 <1>  -0.2400 
  9 C       -0.8410    -5.1520    -0.2860 C.3   1 <1>   0.4230 
 10 N       -2.2350    -5.6360    -0.4660 N.4   1 <1>  -0.9590 
 11 C        0.0480    -6.3930    -0.2000 C.3   1 <1>  -0.2400 
 12 C       -3.1440    -4.5970    -1.0550 C.3   1 <1>   0.3430 
 13 C       -2.8860    -6.2900     0.7170 C.3   1 <1>   0.3430 
 14 C       -4.5310    -5.1920    -1.3980 C.3   1 <1>   0.1100 
 15 C       -4.2670    -6.8780     0.3390 C.3   1 <1>   0.1100 
 16 N       -4.6180    -6.6390    -1.0850 N.3   1 <1>  -0.8100 
 17 C       -5.9440    -7.1760    -1.4210 C.3   1 <1>   0.2480 
 18 C       -5.9150    -8.6850    -1.2960 C.2   1 <1>  -0.2880 
 19 C       -6.6880    -9.4130    -0.4830 C.2   1 <1>  -0.3000 
 20 H        1.5150    -2.2290    -0.5860 H     1 <1>   0.3700 
 21 H        0.7220    -1.6600    -2.9950 H     1 <1>   0.0800 
 22 H        0.5570    -0.2480    -1.9670 H     1 <1>   0.0800 
 23 H       -0.7940    -0.7920    -2.9300 H     1 <1>   0.0800 
 24 H       -1.6490    -3.6760     1.0370 H     1 <1>   0.0800 
 25 H       -0.6310    -4.8080     1.8350 H     1 <1>   0.0800 
 26 H       -0.8210    -1.5830     1.7020 H     1 <1>   0.0800 
 27 H        0.8900    -1.3280     1.9250 H     1 <1>   0.0800 
 28 H        0.0460    -2.4850     2.9140 H     1 <1>   0.0800 
 29 H        2.1310    -4.4040     0.4430 H     1 <1>   0.0800 
 30 H        1.7140    -4.3600     2.1380 H     1 <1>   0.0800 
 31 H        2.4980    -3.0030     1.3960 H     1 <1>   0.0800 
 32 H       -0.5660    -4.5940    -1.1670 H     1 <1>   0.0800 
 33 H       -2.2420    -6.3750    -1.1840 H     1 <1>   0.4500 
 34 H       -0.0780    -6.9040     0.7370 H     1 <1>   0.0800 
 35 H        1.0800    -6.1220    -0.2940 H     1 <1>   0.0800 
 36 H       -0.1710    -7.0690    -1.0070 H     1 <1>   0.0800 
 37 H       -2.7050    -4.1920    -1.9520 H     1 <1>   0.0800 
 38 H       -3.2690    -3.7780    -0.3670 H     1 <1>   0.0800 
 39 H       -3.0120    -5.5730     1.5100 H     1 <1>   0.0800 
 40 H       -2.2610    -7.0850     1.0890 H     1 <1>   0.0800 
 41 H       -4.7190    -5.0400    -2.4480 H     1 <1>   0.0800 
 42 H       -5.2870    -4.6510    -0.8530 H     1 <1>   0.0800 
 43 H       -5.0190    -6.4490     0.9800 H     1 <1>   0.0800 
 44 H       -4.2470    -7.9370     0.5340 H     1 <1>   0.0800 
 45 H       -6.1930    -6.9190    -2.4380 H     1 <1>   0.0800 
 46 H       -6.6950    -6.7590    -0.7710 H     1 <1>   0.0800 
 47 H       -5.1850    -9.1280    -1.9520 H     1 <1>   0.1500 
 48 H       -6.6450   -10.4870    -0.4200 H     1 <1>   0.1500 
 49 H       -7.4290    -9.0050     0.1820 H     1 <1>   0.1500 
@<TRIPOS>BOND
  1   1   2  2   
  2   2   3  am  
  3   2   4  1   
  4   3   5  1   
  5   3  20  1   
  6   4  21  1   
  7   4  22  1   
  8   4  23  1   
  9   5   6  1   
 10   5   7  1   
 11   5   8  1   
 12   6   9  1   
 13   6  24  1   
 14   6  25  1   
 15   7  26  1   
 16   7  27  1   
 17   7  28  1   
 18   8  29  1   
 19   8  30  1   
 20   8  31  1   
 21   9  10  1   
 22   9  11  1   
 23   9  32  1   
 24  10  12  1   
 25  10  13  1   
 26  10  33  1   
 27  11  34  1   
 28  11  35  1   
 29  11  36  1   
 30  12  14  1   
 31  12  37  1   
 32  12  38  1   
 33  13  15  1   
 34  13  39  1   
 35  13  40  1   
 36  14  16  1   
 37  14  41  1   
 38  14  42  1   
 39  15  16  1   
 40  15  43  1   
 41  15  44  1   
 42  16  17  1   
 43  17  18  1   
 44  17  45  1   
 45  17  46  1   
 46  18  19  2   
 47  18  47  1   
 48  19  48  1   
 49  19  49  1   
@<TRIPOS>SUBSTRUCTURE
  1 ****  10 GROUP 4 **** **** 0

# MOE 2024.06 (io_trps.svl 2023.06)
