@<TRIPOS>MOLECULE
NONAME
48 50 1 0 0 
SMALL
USER_CHARGES


@<TRIPOS>ATOM
  1 O       -0.9680     0.8160    -0.8490 O.2   1 <1>  -0.5700 
  2 C       -0.7160     1.9400    -0.4960 C.2   1 <1>   0.5690 
  3 N       -1.5900     2.6360     0.2630 N.am  1 <1>  -0.7300 
  4 C        0.5900     2.6090    -0.9390 C.3   1 <1>   0.1810 
  5 C       -1.3460     4.0200     0.7370 C.3   1 <1>   0.3640 
  6 O        0.9190     3.7510    -0.1760 O.3   1 <1>  -0.5600 
  7 C       -2.6240     4.8330     0.5380 C.ar  1 <1>  -0.1440 
  8 C       -0.1460     4.6710     0.0020 C.3   1 <1>   0.2610 
  9 C       -3.3150     4.8090    -0.6680 C.ar  1 <1>  -0.1500 
 10 C       -3.1120     5.6170     1.5740 C.ar  1 <1>  -0.1500 
 11 C        0.3420     5.9360     0.7190 C.2   1 <1>   0.5690 
 12 C       -4.4720     5.5500    -0.8310 C.ar  1 <1>  -0.1500 
 13 C       -4.2710     6.3570     1.4130 C.ar  1 <1>  -0.1500 
 14 O        0.0160     6.1540     1.8650 O.2   1 <1>  -0.5700 
 15 N        1.1030     6.8150     0.0120 N.am  1 <1>  -0.7300 
 16 C       -4.9530     6.3230     0.2100 C.ar  1 <1>  -0.1500 
 17 C        1.1720     8.2650     0.2700 C.3   1 <1>   0.3000 
 18 C        2.1060     8.9120    -0.7540 C.3   1 <1>  -0.1600 
 19 C        1.8680     8.5670     1.5980 C.3   1 <1>  -0.1600 
 20 C       -0.2500     8.8750     0.2050 C.3   1 <1>   0.1200 
 21 C        2.6490    10.1770    -0.0810 C.3   1 <1>  -0.1600 
 22 C        2.5310     9.9390     1.4290 C.3   1 <1>  -0.1600 
 23 O       -0.8880     8.5150    -0.9940 O.3   1 <1>  -0.5600 
 24 C       -2.2640     8.7090    -0.9750 C.3   1 <1>   0.0400 
 25 H       -2.4640     2.1930     0.5500 H     1 <1>   0.3700 
 26 H        0.5080     2.9020    -1.9690 H     1 <1>   0.0800 
 27 H        1.3980     1.9080    -0.8420 H     1 <1>   0.0800 
 28 H       -1.1200     3.9680     1.7890 H     1 <1>   0.0800 
 29 H       -0.4730     4.9710    -0.9770 H     1 <1>   0.0800 
 30 H       -2.9590     4.2090    -1.4880 H     1 <1>   0.1500 
 31 H       -2.5880     5.6590     2.5150 H     1 <1>   0.1500 
 32 H       -5.0020     5.5220    -1.7680 H     1 <1>   0.1500 
 33 H       -4.6400     6.9580     2.2260 H     1 <1>   0.1500 
 34 H        1.3230     6.5850    -0.9560 H     1 <1>   0.3700 
 35 H       -5.8550     6.8970     0.0860 H     1 <1>   0.1500 
 36 H        2.9330     8.2530    -0.9520 H     1 <1>   0.0800 
 37 H        1.6040     9.1400    -1.6780 H     1 <1>   0.0800 
 38 H        1.1830     8.5550     2.4280 H     1 <1>   0.0800 
 39 H        2.6340     7.8300     1.7700 H     1 <1>   0.0800 
 40 H       -0.2070     9.9480     0.2570 H     1 <1>   0.0800 
 41 H       -0.8300     8.5090     1.0340 H     1 <1>   0.0800 
 42 H        3.6690    10.3620    -0.3730 H     1 <1>   0.0800 
 43 H        2.0490    11.0260    -0.3610 H     1 <1>   0.0800 
 44 H        1.9160    10.7040     1.8710 H     1 <1>   0.0800 
 45 H        3.4970     9.9530     1.9040 H     1 <1>   0.0800 
 46 H       -2.6570     8.4230    -1.9350 H     1 <1>   0.0800 
 47 H       -2.4750     9.7470    -0.7880 H     1 <1>   0.0800 
 48 H       -2.6970     8.0880    -0.2100 H     1 <1>   0.0800 
@<TRIPOS>BOND
  1   1   2  2   
  2   2   3  am  
  3   2   4  1   
  4   3   5  1   
  5   3  25  1   
  6   4   6  1   
  7   4  26  1   
  8   4  27  1   
  9   5   7  1   
 10   5   8  1   
 11   5  28  1   
 12   6   8  1   
 13   7   9  ar  
 14   7  10  ar  
 15   8  11  1   
 16   8  29  1   
 17   9  12  ar  
 18   9  30  1   
 19  10  13  ar  
 20  10  31  1   
 21  11  14  2   
 22  11  15  am  
 23  12  16  ar  
 24  12  32  1   
 25  13  16  ar  
 26  13  33  1   
 27  15  17  1   
 28  15  34  1   
 29  16  35  1   
 30  17  18  1   
 31  17  19  1   
 32  17  20  1   
 33  18  21  1   
 34  18  36  1   
 35  18  37  1   
 36  19  22  1   
 37  19  38  1   
 38  19  39  1   
 39  20  23  1   
 40  20  40  1   
 41  20  41  1   
 42  21  22  1   
 43  21  42  1   
 44  21  43  1   
 45  22  44  1   
 46  22  45  1   
 47  23  24  1   
 48  24  46  1   
 49  24  47  1   
 50  24  48  1   
@<TRIPOS>SUBSTRUCTURE
  1 ****  11 GROUP 4 **** **** 0

# MOE 2024.06 (io_trps.svl 2023.06)
