@<TRIPOS>MOLECULE
NONAME
37 38 1 0 0 
SMALL
USER_CHARGES


@<TRIPOS>ATOM
  1 O        1.2010    -0.6740     2.3900 O.co2 1 <1>  -0.9000 
  2 C        1.5290    -0.8850     1.2170 C.2   1 <1>   0.9060 
  3 O        1.3020    -1.9790     0.6720 O.co2 1 <1>  -0.9000 
  4 C        2.2010     0.2290     0.3850 C.3   1 <1>  -0.1060 
  5 C        3.3910    -0.4570    -0.3390 C.3   1 <1>   0.2000 
  6 C        2.7920     1.3230     1.3270 C.3   1 <1>  -0.1600 
  7 C        1.0720     0.7960    -0.5420 C.3   1 <1>  -0.1600 
  8 O        2.9260    -1.3330    -1.3070 O.3   1 <1>  -0.6800 
  9 C        4.4290     0.4870    -0.9570 C.3   1 <1>   0.2090 
 10 C        3.8580     2.2470     0.7150 C.3   1 <1>   0.2090 
 11 C        1.2990     2.0980    -1.3280 C.3   1 <1>  -0.1600 
 12 N        4.9350     1.4580     0.0590 N.pl3 1 <1>  -0.8380 
 13 C        0.1120     2.3880    -2.2510 C.3   1 <1>  -0.2400 
 14 C        6.1720     2.0460    -0.1610 C.ar  1 <1>   0.4100 
 15 N        6.1960     3.3620    -0.3410 N.ar  1 <1>  -0.6200 
 16 C        7.3420     1.2660    -0.1980 C.ar  1 <1>   0.1600 
 17 C        7.4150     3.8230    -0.5600 C.ar  1 <1>   0.1600 
 18 N        8.5620     1.7230    -0.4200 N.ar  1 <1>  -0.6200 
 19 C        8.5580     3.0350    -0.6010 C.ar  1 <1>   0.1600 
 20 H        3.9120    -1.0620     0.3840 H     1 <1>   0.0800 
 21 H        3.2600     0.8320     2.1630 H     1 <1>   0.0800 
 22 H        1.9920     1.9150     1.7330 H     1 <1>   0.0800 
 23 H        0.7860     0.0240    -1.2360 H     1 <1>   0.0800 
 24 H        0.2080     0.9580     0.0810 H     1 <1>   0.0800 
 25 H        2.2170    -1.8620    -0.8370 H     1 <1>   0.4000 
 26 H        4.0000     1.0220    -1.7810 H     1 <1>   0.0800 
 27 H        5.2440    -0.1040    -1.3330 H     1 <1>   0.0800 
 28 H        4.2890     2.8480     1.4970 H     1 <1>   0.0800 
 29 H        3.4320     2.9170    -0.0060 H     1 <1>   0.0800 
 30 H        1.3990     2.9200    -0.6430 H     1 <1>   0.0800 
 31 H        2.1860     2.0310    -1.9260 H     1 <1>   0.0800 
 32 H       -0.7950     2.4760    -1.6790 H     1 <1>   0.0800 
 33 H       -0.0060     1.5930    -2.9670 H     1 <1>   0.0800 
 34 H        0.2750     3.3080    -2.7830 H     1 <1>   0.0800 
 35 H        7.2280     0.2130    -0.0260 H     1 <1>   0.1500 
 36 H        7.5150     4.8820    -0.7170 H     1 <1>   0.1500 
 37 H        9.5060     3.5060    -0.7890 H     1 <1>   0.1500 
@<TRIPOS>BOND
  1   1   2  ar  
  2   2   3  ar  
  3   2   4  1   
  4   4   5  1   
  5   4   6  1   
  6   4   7  1   
  7   5   8  1   
  8   5   9  1   
  9   5  20  1   
 10   6  10  1   
 11   6  21  1   
 12   6  22  1   
 13   7  11  1   
 14   7  23  1   
 15   7  24  1   
 16   8  25  1   
 17   9  12  1   
 18   9  26  1   
 19   9  27  1   
 20  10  12  1   
 21  10  28  1   
 22  10  29  1   
 23  11  13  1   
 24  11  30  1   
 25  11  31  1   
 26  12  14  1   
 27  13  32  1   
 28  13  33  1   
 29  13  34  1   
 30  14  15  ar  
 31  14  16  ar  
 32  15  17  ar  
 33  16  18  ar  
 34  16  35  1   
 35  17  19  ar  
 36  17  36  1   
 37  18  19  ar  
 38  19  37  1   
@<TRIPOS>SUBSTRUCTURE
  1 ****  12 GROUP 4 **** **** 0

# MOE 2024.06 (io_trps.svl 2023.06)
