@<TRIPOS>MOLECULE
NONAME
50 52 1 0 0 
SMALL
USER_CHARGES


@<TRIPOS>ATOM
  1 O       -1.1400     0.1830     1.4580 O.2   1 <1>  -0.5700 
  2 C       -1.7600     0.9360     0.7220 C.2   1 <1>   0.5440 
  3 N       -2.8770     0.4120     0.0750 N.am  1 <1>  -0.6600 
  4 C       -1.2980     2.3260     0.5980 C.ar  1 <1>   0.3960 
  5 C       -3.9400     1.2810    -0.5260 C.3   1 <1>   0.2200 
  6 C       -2.9570    -1.0660    -0.1580 C.3   1 <1>   0.0600 
  7 N       -1.4090     2.9900    -0.5690 N.ar  1 <1>  -0.6200 
  8 C       -0.7330     2.9420     1.7170 C.ar  1 <1>  -0.1500 
  9 C       -4.5390     2.2430     0.5040 C.3   1 <1>  -0.1600 
 10 C       -5.1760     0.5370    -1.0460 C.3   1 <1>  -0.1600 
 11 C       -0.9640     4.2300    -0.6150 C.ar  1 <1>   0.1670 
 12 C       -0.2770     4.2390     1.6660 C.ar  1 <1>  -0.1500 
 13 C       -5.8820     2.6780    -0.0950 C.3   1 <1>  -0.0800 
 14 C       -6.2730     1.6060    -1.1140 C.3   1 <1>  -0.0800 
 15 C       -0.3990     4.8930     0.4620 C.ar  1 <1>  -0.1500 
 16 C       -1.1010     4.9310    -1.9500 C.3   1 <1>  -0.0970 
 17 C       -7.0510     2.7590     0.8970 C.3   1 <1>  -0.1600 
 18 C       -7.6790     1.1330    -0.7120 C.3   1 <1>  -0.1600 
 19 C       -8.2780     2.2770     0.1140 C.3   1 <1>   0.4230 
 20 N       -8.8010     3.3610    -0.7810 N.4   1 <1>  -0.9590 
 21 C       -9.2610     4.5690    -0.0210 C.3   1 <1>   0.2630 
 22 C       -9.9250     2.8970    -1.6560 C.3   1 <1>   0.2630 
 23 H       -3.5200     1.8420    -1.3440 H     1 <1>   0.0800 
 24 H       -3.1780    -1.2680    -1.1900 H     1 <1>   0.0800 
 25 H       -3.7190    -1.4930     0.4700 H     1 <1>   0.0800 
 26 H       -2.0210    -1.5420     0.0760 H     1 <1>   0.0800 
 27 H       -0.6540     2.3830     2.6330 H     1 <1>   0.1500 
 28 H       -4.6820     1.7130     1.4290 H     1 <1>   0.0800 
 29 H       -3.9070     3.0950     0.6740 H     1 <1>   0.0800 
 30 H       -4.9960     0.0970    -2.0110 H     1 <1>   0.0800 
 31 H       -5.4580    -0.2250    -0.3430 H     1 <1>   0.0800 
 32 H        0.1600     4.7180     2.5270 H     1 <1>   0.1500 
 33 H       -5.7580     3.6180    -0.6070 H     1 <1>   0.0800 
 34 H       -6.2870     2.0460    -2.0980 H     1 <1>   0.0800 
 35 H       -0.0550     5.9060     0.3620 H     1 <1>   0.1500 
 36 H       -0.7150     5.9320    -1.9060 H     1 <1>   0.0800 
 37 H       -2.1370     4.9690    -2.2330 H     1 <1>   0.0800 
 38 H       -0.5580     4.3830    -2.6980 H     1 <1>   0.0800 
 39 H       -7.1450     3.7300     1.3420 H     1 <1>   0.0800 
 40 H       -6.8880     2.0560     1.6960 H     1 <1>   0.0800 
 41 H       -7.5990     0.2810    -0.0590 H     1 <1>   0.0800 
 42 H       -8.2650     0.8280    -1.5580 H     1 <1>   0.0800 
 43 H       -9.0540     1.9250     0.7750 H     1 <1>   0.0800 
 44 H       -8.0110     3.6360    -1.3810 H     1 <1>   0.4500 
 45 H      -10.0260     4.2970     0.6880 H     1 <1>   0.0800 
 46 H       -9.6650     5.3030    -0.6990 H     1 <1>   0.0800 
 47 H       -8.4410     5.0210     0.5110 H     1 <1>   0.0800 
 48 H      -10.7340     2.5140    -1.0560 H     1 <1>   0.0800 
 49 H       -9.5940     2.1210    -2.3260 H     1 <1>   0.0800 
 50 H      -10.2960     3.7150    -2.2520 H     1 <1>   0.0800 
@<TRIPOS>BOND
  1   1   2  2   
  2   2   3  am  
  3   2   4  1   
  4   3   5  1   
  5   3   6  1   
  6   4   7  ar  
  7   4   8  ar  
  8   5   9  1   
  9   5  10  1   
 10   5  23  1   
 11   6  24  1   
 12   6  25  1   
 13   6  26  1   
 14   7  11  ar  
 15   8  12  ar  
 16   8  27  1   
 17   9  13  1   
 18   9  28  1   
 19   9  29  1   
 20  10  14  1   
 21  10  30  1   
 22  10  31  1   
 23  11  15  ar  
 24  11  16  1   
 25  12  15  ar  
 26  12  32  1   
 27  13  14  1   
 28  13  17  1   
 29  13  33  1   
 30  14  18  1   
 31  14  34  1   
 32  15  35  1   
 33  16  36  1   
 34  16  37  1   
 35  16  38  1   
 36  17  19  1   
 37  17  39  1   
 38  17  40  1   
 39  18  19  1   
 40  18  41  1   
 41  18  42  1   
 42  19  20  1   
 43  19  43  1   
 44  20  21  1   
 45  20  22  1   
 46  20  44  1   
 47  21  45  1   
 48  21  46  1   
 49  21  47  1   
 50  22  48  1   
 51  22  49  1   
 52  22  50  1   
@<TRIPOS>SUBSTRUCTURE
  1 ****   9 GROUP 4 **** **** 0

# MOE 2024.06 (io_trps.svl 2023.06)
