@<TRIPOS>MOLECULE
NONAME
51 53 1 0 0 
SMALL
USER_CHARGES


@<TRIPOS>ATOM
  1 O        0.7400     0.3100    -1.4540 O.3   1 <1>  -0.5600 
  2 C        1.7900    -0.5310    -1.0410 C.3   1 <1>   0.2000 
  3 C        1.0870     1.6240    -1.7590 C.3   1 <1>   0.1200 
  4 C        2.6580     0.0960     0.1000 C.3   1 <1>   0.5660 
  5 C        1.1180    -1.8410    -0.5940 C.3   1 <1>   0.1200 
  6 C        1.6110     2.3080    -0.4920 C.3   1 <1>   0.3430 
  7 N        2.8050     1.5880     0.0520 N.4   1 <1>  -0.9590 
  8 C        4.0820    -0.4530     0.0910 C.ar  1 <1>  -0.1430 
  9 O        1.9740    -2.6130     0.1810 O.3   1 <1>  -0.6800 
 10 C        3.2470     2.1230     1.3660 C.3   1 <1>   0.4870 
 11 C        4.5780    -1.0800     1.2270 C.ar  1 <1>  -0.1500 
 12 C        4.9010    -0.3350    -1.0270 C.ar  1 <1>  -0.1500 
 13 C        3.4720     3.6160     1.2400 C.ar  1 <1>  -0.1430 
 14 C        5.8690    -1.5740     1.2480 C.ar  1 <1>  -0.1500 
 15 C        6.1890    -0.8400    -1.0070 C.ar  1 <1>  -0.1500 
 16 C        4.5100     4.0990     0.4510 C.ar  1 <1>   0.0820 
 17 C        2.6410     4.5030     1.9100 C.ar  1 <1>  -0.1500 
 18 C        6.6760    -1.4540     0.1320 C.ar  1 <1>  -0.1500 
 19 O        5.3010     3.1930    -0.1790 O.3   1 <1>  -0.3630 
 20 C        4.7010     5.4730     0.3310 C.ar  1 <1>  -0.1500 
 21 C        2.8380     5.8670     1.7880 C.ar  1 <1>  -0.1500 
 22 C        6.6340     3.5460    -0.5130 C.3   1 <1>   0.1200 
 23 C        3.8660     6.3500     0.9980 C.ar  1 <1>  -0.1500 
 24 C        7.4020     2.2830    -0.8970 C.3   1 <1>   0.1200 
 25 O        8.7120     2.6160    -1.2020 O.3   1 <1>  -0.6800 
 26 H        2.3950    -0.7310    -1.9070 H     1 <1>   0.0800 
 27 H        1.8200     1.6270    -2.5470 H     1 <1>   0.0800 
 28 H        0.1990     2.1230    -2.1080 H     1 <1>   0.0800 
 29 H        2.1910    -0.1800     1.0300 H     1 <1>   0.0800 
 30 H        0.8000    -2.4240    -1.4420 H     1 <1>   0.0800 
 31 H        0.2610    -1.6170     0.0190 H     1 <1>   0.0800 
 32 H        0.8220     2.3220     0.2410 H     1 <1>   0.0800 
 33 H        1.8710     3.3300    -0.7180 H     1 <1>   0.0800 
 34 H        3.6060     1.7820    -0.5650 H     1 <1>   0.4500 
 35 H        2.5030    -3.2290    -0.3700 H     1 <1>   0.4000 
 36 H        2.5030     1.9260     2.1190 H     1 <1>   0.0800 
 37 H        4.1720     1.6530     1.6630 H     1 <1>   0.0800 
 38 H        3.9630    -1.2030     2.1030 H     1 <1>   0.1500 
 39 H        4.5550     0.1400    -1.9280 H     1 <1>   0.1500 
 40 H        6.2490    -2.0600     2.1320 H     1 <1>   0.1500 
 41 H        6.8220    -0.7590    -1.8750 H     1 <1>   0.1500 
 42 H        1.8380     4.1500     2.5350 H     1 <1>   0.1500 
 43 H        7.6810    -1.8430     0.1490 H     1 <1>   0.1500 
 44 H        5.4870     5.8800    -0.2770 H     1 <1>   0.1500 
 45 H        2.1950     6.5570     2.3100 H     1 <1>   0.1500 
 46 H        6.6060     4.2350    -1.3380 H     1 <1>   0.0800 
 47 H        7.0890     4.0030     0.3490 H     1 <1>   0.0800 
 48 H        4.0160     7.4140     0.9060 H     1 <1>   0.1500 
 49 H        6.9670     1.8120    -1.7600 H     1 <1>   0.0800 
 50 H        7.4250     1.5940    -0.0700 H     1 <1>   0.0800 
 51 H        8.7740     3.1160    -2.0400 H     1 <1>   0.4000 
@<TRIPOS>BOND
  1   1   2  1   
  2   1   3  1   
  3   2   4  1   
  4   2   5  1   
  5   2  26  1   
  6   3   6  1   
  7   3  27  1   
  8   3  28  1   
  9   4   7  1   
 10   4   8  1   
 11   4  29  1   
 12   5   9  1   
 13   5  30  1   
 14   5  31  1   
 15   6   7  1   
 16   6  32  1   
 17   6  33  1   
 18   7  10  1   
 19   7  34  1   
 20   8  11  ar  
 21   8  12  ar  
 22   9  35  1   
 23  10  13  1   
 24  10  36  1   
 25  10  37  1   
 26  11  14  ar  
 27  11  38  1   
 28  12  15  ar  
 29  12  39  1   
 30  13  16  ar  
 31  13  17  ar  
 32  14  18  ar  
 33  14  40  1   
 34  15  18  ar  
 35  15  41  1   
 36  16  19  1   
 37  16  20  ar  
 38  17  21  ar  
 39  17  42  1   
 40  18  43  1   
 41  19  22  1   
 42  20  23  ar  
 43  20  44  1   
 44  21  23  ar  
 45  21  45  1   
 46  22  24  1   
 47  22  46  1   
 48  22  47  1   
 49  23  48  1   
 50  24  25  1   
 51  24  49  1   
 52  24  50  1   
 53  25  51  1   
@<TRIPOS>SUBSTRUCTURE
  1 ****   7 GROUP 4 **** **** 0

# MOE 2024.06 (io_trps.svl 2023.06)
