@<TRIPOS>MOLECULE
NONAME
56 58 1 0 0 
SMALL
USER_CHARGES


@<TRIPOS>ATOM
  1 O       -0.7110    -0.2800     1.0290 O.2   1 <1>  -0.5700 
  2 C       -1.2190     0.4360     0.2010 C.2   1 <1>   0.5690 
  3 N       -1.8640    -0.0660    -0.8850 N.am  1 <1>  -0.7300 
  4 C       -1.1550     1.9490     0.3950 C.3   1 <1>  -0.0190 
  5 C       -2.0170    -1.5060    -1.1760 C.3   1 <1>   0.1400 
  6 C       -2.5610     2.5710     0.5090 C.3   1 <1>  -0.1600 
  7 C       -0.3150     2.6420    -0.7050 C.3   1 <1>  -0.1600 
  8 C       -3.3430    -1.9870    -0.5820 C.3   1 <1>  -0.1600 
  9 C       -2.5050     4.0720     0.8630 C.3   1 <1>   0.2000 
 10 C       -0.6460     4.1370    -0.8880 C.3   1 <1>  -0.1600 
 11 C       -3.5610    -3.4990    -0.7630 C.3   1 <1>   0.2070 
 12 O       -3.5980     4.7010     0.2410 O.3   1 <1>  -0.5600 
 13 C       -1.1910     4.7560     0.4020 C.3   1 <1>   0.2000 
 14 C       -4.9530    -3.8730    -0.2540 C.ar  1 <1>  -0.1440 
 15 C       -2.4840    -4.3960    -0.1350 C.ar  1 <1>  -0.1440 
 16 C       -4.8060     4.6060     0.9300 C.3   1 <1>   0.0400 
 17 O       -1.4340     6.0930     0.1640 O.3   1 <1>  -0.6800 
 18 C       -5.1910    -4.0600     1.1010 C.ar  1 <1>  -0.1500 
 19 C       -6.0050    -4.0220    -1.1470 C.ar  1 <1>  -0.1500 
 20 C       -1.6900    -4.0030     0.9380 C.ar  1 <1>  -0.1500 
 21 C       -2.3030    -5.6680    -0.6610 C.ar  1 <1>  -0.1500 
 22 C       -6.4560    -4.3900     1.5550 C.ar  1 <1>  -0.1500 
 23 C       -7.2710    -4.3530    -0.6950 C.ar  1 <1>  -0.1500 
 24 C       -0.7330    -4.8560     1.4590 C.ar  1 <1>  -0.1500 
 25 C       -1.3470    -6.5230    -0.1410 C.ar  1 <1>  -0.1500 
 26 C       -7.4980    -4.5360     0.6570 C.ar  1 <1>  -0.1500 
 27 C       -0.5590    -6.1170     0.9200 C.ar  1 <1>  -0.1500 
 28 H       -2.3150     0.5770    -1.5370 H     1 <1>   0.3700 
 29 H       -0.6590     2.1140     1.3370 H     1 <1>   0.0800 
 30 H       -2.0000    -1.6620    -2.2410 H     1 <1>   0.0800 
 31 H       -1.1880    -2.0430    -0.7460 H     1 <1>   0.0800 
 32 H       -3.1200     2.0500     1.2650 H     1 <1>   0.0800 
 33 H       -3.0680     2.4490    -0.4320 H     1 <1>   0.0800 
 34 H        0.7250     2.5370    -0.4470 H     1 <1>   0.0800 
 35 H       -0.4550     2.1500    -1.6520 H     1 <1>   0.0800 
 36 H       -3.3800    -1.7450     0.4640 H     1 <1>   0.0800 
 37 H       -4.1500    -1.4670    -1.0670 H     1 <1>   0.0800 
 38 H       -2.5860     4.2050     1.9290 H     1 <1>   0.0800 
 39 H       -1.3950     4.2390    -1.6550 H     1 <1>   0.0800 
 40 H        0.2360     4.6660    -1.2040 H     1 <1>   0.0800 
 41 H       -3.5400    -3.6880    -1.8230 H     1 <1>   0.0800 
 42 H       -0.4430     4.6890     1.1730 H     1 <1>   0.0800 
 43 H       -5.5590     5.1210     0.3580 H     1 <1>   0.0800 
 44 H       -4.7030     5.0740     1.8940 H     1 <1>   0.0800 
 45 H       -5.0810     3.5710     1.0370 H     1 <1>   0.0800 
 46 H       -2.3730     6.1450    -0.1290 H     1 <1>   0.4000 
 47 H       -4.3890    -3.9520     1.8110 H     1 <1>   0.1500 
 48 H       -5.8480    -3.8830    -2.2020 H     1 <1>   0.1500 
 49 H       -1.7980    -3.0300     1.3860 H     1 <1>   0.1500 
 50 H       -2.9130    -6.0040    -1.4810 H     1 <1>   0.1500 
 51 H       -6.6270    -4.5340     2.6080 H     1 <1>   0.1500 
 52 H       -8.0800    -4.4680    -1.3950 H     1 <1>   0.1500 
 53 H       -0.1240    -4.5330     2.2850 H     1 <1>   0.1500 
 54 H       -1.2190    -7.5060    -0.5610 H     1 <1>   0.1500 
 55 H       -8.4810    -4.7940     1.0100 H     1 <1>   0.1500 
 56 H        0.1850    -6.7790     1.3260 H     1 <1>   0.1500 
@<TRIPOS>BOND
  1   1   2  2   
  2   2   3  am  
  3   2   4  1   
  4   3   5  1   
  5   3  28  1   
  6   4   6  1   
  7   4   7  1   
  8   4  29  1   
  9   5   8  1   
 10   5  30  1   
 11   5  31  1   
 12   6   9  1   
 13   6  32  1   
 14   6  33  1   
 15   7  10  1   
 16   7  34  1   
 17   7  35  1   
 18   8  11  1   
 19   8  36  1   
 20   8  37  1   
 21   9  12  1   
 22   9  13  1   
 23   9  38  1   
 24  10  13  1   
 25  10  39  1   
 26  10  40  1   
 27  11  14  1   
 28  11  15  1   
 29  11  41  1   
 30  12  16  1   
 31  13  17  1   
 32  13  42  1   
 33  14  18  ar  
 34  14  19  ar  
 35  15  20  ar  
 36  15  21  ar  
 37  16  43  1   
 38  16  44  1   
 39  16  45  1   
 40  17  46  1   
 41  18  22  ar  
 42  18  47  1   
 43  19  23  ar  
 44  19  48  1   
 45  20  24  ar  
 46  20  49  1   
 47  21  25  ar  
 48  21  50  1   
 49  22  26  ar  
 50  22  51  1   
 51  23  26  ar  
 52  23  52  1   
 53  24  27  ar  
 54  24  53  1   
 55  25  27  ar  
 56  25  54  1   
 57  26  55  1   
 58  27  56  1   
@<TRIPOS>SUBSTRUCTURE
  1 ****   8 GROUP 4 **** **** 0

# MOE 2024.06 (io_trps.svl 2023.06)
