@<TRIPOS>MOLECULE
NONAME
53 56 1 0 0 
SMALL
USER_CHARGES


@<TRIPOS>ATOM
  1 O        0.2710    -0.3330    -0.2420 O.3   1 <1>  -0.6800 
  2 C        1.5860    -0.4620    -0.6640 C.3   1 <1>   0.2000 
  3 C        2.2150    -1.6090     0.1370 C.3   1 <1>  -0.0800 
  4 C        2.3320     0.8110    -0.2370 C.3   1 <1>   0.3430 
  5 C        2.7370    -0.8920     1.3840 C.3   1 <1>   0.3430 
  6 C        3.3080    -2.3910    -0.6390 C.3   1 <1>  -0.0170 
  7 N        3.2310     0.4140     0.8900 N.4   1 <1>  -0.9590 
  8 C        4.6760    -1.7180    -0.7150 C.ar  1 <1>   0.1670 
  9 C        3.4230     1.4670     1.9130 C.3   1 <1>   0.4860 
 10 N        4.7490    -0.5930    -1.4070 N.ar  1 <1>  -0.6200 
 11 C        5.7680    -2.2830    -0.0560 C.ar  1 <1>   0.1600 
 12 C        4.1070     2.6400     1.2400 C.ar  1 <1>  -0.1440 
 13 C        5.9750    -0.0870    -1.4240 C.ar  1 <1>   0.1600 
 14 N        6.9780    -1.7560    -0.0330 N.ar  1 <1>  -0.6200 
 15 C        5.4440     2.5530     0.8830 C.ar  1 <1>  -0.1500 
 16 C        3.4000     3.7990     0.9550 C.ar  1 <1>  -0.1500 
 17 C        7.0530    -0.6490    -0.7520 C.ar  1 <1>   0.1600 
 18 C        6.0810     3.6000     0.2270 C.ar  1 <1>  -0.0230 
 19 C        4.0220     4.8490     0.3030 C.ar  1 <1>  -0.1500 
 20 N        7.4480     3.4820    -0.1480 N.pl3 1 <1>   0.5930 
 21 C        5.3510     4.7480    -0.0640 C.ar  1 <1>  -0.1500 
 22 N        7.8910     2.4730    -0.9430 N.2   1 <1>  -0.7070 
 23 C        8.4930     4.2700     0.2290 C.2   1 <1>  -0.3320 
 24 C        9.1650     2.6610    -1.0620 C.2   1 <1>   0.1080 
 25 C        9.6030     3.7680    -0.3480 C.2   1 <1>  -0.1500 
 26 C        8.3860     5.4770     1.1490 C.3   1 <1>  -0.0600 
 27 C       10.0580     1.7620    -1.8870 C.3   1 <1>  -0.0590 
 28 H       -0.3140    -0.9790    -0.6920 H     1 <1>   0.4000 
 29 H        1.5970    -0.6030    -1.7330 H     1 <1>   0.0800 
 30 H        1.4570    -2.3200     0.4190 H     1 <1>   0.0800 
 31 H        1.6230     1.5600     0.0720 H     1 <1>   0.0800 
 32 H        2.9230     1.1920    -1.0550 H     1 <1>   0.0800 
 33 H        3.5140    -1.4530     1.8790 H     1 <1>   0.0800 
 34 H        1.9160    -0.7320     2.0660 H     1 <1>   0.0800 
 35 H        2.9690    -2.5870    -1.6420 H     1 <1>   0.0800 
 36 H        3.4280    -3.3510    -0.1690 H     1 <1>   0.0800 
 37 H        4.1410     0.2500     0.4220 H     1 <1>   0.4500 
 38 H        2.4730     1.7710     2.3200 H     1 <1>   0.0800 
 39 H        4.0450     1.1000     2.7130 H     1 <1>   0.0800 
 40 H        5.6410    -3.2070     0.4820 H     1 <1>   0.1500 
 41 H        6.1410     0.8160    -1.9880 H     1 <1>   0.1500 
 42 H        6.0170     1.6670     1.1040 H     1 <1>   0.1500 
 43 H        2.3630     3.8980     1.2300 H     1 <1>   0.1500 
 44 H        8.0090    -0.1590    -0.8110 H     1 <1>   0.1500 
 45 H        3.4710     5.7470     0.0770 H     1 <1>   0.1500 
 46 H        5.8230     5.5640    -0.5850 H     1 <1>   0.1500 
 47 H       10.6170     4.1210    -0.2850 H     1 <1>   0.1500 
 48 H        9.3650     5.8620     1.3690 H     1 <1>   0.0800 
 49 H        7.9130     5.1990     2.0750 H     1 <1>   0.0800 
 50 H        7.8110     6.2570     0.6830 H     1 <1>   0.0800 
 51 H       10.9650     2.2750    -2.1460 H     1 <1>   0.0800 
 52 H        9.5520     1.4760    -2.7900 H     1 <1>   0.0800 
 53 H       10.3020     0.8790    -1.3260 H     1 <1>   0.0800 
@<TRIPOS>BOND
  1   1   2  1   
  2   1  28  1   
  3   2   3  1   
  4   2   4  1   
  5   2  29  1   
  6   3   5  1   
  7   3   6  1   
  8   3  30  1   
  9   4   7  1   
 10   4  31  1   
 11   4  32  1   
 12   5   7  1   
 13   5  33  1   
 14   5  34  1   
 15   6   8  1   
 16   6  35  1   
 17   6  36  1   
 18   7   9  1   
 19   7  37  1   
 20   8  10  ar  
 21   8  11  ar  
 22   9  12  1   
 23   9  38  1   
 24   9  39  1   
 25  10  13  ar  
 26  11  14  ar  
 27  11  40  1   
 28  12  15  ar  
 29  12  16  ar  
 30  13  17  ar  
 31  13  41  1   
 32  14  17  ar  
 33  15  18  ar  
 34  15  42  1   
 35  16  19  ar  
 36  16  43  1   
 37  17  44  1   
 38  18  20  1   
 39  18  21  ar  
 40  19  21  ar  
 41  19  45  1   
 42  20  22  1   
 43  20  23  1   
 44  21  46  1   
 45  22  24  2   
 46  23  25  2   
 47  23  26  1   
 48  24  25  1   
 49  24  27  1   
 50  25  47  1   
 51  26  48  1   
 52  26  49  1   
 53  26  50  1   
 54  27  51  1   
 55  27  52  1   
 56  27  53  1   
@<TRIPOS>SUBSTRUCTURE
  1 ****  15 GROUP 4 **** **** 0

# MOE 2024.06 (io_trps.svl 2023.06)
