@<TRIPOS>MOLECULE
NONAME
55 58 1 0 0 
SMALL
USER_CHARGES


@<TRIPOS>ATOM
  1 O       -1.8610     1.2710    -1.6060 O.2   1 <1>  -0.5700 
  2 C       -1.6390     1.3310    -0.4170 C.2   1 <1>   0.5690 
  3 N       -1.5690     0.1790     0.3080 N.am  1 <1>  -0.7300 
  4 C       -1.4460     2.7110     0.2720 C.3   1 <1>   0.2040 
  5 C       -1.8030    -1.1740    -0.2340 C.3   1 <1>   0.2200 
  6 C        0.0280     3.1450     0.0700 C.ar  1 <1>  -0.1440 
  7 C       -2.4560     3.7350    -0.3190 C.3   1 <1>  -0.1600 
  8 C       -1.7200     2.6610     1.8040 C.3   1 <1>  -0.1600 
  9 C       -3.2530    -1.5550     0.0100 C.3   1 <1>  -0.0800 
 10 C       -1.0670    -2.1990     0.6200 C.3   1 <1>   0.1200 
 11 C        1.0450     2.3210     0.5440 C.ar  1 <1>  -0.1500 
 12 C        0.4010     4.3260    -0.5700 C.ar  1 <1>  -0.1500 
 13 C       -3.9210     3.3840    -0.0100 C.3   1 <1>  -0.1600 
 14 C       -3.1810     2.3370     2.1700 C.3   1 <1>  -0.1600 
 15 C       -3.2150    -2.0950     1.4450 C.3   1 <1>   0.1200 
 16 C       -3.7380    -2.6090    -1.0030 C.3   1 <1>  -0.0170 
 17 O       -1.8850    -2.4270     1.7280 O.3   1 <1>  -0.5600 
 18 C        2.3780     2.6620     0.3980 C.ar  1 <1>  -0.1500 
 19 C        1.7330     4.6710    -0.7180 C.ar  1 <1>  -0.1500 
 20 C       -4.1540     3.3140     1.5030 C.3   1 <1>  -0.1600 
 21 C       -5.2030    -2.9530    -0.7830 C.ar  1 <1>  -0.1440 
 22 C        2.7250     3.8400    -0.2330 C.ar  1 <1>  -0.1500 
 23 C       -5.6020    -4.1400    -0.2020 C.ar  1 <1>  -0.1500 
 24 C       -6.2130    -2.0900    -1.1580 C.ar  1 <1>  -0.1500 
 25 C       -6.9510    -4.3960    -0.0240 C.ar  1 <1>   0.1600 
 26 C       -7.5330    -2.4420    -0.9350 C.ar  1 <1>   0.1600 
 27 N       -7.9270    -3.5740    -0.3750 N.ar  1 <1>  -0.6200 
 28 H       -1.4710     0.2160     1.3240 H     1 <1>   0.3700 
 29 H       -1.5140    -1.2170    -1.2710 H     1 <1>   0.0800 
 30 H       -2.2590     4.7090     0.0920 H     1 <1>   0.0800 
 31 H       -2.3280     3.7960    -1.3860 H     1 <1>   0.0800 
 32 H       -1.0730     1.9500     2.2840 H     1 <1>   0.0800 
 33 H       -1.4740     3.6240     2.2190 H     1 <1>   0.0800 
 34 H       -3.8950    -0.6940    -0.0600 H     1 <1>   0.0800 
 35 H       -0.1020    -1.8540     0.9450 H     1 <1>   0.0800 
 36 H       -0.9620    -3.1300     0.0930 H     1 <1>   0.0800 
 37 H        0.8140     1.3930     1.0340 H     1 <1>   0.1500 
 38 H       -0.3270     5.0040    -0.9730 H     1 <1>   0.1500 
 39 H       -4.5660     4.1330    -0.4360 H     1 <1>   0.0800 
 40 H       -4.1760     2.4410    -0.4630 H     1 <1>   0.0800 
 41 H       -3.4290     1.3350     1.8660 H     1 <1>   0.0800 
 42 H       -3.3030     2.3900     3.2380 H     1 <1>   0.0800 
 43 H       -3.8280    -2.9680     1.5830 H     1 <1>   0.0800 
 44 H       -3.5150    -1.3350     2.1450 H     1 <1>   0.0800 
 45 H       -3.1410    -3.5010    -0.9300 H     1 <1>   0.0800 
 46 H       -3.6230    -2.2220    -2.0010 H     1 <1>   0.0800 
 47 H        3.1460     2.0080     0.7730 H     1 <1>   0.1500 
 48 H        1.9980     5.5870    -1.2150 H     1 <1>   0.1500 
 49 H       -5.1670     3.0090     1.7000 H     1 <1>   0.0800 
 50 H       -4.0180     4.2950     1.9270 H     1 <1>   0.0800 
 51 H        3.7610     4.1090    -0.3490 H     1 <1>   0.1500 
 52 H       -4.8780    -4.8690     0.1150 H     1 <1>   0.1500 
 53 H       -5.9840    -1.1470    -1.6220 H     1 <1>   0.1500 
 54 H       -7.2440    -5.3270     0.4320 H     1 <1>   0.1500 
 55 H       -8.3070    -1.7550    -1.2340 H     1 <1>   0.1500 
@<TRIPOS>BOND
  1   1   2  2   
  2   2   3  am  
  3   2   4  1   
  4   3   5  1   
  5   3  28  1   
  6   4   6  1   
  7   4   7  1   
  8   4   8  1   
  9   5   9  1   
 10   5  10  1   
 11   5  29  1   
 12   6  11  ar  
 13   6  12  ar  
 14   7  13  1   
 15   7  30  1   
 16   7  31  1   
 17   8  14  1   
 18   8  32  1   
 19   8  33  1   
 20   9  15  1   
 21   9  16  1   
 22   9  34  1   
 23  10  17  1   
 24  10  35  1   
 25  10  36  1   
 26  11  18  ar  
 27  11  37  1   
 28  12  19  ar  
 29  12  38  1   
 30  13  20  1   
 31  13  39  1   
 32  13  40  1   
 33  14  20  1   
 34  14  41  1   
 35  14  42  1   
 36  15  17  1   
 37  15  43  1   
 38  15  44  1   
 39  16  21  1   
 40  16  45  1   
 41  16  46  1   
 42  18  22  ar  
 43  18  47  1   
 44  19  22  ar  
 45  19  48  1   
 46  20  49  1   
 47  20  50  1   
 48  21  23  ar  
 49  21  24  ar  
 50  22  51  1   
 51  23  25  ar  
 52  23  52  1   
 53  24  26  ar  
 54  24  53  1   
 55  25  27  ar  
 56  25  54  1   
 57  26  27  ar  
 58  26  55  1   
@<TRIPOS>SUBSTRUCTURE
  1 ****   3 GROUP 4 **** **** 0

# MOE 2024.06 (io_trps.svl 2023.06)
