@<TRIPOS>MOLECULE
NONAME
41 43 1 0 0 
SMALL
USER_CHARGES


@<TRIPOS>ATOM
  1 O        2.7340     0.0600     1.9300 O.3   1 <1>  -0.6800 
  2 C        2.0240    -0.0580     0.7360 C.3   1 <1>   0.2000 
  3 C        2.3100    -1.4170     0.0940 C.3   1 <1>  -0.0800 
  4 C        2.6270     0.9130    -0.2810 C.3   1 <1>   0.3430 
  5 C        3.6700    -1.2360    -0.5920 C.3   1 <1>   0.3430 
  6 C        2.2650    -2.6400     1.0300 C.3   1 <1>  -0.0170 
  7 N        3.8500     0.2290    -0.7930 N.4   1 <1>  -0.9590 
  8 C        2.6750    -3.8940     0.2760 C.ar  1 <1>  -0.1440 
  9 C        5.0560     0.7550    -0.1000 C.3   1 <1>   0.5240 
 10 C        1.8460    -4.4880    -0.6550 C.ar  1 <1>  -0.1500 
 11 C        3.8990    -4.5010     0.4780 C.ar  1 <1>  -0.1500 
 12 C        5.3510     2.1220    -0.7010 C.2   1 <1>   0.0460 
 13 C        2.2760    -5.6160    -1.3330 C.ar  1 <1>   0.1600 
 14 C        4.2330    -5.6290    -0.2530 C.ar  1 <1>   0.1600 
 15 N        5.2650     2.2900    -2.0390 N.2   1 <1>  -0.5650 
 16 C        5.6880     3.2800    -0.0870 C.2   1 <1>  -0.3320 
 17 N        3.4530    -6.1930    -1.1590 N.ar  1 <1>  -0.6200 
 18 C        5.5660     3.5370    -2.2120 C.2   1 <1>   0.0360 
 19 N        5.8330     4.1960    -1.0660 N.pl3 1 <1>   0.0330 
 20 C        5.8970     3.6150     1.3810 C.3   1 <1>  -0.0600 
 21 H        2.2340    -0.3330     2.6770 H     1 <1>   0.4000 
 22 H        0.9800     0.1330     0.9230 H     1 <1>   0.0800 
 23 H        1.5850    -1.5700    -0.6870 H     1 <1>   0.0800 
 24 H        2.8480     1.8700     0.1640 H     1 <1>   0.0800 
 25 H        1.9330     1.0540    -1.0930 H     1 <1>   0.0800 
 26 H        3.6970    -1.7680    -1.5300 H     1 <1>   0.0800 
 27 H        4.4490    -1.6190     0.0480 H     1 <1>   0.0800 
 28 H        1.2690    -2.7680     1.4180 H     1 <1>   0.0800 
 29 H        2.9260    -2.5040     1.8680 H     1 <1>   0.0800 
 30 H        4.0140     0.5050    -1.7780 H     1 <1>   0.4500 
 31 H        4.8920     0.8290     0.9620 H     1 <1>   0.0800 
 32 H        5.8980     0.1100    -0.2870 H     1 <1>   0.0800 
 33 H        0.8690    -4.0920    -0.8630 H     1 <1>   0.1500 
 34 H        4.6000    -4.1180     1.1980 H     1 <1>   0.1500 
 35 H        1.6190    -6.0690    -2.0570 H     1 <1>   0.1500 
 36 H        5.1900    -6.0940    -0.0830 H     1 <1>   0.1500 
 37 H        5.6060     4.0260    -3.1720 H     1 <1>   0.1500 
 38 H        6.0960     5.1820    -0.9710 H     1 <1>   0.2700 
 39 H        5.7250     2.7540     2.0010 H     1 <1>   0.0800 
 40 H        5.2180     4.3930     1.6860 H     1 <1>   0.0800 
 41 H        6.9050     3.9550     1.5440 H     1 <1>   0.0800 
@<TRIPOS>BOND
  1   1   2  1   
  2   1  21  1   
  3   2   3  1   
  4   2   4  1   
  5   2  22  1   
  6   3   5  1   
  7   3   6  1   
  8   3  23  1   
  9   4   7  1   
 10   4  24  1   
 11   4  25  1   
 12   5   7  1   
 13   5  26  1   
 14   5  27  1   
 15   6   8  1   
 16   6  28  1   
 17   6  29  1   
 18   7   9  1   
 19   7  30  1   
 20   8  10  ar  
 21   8  11  ar  
 22   9  12  1   
 23   9  31  1   
 24   9  32  1   
 25  10  13  ar  
 26  10  33  1   
 27  11  14  ar  
 28  11  34  1   
 29  12  15  1   
 30  12  16  2   
 31  13  17  ar  
 32  13  35  1   
 33  14  17  ar  
 34  14  36  1   
 35  15  18  2   
 36  16  19  1   
 37  16  20  1   
 38  18  19  1   
 39  18  37  1   
 40  19  38  1   
 41  20  39  1   
 42  20  40  1   
 43  20  41  1   
@<TRIPOS>SUBSTRUCTURE
  1 ****   5 GROUP 4 **** **** 0

# MOE 2024.06 (io_trps.svl 2023.06)
