@<TRIPOS>MOLECULE
NONAME
61 65 1 0 0 
SMALL
USER_CHARGES


@<TRIPOS>ATOM
  1 O       -2.1980    -0.1410    -1.9680 O.3   1 <1>  -0.5600 
  2 C       -1.6200    -1.1340    -1.1680 C.3   1 <1>   0.1200 
  3 C       -3.4340    -0.4980    -2.5140 C.3   1 <1>   0.1200 
  4 C       -2.5290    -1.4520     0.0320 C.3   1 <1>   0.2090 
  5 C       -4.4570    -0.7800    -1.3970 C.3   1 <1>   0.2090 
  6 N       -3.9240    -1.7890    -0.4200 N.pl3 1 <1>  -0.8380 
  7 C       -4.4010    -3.0550    -0.3230 C.ar  1 <1>   0.7710 
  8 N       -5.7240    -3.2010    -0.1370 N.ar  1 <1>  -0.1790 
  9 N       -3.5810    -4.0760    -0.3930 N.ar  1 <1>  -0.6200 
 10 C       -6.3210    -4.3990    -0.0330 C.ar  1 <1>   0.4610 
 11 C       -4.1220    -5.2800    -0.3020 C.ar  1 <1>   0.4100 
 12 N       -7.6790    -4.4420     0.1630 N.pl3 1 <1>  -0.8380 
 13 C       -5.4810    -5.4840    -0.1280 C.ar  1 <1>  -0.1500 
 14 N       -3.2540    -6.2960    -0.3920 N.pl3 1 <1>  -0.9000 
 15 C       -8.6390    -3.3400    -0.2050 C.3   1 <1>   0.2090 
 16 C       -8.4090    -5.6750     0.6080 C.3   1 <1>   0.2090 
 17 C       -9.5100    -2.9320     0.9980 C.3   1 <1>   0.1430 
 18 C       -9.3260    -5.3530     1.7950 C.3   1 <1>  -0.1600 
 19 C      -10.4760    -1.8440     0.5790 C.ar  1 <1>   0.1670 
 20 C      -10.2730    -4.1690     1.5160 C.3   1 <1>  -0.1600 
 21 C       -8.7130    -2.2330     2.1340 C.3   1 <1>  -0.1600 
 22 N      -11.1660    -1.8430    -0.5320 N.ar  1 <1>  -0.6200 
 23 C      -10.5270    -0.8360     1.4930 C.ar  1 <1>  -0.1430 
 24 C       -9.6110    -1.0970     2.6610 C.3   1 <1>  -0.0170 
 25 C      -11.9460    -0.7730    -0.7120 C.ar  1 <1>   0.7200 
 26 C      -11.3570     0.2220     1.2250 C.ar  1 <1>   0.1600 
 27 N      -12.0670     0.2640     0.1220 N.ar  1 <1>  -0.6200 
 28 N      -12.6850    -0.7340    -1.8770 N.pl3 1 <1>  -0.8380 
 29 C      -13.3350     0.5200    -2.3490 C.3   1 <1>   0.1290 
 30 C      -13.0670    -1.9680    -2.6160 C.3   1 <1>   0.1290 
 31 H       -0.6680    -0.7680    -0.8270 H     1 <1>   0.0800 
 32 H       -1.4580    -2.0140    -1.7670 H     1 <1>   0.0800 
 33 H       -3.2960    -1.3650    -3.1370 H     1 <1>   0.0800 
 34 H       -3.7670     0.3190    -3.1290 H     1 <1>   0.0800 
 35 H       -2.5620    -0.5910     0.6770 H     1 <1>   0.0800 
 36 H       -2.1000    -2.2630     0.5960 H     1 <1>   0.0800 
 37 H       -5.3700    -1.1260    -1.8490 H     1 <1>   0.0800 
 38 H       -4.6660     0.1430    -0.8820 H     1 <1>   0.0800 
 39 H       -6.2490    -2.3590     0.0220 H     1 <1>   0.4570 
 40 H       -5.8470    -6.4880    -0.0780 H     1 <1>   0.1500 
 41 H       -3.4960    -7.2890    -0.3480 H     1 <1>   0.4000 
 42 H       -2.2570    -6.1050    -0.5270 H     1 <1>   0.4000 
 43 H       -9.2870    -3.6990    -0.9890 H     1 <1>   0.0800 
 44 H       -8.1350    -2.4750    -0.5940 H     1 <1>   0.0800 
 45 H       -7.7260    -6.4500     0.9080 H     1 <1>   0.0800 
 46 H       -9.0000    -6.0510    -0.2110 H     1 <1>   0.0800 
 47 H       -8.7180    -5.1490     2.6580 H     1 <1>   0.0800 
 48 H       -9.9140    -6.2250     2.0260 H     1 <1>   0.0800 
 49 H      -10.9900    -4.4680     0.7700 H     1 <1>   0.0800 
 50 H      -10.8240    -3.9200     2.4060 H     1 <1>   0.0800 
 51 H       -7.8240    -1.7870     1.7280 H     1 <1>   0.0800 
 52 H       -8.4260    -2.9010     2.9250 H     1 <1>   0.0800 
 53 H       -9.0400    -0.2250     2.9290 H     1 <1>   0.0800 
 54 H      -10.1910    -1.4290     3.5060 H     1 <1>   0.0800 
 55 H      -11.4400     1.0430     1.9160 H     1 <1>   0.1500 
 56 H      -12.7510     1.3780    -2.0620 H     1 <1>   0.0800 
 57 H      -14.3150     0.6030    -1.9120 H     1 <1>   0.0800 
 58 H      -13.4210     0.5110    -3.4210 H     1 <1>   0.0800 
 59 H      -12.9550    -2.8380    -1.9930 H     1 <1>   0.0800 
 60 H      -12.4420    -2.0760    -3.4850 H     1 <1>   0.0800 
 61 H      -14.0960    -1.9080    -2.9260 H     1 <1>   0.0800 
@<TRIPOS>BOND
  1   1   2  1   
  2   1   3  1   
  3   2   4  1   
  4   2  31  1   
  5   2  32  1   
  6   3   5  1   
  7   3  33  1   
  8   3  34  1   
  9   4   6  1   
 10   4  35  1   
 11   4  36  1   
 12   5   6  1   
 13   5  37  1   
 14   5  38  1   
 15   6   7  1   
 16   7   8  ar  
 17   7   9  ar  
 18   8  10  ar  
 19   8  39  1   
 20   9  11  ar  
 21  10  12  1   
 22  10  13  ar  
 23  11  13  ar  
 24  11  14  1   
 25  12  15  1   
 26  12  16  1   
 27  13  40  1   
 28  14  41  1   
 29  14  42  1   
 30  15  17  1   
 31  15  43  1   
 32  15  44  1   
 33  16  18  1   
 34  16  45  1   
 35  16  46  1   
 36  17  19  1   
 37  17  20  1   
 38  17  21  1   
 39  18  20  1   
 40  18  47  1   
 41  18  48  1   
 42  19  22  ar  
 43  19  23  ar  
 44  20  49  1   
 45  20  50  1   
 46  21  24  1   
 47  21  51  1   
 48  21  52  1   
 49  22  25  ar  
 50  23  24  1   
 51  23  26  ar  
 52  24  53  1   
 53  24  54  1   
 54  25  27  ar  
 55  25  28  1   
 56  26  27  ar  
 57  26  55  1   
 58  28  29  1   
 59  28  30  1   
 60  29  56  1   
 61  29  57  1   
 62  29  58  1   
 63  30  59  1   
 64  30  60  1   
 65  30  61  1   
@<TRIPOS>SUBSTRUCTURE
  1 ****  15 GROUP 4 **** **** 0

# MOE 2024.06 (io_trps.svl 2023.06)
