@<TRIPOS>MOLECULE
NONAME
54 57 1 0 0 
SMALL
USER_CHARGES


@<TRIPOS>ATOM
  1 O        0.1180    -0.3300    -1.3050 O.3   1 <1>  -0.5600 
  2 C        1.2690     0.2800    -1.8160 C.3   1 <1>   0.1200 
  3 C        0.3130    -1.5840    -0.7110 C.3   1 <1>   0.1200 
  4 C        2.3320     0.4540    -0.7080 C.3   1 <1>   0.4230 
  5 C        1.3280    -1.4830     0.4540 C.3   1 <1>   0.4230 
  6 N        2.6110    -0.8570    -0.0060 N.4   1 <1>  -0.9590 
  7 C        3.6330     1.0930    -1.2660 C.3   1 <1>   0.1100 
  8 C        1.5980    -2.8340     1.1350 C.3   1 <1>  -0.1600 
  9 C        3.5090    -1.7310    -0.8380 C.3   1 <1>   0.3430 
 10 N        4.8560     0.4060    -0.7720 N.3   1 <1>  -0.8100 
 11 C        0.3880    -3.3410     1.9340 C.3   1 <1>  -0.1600 
 12 C        4.8450    -1.0200    -1.1740 C.3   1 <1>   0.1100 
 13 C        6.1010     1.0820    -1.1900 C.3   1 <1>   0.2530 
 14 C        0.7240    -4.6440     2.6640 C.3   1 <1>  -0.2400 
 15 C        6.1500     2.4850    -0.6160 C.ar  1 <1>  -0.1440 
 16 C        6.2740     3.5940    -1.4180 C.ar  1 <1>   0.1600 
 17 C        6.0540     2.7080     0.7350 C.ar  1 <1>   0.1600 
 18 N        6.2830     4.8090    -0.9320 N.ar  1 <1>  -0.6200 
 19 N        6.0600     3.9140     1.2510 N.ar  1 <1>  -0.6200 
 20 C        6.1610     4.9440     0.3970 C.ar  1 <1>   0.6200 
 21 C        6.1580     6.2930     0.9650 C.ar  1 <1>   0.3100 
 22 N        5.3650     7.2470     0.4400 N.ar  1 <1>  -0.6200 
 23 C        6.9840     6.5680     2.0590 C.ar  1 <1>  -0.1500 
 24 C        5.4100     8.4430     0.9960 C.ar  1 <1>   0.1600 
 25 C        7.0210     7.8200     2.6310 C.ar  1 <1>  -0.1500 
 26 C        6.2060     8.7800     2.0750 C.ar  1 <1>  -0.1500 
 27 H        1.6420    -0.3180    -2.6290 H     1 <1>   0.0800 
 28 H        0.9790     1.2410    -2.2040 H     1 <1>   0.0800 
 29 H       -0.6430    -1.9130    -0.3450 H     1 <1>   0.0800 
 30 H        0.6460    -2.2770    -1.4630 H     1 <1>   0.0800 
 31 H        1.9230     1.1450     0.0100 H     1 <1>   0.0800 
 32 H        0.8870    -0.8350     1.1950 H     1 <1>   0.0800 
 33 H        3.1790    -0.5900     0.8080 H     1 <1>   0.4500 
 34 H        3.6400     2.1290    -0.9700 H     1 <1>   0.0800 
 35 H        3.6220     1.0730    -2.3430 H     1 <1>   0.0800 
 36 H        1.8580    -3.5770     0.4010 H     1 <1>   0.0800 
 37 H        2.4220    -2.7220     1.8190 H     1 <1>   0.0800 
 38 H        3.7300    -2.6450    -0.3140 H     1 <1>   0.0800 
 39 H        3.0110    -1.9950    -1.7560 H     1 <1>   0.0800 
 40 H        0.0900    -2.6030     2.6620 H     1 <1>   0.0800 
 41 H       -0.4500    -3.5230     1.2820 H     1 <1>   0.0800 
 42 H        5.0280    -1.1070    -2.2330 H     1 <1>   0.0800 
 43 H        5.6450    -1.5340    -0.6670 H     1 <1>   0.0800 
 44 H        6.9510     0.5310    -0.8220 H     1 <1>   0.0800 
 45 H        6.1610     1.1150    -2.2650 H     1 <1>   0.0800 
 46 H        1.5340    -4.4980     3.3570 H     1 <1>   0.0800 
 47 H        1.0000    -5.4140     1.9650 H     1 <1>   0.0800 
 48 H       -0.1330    -4.9860     3.2190 H     1 <1>   0.0800 
 49 H        6.3660     3.4890    -2.4860 H     1 <1>   0.1500 
 50 H        5.9640     1.8740     1.4100 H     1 <1>   0.1500 
 51 H        7.6000     5.7810     2.4570 H     1 <1>   0.1500 
 52 H        4.7760     9.2000     0.5670 H     1 <1>   0.1500 
 53 H        7.6550     8.0370     3.4730 H     1 <1>   0.1500 
 54 H        6.1860     9.7790     2.4710 H     1 <1>   0.1500 
@<TRIPOS>BOND
  1   1   2  1   
  2   1   3  1   
  3   2   4  1   
  4   2  27  1   
  5   2  28  1   
  6   3   5  1   
  7   3  29  1   
  8   3  30  1   
  9   4   6  1   
 10   4   7  1   
 11   4  31  1   
 12   5   6  1   
 13   5   8  1   
 14   5  32  1   
 15   6   9  1   
 16   6  33  1   
 17   7  10  1   
 18   7  34  1   
 19   7  35  1   
 20   8  11  1   
 21   8  36  1   
 22   8  37  1   
 23   9  12  1   
 24   9  38  1   
 25   9  39  1   
 26  10  12  1   
 27  10  13  1   
 28  11  14  1   
 29  11  40  1   
 30  11  41  1   
 31  12  42  1   
 32  12  43  1   
 33  13  15  1   
 34  13  44  1   
 35  13  45  1   
 36  14  46  1   
 37  14  47  1   
 38  14  48  1   
 39  15  16  ar  
 40  15  17  ar  
 41  16  18  ar  
 42  16  49  1   
 43  17  19  ar  
 44  17  50  1   
 45  18  20  ar  
 46  19  20  ar  
 47  20  21  1   
 48  21  22  ar  
 49  21  23  ar  
 50  22  24  ar  
 51  23  25  ar  
 52  23  51  1   
 53  24  26  ar  
 54  24  52  1   
 55  25  26  ar  
 56  25  53  1   
 57  26  54  1   
@<TRIPOS>SUBSTRUCTURE
  1 ****   7 GROUP 4 **** **** 0

# MOE 2024.06 (io_trps.svl 2023.06)
