@<TRIPOS>MOLECULE
NONAME
51 53 1 0 0 
SMALL
USER_CHARGES


@<TRIPOS>ATOM
  1 O       -0.7560     0.7900    -1.0290 O.co2 1 <1>  -0.9000 
  2 C       -0.1160     1.1980    -0.0530 C.2   1 <1>   0.9060 
  3 O        0.1610     0.4450     0.8960 O.co2 1 <1>  -0.9000 
  4 C        0.2430     2.6770     0.0790 C.3   1 <1>  -0.1060 
  5 C       -0.5970     3.1850     1.2710 C.3   1 <1>   0.2000 
  6 C       -0.1990     3.4500    -1.1870 C.3   1 <1>   0.1400 
  7 C        1.7720     2.8480     0.3200 C.3   1 <1>  -0.0170 
  8 O       -0.1690     2.5960     2.4450 O.3   1 <1>  -0.6800 
  9 C       -0.5640     4.7000     1.4580 C.3   1 <1>  -0.1600 
 10 N       -0.1890     4.9410    -0.9700 N.am  1 <1>  -0.6600 
 11 C        2.6680     2.3040    -0.7920 C.ar  1 <1>  -0.1430 
 12 C       -1.0310     5.3840     0.1760 C.3   1 <1>   0.1400 
 13 C        0.4910     5.7930    -1.8110 C.2   1 <1>   0.5690 
 14 C        3.2170     3.1510    -1.7420 C.ar  1 <1>  -0.1500 
 15 C        2.9580     0.9490    -0.8540 C.ar  1 <1>  -0.1500 
 16 O        1.0350     5.4010    -2.8180 O.2   1 <1>  -0.5700 
 17 C        0.5850     7.2920    -1.5370 C.3   1 <1>   0.0440 
 18 C        4.0400     2.6550    -2.7380 C.ar  1 <1>  -0.1500 
 19 C        3.7810     0.4490    -1.8480 C.ar  1 <1>  -0.1500 
 20 C        1.2450     7.6570    -0.2070 C.ar  1 <1>  -0.1430 
 21 C        4.3250     1.3030    -2.7920 C.ar  1 <1>  -0.1500 
 22 C        2.3030     6.9100     0.2890 C.ar  1 <1>  -0.1500 
 23 C        0.7850     8.7430     0.5230 C.ar  1 <1>  -0.1500 
 24 C        2.8850     7.2220     1.5060 C.ar  1 <1>  -0.1430 
 25 C        1.3680     9.0660     1.7360 C.ar  1 <1>  -0.1500 
 26 C        2.4140     8.3050     2.2280 C.ar  1 <1>  -0.1500 
 27 C        4.0210     6.3650     2.0320 C.3   1 <1>  -0.0970 
 28 H       -1.6190     2.8740     1.1240 H     1 <1>   0.0800 
 29 H       -1.2020     3.1600    -1.4500 H     1 <1>   0.0800 
 30 H        0.4310     3.1760    -2.0170 H     1 <1>   0.0800 
 31 H        1.9970     3.8870     0.4650 H     1 <1>   0.0800 
 32 H        2.0480     2.3440     1.2290 H     1 <1>   0.0800 
 33 H       -0.0080     1.6340     2.2160 H     1 <1>   0.4000 
 34 H       -1.2210     4.9720     2.2630 H     1 <1>   0.0800 
 35 H        0.4280     5.0340     1.7030 H     1 <1>   0.0800 
 36 H       -0.9970     6.4480     0.3090 H     1 <1>   0.0800 
 37 H       -2.0530     5.1090    -0.0230 H     1 <1>   0.0800 
 38 H        2.9970     4.2020    -1.7160 H     1 <1>   0.1500 
 39 H        2.5310     0.2760    -0.1280 H     1 <1>   0.1500 
 40 H        1.1540     7.7460    -2.3270 H     1 <1>   0.0800 
 41 H       -0.4060     7.6990    -1.5840 H     1 <1>   0.0800 
 42 H        4.4500     3.3260    -3.4720 H     1 <1>   0.1500 
 43 H        3.9870    -0.6050    -1.8840 H     1 <1>   0.1500 
 44 H        4.9610     0.9150    -3.5670 H     1 <1>   0.1500 
 45 H        2.6770     6.0710    -0.2710 H     1 <1>   0.1500 
 46 H       -0.0270     9.3430     0.1530 H     1 <1>   0.1500 
 47 H        1.0090     9.9100     2.2980 H     1 <1>   0.1500 
 48 H        2.8570     8.5600     3.1750 H     1 <1>   0.1500 
 49 H        4.5300     6.8570     2.8410 H     1 <1>   0.0800 
 50 H        4.7310     6.1700     1.2490 H     1 <1>   0.0800 
 51 H        3.6320     5.4270     2.3870 H     1 <1>   0.0800 
@<TRIPOS>BOND
  1   1   2  ar  
  2   2   3  ar  
  3   2   4  1   
  4   4   5  1   
  5   4   6  1   
  6   4   7  1   
  7   5   8  1   
  8   5   9  1   
  9   5  28  1   
 10   6  10  1   
 11   6  29  1   
 12   6  30  1   
 13   7  11  1   
 14   7  31  1   
 15   7  32  1   
 16   8  33  1   
 17   9  12  1   
 18   9  34  1   
 19   9  35  1   
 20  10  12  1   
 21  10  13  am  
 22  11  14  ar  
 23  11  15  ar  
 24  12  36  1   
 25  12  37  1   
 26  13  16  2   
 27  13  17  1   
 28  14  18  ar  
 29  14  38  1   
 30  15  19  ar  
 31  15  39  1   
 32  17  20  1   
 33  17  40  1   
 34  17  41  1   
 35  18  21  ar  
 36  18  42  1   
 37  19  21  ar  
 38  19  43  1   
 39  20  22  ar  
 40  20  23  ar  
 41  21  44  1   
 42  22  24  ar  
 43  22  45  1   
 44  23  25  ar  
 45  23  46  1   
 46  24  26  ar  
 47  24  27  1   
 48  25  26  ar  
 49  25  47  1   
 50  26  48  1   
 51  27  49  1   
 52  27  50  1   
 53  27  51  1   
@<TRIPOS>SUBSTRUCTURE
  1 ****   7 GROUP 4 **** **** 0

# MOE 2024.06 (io_trps.svl 2023.06)
