@<TRIPOS>MOLECULE
NONAME
44 46 1 0 0 
SMALL
USER_CHARGES


@<TRIPOS>ATOM
  1 O       -3.8670     2.7860    -0.7970 O.2   1 <1>  -0.5700 
  2 C       -2.8330     2.1640    -0.7960 C.2   1 <1>   0.5690 
  3 N       -2.6860     1.0120    -1.4960 N.am  1 <1>  -0.7300 
  4 C       -1.6660     2.6420     0.0480 C.3   1 <1>   0.0820 
  5 C       -3.7550     0.2730    -2.2010 C.3   1 <1>   0.2200 
  6 C       -1.1670     1.5100     0.9370 C.2   1 <1>  -0.1810 
  7 C       -4.1890    -0.9440    -1.3900 C.3   1 <1>  -0.0800 
  8 C       -3.1380    -0.4170    -3.4090 C.3   1 <1>   0.1200 
  9 C       -0.1340     0.6680     0.7730 C.2   1 <1>  -0.0400 
 10 C       -1.7490     1.0770     2.1290 C.2   1 <1>   0.1080 
 11 C       -3.1070    -1.9770    -1.7260 C.3   1 <1>   0.1200 
 12 C       -4.3950    -0.7120     0.1190 C.3   1 <1>  -0.0170 
 13 O       -2.4700    -1.5280    -2.8890 O.3   1 <1>  -0.5600 
 14 O       -0.1340    -0.1660     1.7780 O.3   1 <1>  -0.0190 
 15 C        0.9250     0.5290    -0.3010 C.3   1 <1>  -0.0600 
 16 N       -1.1110     0.0680     2.6040 N.2   1 <1>  -0.4100 
 17 C       -2.9690     1.6830     2.7920 C.3   1 <1>  -0.0590 
 18 C       -4.7410    -2.0010     0.8460 C.ar  1 <1>  -0.1440 
 19 C       -3.8470    -2.6020     1.7090 C.ar  1 <1>  -0.1500 
 20 C       -5.9570    -2.6330     0.6880 C.ar  1 <1>  -0.1500 
 21 C       -4.2010    -3.7780     2.3490 C.ar  1 <1>   0.1600 
 22 C       -6.2110    -3.8080     1.3760 C.ar  1 <1>   0.1600 
 23 N       -5.3610    -4.3980     2.2010 N.ar  1 <1>  -0.6200 
 24 H       -1.8290     0.4630    -1.3870 H     1 <1>   0.3700 
 25 H       -0.8840     2.9780    -0.6060 H     1 <1>   0.0800 
 26 H       -1.9760     3.4750     0.6520 H     1 <1>   0.0800 
 27 H       -4.5710     0.9270    -2.4600 H     1 <1>   0.0800 
 28 H       -5.1140    -1.3050    -1.8040 H     1 <1>   0.0800 
 29 H       -2.4440     0.2110    -3.9390 H     1 <1>   0.0800 
 30 H       -3.9010    -0.7720    -4.0800 H     1 <1>   0.0800 
 31 H       -3.5250    -2.9520    -1.9050 H     1 <1>   0.0800 
 32 H       -2.3630    -2.0380    -0.9490 H     1 <1>   0.0800 
 33 H       -5.1790     0.0090     0.2700 H     1 <1>   0.0800 
 34 H       -3.5000    -0.3130     0.5550 H     1 <1>   0.0800 
 35 H        0.7980     1.2750    -1.0640 H     1 <1>   0.0800 
 36 H        0.8590    -0.4450    -0.7520 H     1 <1>   0.0800 
 37 H        1.9000     0.6430     0.1370 H     1 <1>   0.0800 
 38 H       -3.7520     1.8310     2.0710 H     1 <1>   0.0800 
 39 H       -2.7100     2.6270     3.2330 H     1 <1>   0.0800 
 40 H       -3.3300     1.0260     3.5630 H     1 <1>   0.0800 
 41 H       -2.8790    -2.1680     1.8940 H     1 <1>   0.1500 
 42 H       -6.7090    -2.2230     0.0390 H     1 <1>   0.1500 
 43 H       -3.4900    -4.2310     3.0190 H     1 <1>   0.1500 
 44 H       -7.1650    -4.2880     1.2410 H     1 <1>   0.1500 
@<TRIPOS>BOND
  1   1   2  2   
  2   2   3  am  
  3   2   4  1   
  4   3   5  1   
  5   3  24  1   
  6   4   6  1   
  7   4  25  1   
  8   4  26  1   
  9   5   7  1   
 10   5   8  1   
 11   5  27  1   
 12   6   9  2   
 13   6  10  1   
 14   7  11  1   
 15   7  12  1   
 16   7  28  1   
 17   8  13  1   
 18   8  29  1   
 19   8  30  1   
 20   9  14  1   
 21   9  15  1   
 22  10  16  2   
 23  10  17  1   
 24  11  13  1   
 25  11  31  1   
 26  11  32  1   
 27  12  18  1   
 28  12  33  1   
 29  12  34  1   
 30  14  16  1   
 31  15  35  1   
 32  15  36  1   
 33  15  37  1   
 34  17  38  1   
 35  17  39  1   
 36  17  40  1   
 37  18  19  ar  
 38  18  20  ar  
 39  19  21  ar  
 40  19  41  1   
 41  20  22  ar  
 42  20  42  1   
 43  21  23  ar  
 44  21  43  1   
 45  22  23  ar  
 46  22  44  1   
@<TRIPOS>SUBSTRUCTURE
  1 ****  12 GROUP 4 **** **** 0

# MOE 2024.06 (io_trps.svl 2023.06)
