@<TRIPOS>MOLECULE
NONAME
47 49 1 0 0 
SMALL
USER_CHARGES


@<TRIPOS>ATOM
  1 O       -0.1270     0.1800    -0.2780 O.2   1 <1>  -0.5700 
  2 C       -0.2160     1.3690    -0.0390 C.2   1 <1>   0.5440 
  3 N       -1.4680     1.9400     0.0510 N.am  1 <1>  -0.6600 
  4 C        0.9880     2.1520     0.1310 C.ar  1 <1>   0.0860 
  5 C       -2.6840     1.0770     0.1240 C.3   1 <1>   0.1400 
  6 C       -1.6890     3.4130    -0.0650 C.3   1 <1>   0.1400 
  7 C        1.1500     2.9860     1.2340 C.ar  1 <1>   0.1600 
  8 C        2.0260     2.1100    -0.7880 C.ar  1 <1>  -0.1500 
  9 C       -3.8120     1.8100     0.8560 C.3   1 <1>  -0.1600 
 10 C       -3.0530     3.6830    -0.6960 C.3   1 <1>  -0.1600 
 11 N        2.1900     3.7710     1.4670 N.ar  1 <1>  -0.6200 
 12 C        3.1300     2.9060    -0.5670 C.ar  1 <1>  -0.1430 
 13 C       -4.1970     3.1670     0.2100 C.3   1 <1>   0.2800 
 14 C        3.1550     3.7110     0.5630 C.ar  1 <1>   0.1600 
 15 C        4.2930     2.8990    -1.5450 C.3   1 <1>  -0.0970 
 16 O       -4.3270     4.0400     1.3020 O.3   1 <1>  -0.5600 
 17 C       -5.5420     3.0730    -0.5720 C.3   1 <1>  -0.1600 
 18 C       -4.7500     5.3710     1.1090 C.3   1 <1>   0.1200 
 19 C       -6.5630     4.1540    -0.1890 C.3   1 <1>   0.2800 
 20 C       -5.8170     5.4900     0.0120 C.3   1 <1>   0.2000 
 21 O       -7.4430     4.3030    -1.2470 O.3   1 <1>  -0.6800 
 22 C       -7.4230     3.7280     1.0120 C.3   1 <1>  -0.2400 
 23 O       -6.7000     6.5200     0.3140 O.3   1 <1>  -0.6800 
 24 H       -2.9920     0.8180    -0.8750 H     1 <1>   0.0800 
 25 H       -2.4490     0.1660     0.6470 H     1 <1>   0.0800 
 26 H       -1.6510     3.8610     0.9150 H     1 <1>   0.0800 
 27 H       -0.9190     3.8530    -0.6760 H     1 <1>   0.0800 
 28 H        0.3620     3.0020     1.9670 H     1 <1>   0.1500 
 29 H        1.9550     1.4650    -1.6470 H     1 <1>   0.1500 
 30 H       -3.4700     1.9740     1.8630 H     1 <1>   0.0800 
 31 H       -4.6590     1.1540     0.9280 H     1 <1>   0.0800 
 32 H       -3.0740     3.1780    -1.6450 H     1 <1>   0.0800 
 33 H       -3.1570     4.7300    -0.9050 H     1 <1>   0.0800 
 34 H        4.0130     4.3380     0.7350 H     1 <1>   0.1500 
 35 H        4.3720     1.9410    -2.0280 H     1 <1>   0.0800 
 36 H        5.2180     3.0960    -1.0340 H     1 <1>   0.0800 
 37 H        4.1430     3.6540    -2.2960 H     1 <1>   0.0800 
 38 H       -5.3290     3.1600    -1.6230 H     1 <1>   0.0800 
 39 H       -5.9930     2.1070    -0.4460 H     1 <1>   0.0800 
 40 H       -5.1540     5.7060     2.0480 H     1 <1>   0.0800 
 41 H       -3.8920     5.9720     0.8670 H     1 <1>   0.0800 
 42 H       -5.3320     5.7550    -0.9110 H     1 <1>   0.0800 
 43 H       -7.9890     3.5000    -1.3290 H     1 <1>   0.4000 
 44 H       -6.8080     3.5790     1.8800 H     1 <1>   0.0800 
 45 H       -7.9370     2.8060     0.8100 H     1 <1>   0.0800 
 46 H       -8.1450     4.4890     1.2480 H     1 <1>   0.0800 
 47 H       -7.4660     6.4330    -0.2920 H     1 <1>   0.4000 
@<TRIPOS>BOND
  1   1   2  2   
  2   2   3  am  
  3   2   4  1   
  4   3   5  1   
  5   3   6  1   
  6   4   7  ar  
  7   4   8  ar  
  8   5   9  1   
  9   5  24  1   
 10   5  25  1   
 11   6  10  1   
 12   6  26  1   
 13   6  27  1   
 14   7  11  ar  
 15   7  28  1   
 16   8  12  ar  
 17   8  29  1   
 18   9  13  1   
 19   9  30  1   
 20   9  31  1   
 21  10  13  1   
 22  10  32  1   
 23  10  33  1   
 24  11  14  ar  
 25  12  14  ar  
 26  12  15  1   
 27  13  16  1   
 28  13  17  1   
 29  14  34  1   
 30  15  35  1   
 31  15  36  1   
 32  15  37  1   
 33  16  18  1   
 34  17  19  1   
 35  17  38  1   
 36  17  39  1   
 37  18  20  1   
 38  18  40  1   
 39  18  41  1   
 40  19  20  1   
 41  19  21  1   
 42  19  22  1   
 43  20  23  1   
 44  20  42  1   
 45  21  43  1   
 46  22  44  1   
 47  22  45  1   
 48  22  46  1   
 49  23  47  1   
@<TRIPOS>SUBSTRUCTURE
  1 ****   6 GROUP 4 **** **** 0

# MOE 2024.06 (io_trps.svl 2023.06)
