@<TRIPOS>MOLECULE
NONAME
49 51 1 0 0 
SMALL
USER_CHARGES


@<TRIPOS>ATOM
  1 O        0.6120    -1.4910     1.5570 O.3   1 <1>  -0.5600 
  2 C       -0.4170    -2.3670     1.1990 C.3   1 <1>   0.1200 
  3 C        1.1530    -0.7380     0.5250 C.3   1 <1>   0.1200 
  4 C        0.1550    -3.6650     0.5980 C.3   1 <1>   0.1900 
  5 C        1.9160    -1.6170    -0.4800 C.3   1 <1>  -0.0800 
  6 N        0.3930    -3.6160    -0.8870 N.3   1 <1>  -0.8100 
  7 C        1.4580    -4.0700     1.3280 C.3   1 <1>   0.3430 
  8 C        0.9480    -2.3600    -1.4280 C.3   1 <1>   0.1100 
  9 C        3.0110    -2.4690     0.2030 C.3   1 <1>   0.3430 
 10 C       -0.7520    -4.1030    -1.6800 C.3   1 <1>   0.2530 
 11 N        2.6380    -3.9000     0.4200 N.4   1 <1>  -0.9590 
 12 C       -0.9670    -5.5840    -1.4080 C.ar  1 <1>  -0.1440 
 13 C        3.7890    -4.7560     0.8120 C.3   1 <1>   0.2630 
 14 C       -2.0910    -6.0180    -0.7240 C.ar  1 <1>  -0.1500 
 15 C       -0.0330    -6.5150    -1.8370 C.ar  1 <1>  -0.1500 
 16 C       -2.2820    -7.3640    -0.4550 C.ar  1 <1>   0.0820 
 17 C       -0.2170    -7.8620    -1.5780 C.ar  1 <1>  -0.1500 
 18 O       -3.4060    -7.6920     0.2280 O.3   1 <1>  -0.3620 
 19 C       -1.3370    -8.2900    -0.8860 C.ar  1 <1>  -0.1500 
 20 C       -3.7420    -9.0400     0.4770 C.3   1 <1>   0.1200 
 21 C       -5.0760    -9.0760     1.2210 C.3   1 <1>   0.1200 
 22 O       -5.4520   -10.3970     1.4250 O.3   1 <1>  -0.6800 
 23 H       -0.9410    -2.6050     2.1080 H     1 <1>   0.0800 
 24 H       -1.1080    -1.8810     0.5320 H     1 <1>   0.0800 
 25 H        0.3620    -0.1830     0.0480 H     1 <1>   0.0800 
 26 H        1.8270    -0.0300     0.9770 H     1 <1>   0.0800 
 27 H       -0.5630    -4.4350     0.8140 H     1 <1>   0.0800 
 28 H        2.4390    -0.9110    -1.1000 H     1 <1>   0.0800 
 29 H        1.3700    -5.1060     1.6080 H     1 <1>   0.0800 
 30 H        1.5820    -3.4920     2.2290 H     1 <1>   0.0800 
 31 H        1.4680    -2.5940    -2.3420 H     1 <1>   0.0800 
 32 H        0.1390    -1.6950    -1.6880 H     1 <1>   0.0800 
 33 H        3.2720    -2.0170     1.1460 H     1 <1>   0.0800 
 34 H        3.8860    -2.4420    -0.4240 H     1 <1>   0.0800 
 35 H       -1.6370    -3.5390    -1.4400 H     1 <1>   0.0800 
 36 H       -0.5490    -3.9770    -2.7300 H     1 <1>   0.0800 
 37 H        2.2270    -4.2070    -0.4850 H     1 <1>   0.4500 
 38 H        4.1750    -4.4450     1.7700 H     1 <1>   0.0800 
 39 H        4.5760    -4.6810     0.0800 H     1 <1>   0.0800 
 40 H        3.4800    -5.7860     0.8800 H     1 <1>   0.0800 
 41 H       -2.8360    -5.3200    -0.3880 H     1 <1>   0.1500 
 42 H        0.8390    -6.1910    -2.3770 H     1 <1>   0.1500 
 43 H        0.5100    -8.5790    -1.9170 H     1 <1>   0.1500 
 44 H       -1.4530    -9.3400    -0.6960 H     1 <1>   0.1500 
 45 H       -3.8220    -9.5450    -0.4690 H     1 <1>   0.0800 
 46 H       -2.9670    -9.4760     1.0820 H     1 <1>   0.0800 
 47 H       -5.8490    -8.5870     0.6540 H     1 <1>   0.0800 
 48 H       -4.9770    -8.6100     2.1850 H     1 <1>   0.0800 
 49 H       -5.7360   -10.8140     0.5880 H     1 <1>   0.4000 
@<TRIPOS>BOND
  1   1   2  1   
  2   1   3  1   
  3   2   4  1   
  4   2  23  1   
  5   2  24  1   
  6   3   5  1   
  7   3  25  1   
  8   3  26  1   
  9   4   6  1   
 10   4   7  1   
 11   4  27  1   
 12   5   8  1   
 13   5   9  1   
 14   5  28  1   
 15   6   8  1   
 16   6  10  1   
 17   7  11  1   
 18   7  29  1   
 19   7  30  1   
 20   8  31  1   
 21   8  32  1   
 22   9  11  1   
 23   9  33  1   
 24   9  34  1   
 25  10  12  1   
 26  10  35  1   
 27  10  36  1   
 28  11  13  1   
 29  11  37  1   
 30  12  14  ar  
 31  12  15  ar  
 32  13  38  1   
 33  13  39  1   
 34  13  40  1   
 35  14  16  ar  
 36  14  41  1   
 37  15  17  ar  
 38  15  42  1   
 39  16  18  1   
 40  16  19  ar  
 41  17  19  ar  
 42  17  43  1   
 43  18  20  1   
 44  19  44  1   
 45  20  21  1   
 46  20  45  1   
 47  20  46  1   
 48  21  22  1   
 49  21  47  1   
 50  21  48  1   
 51  22  49  1   
@<TRIPOS>SUBSTRUCTURE
  1 ****  12 GROUP 4 **** **** 0

# MOE 2024.06 (io_trps.svl 2023.06)
