@<TRIPOS>MOLECULE
NONAME
43 44 1 0 0 
SMALL
USER_CHARGES


@<TRIPOS>ATOM
  1 N        0.2120    -0.0980     0.5700 N.ar  1 <1>  -0.6200 
  2 C        0.1990    -1.3530     0.1850 C.ar  1 <1>   0.7710 
  3 C        1.2130     0.6630     0.1650 C.ar  1 <1>   0.4100 
  4 N        1.1570    -1.8940    -0.5790 N.ar  1 <1>  -0.1790 
  5 N       -0.8370    -2.0880     0.5980 N.pl3 1 <1>  -0.8690 
  6 N        1.1650     1.9660     0.5410 N.pl3 1 <1>  -0.8380 
  7 C        2.2800     0.1420    -0.6160 C.ar  1 <1>  -0.1430 
  8 C        2.2200    -1.1620    -0.9860 C.ar  1 <1>   0.2110 
  9 C       -1.2430    -3.4960     0.3970 C.3   1 <1>   0.2890 
 10 C        1.1760     3.0880    -0.4390 C.3   1 <1>   0.1290 
 11 C        0.7080     2.3630     1.9040 C.3   1 <1>   0.1290 
 12 C        3.4860     0.9960    -1.0050 C.3   1 <1>  -0.0970 
 13 C       -0.2580    -4.4110     1.1390 C.3   1 <1>  -0.1600 
 14 C       -1.4260    -3.7740    -1.1050 C.3   1 <1>  -0.1600 
 15 C       -0.5530    -5.9140     1.0080 C.3   1 <1>  -0.1600 
 16 C       -2.2240    -5.0610    -1.3630 C.3   1 <1>  -0.1600 
 17 C       -0.2350    -6.4620    -0.3900 C.3   1 <1>  -0.1600 
 18 C       -1.3810    -6.3450    -1.4070 C.3   1 <1>  -0.1600 
 19 H        1.0270    -2.8740    -0.8050 H     1 <1>   0.4570 
 20 H       -1.4980    -1.5570     1.1760 H     1 <1>   0.4000 
 21 H        2.9840    -1.6380    -1.5790 H     1 <1>   0.1500 
 22 H       -2.2070    -3.6150     0.8660 H     1 <1>   0.0800 
 23 H        1.1720     2.7090    -1.4460 H     1 <1>   0.0800 
 24 H        2.0530     3.6940    -0.2900 H     1 <1>   0.0800 
 25 H        0.3000     3.7000    -0.3060 H     1 <1>   0.0800 
 26 H        0.8000     1.5350     2.5860 H     1 <1>   0.0800 
 27 H       -0.3230     2.6690     1.8690 H     1 <1>   0.0800 
 28 H        1.3090     3.1770     2.2710 H     1 <1>   0.0800 
 29 H        3.8170     1.5730    -0.1590 H     1 <1>   0.0800 
 30 H        3.2290     1.6700    -1.8020 H     1 <1>   0.0800 
 31 H        4.3090     0.3850    -1.3320 H     1 <1>   0.0800 
 32 H       -0.3100    -4.1620     2.1850 H     1 <1>   0.0800 
 33 H        0.7500    -4.2340     0.8180 H     1 <1>   0.0800 
 34 H       -0.4910    -3.8290    -1.6270 H     1 <1>   0.0800 
 35 H       -1.9970    -2.9610    -1.5210 H     1 <1>   0.0800 
 36 H       -1.5720    -6.1330     1.2800 H     1 <1>   0.0800 
 37 H        0.0760    -6.4310     1.7140 H     1 <1>   0.0800 
 38 H       -2.7290    -4.9710    -2.3100 H     1 <1>   0.0800 
 39 H       -2.9950    -5.1660    -0.6180 H     1 <1>   0.0800 
 40 H        0.0050    -7.5090    -0.2970 H     1 <1>   0.0800 
 41 H        0.6460    -5.9830    -0.7790 H     1 <1>   0.0800 
 42 H       -0.9620    -6.4520    -2.3940 H     1 <1>   0.0800 
 43 H       -2.0500    -7.1790    -1.2680 H     1 <1>   0.0800 
@<TRIPOS>BOND
  1   1   2  ar  
  2   1   3  ar  
  3   2   4  ar  
  4   2   5  1   
  5   3   6  1   
  6   3   7  ar  
  7   4   8  ar  
  8   4  19  1   
  9   5   9  1   
 10   5  20  1   
 11   6  10  1   
 12   6  11  1   
 13   7   8  ar  
 14   7  12  1   
 15   8  21  1   
 16   9  13  1   
 17   9  14  1   
 18   9  22  1   
 19  10  23  1   
 20  10  24  1   
 21  10  25  1   
 22  11  26  1   
 23  11  27  1   
 24  11  28  1   
 25  12  29  1   
 26  12  30  1   
 27  12  31  1   
 28  13  15  1   
 29  13  32  1   
 30  13  33  1   
 31  14  16  1   
 32  14  34  1   
 33  14  35  1   
 34  15  17  1   
 35  15  36  1   
 36  15  37  1   
 37  16  18  1   
 38  16  38  1   
 39  16  39  1   
 40  17  18  1   
 41  17  40  1   
 42  17  41  1   
 43  18  42  1   
 44  18  43  1   
@<TRIPOS>SUBSTRUCTURE
  1 ****   2 GROUP 4 **** **** 0

# MOE 2024.06 (io_trps.svl 2023.06)
