@<TRIPOS>MOLECULE
NONAME
50 52 1 0 0 
SMALL
USER_CHARGES


@<TRIPOS>ATOM
  1 S        0.8250    -0.2360     1.7190 S.o2  1 <1>   1.4470 
  2 O        0.4540     0.8100     2.6430 O.2   1 <1>  -0.6500 
  3 O        1.8870    -1.1450     2.0890 O.2   1 <1>  -0.6500 
  4 N       -0.5400    -1.1940     1.5610 N.am  1 <1>  -0.9140 
  5 C        1.1530     0.4400     0.0700 C.ar  1 <1>  -0.0090 
  6 C       -0.3310    -2.4520     0.8630 C.3   1 <1>   0.2760 
  7 C        0.1600     1.0580    -0.6850 C.ar  1 <1>   0.0830 
  8 C        2.4280     0.3670    -0.4800 C.ar  1 <1>  -0.1500 
  9 C       -1.6520    -2.9450     0.2920 C.3   1 <1>  -0.0800 
 10 C       -0.0380    -3.5670     1.8650 C.3   1 <1>   0.1200 
 11 O       -1.0990     1.1510    -0.2190 O.3   1 <1>  -0.3630 
 12 C        0.4290     1.5680    -1.9450 C.ar  1 <1>  -0.1500 
 13 C        2.7120     0.8790    -1.7360 C.ar  1 <1>  -0.1430 
 14 C       -2.3000    -3.6490     1.4900 C.3   1 <1>   0.1200 
 15 C       -2.5400    -1.8720    -0.3690 C.3   1 <1>  -0.0170 
 16 O       -1.2770    -3.9010     2.4120 O.3   1 <1>  -0.5600 
 17 C       -1.4600     2.3630     0.3980 C.3   1 <1>   0.1200 
 18 C        1.7040     1.4790    -2.4700 C.ar  1 <1>  -0.1500 
 19 C        4.1160     0.7810    -2.3070 C.3   1 <1>  -0.0970 
 20 C       -3.8010    -2.4920    -0.9460 C.ar  1 <1>  -0.1430 
 21 C       -2.8180     2.1590     1.0610 C.3   1 <1>  -0.2400 
 22 C       -5.0080    -2.4470    -0.2780 C.ar  1 <1>  -0.1500 
 23 C       -3.8030    -3.1340    -2.1680 C.ar  1 <1>  -0.1500 
 24 C       -6.1260    -3.0350    -0.8450 C.ar  1 <1>   0.1600 
 25 C       -4.9780    -3.6900    -2.6460 C.ar  1 <1>   0.1600 
 26 N       -6.1380    -3.6590    -2.0120 N.ar  1 <1>  -0.6200 
 27 H       -0.8100    -1.4350     2.5140 H     1 <1>   0.4200 
 28 H        0.4270    -2.3610     0.1020 H     1 <1>   0.0800 
 29 H        3.2150    -0.1010     0.0880 H     1 <1>   0.1500 
 30 H       -1.4340    -3.7000    -0.4440 H     1 <1>   0.0800 
 31 H        0.6370    -3.2740     2.6500 H     1 <1>   0.0800 
 32 H        0.3470    -4.4380     1.3640 H     1 <1>   0.0800 
 33 H       -0.3610     2.0280    -2.5110 H     1 <1>   0.1500 
 34 H       -2.7600    -4.5800     1.2080 H     1 <1>   0.0800 
 35 H       -3.0230    -3.0170     1.9740 H     1 <1>   0.0800 
 36 H       -1.9900    -1.3840    -1.1550 H     1 <1>   0.0800 
 37 H       -2.8140    -1.1140     0.3450 H     1 <1>   0.0800 
 38 H       -0.7130     2.6150     1.1320 H     1 <1>   0.0800 
 39 H       -1.5050     3.1300    -0.3550 H     1 <1>   0.0800 
 40 H        1.9070     1.8780    -3.4490 H     1 <1>   0.1500 
 41 H        4.3330     1.6380    -2.9200 H     1 <1>   0.0800 
 42 H        4.2050    -0.1070    -2.9070 H     1 <1>   0.0800 
 43 H        4.8440     0.7390    -1.5170 H     1 <1>   0.0800 
 44 H       -2.7470     1.3860     1.8060 H     1 <1>   0.0800 
 45 H       -3.5540     1.8870     0.3260 H     1 <1>   0.0800 
 46 H       -3.1280     3.0690     1.5410 H     1 <1>   0.0800 
 47 H       -5.0900    -1.9590     0.6760 H     1 <1>   0.1500 
 48 H       -2.9040    -3.2060    -2.7510 H     1 <1>   0.1500 
 49 H       -7.0600    -2.9920    -0.3110 H     1 <1>   0.1500 
 50 H       -4.9620    -4.1880    -3.6010 H     1 <1>   0.1500 
@<TRIPOS>BOND
  1   1   2  2   
  2   1   3  2   
  3   1   4  am  
  4   1   5  1   
  5   4   6  1   
  6   4  27  1   
  7   5   7  ar  
  8   5   8  ar  
  9   6   9  1   
 10   6  10  1   
 11   6  28  1   
 12   7  11  1   
 13   7  12  ar  
 14   8  13  ar  
 15   8  29  1   
 16   9  14  1   
 17   9  15  1   
 18   9  30  1   
 19  10  16  1   
 20  10  31  1   
 21  10  32  1   
 22  11  17  1   
 23  12  18  ar  
 24  12  33  1   
 25  13  18  ar  
 26  13  19  1   
 27  14  16  1   
 28  14  34  1   
 29  14  35  1   
 30  15  20  1   
 31  15  36  1   
 32  15  37  1   
 33  17  21  1   
 34  17  38  1   
 35  17  39  1   
 36  18  40  1   
 37  19  41  1   
 38  19  42  1   
 39  19  43  1   
 40  20  22  ar  
 41  20  23  ar  
 42  21  44  1   
 43  21  45  1   
 44  21  46  1   
 45  22  24  ar  
 46  22  47  1   
 47  23  25  ar  
 48  23  48  1   
 49  24  26  ar  
 50  24  49  1   
 51  25  26  ar  
 52  25  50  1   
@<TRIPOS>SUBSTRUCTURE
  1 ****  15 GROUP 4 **** **** 0

# MOE 2024.06 (io_trps.svl 2023.06)
