@<TRIPOS>MOLECULE
NONAME
40 43 1 0 0 
SMALL
USER_CHARGES


@<TRIPOS>ATOM
  1 S       -0.6850    -0.3090     1.3560 S.3   1 <1>  -0.0800 
  2 C       -1.4490     0.9880     0.4490 C.2   1 <1>  -0.1400 
  3 C       -2.1740    -1.2460     1.3310 C.2   1 <1>  -0.1100 
  4 C       -2.7290     0.6920     0.1860 C.2   1 <1>  -0.1810 
  5 C       -0.7100     2.2590     0.0420 C.3   1 <1>   0.4600 
  6 C       -3.1490    -0.5830     0.6800 C.2   1 <1>  -0.1500 
  7 C       -3.5830     1.6810    -0.5740 C.3   1 <1>   0.0210 
  8 O       -1.5520     3.0090    -0.8140 O.3   1 <1>  -0.5600 
  9 C        0.5420     1.9240    -0.7750 C.3   1 <1>  -0.1600 
 10 C       -0.3430     3.1110     1.2640 C.3   1 <1>  -0.1600 
 11 C       -2.9250     3.0730    -0.5050 C.3   1 <1>   0.1200 
 12 C        1.3130     3.1880    -1.1480 C.3   1 <1>   0.2090 
 13 C        0.4490     4.3530     0.8590 C.3   1 <1>   0.2090 
 14 N        1.6500     3.9280     0.0940 N.pl3 1 <1>  -0.8380 
 15 C        2.7550     4.7690     0.0660 C.ar  1 <1>   0.4100 
 16 N        2.5650     6.0900     0.1970 N.ar  1 <1>  -0.3100 
 17 C        4.0190     4.2330    -0.0980 C.ar  1 <1>  -0.1500 
 18 N        3.5840     6.9170     0.1670 N.ar  1 <1>  -0.3100 
 19 C        5.0870     5.0960    -0.1300 C.ar  1 <1>  -0.1500 
 20 C        4.8120     6.4400     0.0070 C.ar  1 <1>   0.1670 
 21 C        5.9310     7.4600    -0.0160 C.3   1 <1>  -0.0970 
 22 H       -2.1600    -2.2070     1.8130 H     1 <1>   0.1500 
 23 H       -4.1530    -0.9390     0.5250 H     1 <1>   0.1500 
 24 H       -4.5660     1.7300    -0.1430 H     1 <1>   0.0800 
 25 H       -3.6740     1.3700    -1.5990 H     1 <1>   0.0800 
 26 H        0.2550     1.3910    -1.6630 H     1 <1>   0.0800 
 27 H        1.1910     1.2870    -0.2040 H     1 <1>   0.0800 
 28 H        0.2660     2.5280     1.9310 H     1 <1>   0.0800 
 29 H       -1.2250     3.3940     1.8040 H     1 <1>   0.0800 
 30 H       -3.0340     3.4900     0.4800 H     1 <1>   0.0800 
 31 H       -3.3880     3.7380    -1.2120 H     1 <1>   0.0800 
 32 H        0.7120     3.8160    -1.7850 H     1 <1>   0.0800 
 33 H        2.2100     2.9260    -1.6830 H     1 <1>   0.0800 
 34 H        0.7500     4.8960     1.7400 H     1 <1>   0.0800 
 35 H       -0.1550     5.0030     0.2480 H     1 <1>   0.0800 
 36 H        4.1430     3.1720    -0.1880 H     1 <1>   0.1500 
 37 H        6.0900     4.7330    -0.2550 H     1 <1>   0.1500 
 38 H        5.7700     8.1520    -0.8230 H     1 <1>   0.0800 
 39 H        6.8860     6.9860    -0.1490 H     1 <1>   0.0800 
 40 H        5.9390     8.0060     0.9100 H     1 <1>   0.0800 
@<TRIPOS>BOND
  1   1   2  1   
  2   1   3  1   
  3   2   4  2   
  4   2   5  1   
  5   3   6  2   
  6   3  22  1   
  7   4   6  1   
  8   4   7  1   
  9   5   8  1   
 10   5   9  1   
 11   5  10  1   
 12   6  23  1   
 13   7  11  1   
 14   7  24  1   
 15   7  25  1   
 16   8  11  1   
 17   9  12  1   
 18   9  26  1   
 19   9  27  1   
 20  10  13  1   
 21  10  28  1   
 22  10  29  1   
 23  11  30  1   
 24  11  31  1   
 25  12  14  1   
 26  12  32  1   
 27  12  33  1   
 28  13  14  1   
 29  13  34  1   
 30  13  35  1   
 31  14  15  1   
 32  15  16  ar  
 33  15  17  ar  
 34  16  18  ar  
 35  17  19  ar  
 36  17  36  1   
 37  18  20  ar  
 38  19  20  ar  
 39  19  37  1   
 40  20  21  1   
 41  21  38  1   
 42  21  39  1   
 43  21  40  1   
@<TRIPOS>SUBSTRUCTURE
  1 ****  14 GROUP 4 **** **** 0

# MOE 2024.06 (io_trps.svl 2023.06)
