@<TRIPOS>MOLECULE
NONAME
48 51 1 0 0 
SMALL
USER_CHARGES


@<TRIPOS>ATOM
  1 CL      -0.1470    -0.3740     1.0100 Cl    1 <1>  -0.1770 
  2 C       -0.1730    -2.0980     0.7530 C.ar  1 <1>   0.1770 
  3 C       -0.4760    -2.9400     1.8040 C.ar  1 <1>  -0.1500 
  4 C        0.1110    -2.6050    -0.5000 C.ar  1 <1>  -0.1500 
  5 C       -0.4950    -4.3080     1.5930 C.ar  1 <1>  -0.1500 
  6 C        0.0890    -3.9740    -0.6980 C.ar  1 <1>  -0.1500 
  7 C       -0.2140    -4.8660     0.3390 C.ar  1 <1>   0.0000 
  8 C       -0.2360    -6.3080     0.1230 C.ar  1 <1>   0.6200 
  9 N       -0.4430    -6.7540    -1.1210 N.ar  1 <1>  -0.6200 
 10 N       -0.0490    -7.1060     1.1800 N.ar  1 <1>  -0.6200 
 11 C       -0.4550    -8.0490    -1.3060 C.ar  1 <1>   0.1600 
 12 C       -0.0640    -8.3980     0.9740 C.ar  1 <1>   0.1600 
 13 C       -0.2830    -8.9380    -0.2710 C.ar  1 <1>  -0.1430 
 14 C       -0.3320   -10.4330    -0.4990 C.3   1 <1>   0.4860 
 15 N       -1.6380   -10.9820    -0.0170 N.4   1 <1>  -0.9590 
 16 C       -1.6610   -12.4820    -0.1090 C.3   1 <1>   0.3430 
 17 C       -2.8040   -10.3670    -0.7300 C.3   1 <1>   0.3430 
 18 C       -2.9600   -13.0740     0.4740 C.3   1 <1>   0.0580 
 19 C       -4.1100   -10.8960    -0.1350 C.3   1 <1>  -0.1600 
 20 C       -3.0260   -14.5950     0.3240 C.2   1 <1>  -0.0380 
 21 C       -4.1910   -12.4290    -0.1850 C.3   1 <1>  -0.1600 
 22 N       -3.9100   -15.2760     1.1230 N.pl3 1 <1>  -0.5500 
 23 C       -2.2970   -15.3520    -0.5330 C.2   1 <1>  -0.1360 
 24 C       -4.0350   -16.6380     1.0520 C.2   1 <1>   0.4400 
 25 C       -2.4600   -16.7630    -0.5680 C.2   1 <1>   0.7670 
 26 N       -3.3570   -17.3790     0.2570 N.2   1 <1>  -0.6610 
 27 O       -1.7940   -17.4350    -1.3360 O.2   1 <1>  -0.5700 
 28 H       -0.6930    -2.5260     2.7720 H     1 <1>   0.1500 
 29 H        0.3450    -1.9330    -1.3060 H     1 <1>   0.1500 
 30 H       -0.7320    -4.9540     2.4210 H     1 <1>   0.1500 
 31 H        0.3140    -4.3570    -1.6790 H     1 <1>   0.1500 
 32 H       -0.6100    -8.3950    -2.3150 H     1 <1>   0.1500 
 33 H        0.1030    -9.0280     1.8320 H     1 <1>   0.1500 
 34 H        0.4820   -10.8980     0.0340 H     1 <1>   0.0800 
 35 H       -0.2090   -10.6440    -1.5490 H     1 <1>   0.0800 
 36 H       -1.7340   -10.7200     0.9740 H     1 <1>   0.4500 
 37 H       -0.8200   -12.8980     0.4240 H     1 <1>   0.0800 
 38 H       -1.5810   -12.7750    -1.1430 H     1 <1>   0.0800 
 39 H       -2.7640   -10.6100    -1.7800 H     1 <1>   0.0800 
 40 H       -2.7810    -9.2930    -0.6300 H     1 <1>   0.0800 
 41 H       -2.9690   -12.8520     1.5270 H     1 <1>   0.0800 
 42 H       -4.9360   -10.4810    -0.6890 H     1 <1>   0.0800 
 43 H       -4.2070   -10.5510     0.8800 H     1 <1>   0.0800 
 44 H       -5.0890   -12.7570     0.3120 H     1 <1>   0.0800 
 45 H       -4.2560   -12.7500    -1.2120 H     1 <1>   0.0800 
 46 H       -4.5160   -14.7930     1.7940 H     1 <1>   0.4000 
 47 H       -1.5760   -14.9710    -1.2270 H     1 <1>   0.1500 
 48 H       -4.7520   -17.0930     1.7130 H     1 <1>   0.0600 
@<TRIPOS>BOND
  1   1   2  1   
  2   2   3  ar  
  3   2   4  ar  
  4   3   5  ar  
  5   3  28  1   
  6   4   6  ar  
  7   4  29  1   
  8   5   7  ar  
  9   5  30  1   
 10   6   7  ar  
 11   6  31  1   
 12   7   8  1   
 13   8   9  ar  
 14   8  10  ar  
 15   9  11  ar  
 16  10  12  ar  
 17  11  13  ar  
 18  11  32  1   
 19  12  13  ar  
 20  12  33  1   
 21  13  14  1   
 22  14  15  1   
 23  14  34  1   
 24  14  35  1   
 25  15  16  1   
 26  15  17  1   
 27  15  36  1   
 28  16  18  1   
 29  16  37  1   
 30  16  38  1   
 31  17  19  1   
 32  17  39  1   
 33  17  40  1   
 34  18  20  1   
 35  18  21  1   
 36  18  41  1   
 37  19  21  1   
 38  19  42  1   
 39  19  43  1   
 40  20  22  1   
 41  20  23  2   
 42  21  44  1   
 43  21  45  1   
 44  22  24  1   
 45  22  46  1   
 46  23  25  1   
 47  23  47  1   
 48  24  26  2   
 49  24  48  1   
 50  25  26  1   
 51  25  27  2   
@<TRIPOS>SUBSTRUCTURE
  1 ****  15 GROUP 4 **** **** 0

# MOE 2024.06 (io_trps.svl 2023.06)
