@<TRIPOS>MOLECULE
NONAME
43 44 1 0 0 
SMALL
USER_CHARGES


@<TRIPOS>ATOM
  1 CL       0.7890    -2.1920    -1.8780 Cl    1 <1>  -0.1770 
  2 C       -0.3890    -3.2240    -1.1100 C.ar  1 <1>   0.1770 
  3 C       -1.5550    -3.5450    -1.7780 C.ar  1 <1>  -0.1500 
  4 C       -0.1430    -3.7100     0.1590 C.ar  1 <1>  -0.1500 
  5 C       -2.4820    -4.3670    -1.1640 C.ar  1 <1>  -0.1500 
  6 C       -1.0800    -4.5290     0.7630 C.ar  1 <1>  -0.1500 
  7 C       -2.2710    -4.8790     0.1180 C.ar  1 <1>   0.0530 
  8 C       -3.2200    -5.7530     0.7670 C.2   1 <1>   0.0870 
  9 O       -2.7740    -6.6740     1.5930 O.3   1 <1>  -0.0190 
 10 C       -4.5720    -5.9000     0.7180 C.2   1 <1>  -0.2330 
 11 N       -3.7240    -7.4160     2.0980 N.2   1 <1>  -0.4100 
 12 C       -4.8110    -6.9450     1.6050 C.2   1 <1>   0.3720 
 13 C       -5.6080    -5.2650    -0.0400 C.2   1 <1>   1.0330 
 14 N       -6.0800    -7.4280     1.8880 N.pl3 1 <1>  -0.8520 
 15 O       -5.4660    -4.1420    -0.5330 O.co2 1 <1>  -0.9000 
 16 O       -6.6580    -5.8980    -0.2890 O.co2 1 <1>  -0.9000 
 17 C       -6.2920    -8.8740     2.1510 C.3   1 <1>   0.2090 
 18 C       -6.8510    -9.7000     0.9540 C.3   1 <1>   0.4230 
 19 N       -5.9790    -9.7740    -0.2830 N.4   1 <1>  -0.9590 
 20 C       -8.2870    -9.2690     0.5970 C.3   1 <1>  -0.1600 
 21 C       -4.5700   -10.1490     0.0430 C.3   1 <1>   0.2630 
 22 C       -5.9610    -8.5180    -1.1040 C.3   1 <1>   0.2630 
 23 C       -8.9580   -10.1440    -0.4760 C.3   1 <1>  -0.2400 
 24 H       -1.7370    -3.1530    -2.7620 H     1 <1>   0.1500 
 25 H        0.7690    -3.4460     0.6640 H     1 <1>   0.1500 
 26 H       -3.3890    -4.6080    -1.6900 H     1 <1>   0.1500 
 27 H       -0.8910    -4.9030     1.7540 H     1 <1>   0.1500 
 28 H       -6.7480    -6.9920     1.2150 H     1 <1>   0.4000 
 29 H       -6.9910    -8.9510     2.9650 H     1 <1>   0.0800 
 30 H       -5.3780    -9.3200     2.5010 H     1 <1>   0.0800 
 31 H       -6.9340   -10.7070     1.3280 H     1 <1>   0.0800 
 32 H       -6.3970   -10.5010    -0.8770 H     1 <1>   0.4500 
 33 H       -8.3050    -8.2350     0.2930 H     1 <1>   0.0800 
 34 H       -8.8840    -9.3280     1.4910 H     1 <1>   0.0800 
 35 H       -4.1040    -9.3710     0.6260 H     1 <1>   0.0800 
 36 H       -4.0000   -10.2810    -0.8620 H     1 <1>   0.0800 
 37 H       -4.5430   -11.0680     0.6060 H     1 <1>   0.0800 
 38 H       -5.3800    -7.7620    -0.6120 H     1 <1>   0.0800 
 39 H       -6.9550    -8.1290    -1.2550 H     1 <1>   0.0800 
 40 H       -5.5180    -8.7010    -2.0680 H     1 <1>   0.0800 
 41 H       -8.4760   -10.0350    -1.4310 H     1 <1>   0.0800 
 42 H       -9.9850    -9.8420    -0.5930 H     1 <1>   0.0800 
 43 H       -8.9460   -11.1810    -0.1880 H     1 <1>   0.0800 
@<TRIPOS>BOND
  1   1   2  1   
  2   2   3  ar  
  3   2   4  ar  
  4   3   5  ar  
  5   3  24  1   
  6   4   6  ar  
  7   4  25  1   
  8   5   7  ar  
  9   5  26  1   
 10   6   7  ar  
 11   6  27  1   
 12   7   8  1   
 13   8   9  1   
 14   8  10  2   
 15   9  11  1   
 16  10  12  1   
 17  10  13  1   
 18  11  12  2   
 19  12  14  1   
 20  13  15  ar  
 21  13  16  ar  
 22  14  17  1   
 23  14  28  1   
 24  17  18  1   
 25  17  29  1   
 26  17  30  1   
 27  18  19  1   
 28  18  20  1   
 29  18  31  1   
 30  19  21  1   
 31  19  22  1   
 32  19  32  1   
 33  20  23  1   
 34  20  33  1   
 35  20  34  1   
 36  21  35  1   
 37  21  36  1   
 38  21  37  1   
 39  22  38  1   
 40  22  39  1   
 41  22  40  1   
 42  23  41  1   
 43  23  42  1   
 44  23  43  1   
@<TRIPOS>SUBSTRUCTURE
  1 ****  10 GROUP 4 **** **** 0

# MOE 2024.06 (io_trps.svl 2023.06)
