@<TRIPOS>MOLECULE
NONAME
50 53 1 0 0 
SMALL
USER_CHARGES


@<TRIPOS>ATOM
  1 O       -1.1750     0.6290     1.8150 O.2   1 <1>  -0.5700 
  2 C       -1.5480     1.7430     1.4970 C.2   1 <1>   0.5440 
  3 N       -2.9050     1.9880     1.3960 N.am  1 <1>  -0.6600 
  4 C       -0.5530     2.7630     1.2300 C.ar  1 <1>   0.0860 
  5 C       -3.8890     0.9770     1.8830 C.3   1 <1>   0.1400 
  6 C       -3.4740     3.1490     0.6640 C.3   1 <1>   0.1400 
  7 C        0.4380     2.5590     0.2740 C.ar  1 <1>  -0.1500 
  8 C       -0.5460     3.9730     1.9220 C.ar  1 <1>  -0.1500 
  9 C       -4.3040     0.0190     0.7600 C.3   1 <1>   0.1400 
 10 C       -4.1850     2.7080    -0.6180 C.3   1 <1>  -0.1600 
 11 C        1.4070     3.5130    -0.0150 C.ar  1 <1>   0.0540 
 12 C        0.4040     4.9400     1.6560 C.ar  1 <1>  -0.1500 
 13 N       -5.3930     0.5380    -0.1350 N.am  1 <1>  -0.6600 
 14 C       -5.5240     2.0090    -0.3640 C.3   1 <1>   0.1400 
 15 C        2.4200     3.2610    -1.0170 C.2   1 <1>  -0.0540 
 16 C        1.3710     4.7100     0.6940 C.ar  1 <1>  -0.1500 
 17 C       -6.3160    -0.3360    -0.6960 C.2   1 <1>   0.7160 
 18 C        3.0890     4.1970    -1.8130 C.2   1 <1>   0.1390 
 19 C        2.9530     2.0780    -1.4180 C.2   1 <1>  -0.3020 
 20 O       -7.3640     0.1400    -1.1070 O.2   1 <1>  -0.5700 
 21 C       -6.0970    -1.7820    -0.7930 C.2   1 <1>   0.1410 
 22 N        3.9490     3.6590    -2.6210 N.2   1 <1>  -0.7070 
 23 N        3.8620     2.3410    -2.3720 N.pl3 1 <1>   0.3000 
 24 N       -4.8670    -2.3500    -1.0040 N.2   1 <1>  -0.5650 
 25 C       -7.0220    -2.7920    -0.7160 C.2   1 <1>  -0.3320 
 26 C       -5.0810    -3.6190    -1.0530 C.2   1 <1>   0.0360 
 27 N       -6.3730    -3.9510    -0.8850 N.pl3 1 <1>   0.0330 
 28 C       -8.5260    -2.7370    -0.4890 C.3   1 <1>  -0.0600 
 29 H       -4.7530     1.4590     2.3050 H     1 <1>   0.0800 
 30 H       -3.4320     0.3980     2.6670 H     1 <1>   0.0800 
 31 H       -2.6950     3.8370     0.3920 H     1 <1>   0.0800 
 32 H       -4.1600     3.6720     1.3080 H     1 <1>   0.0800 
 33 H        0.4450     1.6240    -0.2560 H     1 <1>   0.1500 
 34 H       -1.2920     4.1460     2.6780 H     1 <1>   0.1500 
 35 H       -4.6480    -0.8870     1.2250 H     1 <1>   0.0800 
 36 H       -3.4400    -0.2330     0.1680 H     1 <1>   0.0800 
 37 H       -3.5430     2.0940    -1.2250 H     1 <1>   0.0800 
 38 H       -4.3950     3.5990    -1.1810 H     1 <1>   0.0800 
 39 H        0.3970     5.8690     2.1990 H     1 <1>   0.1500 
 40 H       -6.1410     2.1710    -1.2320 H     1 <1>   0.0800 
 41 H       -6.0310     2.4550     0.4740 H     1 <1>   0.0800 
 42 H        2.1110     5.4650     0.5010 H     1 <1>   0.1500 
 43 H        2.9130     5.2580    -1.7690 H     1 <1>   0.1500 
 44 H        2.7330     1.0850    -1.0710 H     1 <1>   0.1500 
 45 H        4.4380     1.6520    -2.8710 H     1 <1>   0.2700 
 46 H       -4.3150    -4.3590    -1.2110 H     1 <1>   0.1500 
 47 H       -6.7680    -4.8960    -0.8920 H     1 <1>   0.2700 
 48 H       -8.8450    -1.7370    -0.2580 H     1 <1>   0.0800 
 49 H       -8.8030    -3.3740     0.3320 H     1 <1>   0.0800 
 50 H       -9.0440    -3.0600    -1.3740 H     1 <1>   0.0800 
@<TRIPOS>BOND
  1   1   2  2   
  2   2   3  am  
  3   2   4  1   
  4   3   5  1   
  5   3   6  1   
  6   4   7  ar  
  7   4   8  ar  
  8   5   9  1   
  9   5  29  1   
 10   5  30  1   
 11   6  10  1   
 12   6  31  1   
 13   6  32  1   
 14   7  11  ar  
 15   7  33  1   
 16   8  12  ar  
 17   8  34  1   
 18   9  13  1   
 19   9  35  1   
 20   9  36  1   
 21  10  14  1   
 22  10  37  1   
 23  10  38  1   
 24  11  15  1   
 25  11  16  ar  
 26  12  16  ar  
 27  12  39  1   
 28  13  14  1   
 29  13  17  am  
 30  14  40  1   
 31  14  41  1   
 32  15  18  1   
 33  15  19  2   
 34  16  42  1   
 35  17  20  2   
 36  17  21  1   
 37  18  22  2   
 38  18  43  1   
 39  19  23  1   
 40  19  44  1   
 41  21  24  1   
 42  21  25  2   
 43  22  23  1   
 44  23  45  1   
 45  24  26  2   
 46  25  27  1   
 47  25  28  1   
 48  26  27  1   
 49  26  46  1   
 50  27  47  1   
 51  28  48  1   
 52  28  49  1   
 53  28  50  1   
@<TRIPOS>SUBSTRUCTURE
  1 ****   3 GROUP 4 **** **** 0

# MOE 2024.06 (io_trps.svl 2023.06)
