@<TRIPOS>MOLECULE
NONAME
45 46 1 0 0 
SMALL
USER_CHARGES


@<TRIPOS>ATOM
  1 S        0.4410     0.2500    -1.4750 S.o2  1 <1>   1.3330 
  2 O       -0.4180     1.0910    -2.2780 O.2   1 <1>  -0.6500 
  3 O        0.7260    -1.1010    -1.9060 O.2   1 <1>  -0.6500 
  4 N       -0.2530     0.1640     0.0750 N.am  1 <1>  -0.8490 
  5 C        2.0020     1.0880    -1.1960 C.3   1 <1>  -0.0550 
  6 C       -1.1780    -0.9660     0.2020 C.3   1 <1>   0.1160 
  7 C       -0.9280     1.4030     0.4770 C.3   1 <1>   0.1160 
  8 C        3.0430     0.2500    -0.4230 C.3   1 <1>  -0.0800 
  9 C        4.4200     0.8850    -0.3110 C.3   1 <1>   0.2200 
 10 C        2.6920    -0.0500     1.0400 C.3   1 <1>   0.1200 
 11 N        4.3120     2.3240     0.0330 N.am  1 <1>  -0.7300 
 12 C        4.9710     0.1370     0.8940 C.3   1 <1>   0.1200 
 13 O        3.8880     0.0180     1.7650 O.3   1 <1>  -0.5600 
 14 C        4.4460     3.3630    -0.8420 C.2   1 <1>   0.5440 
 15 O        4.6000     3.0900    -2.0170 O.2   1 <1>  -0.5700 
 16 C        4.3950     4.7440    -0.3920 C.ar  1 <1>   0.0860 
 17 C        3.9100     5.1040     0.8700 C.ar  1 <1>  -0.1500 
 18 C        4.8310     5.7820    -1.2200 C.ar  1 <1>  -0.1500 
 19 C        3.8720     6.4230     1.2800 C.ar  1 <1>  -0.1500 
 20 C        4.7950     7.1050    -0.8170 C.ar  1 <1>  -0.1500 
 21 C        4.3130     7.4350     0.4450 C.ar  1 <1>   0.0820 
 22 O        4.2420     8.6980     0.9200 O.3   1 <1>  -0.3630 
 23 C        4.6610     9.8050     0.1520 C.3   1 <1>   0.0400 
 24 H        2.4250     1.3370    -2.1510 H     1 <1>   0.0800 
 25 H        1.8210     2.0110    -0.6820 H     1 <1>   0.0800 
 26 H       -1.5930    -1.0000     1.1950 H     1 <1>   0.0800 
 27 H       -0.6570    -1.8920     0.0250 H     1 <1>   0.0800 
 28 H       -1.9780    -0.8770    -0.5140 H     1 <1>   0.0800 
 29 H       -1.2680     1.3250     1.4950 H     1 <1>   0.0800 
 30 H       -1.7750     1.5960    -0.1620 H     1 <1>   0.0800 
 31 H       -0.2500     2.2370     0.4080 H     1 <1>   0.0800 
 32 H        3.1580    -0.6940    -0.9280 H     1 <1>   0.0800 
 33 H        5.0220     0.7450    -1.1940 H     1 <1>   0.0800 
 34 H        2.2640    -1.0310     1.1560 H     1 <1>   0.0800 
 35 H        2.0240     0.6870     1.4500 H     1 <1>   0.0800 
 36 H        4.1980     2.4950     1.0340 H     1 <1>   0.3700 
 37 H        5.7760     0.6590     1.3800 H     1 <1>   0.0800 
 38 H        5.2860    -0.8540     0.6190 H     1 <1>   0.0800 
 39 H        3.5520     4.3480     1.5450 H     1 <1>   0.1500 
 40 H        5.2060     5.5410    -2.2000 H     1 <1>   0.1500 
 41 H        3.4970     6.6830     2.2550 H     1 <1>   0.1500 
 42 H        5.1450     7.8610    -1.4950 H     1 <1>   0.1500 
 43 H        4.5080    10.6940     0.7360 H     1 <1>   0.0800 
 44 H        4.0690     9.8510    -0.7460 H     1 <1>   0.0800 
 45 H        5.7050     9.6940    -0.0790 H     1 <1>   0.0800 
@<TRIPOS>BOND
  1   1   2  2   
  2   1   3  2   
  3   1   4  am  
  4   1   5  1   
  5   4   6  1   
  6   4   7  1   
  7   5   8  1   
  8   5  24  1   
  9   5  25  1   
 10   6  26  1   
 11   6  27  1   
 12   6  28  1   
 13   7  29  1   
 14   7  30  1   
 15   7  31  1   
 16   8   9  1   
 17   8  10  1   
 18   8  32  1   
 19   9  11  1   
 20   9  12  1   
 21   9  33  1   
 22  10  13  1   
 23  10  34  1   
 24  10  35  1   
 25  11  14  am  
 26  11  36  1   
 27  12  13  1   
 28  12  37  1   
 29  12  38  1   
 30  14  15  2   
 31  14  16  1   
 32  16  17  ar  
 33  16  18  ar  
 34  17  19  ar  
 35  17  39  1   
 36  18  20  ar  
 37  18  40  1   
 38  19  21  ar  
 39  19  41  1   
 40  20  21  ar  
 41  20  42  1   
 42  21  22  1   
 43  22  23  1   
 44  23  43  1   
 45  23  44  1   
 46  23  45  1   
@<TRIPOS>SUBSTRUCTURE
  1 ****  11 GROUP 4 **** **** 0

# MOE 2024.06 (io_trps.svl 2023.06)
