@<TRIPOS>MOLECULE
NONAME
45 47 1 0 0 
SMALL
USER_CHARGES


@<TRIPOS>ATOM
  1 CL       1.0930     0.4990    -1.3420 Cl    1 <1>  -0.1770 
  2 C        0.5660     1.8690    -0.3890 C.ar  1 <1>   0.1770 
  3 C        1.4380     2.5500     0.4560 C.ar  1 <1>  -0.1440 
  4 C       -0.7590     2.2460    -0.5150 C.ar  1 <1>  -0.1500 
  5 C        0.9400     3.6320     1.1730 C.ar  1 <1>  -0.1500 
  6 C        2.9070     2.1730     0.6270 C.3   1 <1>   0.3640 
  7 C       -1.2370     3.3240     0.2080 C.ar  1 <1>  -0.1500 
  8 C       -0.3850     4.0150     1.0510 C.ar  1 <1>  -0.1500 
  9 N        3.0120     0.7830     1.1290 N.am  1 <1>  -0.7300 
 10 C        3.7420     2.4120    -0.6580 C.3   1 <1>   0.2610 
 11 C        3.8660    -0.1310     0.6160 C.2   1 <1>   0.5690 
 12 O        4.9470     1.6580    -0.6580 O.3   1 <1>  -0.5600 
 13 C        3.9920     3.9170    -0.8280 C.2   1 <1>   0.5690 
 14 O        3.9290    -1.2410     1.0790 O.2   1 <1>  -0.5700 
 15 C        4.7470     0.2620    -0.5740 C.3   1 <1>   0.1810 
 16 O        3.3500     4.4730    -1.6890 O.2   1 <1>  -0.5700 
 17 N        4.8740     4.6300    -0.0410 N.am  1 <1>  -0.6600 
 18 C        5.8320     4.0520     0.9560 C.3   1 <1>   0.1400 
 19 C        5.1700     6.0680    -0.3330 C.3   1 <1>   0.1400 
 20 C        7.2730     4.1810     0.4420 C.3   1 <1>   0.1400 
 21 C        6.6120     6.2270    -0.8440 C.3   1 <1>   0.1400 
 22 N        7.5890     5.6060     0.1090 N.am  1 <1>  -0.6600 
 23 C        8.6530     6.2470     0.6870 C.2   1 <1>   0.5690 
 24 O        9.3530     5.7120     1.5120 O.2   1 <1>  -0.5700 
 25 C        8.9930     7.6700     0.3100 C.3   1 <1>  -0.1790 
 26 H       -1.4070     1.7000    -1.1760 H     1 <1>   0.1500 
 27 H        1.5790     4.1930     1.8340 H     1 <1>   0.1500 
 28 H        3.3180     2.8050     1.3940 H     1 <1>   0.0800 
 29 H       -2.2670     3.6240     0.1140 H     1 <1>   0.1500 
 30 H       -0.7550     4.8560     1.6120 H     1 <1>   0.1500 
 31 H        2.3790     0.4930     1.8760 H     1 <1>   0.3700 
 32 H        3.1790     2.0930    -1.5150 H     1 <1>   0.0800 
 33 H        4.2900    -0.0740    -1.4870 H     1 <1>   0.0800 
 34 H        5.7110    -0.2030    -0.4740 H     1 <1>   0.0800 
 35 H        5.7460     4.5920     1.8830 H     1 <1>   0.0800 
 36 H        5.6200     3.0220     1.1650 H     1 <1>   0.0800 
 37 H        4.4900     6.4600    -1.0690 H     1 <1>   0.0800 
 38 H        5.0450     6.6450     0.5660 H     1 <1>   0.0800 
 39 H        7.3910     3.5750    -0.4390 H     1 <1>   0.0800 
 40 H        7.9490     3.8050     1.1910 H     1 <1>   0.0800 
 41 H        6.8180     7.2710    -0.9870 H     1 <1>   0.0800 
 42 H        6.6990     5.7410    -1.8000 H     1 <1>   0.0800 
 43 H        9.1450     7.7420    -0.7500 H     1 <1>   0.0800 
 44 H        9.8980     7.9690     0.8070 H     1 <1>   0.0800 
 45 H        8.2010     8.3270     0.6140 H     1 <1>   0.0800 
@<TRIPOS>BOND
  1   1   2  1   
  2   2   3  ar  
  3   2   4  ar  
  4   3   5  ar  
  5   3   6  1   
  6   4   7  ar  
  7   4  26  1   
  8   5   8  ar  
  9   5  27  1   
 10   6   9  1   
 11   6  10  1   
 12   6  28  1   
 13   7   8  ar  
 14   7  29  1   
 15   8  30  1   
 16   9  11  am  
 17   9  31  1   
 18  10  12  1   
 19  10  13  1   
 20  10  32  1   
 21  11  14  2   
 22  11  15  1   
 23  12  15  1   
 24  13  16  2   
 25  13  17  am  
 26  15  33  1   
 27  15  34  1   
 28  17  18  1   
 29  17  19  1   
 30  18  20  1   
 31  18  35  1   
 32  18  36  1   
 33  19  21  1   
 34  19  37  1   
 35  19  38  1   
 36  20  22  1   
 37  20  39  1   
 38  20  40  1   
 39  21  22  1   
 40  21  41  1   
 41  21  42  1   
 42  22  23  am  
 43  23  24  2   
 44  23  25  1   
 45  25  43  1   
 46  25  44  1   
 47  25  45  1   
@<TRIPOS>SUBSTRUCTURE
  1 ****  13 GROUP 4 **** **** 0

# MOE 2024.06 (io_trps.svl 2023.06)
