@<TRIPOS>MOLECULE
NONAME
42 43 1 0 0 
SMALL
USER_CHARGES


@<TRIPOS>ATOM
  1 O       -0.1120    -0.4130    -0.0660 O.2   1 <1>  -0.5700 
  2 C       -1.1130     0.2610    -0.0430 C.2   1 <1>   0.5690 
  3 N       -2.3100    -0.2060    -0.5270 N.am  1 <1>  -0.6600 
  4 C       -0.9840     1.6560     0.5430 C.3   1 <1>  -0.0990 
  5 C       -2.4210    -1.6190    -0.9870 C.3   1 <1>   0.3200 
  6 C       -3.5230     0.6490    -0.7210 C.3   1 <1>   0.1400 
  7 C       -0.5620     2.6780    -0.5180 C.3   1 <1>   0.0200 
  8 C       -3.6100    -2.2780    -0.3180 C.2   1 <1>  -0.3320 
  9 C       -4.4020     0.6860     0.5350 C.3   1 <1>   0.1200 
 10 C       -0.5300     4.0790     0.0730 C.2   1 <1>  -0.3320 
 11 N       -4.7390    -2.6530    -0.9490 N.pl3 1 <1>   0.0330 
 12 C       -3.7810    -2.5960     0.9840 C.2   1 <1>   0.0770 
 13 O       -5.1470     1.8580     0.5200 O.3   1 <1>  -0.6800 
 14 N       -1.6110     4.8430     0.3590 N.pl3 1 <1>   0.3140 
 15 C        0.5570     4.8030     0.4130 C.2   1 <1>  -0.1500 
 16 C       -5.5330    -3.1610     0.0180 C.2   1 <1>   0.0070 
 17 N       -4.9940    -3.1390     1.1920 N.2   1 <1>  -0.5650 
 18 N       -1.2470     6.0280     0.8770 N.2   1 <1>  -0.7070 
 19 C       -3.0330     4.5200     0.1670 C.3   1 <1>   0.0160 
 20 C        0.0500     5.9980     0.9040 C.2   1 <1>   0.1390 
 21 C       -6.9180    -3.7040    -0.2580 C.3   1 <1>  -0.0600 
 22 H       -0.2350     1.6310     1.3130 H     1 <1>   0.0800 
 23 H       -1.9010     1.9520     1.0100 H     1 <1>   0.0800 
 24 H       -1.5340    -2.1750    -0.7340 H     1 <1>   0.0800 
 25 H       -2.5280    -1.6390    -2.0570 H     1 <1>   0.0800 
 26 H       -4.1010     0.2790    -1.5490 H     1 <1>   0.0800 
 27 H       -3.2150     1.6490    -0.9640 H     1 <1>   0.0800 
 28 H       -1.2270     2.6540    -1.3620 H     1 <1>   0.0800 
 29 H        0.4210     2.4190    -0.8750 H     1 <1>   0.0800 
 30 H       -3.8040     0.6830     1.4290 H     1 <1>   0.0800 
 31 H       -5.0820    -0.1480     0.5530 H     1 <1>   0.0800 
 32 H       -4.9640    -2.5820    -1.9450 H     1 <1>   0.2700 
 33 H       -3.0850    -2.4510     1.7940 H     1 <1>   0.1500 
 34 H       -5.7900     1.8570     1.2600 H     1 <1>   0.4000 
 35 H        1.5980     4.5430     0.3360 H     1 <1>   0.1500 
 36 H       -3.1690     4.0420    -0.7830 H     1 <1>   0.0800 
 37 H       -3.6040     5.4290     0.1940 H     1 <1>   0.0800 
 38 H       -3.3570     3.8730     0.9580 H     1 <1>   0.0800 
 39 H        0.6530     6.8120     1.2690 H     1 <1>   0.1500 
 40 H       -6.8620    -4.5280    -0.9450 H     1 <1>   0.0800 
 41 H       -7.5430    -2.9340    -0.6710 H     1 <1>   0.0800 
 42 H       -7.3600    -4.0520     0.6590 H     1 <1>   0.0800 
@<TRIPOS>BOND
  1   1   2  2   
  2   2   3  am  
  3   2   4  1   
  4   3   5  1   
  5   3   6  1   
  6   4   7  1   
  7   4  22  1   
  8   4  23  1   
  9   5   8  1   
 10   5  24  1   
 11   5  25  1   
 12   6   9  1   
 13   6  26  1   
 14   6  27  1   
 15   7  10  1   
 16   7  28  1   
 17   7  29  1   
 18   8  11  1   
 19   8  12  2   
 20   9  13  1   
 21   9  30  1   
 22   9  31  1   
 23  10  14  1   
 24  10  15  2   
 25  11  16  1   
 26  11  32  1   
 27  12  17  1   
 28  12  33  1   
 29  13  34  1   
 30  14  18  1   
 31  14  19  1   
 32  15  20  1   
 33  15  35  1   
 34  16  17  2   
 35  16  21  1   
 36  18  20  2   
 37  19  36  1   
 38  19  37  1   
 39  19  38  1   
 40  20  39  1   
 41  21  40  1   
 42  21  41  1   
 43  21  42  1   
@<TRIPOS>SUBSTRUCTURE
  1 ****   6 GROUP 4 **** **** 0

# MOE 2024.06 (io_trps.svl 2023.06)
