@<TRIPOS>MOLECULE
NONAME
43 45 1 0 0 
SMALL
USER_CHARGES


@<TRIPOS>ATOM
  1 S        0.5810     0.6290    -1.0040 S.o2  1 <1>   1.3330 
  2 O        0.1550    -0.5540    -0.2900 O.2   1 <1>  -0.6500 
  3 O       -0.0010     0.9380    -2.2900 O.2   1 <1>  -0.6500 
  4 N        0.3310     1.9720     0.0060 N.am  1 <1>  -0.8490 
  5 C        2.3630     0.5550    -1.1730 C.3   1 <1>  -0.0550 
  6 C        0.5020     3.2600    -0.6760 C.3   1 <1>   0.1160 
  7 C       -0.9750     1.9270     0.6670 C.3   1 <1>   0.1160 
  8 C        3.1050     0.4240     0.1690 C.3   1 <1>  -0.0800 
  9 C        4.5850     0.7690     0.0580 C.3   1 <1>   0.2890 
 10 C        3.1050    -0.9820     0.7570 C.3   1 <1>   0.1200 
 11 N        4.8110     2.1130     0.6390 N.pl3 1 <1>  -0.8690 
 12 C        5.2800    -0.3320     0.8620 C.3   1 <1>   0.1200 
 13 O        4.2740    -1.0530     1.5050 O.3   1 <1>  -0.5600 
 14 C        4.4060     3.2470    -0.0190 C.ar  1 <1>   0.4100 
 15 N        4.5390     3.2920    -1.3310 N.ar  1 <1>  -0.6200 
 16 C        3.8410     4.3180     0.6480 C.ar  1 <1>   0.0400 
 17 C        4.1170     4.4110    -1.9180 C.ar  1 <1>   0.4700 
 18 S        3.5130     4.5170     2.3760 S.3   1 <1>  -0.0800 
 19 C        3.4190     5.4180    -0.0490 C.ar  1 <1>   0.2560 
 20 N        3.5540     5.4730    -1.3720 N.ar  1 <1>  -0.5660 
 21 C        2.8090     6.1090     2.0980 C.2   1 <1>  -0.1100 
 22 C        2.8360     6.4310     0.7900 C.2   1 <1>  -0.1810 
 23 C        2.3190     7.7280     0.1940 C.3   1 <1>  -0.0590 
 24 H        2.6280    -0.2630    -1.8130 H     1 <1>   0.0800 
 25 H        2.6870     1.4540    -1.6590 H     1 <1>   0.0800 
 26 H        0.4230     4.0670     0.0330 H     1 <1>   0.0800 
 27 H       -0.2480     3.3860    -1.4390 H     1 <1>   0.0800 
 28 H        1.4730     3.3130    -1.1350 H     1 <1>   0.0800 
 29 H       -1.0920     2.7750     1.3200 H     1 <1>   0.0800 
 30 H       -1.0570     1.0320     1.2600 H     1 <1>   0.0800 
 31 H       -1.7660     1.9300    -0.0660 H     1 <1>   0.0800 
 32 H        2.6450     1.0680     0.8990 H     1 <1>   0.0800 
 33 H        4.9390     0.7430    -0.9590 H     1 <1>   0.0800 
 34 H        3.1520    -1.7390    -0.0070 H     1 <1>   0.0800 
 35 H        2.2590    -1.1610     1.4000 H     1 <1>   0.0800 
 36 H        4.6650     2.1230     1.6530 H     1 <1>   0.4000 
 37 H        5.9600     0.0600     1.5980 H     1 <1>   0.0800 
 38 H        5.7980    -1.0080     0.2050 H     1 <1>   0.0800 
 39 H        4.2480     4.4480    -2.9870 H     1 <1>   0.1500 
 40 H        2.4480     6.6400     2.9610 H     1 <1>   0.1500 
 41 H        1.5450     7.5200    -0.5220 H     1 <1>   0.0800 
 42 H        3.1200     8.2450    -0.3050 H     1 <1>   0.0800 
 43 H        1.9210     8.3670     0.9620 H     1 <1>   0.0800 
@<TRIPOS>BOND
  1   1   2  2   
  2   1   3  2   
  3   1   4  am  
  4   1   5  1   
  5   4   6  1   
  6   4   7  1   
  7   5   8  1   
  8   5  24  1   
  9   5  25  1   
 10   6  26  1   
 11   6  27  1   
 12   6  28  1   
 13   7  29  1   
 14   7  30  1   
 15   7  31  1   
 16   8   9  1   
 17   8  10  1   
 18   8  32  1   
 19   9  11  1   
 20   9  12  1   
 21   9  33  1   
 22  10  13  1   
 23  10  34  1   
 24  10  35  1   
 25  11  14  1   
 26  11  36  1   
 27  12  13  1   
 28  12  37  1   
 29  12  38  1   
 30  14  15  ar  
 31  14  16  ar  
 32  15  17  ar  
 33  16  18  1   
 34  16  19  ar  
 35  17  20  ar  
 36  17  39  1   
 37  18  21  1   
 38  19  20  ar  
 39  19  22  1   
 40  21  22  2   
 41  21  40  1   
 42  22  23  1   
 43  23  41  1   
 44  23  42  1   
 45  23  43  1   
@<TRIPOS>SUBSTRUCTURE
  1 ****  14 GROUP 4 **** **** 0

# MOE 2024.06 (io_trps.svl 2023.06)
