@<TRIPOS>MOLECULE
NONAME
53 56 1 0 0 
SMALL
USER_CHARGES


@<TRIPOS>ATOM
  1 O       -1.0910     4.4570    -2.9770 O.3   1 <1>  -0.6800 
  2 C       -1.0360     5.1020    -1.7600 C.3   1 <1>   0.2000 
  3 C       -1.4490     6.5600    -1.9580 C.3   1 <1>  -0.1600 
  4 C        0.3930     4.9970    -1.2300 C.3   1 <1>  -0.1600 
  5 C       -1.2880     7.3410    -0.6520 C.3   1 <1>   0.2090 
  6 C        0.5370     5.7860     0.0710 C.3   1 <1>   0.2090 
  7 N        0.1040     7.1910    -0.1460 N.pl3 1 <1>  -0.8380 
  8 C        0.6350     8.1750     0.6630 C.ar  1 <1>   0.4100 
  9 N       -0.1970     8.8660     1.4220 N.ar  1 <1>  -0.6200 
 10 C        1.9850     8.4330     0.6770 C.ar  1 <1>  -0.1500 
 11 C        0.3600     9.7910     2.1770 C.ar  1 <1>   0.4700 
 12 C        2.4510     9.4310     1.4960 C.ar  1 <1>   0.4100 
 13 N        1.6330    10.1260     2.2610 N.ar  1 <1>  -0.6200 
 14 N        3.7850     9.7510     1.5260 N.pl3 1 <1>  -0.8690 
 15 C        4.3850    10.8480     2.3320 C.3   1 <1>   0.3890 
 16 C        5.2520    11.7390     1.4580 C.2   1 <1>   0.0060 
 17 N        6.4800    12.0230     1.7360 N.2   1 <1>  -0.3380 
 18 N        4.8560    12.3370     0.3240 N.pl3 1 <1>   0.0480 
 19 N        6.9270    12.8290     0.7730 N.2   1 <1>  -0.3380 
 20 C        5.9520    12.9990    -0.0500 C.2   1 <1>   0.0360 
 21 C        3.5680    12.3000    -0.4050 C.3   1 <1>   0.0960 
 22 C        2.4920    13.1190     0.3120 C.3   1 <1>  -0.0170 
 23 C        1.2430    13.1930    -0.5520 C.ar  1 <1>  -0.1440 
 24 C        0.8800    14.3810    -1.1690 C.ar  1 <1>  -0.1500 
 25 C        0.4550    12.0670    -0.7340 C.ar  1 <1>  -0.1500 
 26 C       -0.2560    14.4400    -1.9580 C.ar  1 <1>  -0.1500 
 27 C       -0.6810    12.1250    -1.5210 C.ar  1 <1>  -0.1500 
 28 C       -1.0380    13.3130    -2.1350 C.ar  1 <1>  -0.1500 
 29 H       -1.9830     4.5350    -3.3640 H     1 <1>   0.4000 
 30 H       -1.7170     4.6070    -1.0870 H     1 <1>   0.0800 
 31 H       -2.4740     6.6160    -2.2730 H     1 <1>   0.0800 
 32 H       -0.8280     7.0190    -2.7070 H     1 <1>   0.0800 
 33 H        1.0820     5.3940    -1.9540 H     1 <1>   0.0800 
 34 H        0.6370     3.9660    -1.0500 H     1 <1>   0.0800 
 35 H       -1.9760     6.9750     0.0910 H     1 <1>   0.0800 
 36 H       -1.5010     8.3820    -0.8260 H     1 <1>   0.0800 
 37 H        1.5610     5.7570     0.4020 H     1 <1>   0.0800 
 38 H       -0.0760     5.3440     0.8390 H     1 <1>   0.0800 
 39 H        2.6470     7.8750     0.0500 H     1 <1>   0.1500 
 40 H       -0.3150    10.3510     2.8030 H     1 <1>   0.1500 
 41 H        4.4640     9.1230     1.0920 H     1 <1>   0.4000 
 42 H        4.9900    10.4190     3.1110 H     1 <1>   0.0800 
 43 H        3.6270    11.4500     2.8010 H     1 <1>   0.0800 
 44 H        6.0020    13.6000    -0.9390 H     1 <1>   0.1500 
 45 H        3.2490    11.2800    -0.5110 H     1 <1>   0.0800 
 46 H        3.7210    12.7020    -1.3910 H     1 <1>   0.0800 
 47 H        2.8590    14.1110     0.5070 H     1 <1>   0.0800 
 48 H        2.2400    12.6600     1.2500 H     1 <1>   0.0800 
 49 H        1.4770    15.2670    -1.0410 H     1 <1>   0.1500 
 50 H        0.7190    11.1360    -0.2650 H     1 <1>   0.1500 
 51 H       -0.5330    15.3650    -2.4340 H     1 <1>   0.1500 
 52 H       -1.2850    11.2450    -1.6530 H     1 <1>   0.1500 
 53 H       -1.9220    13.3590    -2.7470 H     1 <1>   0.1500 
@<TRIPOS>BOND
  1   1   2  1   
  2   1  29  1   
  3   2   3  1   
  4   2   4  1   
  5   2  30  1   
  6   3   5  1   
  7   3  31  1   
  8   3  32  1   
  9   4   6  1   
 10   4  33  1   
 11   4  34  1   
 12   5   7  1   
 13   5  35  1   
 14   5  36  1   
 15   6   7  1   
 16   6  37  1   
 17   6  38  1   
 18   7   8  1   
 19   8   9  ar  
 20   8  10  ar  
 21   9  11  ar  
 22  10  12  ar  
 23  10  39  1   
 24  11  13  ar  
 25  11  40  1   
 26  12  13  ar  
 27  12  14  1   
 28  14  15  1   
 29  14  41  1   
 30  15  16  1   
 31  15  42  1   
 32  15  43  1   
 33  16  17  2   
 34  16  18  1   
 35  17  19  1   
 36  18  20  1   
 37  18  21  1   
 38  19  20  2   
 39  20  44  1   
 40  21  22  1   
 41  21  45  1   
 42  21  46  1   
 43  22  23  1   
 44  22  47  1   
 45  22  48  1   
 46  23  24  ar  
 47  23  25  ar  
 48  24  26  ar  
 49  24  49  1   
 50  25  27  ar  
 51  25  50  1   
 52  26  28  ar  
 53  26  51  1   
 54  27  28  ar  
 55  27  52  1   
 56  28  53  1   
@<TRIPOS>SUBSTRUCTURE
  1 ****  12 GROUP 4 **** **** 0

# MOE 2024.06 (io_trps.svl 2023.06)
