@<TRIPOS>MOLECULE
NONAME
47 50 1 0 0 
SMALL
USER_CHARGES


@<TRIPOS>ATOM
  1 O        0.8810    -0.9620    -2.0880 O.2   1 <1>  -0.5700 
  2 C        1.3970    -1.2600    -1.0350 C.2   1 <1>   0.5690 
  3 N        2.0620    -0.3480    -0.2380 N.am  1 <1>  -0.4770 
  4 C        1.2910    -2.7330    -0.6050 C.3   1 <1>   0.1710 
  5 C        2.3400     1.0030    -0.4840 C.ar  1 <1>   0.1170 
  6 C        2.5600    -0.6940     1.1240 C.3   1 <1>   0.1400 
  7 N        0.4830    -2.9860     0.6230 N.3   1 <1>  -0.8100 
  8 C        2.9990     1.5860     0.5780 C.ar  1 <1>  -0.1440 
  9 C        2.0510     1.7720    -1.6050 C.ar  1 <1>  -0.1500 
 10 C        3.2160     0.5800     1.6780 C.3   1 <1>  -0.0170 
 11 C       -0.8870    -2.4540     0.4830 C.3   1 <1>   0.1100 
 12 C        0.3700    -4.4290     0.9150 C.3   1 <1>   0.1100 
 13 C        3.3770     2.9150     0.5590 C.ar  1 <1>  -0.1500 
 14 C        2.4230     3.1060    -1.6390 C.ar  1 <1>  -0.1500 
 15 C       -1.7730    -3.4050     1.2780 C.3   1 <1>   0.2000 
 16 C       -1.1280    -4.7620     1.0180 C.3   1 <1>  -0.0800 
 17 C        3.0840     3.6770    -0.5610 C.ar  1 <1>  -0.1500 
 18 O       -1.6180    -3.1100     2.6190 O.3   1 <1>  -0.6800 
 19 C       -1.6770    -5.3960    -0.2770 C.3   1 <1>  -0.0160 
 20 C       -1.0900    -6.7750    -0.5370 C.ar  1 <1>   0.1670 
 21 N       -0.0760    -6.8420    -1.3850 N.ar  1 <1>  -0.6200 
 22 C       -1.6280    -7.8880     0.1080 C.ar  1 <1>   0.1600 
 23 C        0.3570    -8.0810    -1.5460 C.ar  1 <1>   0.1600 
 24 N       -1.1940    -9.1270    -0.0480 N.ar  1 <1>  -0.6200 
 25 C       -0.1840    -9.1860    -0.8990 C.ar  1 <1>   0.1600 
 26 H        2.2860    -3.1070    -0.4530 H     1 <1>   0.0800 
 27 H        0.8650    -3.2840    -1.4260 H     1 <1>   0.0800 
 28 H        1.7330    -0.9870     1.7480 H     1 <1>   0.0800 
 29 H        3.2740    -1.4960     1.0650 H     1 <1>   0.0800 
 30 H        1.5400     1.3380    -2.4440 H     1 <1>   0.1500 
 31 H        2.7350     0.8930     2.5880 H     1 <1>   0.0800 
 32 H        4.2640     0.4240     1.8540 H     1 <1>   0.0800 
 33 H       -0.9560    -1.4420     0.8460 H     1 <1>   0.0800 
 34 H       -1.1910    -2.4720    -0.5500 H     1 <1>   0.0800 
 35 H        0.8670    -5.0280     0.1720 H     1 <1>   0.0800 
 36 H        0.8420    -4.6200     1.8640 H     1 <1>   0.0800 
 37 H        3.8890     3.3520     1.3970 H     1 <1>   0.1500 
 38 H        2.1980     3.7010    -2.5070 H     1 <1>   0.1500 
 39 H       -2.8180    -3.3470     1.0260 H     1 <1>   0.0800 
 40 H       -1.3150    -5.4350     1.8360 H     1 <1>   0.0800 
 41 H        3.3700     4.7140    -0.5950 H     1 <1>   0.1500 
 42 H       -0.6630    -2.9400     2.7620 H     1 <1>   0.4000 
 43 H       -1.4680    -4.7630    -1.1220 H     1 <1>   0.0800 
 44 H       -2.7460    -5.4870    -0.2020 H     1 <1>   0.0800 
 45 H       -2.4530    -7.7460     0.7830 H     1 <1>   0.1500 
 46 H        1.1790    -8.2320    -2.2220 H     1 <1>   0.1500 
 47 H        0.2370   -10.1570    -1.0940 H     1 <1>   0.1500 
@<TRIPOS>BOND
  1   1   2  2   
  2   2   3  am  
  3   2   4  1   
  4   3   5  1   
  5   3   6  1   
  6   4   7  1   
  7   4  26  1   
  8   4  27  1   
  9   5   8  ar  
 10   5   9  ar  
 11   6  10  1   
 12   6  28  1   
 13   6  29  1   
 14   7  11  1   
 15   7  12  1   
 16   8  10  1   
 17   8  13  ar  
 18   9  14  ar  
 19   9  30  1   
 20  10  31  1   
 21  10  32  1   
 22  11  15  1   
 23  11  33  1   
 24  11  34  1   
 25  12  16  1   
 26  12  35  1   
 27  12  36  1   
 28  13  17  ar  
 29  13  37  1   
 30  14  17  ar  
 31  14  38  1   
 32  15  16  1   
 33  15  18  1   
 34  15  39  1   
 35  16  19  1   
 36  16  40  1   
 37  17  41  1   
 38  18  42  1   
 39  19  20  1   
 40  19  43  1   
 41  19  44  1   
 42  20  21  ar  
 43  20  22  ar  
 44  21  23  ar  
 45  22  24  ar  
 46  22  45  1   
 47  23  25  ar  
 48  23  46  1   
 49  24  25  ar  
 50  25  47  1   
@<TRIPOS>SUBSTRUCTURE
  1 ****   4 GROUP 4 **** **** 0

# MOE 2024.06 (io_trps.svl 2023.06)
