@<TRIPOS>MOLECULE
NONAME
51 54 1 0 0 
SMALL
USER_CHARGES


@<TRIPOS>ATOM
  1 S       -0.7170     0.5640    -1.3630 S.3   1 <1>  -0.0800 
  2 C       -1.7400     0.6130     0.0660 C.2   1 <1>  -0.1400 
  3 C        0.5340     1.4900    -0.5550 C.2   1 <1>  -0.1100 
  4 C       -1.1320     1.2960     1.0540 C.2   1 <1>  -0.1500 
  5 C       -3.0920    -0.0710    -0.0100 C.3   1 <1>   0.0200 
  6 C        0.1630     1.7940     0.7020 C.2   1 <1>  -0.1500 
  7 C       -2.9430    -1.5980    -0.0380 C.3   1 <1>  -0.1600 
  8 C       -4.3120    -2.3030    -0.1030 C.3   1 <1>  -0.0990 
  9 C       -4.2360    -3.8260    -0.1370 C.2   1 <1>   0.5690 
 10 O       -3.1910    -4.3710     0.1260 O.2   1 <1>  -0.5700 
 11 N       -5.3550    -4.5450    -0.4530 N.am  1 <1>  -0.6600 
 12 C       -6.7140    -4.0050    -0.7020 C.3   1 <1>   0.1400 
 13 C       -5.3690    -6.0270    -0.4860 C.3   1 <1>   0.1400 
 14 C       -7.6120    -5.2330    -0.8670 C.3   1 <1>   0.2000 
 15 C       -6.8350    -6.4080    -0.2760 C.3   1 <1>  -0.0800 
 16 O       -8.8130    -5.0740    -0.1940 O.3   1 <1>  -0.6800 
 17 C       -7.2270    -7.7550    -0.9060 C.3   1 <1>  -0.0170 
 18 C       -6.4210    -8.8980    -0.3150 C.ar  1 <1>   0.1670 
 19 N       -5.2970    -9.1960    -0.8890 N.ar  1 <1>  -0.6200 
 20 C       -6.9170    -9.5650     0.8170 C.ar  1 <1>  -0.1500 
 21 C       -4.5620   -10.2060    -0.3570 C.ar  1 <1>   0.3100 
 22 C       -6.2030   -10.5840     1.3700 C.ar  1 <1>  -0.1500 
 23 C       -4.9780   -10.9340     0.7800 C.ar  1 <1>   0.0000 
 24 C       -3.3370   -10.5430    -0.9540 C.ar  1 <1>  -0.1500 
 25 C       -4.1550   -11.9680     1.2700 C.ar  1 <1>  -0.1500 
 26 C       -2.5510   -11.5510    -0.4620 C.ar  1 <1>  -0.1500 
 27 C       -2.9660   -12.2710     0.6630 C.ar  1 <1>  -0.1500 
 28 H        1.4260     1.7100    -1.1140 H     1 <1>   0.1500 
 29 H       -1.5420     1.4750     2.0330 H     1 <1>   0.1500 
 30 H       -3.6730     0.2160     0.8480 H     1 <1>   0.0800 
 31 H       -3.6060     0.2680    -0.8920 H     1 <1>   0.0800 
 32 H        0.7490     2.3550     1.4090 H     1 <1>   0.1500 
 33 H       -2.3550    -1.8890    -0.8910 H     1 <1>   0.0800 
 34 H       -2.4160    -1.9170     0.8460 H     1 <1>   0.0800 
 35 H       -4.8250    -1.9700    -0.9860 H     1 <1>   0.0800 
 36 H       -4.8960    -2.0220     0.7550 H     1 <1>   0.0800 
 37 H       -7.0240    -3.4090     0.1390 H     1 <1>   0.0800 
 38 H       -6.7180    -3.4140    -1.6010 H     1 <1>   0.0800 
 39 H       -5.0180    -6.3610    -1.4480 H     1 <1>   0.0800 
 40 H       -4.7370    -6.4430     0.2820 H     1 <1>   0.0800 
 41 H       -7.8260    -5.3880    -1.9110 H     1 <1>   0.0800 
 42 H       -6.9980    -6.4510     0.7870 H     1 <1>   0.0800 
 43 H       -8.6550    -4.9880     0.7660 H     1 <1>   0.4000 
 44 H       -7.0600    -7.7240    -1.9690 H     1 <1>   0.0800 
 45 H       -8.2750    -7.9340    -0.7490 H     1 <1>   0.0800 
 46 H       -7.8590    -9.2610     1.2360 H     1 <1>   0.1500 
 47 H       -6.5500   -11.1180     2.2360 H     1 <1>   0.1500 
 48 H       -3.0360    -9.9770    -1.8160 H     1 <1>   0.1500 
 49 H       -4.4790   -12.5160     2.1360 H     1 <1>   0.1500 
 50 H       -1.6140   -11.7990    -0.9300 H     1 <1>   0.1500 
 51 H       -2.3390   -13.0610     1.0400 H     1 <1>   0.1500 
@<TRIPOS>BOND
  1   1   2  1   
  2   1   3  1   
  3   2   4  2   
  4   2   5  1   
  5   3   6  2   
  6   3  28  1   
  7   4   6  1   
  8   4  29  1   
  9   5   7  1   
 10   5  30  1   
 11   5  31  1   
 12   6  32  1   
 13   7   8  1   
 14   7  33  1   
 15   7  34  1   
 16   8   9  1   
 17   8  35  1   
 18   8  36  1   
 19   9  10  2   
 20   9  11  am  
 21  11  12  1   
 22  11  13  1   
 23  12  14  1   
 24  12  37  1   
 25  12  38  1   
 26  13  15  1   
 27  13  39  1   
 28  13  40  1   
 29  14  15  1   
 30  14  16  1   
 31  14  41  1   
 32  15  17  1   
 33  15  42  1   
 34  16  43  1   
 35  17  18  1   
 36  17  44  1   
 37  17  45  1   
 38  18  19  ar  
 39  18  20  ar  
 40  19  21  ar  
 41  20  22  ar  
 42  20  46  1   
 43  21  23  ar  
 44  21  24  ar  
 45  22  23  ar  
 46  22  47  1   
 47  23  25  ar  
 48  24  26  ar  
 49  24  48  1   
 50  25  27  ar  
 51  25  49  1   
 52  26  27  ar  
 53  26  50  1   
 54  27  51  1   
@<TRIPOS>SUBSTRUCTURE
  1 ****  13 GROUP 4 **** **** 0

# MOE 2024.06 (io_trps.svl 2023.06)
