@<TRIPOS>MOLECULE
NONAME
55 57 1 0 0 
SMALL
USER_CHARGES


@<TRIPOS>ATOM
  1 CL       2.8420    -0.9380    -3.7940 Cl    1 <1>  -0.1770 
  2 C        3.1110    -1.4580    -2.1450 C.ar  1 <1>   0.1770 
  3 C        3.2660    -0.5250    -1.1300 C.ar  1 <1>   0.0820 
  4 C        3.1480    -2.8180    -1.8920 C.ar  1 <1>  -0.1500 
  5 O        3.2040     0.7980    -1.4280 O.3   1 <1>  -0.3630 
  6 C        3.4860    -0.9870     0.1720 C.ar  1 <1>   0.0820 
  7 C        3.3400    -3.2730    -0.5950 C.ar  1 <1>  -0.1440 
  8 C        2.0530     1.4860    -0.9990 C.3   1 <1>   0.1200 
  9 O        3.6690    -0.1660     1.2330 O.3   1 <1>  -0.3630 
 10 C        3.5130    -2.3490     0.4270 C.ar  1 <1>  -0.1500 
 11 C        3.3660    -4.7590    -0.2870 C.3   1 <1>   0.4860 
 12 C        2.1860     2.9420    -1.4330 C.3   1 <1>  -0.2400 
 13 C        4.7650     0.7220     1.1900 C.3   1 <1>   0.1200 
 14 N        1.9690    -5.2770    -0.2870 N.4   1 <1>  -0.9590 
 15 C        4.9680     1.2880     2.5920 C.3   1 <1>  -0.2400 
 16 C        1.2020    -4.7230     0.8770 C.3   1 <1>   0.3430 
 17 C        1.9670    -6.7680    -0.1310 C.3   1 <1>   0.3430 
 18 C        1.2600    -5.8010     1.9620 C.3   1 <1>   0.2000 
 19 C        1.1970    -7.0960     1.1580 C.3   1 <1>  -0.0800 
 20 O        2.5050    -5.7360     2.5800 O.3   1 <1>  -0.6800 
 21 C       -0.2560    -7.5220     0.8660 C.3   1 <1>  -0.0170 
 22 C       -0.2950    -8.6750    -0.1240 C.ar  1 <1>  -0.1430 
 23 C        0.2030    -9.9240     0.1920 C.ar  1 <1>  -0.1500 
 24 C       -0.8280    -8.5340    -1.3910 C.ar  1 <1>  -0.1500 
 25 C        0.1670   -10.9350    -0.7530 C.ar  1 <1>   0.1600 
 26 C       -0.8180    -9.6120    -2.2610 C.ar  1 <1>   0.1600 
 27 N       -0.3220   -10.8030    -1.9740 N.ar  1 <1>  -0.6200 
 28 H        3.0270    -3.4960    -2.7190 H     1 <1>   0.1500 
 29 H        1.1930     1.0270    -1.4560 H     1 <1>   0.0800 
 30 H        1.9810     1.4120     0.0730 H     1 <1>   0.0800 
 31 H        3.6790    -2.6690     1.4430 H     1 <1>   0.1500 
 32 H        3.8250    -4.9280     0.6740 H     1 <1>   0.0800 
 33 H        3.9500    -5.2670    -1.0370 H     1 <1>   0.0800 
 34 H        2.2690     3.0010    -2.5040 H     1 <1>   0.0800 
 35 H        3.0540     3.3860    -0.9800 H     1 <1>   0.0800 
 36 H        1.3170     3.4950    -1.1250 H     1 <1>   0.0800 
 37 H        5.6360     0.1790     0.8660 H     1 <1>   0.0800 
 38 H        4.5510     1.5120     0.4930 H     1 <1>   0.0800 
 39 H        1.5260    -4.9890    -1.1670 H     1 <1>   0.4500 
 40 H        5.1750     0.4940     3.2860 H     1 <1>   0.0800 
 41 H        4.0890     1.8220     2.9060 H     1 <1>   0.0800 
 42 H        5.8000     1.9680     2.5910 H     1 <1>   0.0800 
 43 H        1.6040    -3.7900     1.2350 H     1 <1>   0.0800 
 44 H        0.1750    -4.5710     0.5900 H     1 <1>   0.0800 
 45 H        1.5170    -7.2480    -0.9850 H     1 <1>   0.0800 
 46 H        2.9790    -7.1270    -0.0320 H     1 <1>   0.0800 
 47 H        0.4900    -5.6930     2.7080 H     1 <1>   0.0800 
 48 H        1.6840    -7.9000     1.6820 H     1 <1>   0.0800 
 49 H        2.5160    -6.2540     3.4140 H     1 <1>   0.4000 
 50 H       -0.8240    -6.6970     0.4710 H     1 <1>   0.0800 
 51 H       -0.7340    -7.8320     1.7800 H     1 <1>   0.0800 
 52 H        0.6170   -10.1300     1.1620 H     1 <1>   0.1500 
 53 H       -1.2600    -7.6060    -1.7180 H     1 <1>   0.1500 
 54 H        0.5590   -11.9040    -0.4920 H     1 <1>   0.1500 
 55 H       -1.2390    -9.4900    -3.2460 H     1 <1>   0.1500 
@<TRIPOS>BOND
  1   1   2  1   
  2   2   3  ar  
  3   2   4  ar  
  4   3   5  1   
  5   3   6  ar  
  6   4   7  ar  
  7   4  28  1   
  8   5   8  1   
  9   6   9  1   
 10   6  10  ar  
 11   7  10  ar  
 12   7  11  1   
 13   8  12  1   
 14   8  29  1   
 15   8  30  1   
 16   9  13  1   
 17  10  31  1   
 18  11  14  1   
 19  11  32  1   
 20  11  33  1   
 21  12  34  1   
 22  12  35  1   
 23  12  36  1   
 24  13  15  1   
 25  13  37  1   
 26  13  38  1   
 27  14  16  1   
 28  14  17  1   
 29  14  39  1   
 30  15  40  1   
 31  15  41  1   
 32  15  42  1   
 33  16  18  1   
 34  16  43  1   
 35  16  44  1   
 36  17  19  1   
 37  17  45  1   
 38  17  46  1   
 39  18  19  1   
 40  18  20  1   
 41  18  47  1   
 42  19  21  1   
 43  19  48  1   
 44  20  49  1   
 45  21  22  1   
 46  21  50  1   
 47  21  51  1   
 48  22  23  ar  
 49  22  24  ar  
 50  23  25  ar  
 51  23  52  1   
 52  24  26  ar  
 53  24  53  1   
 54  25  27  ar  
 55  25  54  1   
 56  26  27  ar  
 57  26  55  1   
@<TRIPOS>SUBSTRUCTURE
  1 ****  14 GROUP 4 **** **** 0

# MOE 2024.06 (io_trps.svl 2023.06)
