@<TRIPOS>MOLECULE
NONAME
48 50 1 0 0 
SMALL
USER_CHARGES


@<TRIPOS>ATOM
  1 F        0.1090    -3.3470    -2.1040 F     1 <1>  -0.1900 
  2 C       -0.8680    -3.9170    -1.4440 C.ar  1 <1>   0.1900 
  3 C       -0.9030    -3.9440    -0.0460 C.ar  1 <1>   0.0820 
  4 C       -1.8680    -4.4930    -2.2010 C.ar  1 <1>  -0.1500 
  5 O        0.0200    -3.4160     0.8090 O.3   1 <1>  -0.3630 
  6 C       -1.9820    -4.5690     0.5580 C.ar  1 <1>  -0.1500 
  7 C       -2.9300    -5.1090    -1.5660 C.ar  1 <1>  -0.1500 
  8 C        1.2010    -2.7830     0.3710 C.3   1 <1>   0.0400 
  9 C       -3.0160    -5.1650    -0.1720 C.ar  1 <1>   0.0530 
 10 C       -4.1240    -5.8070     0.5020 C.2   1 <1>   0.0870 
 11 O       -4.2670    -5.6860     1.8050 O.3   1 <1>  -0.0190 
 12 C       -5.1510    -6.5880     0.0790 C.2   1 <1>  -0.2330 
 13 N       -5.3030    -6.3360     2.2720 N.2   1 <1>  -0.4100 
 14 C       -5.8510    -6.8720     1.2440 C.2   1 <1>   0.3720 
 15 C       -5.5190    -7.1520    -1.1770 C.2   1 <1>   1.0330 
 16 N       -6.9690    -7.6920     1.2630 N.pl3 1 <1>  -0.8520 
 17 O       -6.6940    -7.1190    -1.5790 O.co2 1 <1>  -0.9000 
 18 O       -4.7180    -7.8600    -1.8180 O.co2 1 <1>  -0.9000 
 19 C       -7.7150    -7.9940     2.4940 C.3   1 <1>   0.2090 
 20 C       -8.5030    -9.3050     2.3280 C.3   1 <1>  -0.1600 
 21 C       -7.6760   -10.5560     1.9560 C.3   1 <1>   0.3540 
 22 N       -7.2420   -10.5310     0.5360 N.pl3 1 <1>  -0.4570 
 23 N       -8.1490   -10.5360    -0.4800 N.2   1 <1>  -0.2600 
 24 C       -6.0390   -10.2430     0.0650 C.cat 1 <1>   0.6560 
 25 C       -7.4580   -10.2030    -1.5140 C.2   1 <1>   0.4850 
 26 N       -6.1550   -10.0540    -1.2160 N.pl3 1 <1>  -0.7000 
 27 C       -4.7480   -10.0650     0.8350 C.3   1 <1>  -0.0960 
 28 C       -7.9870    -9.9540    -2.9060 C.3   1 <1>  -0.0720 
 29 H       -1.8170    -4.4620    -3.2750 H     1 <1>   0.1500 
 30 H       -2.0130    -4.5910     1.6320 H     1 <1>   0.1500 
 31 H       -3.7000    -5.5540    -2.1710 H     1 <1>   0.1500 
 32 H        1.7600    -2.4810     1.2390 H     1 <1>   0.0800 
 33 H        0.9400    -1.9180    -0.2120 H     1 <1>   0.0800 
 34 H        1.7790    -3.4800    -0.2090 H     1 <1>   0.0800 
 35 H       -7.5300    -7.5560     0.4000 H     1 <1>   0.4000 
 36 H       -8.3880    -7.1800     2.7040 H     1 <1>   0.0800 
 37 H       -7.0250    -8.0800     3.3170 H     1 <1>   0.0800 
 38 H       -9.2850    -9.1600     1.6040 H     1 <1>   0.0800 
 39 H       -8.9860    -9.5010     3.2670 H     1 <1>   0.0800 
 40 H       -8.2830   -11.4330     2.1000 H     1 <1>   0.0800 
 41 H       -6.8200   -10.6340     2.6030 H     1 <1>   0.0800 
 42 H       -5.4640    -9.5240    -1.7900 H     1 <1>   0.4500 
 43 H       -4.9180    -9.5050     1.7340 H     1 <1>   0.0800 
 44 H       -4.0370    -9.5280     0.2330 H     1 <1>   0.0800 
 45 H       -4.3400   -11.0250     1.0840 H     1 <1>   0.0800 
 46 H       -9.0490   -10.1040    -2.9310 H     1 <1>   0.0800 
 47 H       -7.5140   -10.6210    -3.6010 H     1 <1>   0.0800 
 48 H       -7.7710    -8.9390    -3.1890 H     1 <1>   0.0800 
@<TRIPOS>BOND
  1   1   2  1   
  2   2   3  ar  
  3   2   4  ar  
  4   3   5  1   
  5   3   6  ar  
  6   4   7  ar  
  7   4  29  1   
  8   5   8  1   
  9   6   9  ar  
 10   6  30  1   
 11   7   9  ar  
 12   7  31  1   
 13   8  32  1   
 14   8  33  1   
 15   8  34  1   
 16   9  10  1   
 17  10  11  1   
 18  10  12  2   
 19  11  13  1   
 20  12  14  1   
 21  12  15  1   
 22  13  14  2   
 23  14  16  1   
 24  15  17  ar  
 25  15  18  ar  
 26  16  19  1   
 27  16  35  1   
 28  19  20  1   
 29  19  36  1   
 30  19  37  1   
 31  20  21  1   
 32  20  38  1   
 33  20  39  1   
 34  21  22  1   
 35  21  40  1   
 36  21  41  1   
 37  22  23  1   
 38  22  24  ar  
 39  23  25  2   
 40  24  26  ar  
 41  24  27  1   
 42  25  26  1   
 43  25  28  1   
 44  26  42  1   
 45  27  43  1   
 46  27  44  1   
 47  27  45  1   
 48  28  46  1   
 49  28  47  1   
 50  28  48  1   
@<TRIPOS>SUBSTRUCTURE
  1 ****  12 GROUP 4 **** **** 0

# MOE 2024.06 (io_trps.svl 2023.06)
