@<TRIPOS>MOLECULE
NONAME
50 52 1 0 0 
SMALL
USER_CHARGES


@<TRIPOS>ATOM
  1 O       -1.5340    -1.3330    -0.0020 O.3   1 <1>  -0.3630 
  2 C       -2.0740    -0.0940     0.1290 C.ar  1 <1>   0.0830 
  3 C       -0.1940    -1.5060    -0.4230 C.3   1 <1>   0.1200 
  4 C       -3.2300     0.0280     0.8940 C.ar  1 <1>  -0.1440 
  5 C       -1.5240     1.0340    -0.4730 C.ar  1 <1>  -0.1500 
  6 C        0.1440    -2.9930    -0.3490 C.3   1 <1>   0.1200 
  7 C       -3.8280     1.2700     1.0470 C.ar  1 <1>  -0.1500 
  8 C       -3.8350    -1.1880     1.5690 C.3   1 <1>   0.4870 
  9 C       -2.1280     2.2680    -0.3160 C.ar  1 <1>  -0.1500 
 10 O        1.5000    -3.1810    -0.5680 O.3   1 <1>  -0.6800 
 11 C       -3.2790     2.3870     0.4420 C.ar  1 <1>  -0.1500 
 12 N       -4.2440    -2.1650     0.5320 N.4   1 <1>  -0.9590 
 13 C       -5.1790    -1.6320    -0.5100 C.3   1 <1>   0.3430 
 14 C       -4.8190    -3.4300     1.0390 C.3   1 <1>   0.3430 
 15 C       -6.2030    -2.7500    -0.7750 C.3   1 <1>   0.2000 
 16 C       -5.5760    -4.0020    -0.1620 C.3   1 <1>  -0.0800 
 17 O       -7.3900    -2.4670    -0.1100 O.3   1 <1>  -0.6800 
 18 C       -4.6450    -4.6870    -1.1900 C.3   1 <1>   0.0210 
 19 C       -3.5270    -5.4780    -0.5420 C.2   1 <1>   0.1080 
 20 N       -2.4560    -4.9100    -0.0760 N.2   1 <1>  -0.7070 
 21 C       -3.5090    -6.8580    -0.3790 C.2   1 <1>  -0.1500 
 22 N       -1.7050    -5.9360     0.3850 N.pl3 1 <1>   0.3000 
 23 C       -2.3290    -7.1200     0.2190 C.2   1 <1>  -0.3320 
 24 C       -1.7430    -8.4560     0.6410 C.3   1 <1>  -0.0600 
 25 H       -0.1020    -1.1520    -1.4350 H     1 <1>   0.0800 
 26 H        0.4410    -0.9430     0.2400 H     1 <1>   0.0800 
 27 H       -0.6330     0.9770    -1.0700 H     1 <1>   0.1500 
 28 H       -0.4000    -3.5500    -1.0930 H     1 <1>   0.0800 
 29 H       -0.0790    -3.3720     0.6330 H     1 <1>   0.0800 
 30 H       -4.7210     1.3890     1.6370 H     1 <1>   0.1500 
 31 H       -4.6860    -0.8940     2.1600 H     1 <1>   0.0800 
 32 H       -3.0990    -1.6330     2.2190 H     1 <1>   0.0800 
 33 H       -1.7020     3.1410    -0.7830 H     1 <1>   0.1500 
 34 H        1.7390    -3.0040    -1.5000 H     1 <1>   0.4000 
 35 H       -3.7430     3.3520     0.5620 H     1 <1>   0.1500 
 36 H       -3.3550    -2.4210     0.0580 H     1 <1>   0.4500 
 37 H       -5.6820    -0.7390    -0.1770 H     1 <1>   0.0800 
 38 H       -4.6250    -1.4110    -1.4080 H     1 <1>   0.0800 
 39 H       -4.0590    -4.0980     1.4100 H     1 <1>   0.0800 
 40 H       -5.5160    -3.2220     1.8340 H     1 <1>   0.0800 
 41 H       -6.4330    -2.8510    -1.8230 H     1 <1>   0.0800 
 42 H       -6.3170    -4.7130     0.1610 H     1 <1>   0.0800 
 43 H       -7.3030    -2.4800     0.8620 H     1 <1>   0.4000 
 44 H       -4.1800    -3.9590    -1.8310 H     1 <1>   0.0800 
 45 H       -5.2230    -5.3400    -1.8200 H     1 <1>   0.0800 
 46 H       -4.2770    -7.5500    -0.6790 H     1 <1>   0.1500 
 47 H       -0.7700    -5.8070     0.7970 H     1 <1>   0.2700 
 48 H       -2.4240    -9.2530     0.3980 H     1 <1>   0.0800 
 49 H       -1.5650    -8.4700     1.7010 H     1 <1>   0.0800 
 50 H       -0.8140    -8.6350     0.1270 H     1 <1>   0.0800 
@<TRIPOS>BOND
  1   1   2  1   
  2   1   3  1   
  3   2   4  ar  
  4   2   5  ar  
  5   3   6  1   
  6   3  25  1   
  7   3  26  1   
  8   4   7  ar  
  9   4   8  1   
 10   5   9  ar  
 11   5  27  1   
 12   6  10  1   
 13   6  28  1   
 14   6  29  1   
 15   7  11  ar  
 16   7  30  1   
 17   8  12  1   
 18   8  31  1   
 19   8  32  1   
 20   9  11  ar  
 21   9  33  1   
 22  10  34  1   
 23  11  35  1   
 24  12  13  1   
 25  12  14  1   
 26  12  36  1   
 27  13  15  1   
 28  13  37  1   
 29  13  38  1   
 30  14  16  1   
 31  14  39  1   
 32  14  40  1   
 33  15  16  1   
 34  15  17  1   
 35  15  41  1   
 36  16  18  1   
 37  16  42  1   
 38  17  43  1   
 39  18  19  1   
 40  18  44  1   
 41  18  45  1   
 42  19  20  2   
 43  19  21  1   
 44  20  22  1   
 45  21  23  2   
 46  21  46  1   
 47  22  23  1   
 48  22  47  1   
 49  23  24  1   
 50  24  48  1   
 51  24  49  1   
 52  24  50  1   
@<TRIPOS>SUBSTRUCTURE
  1 ****  12 GROUP 4 **** **** 0

# MOE 2024.06 (io_trps.svl 2023.06)
