@<TRIPOS>MOLECULE
NONAME
45 48 1 0 0 
SMALL
USER_CHARGES


@<TRIPOS>ATOM
  1 S       -0.0100     0.9030    -1.1160 S.3   1 <1>  -0.0800 
  2 C       -1.1600    -0.2530    -0.5380 C.2   1 <1>  -0.1400 
  3 C       -0.4320     1.9110     0.2730 C.2   1 <1>   0.1980 
  4 C       -1.7180     0.1900     0.5700 C.2   1 <1>   0.0460 
  5 C       -1.6220    -1.5880    -1.0280 C.3   1 <1>   0.0200 
  6 N       -1.3170     1.4200     1.0520 N.2   1 <1>  -0.5650 
  7 C        0.2910     3.2290     0.4130 C.3   1 <1>   0.0200 
  8 C       -2.7270    -0.7830     1.1060 C.3   1 <1>   0.0210 
  9 C       -2.6600    -1.9490     0.0720 C.3   1 <1>  -0.1600 
 10 C        1.6610     2.9940     1.0490 C.3   1 <1>   0.2090 
 11 N        2.4060     4.2730     1.1660 N.pl3 1 <1>  -0.8690 
 12 C        2.9250     4.8910     0.0590 C.ar  1 <1>   0.4100 
 13 N        2.5760     6.1550    -0.0390 N.ar  1 <1>  -0.6200 
 14 C        3.7400     4.2410    -0.8810 C.ar  1 <1>   0.1600 
 15 C        3.0590     6.7660    -1.1360 C.ar  1 <1>   0.3960 
 16 N        4.2230     4.8040    -1.9680 N.ar  1 <1>  -0.6200 
 17 C        2.7690     8.1740    -1.4170 C.2   1 <1>   0.5440 
 18 C        3.8520     6.0750    -2.0600 C.ar  1 <1>   0.1600 
 19 O        2.6900     8.5360    -2.5800 O.2   1 <1>  -0.5700 
 20 N        2.6070     9.1460    -0.4440 N.am  1 <1>  -0.6600 
 21 C        2.7740     8.9540     1.0160 C.3   1 <1>   0.1400 
 22 C        2.4240    10.5790    -0.7660 C.3   1 <1>   0.1400 
 23 C        2.5720    10.3370     1.6280 C.3   1 <1>  -0.1600 
 24 C        2.8590    11.3160     0.4940 C.3   1 <1>  -0.1600 
 25 H       -0.8070    -2.2890    -1.0550 H     1 <1>   0.0800 
 26 H       -2.0810    -1.5000    -1.9970 H     1 <1>   0.0800 
 27 H       -0.2910     3.8790     1.0400 H     1 <1>   0.0800 
 28 H        0.3960     3.6800    -0.5560 H     1 <1>   0.0800 
 29 H       -3.7010    -0.3290     1.1320 H     1 <1>   0.0800 
 30 H       -2.4430    -1.1080     2.0910 H     1 <1>   0.0800 
 31 H       -2.3660    -2.8570     0.5670 H     1 <1>   0.0800 
 32 H       -3.6280    -2.0990    -0.3720 H     1 <1>   0.0800 
 33 H        2.2240     2.2940     0.4560 H     1 <1>   0.0800 
 34 H        1.5320     2.5680     2.0300 H     1 <1>   0.0800 
 35 H        1.9240     4.9540     1.7610 H     1 <1>   0.4000 
 36 H        3.9900     3.2130    -0.7010 H     1 <1>   0.1500 
 37 H        4.1990     6.6130    -2.9260 H     1 <1>   0.1500 
 38 H        3.7680     8.5910     1.2170 H     1 <1>   0.0800 
 39 H        2.0470     8.2580     1.3980 H     1 <1>   0.0800 
 40 H        1.3830    10.7590    -0.9730 H     1 <1>   0.0800 
 41 H        3.0160    10.8670    -1.6190 H     1 <1>   0.0800 
 42 H        3.2110    10.4950     2.4780 H     1 <1>   0.0800 
 43 H        1.5460    10.4320     1.9400 H     1 <1>   0.0800 
 44 H        2.3350    12.2480     0.6120 H     1 <1>   0.0800 
 45 H        3.9150    11.5110     0.4360 H     1 <1>   0.0800 
@<TRIPOS>BOND
  1   1   2  1   
  2   1   3  1   
  3   2   4  2   
  4   2   5  1   
  5   3   6  2   
  6   3   7  1   
  7   4   6  1   
  8   4   8  1   
  9   5   9  1   
 10   5  25  1   
 11   5  26  1   
 12   7  10  1   
 13   7  27  1   
 14   7  28  1   
 15   8   9  1   
 16   8  29  1   
 17   8  30  1   
 18   9  31  1   
 19   9  32  1   
 20  10  11  1   
 21  10  33  1   
 22  10  34  1   
 23  11  12  1   
 24  11  35  1   
 25  12  13  ar  
 26  12  14  ar  
 27  13  15  ar  
 28  14  16  ar  
 29  14  36  1   
 30  15  17  1   
 31  15  18  ar  
 32  16  18  ar  
 33  17  19  2   
 34  17  20  am  
 35  18  37  1   
 36  20  21  1   
 37  20  22  1   
 38  21  23  1   
 39  21  38  1   
 40  21  39  1   
 41  22  24  1   
 42  22  40  1   
 43  22  41  1   
 44  23  24  1   
 45  23  42  1   
 46  23  43  1   
 47  24  44  1   
 48  24  45  1   
@<TRIPOS>SUBSTRUCTURE
  1 ****  12 GROUP 4 **** **** 0

# MOE 2024.06 (io_trps.svl 2023.06)
