@<TRIPOS>MOLECULE
NONAME
69 71 1 0 0 
SMALL
USER_CHARGES


@<TRIPOS>ATOM
  1 O       -1.3630     1.6020    -1.5140 O.2   1 <1>  -0.5700 
  2 C       -0.7080     1.7270    -0.5070 C.2   1 <1>   0.6590 
  3 O       -1.1880     1.3770     0.6880 O.3   1 <1>  -0.4300 
  4 C        0.7490     2.2450    -0.5180 C.3   1 <1>   0.2510 
  5 C       -2.4560     0.8020     0.9420 C.3   1 <1>   0.2000 
  6 N        1.0530     3.1660    -1.6310 N.3   1 <1>  -0.9900 
  7 C        1.7590     1.0700    -0.5140 C.3   1 <1>  -0.0800 
  8 C       -2.6120    -0.5620     0.2320 C.3   1 <1>  -0.0800 
  9 C       -3.5680     1.8110     0.6190 C.3   1 <1>  -0.1600 
 10 C        3.2060     1.5510    -0.3100 C.3   1 <1>  -0.2400 
 11 C        1.6810     0.1910    -1.7760 C.3   1 <1>  -0.2400 
 12 C       -4.0420    -1.0730     0.4090 C.3   1 <1>   0.3430 
 13 C       -1.5560    -1.5710     0.7400 C.3   1 <1>  -0.1600 
 14 C       -4.9490     1.1870     0.8310 C.3   1 <1>   0.5660 
 15 N       -5.0140    -0.0320    -0.0240 N.4   1 <1>  -0.9590 
 16 C       -1.5700    -2.9380     0.0210 C.3   1 <1>  -0.0800 
 17 C       -6.0910     2.1630     0.5070 C.ar  1 <1>  -0.1430 
 18 C       -6.3950    -0.5760    -0.1230 C.3   1 <1>   0.3430 
 19 C       -2.4650    -3.9640     0.7350 C.3   1 <1>  -0.2400 
 20 C       -0.1460    -3.5040    -0.0420 C.3   1 <1>  -0.2400 
 21 C       -7.1650     1.8040    -0.3000 C.ar  1 <1>  -0.1430 
 22 C       -6.0820     3.4380     1.0560 C.ar  1 <1>  -0.1500 
 23 C       -7.2670     0.4100    -0.8940 C.3   1 <1>  -0.0170 
 24 C       -8.1750     2.7160    -0.5680 C.ar  1 <1>  -0.1500 
 25 C       -7.0830     4.3600     0.8030 C.ar  1 <1>   0.0830 
 26 C       -8.1550     4.0000    -0.0300 C.ar  1 <1>   0.0830 
 27 O       -6.8900     5.5590     1.4280 O.3   1 <1>  -0.3630 
 28 O       -9.1580     4.8880    -0.2930 O.3   1 <1>  -0.3620 
 29 C       -7.6880     6.6980     1.1950 C.3   1 <1>   0.0400 
 30 C      -10.2510     4.5870    -1.1340 C.3   1 <1>   0.0400 
 31 H        0.8860     2.7960     0.3960 H     1 <1>   0.0800 
 32 H       -2.4810     0.6230     2.0050 H     1 <1>   0.0800 
 33 H        0.6650     2.7530    -2.4900 H     1 <1>   0.3600 
 34 H        2.0700     3.2070    -1.7490 H     1 <1>   0.3600 
 35 H        1.5140     0.4460     0.3300 H     1 <1>   0.0800 
 36 H       -2.4660    -0.4410    -0.8250 H     1 <1>   0.0800 
 37 H       -3.5060     2.1610    -0.3950 H     1 <1>   0.0800 
 38 H       -3.4440     2.6570     1.2690 H     1 <1>   0.0800 
 39 H        3.5540     2.1150    -1.1570 H     1 <1>   0.0800 
 40 H        3.8610     0.7080    -0.1770 H     1 <1>   0.0800 
 41 H        3.2760     2.1700     0.5680 H     1 <1>   0.0800 
 42 H        1.9350     0.7570    -2.6550 H     1 <1>   0.0800 
 43 H        0.6930    -0.2140    -1.9050 H     1 <1>   0.0800 
 44 H        2.3690    -0.6330    -1.6970 H     1 <1>   0.0800 
 45 H       -4.2120    -1.3350     1.4400 H     1 <1>   0.0800 
 46 H       -4.1700    -1.9580    -0.1930 H     1 <1>   0.0800 
 47 H       -1.6500    -1.7160     1.8030 H     1 <1>   0.0800 
 48 H       -0.5890    -1.1240     0.5810 H     1 <1>   0.0800 
 49 H       -5.0480     0.8990     1.8650 H     1 <1>   0.0800 
 50 H       -4.7440     0.2930    -0.9620 H     1 <1>   0.4500 
 51 H       -1.9100    -2.8140    -0.9940 H     1 <1>   0.0800 
 52 H       -6.8030    -0.7240     0.8640 H     1 <1>   0.0800 
 53 H       -6.3890    -1.5230    -0.6380 H     1 <1>   0.0800 
 54 H       -2.1260    -4.1230     1.7440 H     1 <1>   0.0800 
 55 H       -2.4210    -4.9080     0.2200 H     1 <1>   0.0800 
 56 H       -3.4930    -3.6620     0.7650 H     1 <1>   0.0800 
 57 H        0.2590    -3.6360     0.9460 H     1 <1>   0.0800 
 58 H        0.5010    -2.8430    -0.5920 H     1 <1>   0.0800 
 59 H       -0.1420    -4.4580    -0.5420 H     1 <1>   0.0800 
 60 H       -5.2920     3.7600     1.7100 H     1 <1>   0.1500 
 61 H       -8.2870     0.0710    -0.8560 H     1 <1>   0.0800 
 62 H       -6.9670     0.4340    -1.9270 H     1 <1>   0.0800 
 63 H       -8.9830     2.4060    -1.2020 H     1 <1>   0.1500 
 64 H       -7.2640     7.5210     1.7410 H     1 <1>   0.0800 
 65 H       -8.6850     6.5030     1.5480 H     1 <1>   0.0800 
 66 H       -7.6870     6.9160     0.1420 H     1 <1>   0.0800 
 67 H      -10.8830     5.4550    -1.1820 H     1 <1>   0.0800 
 68 H      -10.7990     3.7620    -0.7140 H     1 <1>   0.0800 
 69 H       -9.8820     4.3510    -2.1160 H     1 <1>   0.0800 
@<TRIPOS>BOND
  1   1   2  2   
  2   2   3  1   
  3   2   4  1   
  4   3   5  1   
  5   4   6  1   
  6   4   7  1   
  7   4  31  1   
  8   5   8  1   
  9   5   9  1   
 10   5  32  1   
 11   6  33  1   
 12   6  34  1   
 13   7  10  1   
 14   7  11  1   
 15   7  35  1   
 16   8  12  1   
 17   8  13  1   
 18   8  36  1   
 19   9  14  1   
 20   9  37  1   
 21   9  38  1   
 22  10  39  1   
 23  10  40  1   
 24  10  41  1   
 25  11  42  1   
 26  11  43  1   
 27  11  44  1   
 28  12  15  1   
 29  12  45  1   
 30  12  46  1   
 31  13  16  1   
 32  13  47  1   
 33  13  48  1   
 34  14  15  1   
 35  14  17  1   
 36  14  49  1   
 37  15  18  1   
 38  15  50  1   
 39  16  19  1   
 40  16  20  1   
 41  16  51  1   
 42  17  21  ar  
 43  17  22  ar  
 44  18  23  1   
 45  18  52  1   
 46  18  53  1   
 47  19  54  1   
 48  19  55  1   
 49  19  56  1   
 50  20  57  1   
 51  20  58  1   
 52  20  59  1   
 53  21  23  1   
 54  21  24  ar  
 55  22  25  ar  
 56  22  60  1   
 57  23  61  1   
 58  23  62  1   
 59  24  26  ar  
 60  24  63  1   
 61  25  26  ar  
 62  25  27  1   
 63  26  28  1   
 64  27  29  1   
 65  28  30  1   
 66  29  64  1   
 67  29  65  1   
 68  29  66  1   
 69  30  67  1   
 70  30  68  1   
 71  30  69  1   
@<TRIPOS>SUBSTRUCTURE
  1 ****   9 GROUP 4 **** **** 0

# MOE 2024.06 (io_trps.svl 2023.06)
