@<TRIPOS>MOLECULE
NONAME
43 45 1 0 0 
SMALL
USER_CHARGES


@<TRIPOS>ATOM
  1 O        0.7320    -0.0170     1.5880 O.3   1 <1>  -0.6800 
  2 C        1.2140    -0.3760     0.3350 C.3   1 <1>   0.2000 
  3 C        2.0860    -1.6210     0.5030 C.3   1 <1>  -0.0800 
  4 C        2.2130     0.6930    -0.1050 C.3   1 <1>   0.3430 
  5 C        3.4690    -1.0660     0.8950 C.3   1 <1>   0.3430 
  6 C        2.1360    -2.4480    -0.8000 C.3   1 <1>  -0.0170 
  7 N        3.4150     0.4180     0.7310 N.4   1 <1>  -0.9590 
  8 C        2.9890    -3.7010    -0.6610 C.ar  1 <1>   0.1670 
  9 C        4.6940     1.0050     0.2540 C.3   1 <1>   0.3430 
 10 N        4.3010    -3.5220    -0.6860 N.ar  1 <1>  -0.6200 
 11 C        2.3840    -4.9500    -0.5230 C.ar  1 <1>   0.1600 
 12 C        4.6150     2.5280     0.2830 C.3   1 <1>  -0.1600 
 13 C        4.9600    -4.6680    -0.5770 C.ar  1 <1>   0.1600 
 14 N        3.0420    -6.0890    -0.4000 N.ar  1 <1>  -0.6200 
 15 C        5.9800     3.1630    -0.0340 C.3   1 <1>   0.0960 
 16 C        4.3500    -5.9090    -0.4370 C.ar  1 <1>   0.1600 
 17 N        5.8950     4.6320     0.0580 N.pl3 1 <1>   0.3140 
 18 N        5.5500     5.2420     1.2050 N.2   1 <1>  -0.7070 
 19 C        6.1200     5.5250    -0.9250 C.2   1 <1>  -0.3020 
 20 C        5.5680     6.5100     0.9260 C.2   1 <1>   0.1390 
 21 C        5.9180     6.7510    -0.3960 C.2   1 <1>  -0.1500 
 22 H       -0.0300    -0.5750     1.8560 H     1 <1>   0.4000 
 23 H        0.3850    -0.4880    -0.3440 H     1 <1>   0.0800 
 24 H        1.7080    -2.2550     1.2870 H     1 <1>   0.0800 
 25 H        1.8230     1.6840     0.0590 H     1 <1>   0.0800 
 26 H        2.4510     0.5620    -1.1470 H     1 <1>   0.0800 
 27 H        4.2360    -1.4750     0.2600 H     1 <1>   0.0800 
 28 H        3.6990    -1.3190     1.9180 H     1 <1>   0.0800 
 29 H        2.5330    -1.8570    -1.6080 H     1 <1>   0.0800 
 30 H        1.1370    -2.7370    -1.0770 H     1 <1>   0.0800 
 31 H        3.1800     0.8000     1.6620 H     1 <1>   0.4500 
 32 H        5.4950     0.6810     0.8990 H     1 <1>   0.0800 
 33 H        4.9070     0.6630    -0.7470 H     1 <1>   0.0800 
 34 H        1.3100    -5.0170    -0.5130 H     1 <1>   0.1500 
 35 H        4.3120     2.8450     1.2670 H     1 <1>   0.0800 
 36 H        3.8980     2.8790    -0.4380 H     1 <1>   0.0800 
 37 H        6.0350    -4.6270    -0.5990 H     1 <1>   0.1500 
 38 H        6.3040     2.9000    -1.0250 H     1 <1>   0.0800 
 39 H        6.7200     2.8360     0.6730 H     1 <1>   0.0800 
 40 H        4.9700    -6.7840    -0.3530 H     1 <1>   0.1500 
 41 H        6.4060     5.2520    -1.9240 H     1 <1>   0.1500 
 42 H        5.3370     7.2790     1.6450 H     1 <1>   0.1500 
 43 H        6.0020     7.7150    -0.8650 H     1 <1>   0.1500 
@<TRIPOS>BOND
  1   1   2  1   
  2   1  22  1   
  3   2   3  1   
  4   2   4  1   
  5   2  23  1   
  6   3   5  1   
  7   3   6  1   
  8   3  24  1   
  9   4   7  1   
 10   4  25  1   
 11   4  26  1   
 12   5   7  1   
 13   5  27  1   
 14   5  28  1   
 15   6   8  1   
 16   6  29  1   
 17   6  30  1   
 18   7   9  1   
 19   7  31  1   
 20   8  10  ar  
 21   8  11  ar  
 22   9  12  1   
 23   9  32  1   
 24   9  33  1   
 25  10  13  ar  
 26  11  14  ar  
 27  11  34  1   
 28  12  15  1   
 29  12  35  1   
 30  12  36  1   
 31  13  16  ar  
 32  13  37  1   
 33  14  16  ar  
 34  15  17  1   
 35  15  38  1   
 36  15  39  1   
 37  16  40  1   
 38  17  18  1   
 39  17  19  1   
 40  18  20  2   
 41  19  21  2   
 42  19  41  1   
 43  20  21  1   
 44  20  42  1   
 45  21  43  1   
@<TRIPOS>SUBSTRUCTURE
  1 ****   7 GROUP 4 **** **** 0

# MOE 2024.06 (io_trps.svl 2023.06)
