@<TRIPOS>MOLECULE
NONAME
54 57 1 0 0 
SMALL
USER_CHARGES


@<TRIPOS>ATOM
  1 O       -2.3410    -0.2460    -0.9440 O.2   1 <1>  -0.5700 
  2 C       -1.5060    -1.0560    -0.5700 C.2   1 <1>   0.5440 
  3 N       -0.2870    -0.5780    -0.1140 N.am  1 <1>  -0.6600 
  4 C       -1.8040    -2.4850    -0.6160 C.ar  1 <1>   0.3960 
  5 C        0.1290     0.8430    -0.2870 C.3   1 <1>   0.0600 
  6 C        0.6780    -1.4130     0.6570 C.3   1 <1>   0.0600 
  7 N       -2.7770    -2.9760     0.1660 N.ar  1 <1>  -0.6200 
  8 C       -1.0520    -3.2950    -1.4640 C.ar  1 <1>  -0.1500 
  9 C       -2.9880    -4.2840     0.1190 C.ar  1 <1>   0.4100 
 10 C       -1.2690    -4.6530    -1.5140 C.ar  1 <1>  -0.1500 
 11 N       -3.9850    -4.8030     0.9310 N.pl3 1 <1>  -0.8380 
 12 C       -2.2550    -5.1440    -0.6960 C.ar  1 <1>  -0.1500 
 13 C       -5.0530    -5.6500     0.3150 C.3   1 <1>   0.2090 
 14 C       -4.6230    -3.9920     2.0010 C.3   1 <1>   0.2090 
 15 C       -6.3200    -4.8070     0.4350 C.3   1 <1>   0.2800 
 16 C       -6.1000    -3.8320     1.6010 C.3   1 <1>  -0.0800 
 17 O       -6.4520    -3.9620    -0.6540 O.3   1 <1>  -0.5600 
 18 C       -7.7300    -5.3830     0.4960 C.3   1 <1>  -0.1600 
 19 C       -6.6610    -2.5240     0.9950 C.3   1 <1>  -0.0800 
 20 C       -7.4190    -3.1140    -0.2050 C.3   1 <1>   0.2000 
 21 C       -8.5330    -4.1110     0.1760 C.3   1 <1>  -0.1600 
 22 C       -5.5570    -1.5710     0.4880 C.3   1 <1>   0.3430 
 23 N       -6.0170    -0.1440     0.3960 N.4   1 <1>  -0.9590 
 24 C       -7.0340     0.0860    -0.6720 C.3   1 <1>   0.2630 
 25 C       -4.8270     0.7170     0.1220 C.3   1 <1>   0.2630 
 26 H        1.1400     0.8850    -0.6520 H     1 <1>   0.0800 
 27 H        0.0720     1.3550     0.6580 H     1 <1>   0.0800 
 28 H       -0.5080     1.3450    -0.9940 H     1 <1>   0.0800 
 29 H        1.0240    -0.8680     1.5190 H     1 <1>   0.0800 
 30 H        1.5230    -1.6570     0.0360 H     1 <1>   0.0800 
 31 H        0.2180    -2.3230     0.9990 H     1 <1>   0.0800 
 32 H       -0.2920    -2.8480    -2.0810 H     1 <1>   0.1500 
 33 H       -0.6940    -5.2970    -2.1580 H     1 <1>   0.1500 
 34 H       -2.4680    -6.1950    -0.6700 H     1 <1>   0.1500 
 35 H       -4.8510    -5.8850    -0.7150 H     1 <1>   0.0800 
 36 H       -5.1520    -6.5570     0.8840 H     1 <1>   0.0800 
 37 H       -4.5670    -4.5630     2.9120 H     1 <1>   0.0800 
 38 H       -4.1190    -3.0620     2.1860 H     1 <1>   0.0800 
 39 H       -6.6930    -4.1200     2.4510 H     1 <1>   0.0800 
 40 H       -7.8560    -6.1280    -0.2710 H     1 <1>   0.0800 
 41 H       -7.9670    -5.8060     1.4570 H     1 <1>   0.0800 
 42 H       -7.3140    -2.0290     1.6920 H     1 <1>   0.0800 
 43 H       -7.7000    -2.4260    -0.9800 H     1 <1>   0.0800 
 44 H       -9.1060    -3.7610     1.0170 H     1 <1>   0.0800 
 45 H       -9.1910    -4.2770    -0.6590 H     1 <1>   0.0800 
 46 H       -5.1880    -1.9150    -0.4660 H     1 <1>   0.0800 
 47 H       -4.7250    -1.6040     1.1690 H     1 <1>   0.0800 
 48 H       -6.4020     0.1290     1.3100 H     1 <1>   0.4500 
 49 H       -6.6610    -0.2640    -1.6210 H     1 <1>   0.0800 
 50 H       -7.2570     1.1370    -0.7550 H     1 <1>   0.0800 
 51 H       -7.9460    -0.4390    -0.4410 H     1 <1>   0.0800 
 52 H       -4.4560     0.5290    -0.8720 H     1 <1>   0.0800 
 53 H       -4.0340     0.5040     0.8210 H     1 <1>   0.0800 
 54 H       -5.0860     1.7600     0.1980 H     1 <1>   0.0800 
@<TRIPOS>BOND
  1   1   2  2   
  2   2   3  am  
  3   2   4  1   
  4   3   5  1   
  5   3   6  1   
  6   4   7  ar  
  7   4   8  ar  
  8   5  26  1   
  9   5  27  1   
 10   5  28  1   
 11   6  29  1   
 12   6  30  1   
 13   6  31  1   
 14   7   9  ar  
 15   8  10  ar  
 16   8  32  1   
 17   9  11  1   
 18   9  12  ar  
 19  10  12  ar  
 20  10  33  1   
 21  11  13  1   
 22  11  14  1   
 23  12  34  1   
 24  13  15  1   
 25  13  35  1   
 26  13  36  1   
 27  14  16  1   
 28  14  37  1   
 29  14  38  1   
 30  15  16  1   
 31  15  17  1   
 32  15  18  1   
 33  16  19  1   
 34  16  39  1   
 35  17  20  1   
 36  18  21  1   
 37  18  40  1   
 38  18  41  1   
 39  19  20  1   
 40  19  22  1   
 41  19  42  1   
 42  20  21  1   
 43  20  43  1   
 44  21  44  1   
 45  21  45  1   
 46  22  23  1   
 47  22  46  1   
 48  22  47  1   
 49  23  24  1   
 50  23  25  1   
 51  23  48  1   
 52  24  49  1   
 53  24  50  1   
 54  24  51  1   
 55  25  52  1   
 56  25  53  1   
 57  25  54  1   
@<TRIPOS>SUBSTRUCTURE
  1 ****   7 GROUP 4 **** **** 0

# MOE 2024.06 (io_trps.svl 2023.06)
