@<TRIPOS>MOLECULE
NONAME
50 52 1 0 0 
SMALL
USER_CHARGES


@<TRIPOS>ATOM
  1 O       -0.8210     0.2030     2.2160 O.2   1 <1>  -0.5700 
  2 C       -1.2070     0.3980     1.0900 C.2   1 <1>   0.5690 
  3 N       -1.5630    -0.6220     0.2640 N.am  1 <1>  -0.7300 
  4 C       -1.3160     1.8340     0.5830 C.3   1 <1>  -0.0190 
  5 C       -1.5600    -2.0510     0.6330 C.3   1 <1>   0.1400 
  6 C       -2.7520     2.1820     0.1450 C.3   1 <1>  -0.1600 
  7 C       -0.2930     2.1310    -0.5410 C.3   1 <1>  -0.1600 
  8 C       -2.9960    -2.5680     0.5990 C.3   1 <1>  -0.1600 
  9 C       -2.9040     3.6740    -0.2210 C.3   1 <1>   0.2000 
 10 C       -0.6880     3.3190    -1.4400 C.3   1 <1>  -0.1600 
 11 C       -3.0610    -4.0350     1.0350 C.3   1 <1>   0.0960 
 12 O       -3.8590     3.7690    -1.2500 O.3   1 <1>  -0.5600 
 13 C       -1.5750     4.3200    -0.6960 C.3   1 <1>   0.2000 
 14 N       -4.4520    -4.5230     0.9670 N.pl3 1 <1>   0.0480 
 15 C       -5.1870     3.7460    -0.8280 C.3   1 <1>   0.0400 
 16 O       -1.8590     5.3610    -1.5550 O.3   1 <1>  -0.6800 
 17 C       -5.1020    -4.9850    -0.1540 C.ar  1 <1>  -0.1520 
 18 C       -5.3370    -4.5600     2.0080 C.2   1 <1>  -0.3020 
 19 C       -6.4070    -5.3120     0.2000 C.ar  1 <1>   0.0000 
 20 C       -4.6630    -5.1490    -1.4730 C.ar  1 <1>  -0.1500 
 21 C       -6.5300    -5.0340     1.5770 C.2   1 <1>  -0.1500 
 22 C       -7.2880    -5.8070    -0.7650 C.ar  1 <1>  -0.1500 
 23 C       -5.5390    -5.6370    -2.4140 C.ar  1 <1>  -0.1500 
 24 C       -6.8530    -5.9670    -2.0600 C.ar  1 <1>  -0.1500 
 25 H       -1.8950    -0.4030    -0.6760 H     1 <1>   0.3700 
 26 H       -1.0760     2.4710     1.4180 H     1 <1>   0.0800 
 27 H       -0.9450    -2.5970    -0.0630 H     1 <1>   0.0800 
 28 H       -1.1470    -2.1730     1.6210 H     1 <1>   0.0800 
 29 H       -3.4350     1.9430     0.9410 H     1 <1>   0.0800 
 30 H       -3.0060     1.5820    -0.7110 H     1 <1>   0.0800 
 31 H        0.6600     2.3340    -0.0800 H     1 <1>   0.0800 
 32 H       -0.1610     1.2660    -1.1670 H     1 <1>   0.0800 
 33 H       -3.3870    -2.4750    -0.3990 H     1 <1>   0.0800 
 34 H       -3.5970    -1.9780     1.2710 H     1 <1>   0.0800 
 35 H       -3.2520     4.2320     0.6320 H     1 <1>   0.0800 
 36 H       -1.2340     2.9490    -2.2910 H     1 <1>   0.0800 
 37 H        0.2000     3.8120    -1.7970 H     1 <1>   0.0800 
 38 H       -2.7100    -4.1390     2.0460 H     1 <1>   0.0800 
 39 H       -2.4520    -4.6480     0.3960 H     1 <1>   0.0800 
 40 H       -1.0330     4.7220     0.1430 H     1 <1>   0.0800 
 41 H       -5.8150     3.8320    -1.6970 H     1 <1>   0.0800 
 42 H       -5.3660     4.5800    -0.1710 H     1 <1>   0.0800 
 43 H       -5.3910     2.8160    -0.3270 H     1 <1>   0.0800 
 44 H       -2.6990     5.1150    -2.0040 H     1 <1>   0.4000 
 45 H       -5.0650    -4.2430     2.9990 H     1 <1>   0.1500 
 46 H       -3.6540    -4.8950    -1.7410 H     1 <1>   0.1500 
 47 H       -7.4310    -5.1860     2.1440 H     1 <1>   0.1500 
 48 H       -8.2930    -6.0550    -0.4780 H     1 <1>   0.1500 
 49 H       -5.2230    -5.7730    -3.4340 H     1 <1>   0.1500 
 50 H       -7.5190    -6.3470    -2.8150 H     1 <1>   0.1500 
@<TRIPOS>BOND
  1   1   2  2   
  2   2   3  am  
  3   2   4  1   
  4   3   5  1   
  5   3  25  1   
  6   4   6  1   
  7   4   7  1   
  8   4  26  1   
  9   5   8  1   
 10   5  27  1   
 11   5  28  1   
 12   6   9  1   
 13   6  29  1   
 14   6  30  1   
 15   7  10  1   
 16   7  31  1   
 17   7  32  1   
 18   8  11  1   
 19   8  33  1   
 20   8  34  1   
 21   9  12  1   
 22   9  13  1   
 23   9  35  1   
 24  10  13  1   
 25  10  36  1   
 26  10  37  1   
 27  11  14  1   
 28  11  38  1   
 29  11  39  1   
 30  12  15  1   
 31  13  16  1   
 32  13  40  1   
 33  14  17  1   
 34  14  18  1   
 35  15  41  1   
 36  15  42  1   
 37  15  43  1   
 38  16  44  1   
 39  17  19  ar  
 40  17  20  ar  
 41  18  21  2   
 42  18  45  1   
 43  19  21  1   
 44  19  22  ar  
 45  20  23  ar  
 46  20  46  1   
 47  21  47  1   
 48  22  24  ar  
 49  22  48  1   
 50  23  24  ar  
 51  23  49  1   
 52  24  50  1   
@<TRIPOS>SUBSTRUCTURE
  1 ****   8 GROUP 4 **** **** 0

# MOE 2024.06 (io_trps.svl 2023.06)
