@<TRIPOS>MOLECULE
NONAME
59 61 1 0 0 
SMALL
USER_CHARGES


@<TRIPOS>ATOM
  1 O       -2.4550    -0.6860     2.3680 O.2   1 <1>  -0.5700 
  2 C       -2.1790     0.0630     1.4500 C.2   1 <1>   0.5440 
  3 N       -2.4090    -0.3510     0.1560 N.am  1 <1>  -0.6600 
  4 C       -1.6520     1.3780     1.7470 C.ar  1 <1>   0.0860 
  5 C       -2.6900    -1.7870    -0.1750 C.3   1 <1>   0.3640 
  6 C       -2.4310     0.6050    -0.9900 C.3   1 <1>   0.1400 
  7 C       -0.3540     1.7560     1.3770 C.ar  1 <1>   0.0830 
  8 C       -2.4420     2.3100     2.4170 C.ar  1 <1>  -0.1500 
  9 C       -1.3650    -2.4930    -0.5250 C.ar  1 <1>  -0.1440 
 10 C       -3.7950    -1.8810    -1.2670 C.3   1 <1>   0.2000 
 11 C       -2.5550    -0.1010    -2.3480 C.3   1 <1>   0.1200 
 12 O        0.4130     0.8360     0.7450 O.3   1 <1>  -0.3630 
 13 C        0.1110     3.0380     1.6600 C.ar  1 <1>  -0.1500 
 14 C       -1.9780     3.5810     2.6960 C.ar  1 <1>  -0.1500 
 15 C       -0.4090    -2.6070     0.4750 C.ar  1 <1>  -0.1500 
 16 C       -1.0710    -3.0260    -1.7730 C.ar  1 <1>  -0.1500 
 17 O       -3.6180    -1.0180    -2.3770 O.3   1 <1>  -0.5600 
 18 C       -5.1840    -1.5810    -0.6860 C.3   1 <1>   0.1200 
 19 C        1.5980     1.1690     0.0600 C.3   1 <1>   0.1200 
 20 C       -0.7000     3.9470     2.3140 C.ar  1 <1>  -0.1500 
 21 C        0.8290    -3.2060     0.2580 C.ar  1 <1>   0.0830 
 22 C        0.1510    -3.6300    -2.0090 C.ar  1 <1>  -0.1500 
 23 O       -5.6190    -2.6410     0.1050 O.3   1 <1>  -0.6800 
 24 C        2.0780    -0.0760    -0.6860 C.3   1 <1>  -0.1600 
 25 O        1.7490    -3.2900     1.2660 O.3   1 <1>  -0.3630 
 26 C        1.1140    -3.7200    -1.0190 C.ar  1 <1>   0.0830 
 27 C        3.3020     0.2210    -1.5570 C.3   1 <1>  -0.2400 
 28 C        1.5720    -2.6110     2.4930 C.3   1 <1>   0.0400 
 29 O        2.2750    -4.3180    -1.4200 O.3   1 <1>  -0.3630 
 30 C        3.4830    -4.1880    -0.7070 C.3   1 <1>   0.0400 
 31 H       -3.0740    -2.2810     0.7000 H     1 <1>   0.0800 
 32 H       -3.2610     1.2790    -0.8680 H     1 <1>   0.0800 
 33 H       -1.5270     1.1870    -0.9930 H     1 <1>   0.0800 
 34 H       -3.4340     2.0210     2.7210 H     1 <1>   0.1500 
 35 H       -3.8180    -2.8810    -1.6590 H     1 <1>   0.0800 
 36 H       -1.6430    -0.6180    -2.5800 H     1 <1>   0.0800 
 37 H       -2.7310     0.6240    -3.1230 H     1 <1>   0.0800 
 38 H        1.1030     3.3430     1.3850 H     1 <1>   0.1500 
 39 H       -2.6080     4.2850     3.2130 H     1 <1>   0.1500 
 40 H       -0.6570    -2.2110     1.4400 H     1 <1>   0.1500 
 41 H       -1.7750    -2.9780    -2.5840 H     1 <1>   0.1500 
 42 H       -5.9010    -1.4410    -1.4750 H     1 <1>   0.0800 
 43 H       -5.1510    -0.7000    -0.0680 H     1 <1>   0.0800 
 44 H        1.3770     1.9640    -0.6310 H     1 <1>   0.0800 
 45 H        2.3320     1.4890     0.7780 H     1 <1>   0.0800 
 46 H       -0.3370     4.9370     2.5320 H     1 <1>   0.1500 
 47 H        0.3700    -4.0360    -2.9800 H     1 <1>   0.1500 
 48 H       -5.8540    -3.4140    -0.4450 H     1 <1>   0.4000 
 49 H        2.3350    -0.8360     0.0300 H     1 <1>   0.0800 
 50 H        1.2810    -0.4500    -1.3070 H     1 <1>   0.0800 
 51 H        4.1190     0.5730    -0.9530 H     1 <1>   0.0800 
 52 H        3.0670     0.9660    -2.2970 H     1 <1>   0.0800 
 53 H        3.6130    -0.6760    -2.0640 H     1 <1>   0.0800 
 54 H        2.4640    -2.7410     3.0780 H     1 <1>   0.0800 
 55 H        0.7310    -3.0380     3.0100 H     1 <1>   0.0800 
 56 H        1.4110    -1.5650     2.2960 H     1 <1>   0.0800 
 57 H        4.2780    -4.5660    -1.3240 H     1 <1>   0.0800 
 58 H        3.4160    -4.7660     0.1970 H     1 <1>   0.0800 
 59 H        3.6490    -3.1480    -0.4870 H     1 <1>   0.0800 
@<TRIPOS>BOND
  1   1   2  2   
  2   2   3  am  
  3   2   4  1   
  4   3   5  1   
  5   3   6  1   
  6   4   7  ar  
  7   4   8  ar  
  8   5   9  1   
  9   5  10  1   
 10   5  31  1   
 11   6  11  1   
 12   6  32  1   
 13   6  33  1   
 14   7  12  1   
 15   7  13  ar  
 16   8  14  ar  
 17   8  34  1   
 18   9  15  ar  
 19   9  16  ar  
 20  10  17  1   
 21  10  18  1   
 22  10  35  1   
 23  11  17  1   
 24  11  36  1   
 25  11  37  1   
 26  12  19  1   
 27  13  20  ar  
 28  13  38  1   
 29  14  20  ar  
 30  14  39  1   
 31  15  21  ar  
 32  15  40  1   
 33  16  22  ar  
 34  16  41  1   
 35  18  23  1   
 36  18  42  1   
 37  18  43  1   
 38  19  24  1   
 39  19  44  1   
 40  19  45  1   
 41  20  46  1   
 42  21  25  1   
 43  21  26  ar  
 44  22  26  ar  
 45  22  47  1   
 46  23  48  1   
 47  24  27  1   
 48  24  49  1   
 49  24  50  1   
 50  25  28  1   
 51  26  29  1   
 52  27  51  1   
 53  27  52  1   
 54  27  53  1   
 55  28  54  1   
 56  28  55  1   
 57  28  56  1   
 58  29  30  1   
 59  30  57  1   
 60  30  58  1   
 61  30  59  1   
@<TRIPOS>SUBSTRUCTURE
  1 ****   3 GROUP 4 **** **** 0

# MOE 2024.06 (io_trps.svl 2023.06)
