@<TRIPOS>MOLECULE
NONAME
42 43 1 0 0 
SMALL
USER_CHARGES


@<TRIPOS>ATOM
  1 F       -0.3160    -1.1060     1.7440 F     1 <1>  -0.1900 
  2 C       -0.3730    -2.3740     1.4360 C.ar  1 <1>   0.1900 
  3 C       -1.1640    -3.2110     2.1990 C.ar  1 <1>  -0.1500 
  4 C        0.3610    -2.8310     0.3590 C.ar  1 <1>  -0.1500 
  5 C       -1.2190    -4.5550     1.8670 C.ar  1 <1>  -0.1500 
  6 C        0.2980    -4.1770     0.0370 C.ar  1 <1>  -0.1500 
  7 C       -0.4900    -5.0410     0.7880 C.ar  1 <1>  -0.1430 
  8 C       -0.5600    -6.5170     0.4300 C.3   1 <1>  -0.0160 
  9 C       -1.8080    -6.8020    -0.4190 C.3   1 <1>  -0.0990 
 10 C       -1.9690    -8.2710    -0.7930 C.2   1 <1>   0.5690 
 11 O       -0.9900    -8.9800    -0.7440 O.2   1 <1>  -0.5700 
 12 N       -3.1870    -8.7660    -1.1800 N.am  1 <1>  -0.6600 
 13 C       -3.3430   -10.2160    -1.5220 C.3   1 <1>   0.3210 
 14 C       -4.4290    -7.9320    -1.3320 C.3   1 <1>   0.1400 
 15 C       -4.2700   -10.9140    -0.5340 C.2   1 <1>   0.0460 
 16 C       -5.3390    -7.9330    -0.0870 C.3   1 <1>   0.1200 
 17 N       -5.5410   -11.2170    -0.8750 N.2   1 <1>  -0.5650 
 18 C       -4.0080   -11.2980     0.7380 C.2   1 <1>  -0.3320 
 19 O       -4.5940    -8.0720     1.0740 O.3   1 <1>  -0.6800 
 20 C       -6.0210   -11.7750     0.1870 C.2   1 <1>   0.0360 
 21 N       -5.1400   -11.8540     1.2050 N.pl3 1 <1>   0.0330 
 22 C       -2.7420   -11.1780     1.5710 C.3   1 <1>  -0.0600 
 23 H       -1.7210    -2.8190     3.0300 H     1 <1>   0.1500 
 24 H        0.9650    -2.1490    -0.2110 H     1 <1>   0.1500 
 25 H       -1.8320    -5.2220     2.4490 H     1 <1>   0.1500 
 26 H        0.8630    -4.5490    -0.8000 H     1 <1>   0.1500 
 27 H       -0.5950    -7.1060     1.3300 H     1 <1>   0.0800 
 28 H        0.3240    -6.8040    -0.1130 H     1 <1>   0.0800 
 29 H       -1.7580    -6.2270    -1.3240 H     1 <1>   0.0800 
 30 H       -2.6660    -6.4800     0.1390 H     1 <1>   0.0800 
 31 H       -2.3920   -10.7170    -1.5120 H     1 <1>   0.0800 
 32 H       -3.7460   -10.3090    -2.5150 H     1 <1>   0.0800 
 33 H       -4.9980    -8.2890    -2.1740 H     1 <1>   0.0800 
 34 H       -4.1590    -6.9160    -1.5580 H     1 <1>   0.0800 
 35 H       -6.0340    -8.7530    -0.1330 H     1 <1>   0.0800 
 36 H       -5.9000    -7.0170    -0.0250 H     1 <1>   0.0800 
 37 H       -4.0730    -8.9010     0.9850 H     1 <1>   0.4000 
 38 H       -7.0270   -12.1490     0.2720 H     1 <1>   0.1500 
 39 H       -5.3050   -12.2520     2.1340 H     1 <1>   0.2700 
 40 H       -1.9470   -10.7430     0.9920 H     1 <1>   0.0800 
 41 H       -2.4230   -12.1490     1.9040 H     1 <1>   0.0800 
 42 H       -2.9170   -10.5540     2.4290 H     1 <1>   0.0800 
@<TRIPOS>BOND
  1   1   2  1   
  2   2   3  ar  
  3   2   4  ar  
  4   3   5  ar  
  5   3  23  1   
  6   4   6  ar  
  7   4  24  1   
  8   5   7  ar  
  9   5  25  1   
 10   6   7  ar  
 11   6  26  1   
 12   7   8  1   
 13   8   9  1   
 14   8  27  1   
 15   8  28  1   
 16   9  10  1   
 17   9  29  1   
 18   9  30  1   
 19  10  11  2   
 20  10  12  am  
 21  12  13  1   
 22  12  14  1   
 23  13  15  1   
 24  13  31  1   
 25  13  32  1   
 26  14  16  1   
 27  14  33  1   
 28  14  34  1   
 29  15  17  1   
 30  15  18  2   
 31  16  19  1   
 32  16  35  1   
 33  16  36  1   
 34  17  20  2   
 35  18  21  1   
 36  18  22  1   
 37  19  37  1   
 38  20  21  1   
 39  20  38  1   
 40  21  39  1   
 41  22  40  1   
 42  22  41  1   
 43  22  42  1   
@<TRIPOS>SUBSTRUCTURE
  1 ****   9 GROUP 4 **** **** 0

# MOE 2024.06 (io_trps.svl 2023.06)
