@<TRIPOS>MOLECULE
NONAME
45 46 1 0 0 
SMALL
USER_CHARGES


@<TRIPOS>ATOM
  1 S        0.6050    -0.0760    -1.3480 S.o2  1 <1>   1.3330 
  2 O        1.8950    -0.7040    -1.5360 O.2   1 <1>  -0.6500 
  3 O       -0.2360     0.1840    -2.4930 O.2   1 <1>  -0.6500 
  4 N       -0.2960    -1.0480    -0.2840 N.am  1 <1>  -0.8490 
  5 C        0.8150     1.4510    -0.4210 C.3   1 <1>  -0.0550 
  6 C       -1.7410    -0.7960    -0.3440 C.3   1 <1>   0.1160 
  7 C       -0.0380    -2.4780    -0.4840 C.3   1 <1>   0.1160 
  8 C        1.9310     1.4870     0.6470 C.3   1 <1>  -0.0800 
  9 C        3.3410     1.4300     0.0530 C.3   1 <1>   0.2200 
 10 C        1.9320     0.3730     1.7000 C.3   1 <1>   0.1200 
 11 N        4.0380     2.7020     0.3430 N.am  1 <1>  -0.7300 
 12 C        3.9910     0.2700     0.8060 C.3   1 <1>   0.1200 
 13 O        3.2740     0.1660     1.9930 O.3   1 <1>  -0.5600 
 14 C        3.8830     3.8410    -0.3900 C.2   1 <1>   0.5440 
 15 O        3.1600     3.8160    -1.3650 O.2   1 <1>  -0.5700 
 16 C        4.5390     5.0580     0.0150 C.ar  1 <1>   0.0860 
 17 C        5.9120     5.2350    -0.0920 C.ar  1 <1>   0.1670 
 18 C        3.8300     6.1220     0.5550 C.ar  1 <1>   0.1670 
 19 N        6.5160     6.3270     0.3200 N.ar  1 <1>  -0.6200 
 20 C        6.8170     4.1720    -0.6960 C.3   1 <1>  -0.0970 
 21 N        4.4160     7.2250     0.9670 N.ar  1 <1>  -0.6200 
 22 C        2.3190     6.0720     0.7080 C.3   1 <1>  -0.0970 
 23 C        5.7290     7.2620     0.8260 C.ar  1 <1>   0.4700 
 24 H        1.0230     2.2370    -1.1220 H     1 <1>   0.0800 
 25 H       -0.1160     1.6980     0.0490 H     1 <1>   0.0800 
 26 H       -2.2480    -1.3670     0.4160 H     1 <1>   0.0800 
 27 H       -2.1320    -1.0730    -1.3090 H     1 <1>   0.0800 
 28 H       -1.9460     0.2470    -0.1770 H     1 <1>   0.0800 
 29 H       -0.6180    -3.0640     0.2080 H     1 <1>   0.0800 
 30 H        1.0040    -2.6930    -0.3140 H     1 <1>   0.0800 
 31 H       -0.2900    -2.7660    -1.4920 H     1 <1>   0.0800 
 32 H        1.8130     2.4120     1.1840 H     1 <1>   0.0800 
 33 H        3.3540     1.2470    -1.0080 H     1 <1>   0.0800 
 34 H        1.5430    -0.5570     1.3300 H     1 <1>   0.0800 
 35 H        1.4130     0.6530     2.6010 H     1 <1>   0.0800 
 36 H        4.4970     2.7350     1.2570 H     1 <1>   0.3700 
 37 H        5.0320     0.4340     1.0200 H     1 <1>   0.0800 
 38 H        3.8660    -0.6510     0.2620 H     1 <1>   0.0800 
 39 H        6.3130     3.6280    -1.4740 H     1 <1>   0.0800 
 40 H        7.1320     3.4870     0.0690 H     1 <1>   0.0800 
 41 H        7.6890     4.6330    -1.1250 H     1 <1>   0.0800 
 42 H        2.0270     5.1910     1.2480 H     1 <1>   0.0800 
 43 H        1.8570     6.0600    -0.2630 H     1 <1>   0.0800 
 44 H        1.9650     6.9340     1.2450 H     1 <1>   0.0800 
 45 H        6.2170     8.1620     1.1620 H     1 <1>   0.1500 
@<TRIPOS>BOND
  1   1   2  2   
  2   1   3  2   
  3   1   4  am  
  4   1   5  1   
  5   4   6  1   
  6   4   7  1   
  7   5   8  1   
  8   5  24  1   
  9   5  25  1   
 10   6  26  1   
 11   6  27  1   
 12   6  28  1   
 13   7  29  1   
 14   7  30  1   
 15   7  31  1   
 16   8   9  1   
 17   8  10  1   
 18   8  32  1   
 19   9  11  1   
 20   9  12  1   
 21   9  33  1   
 22  10  13  1   
 23  10  34  1   
 24  10  35  1   
 25  11  14  am  
 26  11  36  1   
 27  12  13  1   
 28  12  37  1   
 29  12  38  1   
 30  14  15  2   
 31  14  16  1   
 32  16  17  ar  
 33  16  18  ar  
 34  17  19  ar  
 35  17  20  1   
 36  18  21  ar  
 37  18  22  1   
 38  19  23  ar  
 39  20  39  1   
 40  20  40  1   
 41  20  41  1   
 42  21  23  ar  
 43  22  42  1   
 44  22  43  1   
 45  22  44  1   
 46  23  45  1   
@<TRIPOS>SUBSTRUCTURE
  1 ****   9 GROUP 4 **** **** 0

# MOE 2024.06 (io_trps.svl 2023.06)
