@<TRIPOS>MOLECULE
NONAME
41 43 1 0 0 
SMALL
USER_CHARGES


@<TRIPOS>ATOM
  1 CL      -3.0440     0.0650     3.3940 Cl    1 <1>  -0.1230 
  2 C       -2.6750     0.3490     1.6990 C.2   1 <1>   0.1230 
  3 C       -2.6120    -0.6150     0.6850 C.2   1 <1>   0.2030 
  4 C       -2.4210     1.5480     1.1450 C.2   1 <1>  -0.3320 
  5 N       -2.3380    -0.0060    -0.4640 N.2   1 <1>  -0.7070 
  6 C       -2.8120    -2.0440     0.9020 C.2   1 <1>   0.7160 
  7 N       -2.2160     1.3000    -0.1640 N.pl3 1 <1>   0.3000 
  8 C       -2.3590     2.9310     1.7730 C.3   1 <1>  -0.0600 
  9 O       -2.4330    -2.5550     1.9430 O.2   1 <1>  -0.5700 
 10 N       -3.4210    -2.8620    -0.0330 N.am  1 <1>  -0.6600 
 11 C       -3.5130    -4.3500     0.1680 C.3   1 <1>   0.3640 
 12 C       -4.1060    -2.3120    -1.2460 C.3   1 <1>   0.1400 
 13 C       -2.4160    -5.1050    -0.6030 C.ar  1 <1>  -0.1430 
 14 C       -4.9290    -4.9050    -0.1940 C.3   1 <1>   0.2000 
 15 C       -4.9220    -3.3740    -1.9960 C.3   1 <1>   0.1200 
 16 C       -1.5960    -4.5190    -1.5630 C.ar  1 <1>  -0.1500 
 17 C       -2.2270    -6.4500    -0.3100 C.ar  1 <1>  -0.1500 
 18 O       -5.6760    -4.1010    -1.0800 O.3   1 <1>  -0.5600 
 19 C       -5.7900    -5.0930     1.0600 C.3   1 <1>   0.1200 
 20 C       -0.6360    -5.2630    -2.2260 C.ar  1 <1>  -0.1500 
 21 C       -1.2670    -7.1970    -0.9710 C.ar  1 <1>  -0.1500 
 22 O       -5.3430    -6.1940     1.7870 O.3   1 <1>  -0.6800 
 23 C       -0.4720    -6.6040    -1.9330 C.ar  1 <1>  -0.1500 
 24 H       -1.9910     2.0070    -0.8760 H     1 <1>   0.2700 
 25 H       -2.5560     2.8700     2.8300 H     1 <1>   0.0800 
 26 H       -3.0940     3.5770     1.3270 H     1 <1>   0.0800 
 27 H       -1.3830     3.3600     1.6350 H     1 <1>   0.0800 
 28 H       -3.3410    -4.5770     1.2060 H     1 <1>   0.0800 
 29 H       -4.7670    -1.5170    -0.9460 H     1 <1>   0.0800 
 30 H       -3.3760    -1.8960    -1.9180 H     1 <1>   0.0800 
 31 H       -4.8260    -5.8600    -0.6750 H     1 <1>   0.0800 
 32 H       -4.2830    -4.0480    -2.5400 H     1 <1>   0.0800 
 33 H       -5.5980    -2.9040    -2.6870 H     1 <1>   0.0800 
 34 H       -1.6830    -3.4760    -1.8040 H     1 <1>   0.1500 
 35 H       -2.8290    -6.9270     0.4450 H     1 <1>   0.1500 
 36 H       -6.8190    -5.2660     0.7930 H     1 <1>   0.0800 
 37 H       -5.7220    -4.2240     1.6920 H     1 <1>   0.0800 
 38 H       -0.0110    -4.7950    -2.9660 H     1 <1>   0.1500 
 39 H       -1.1370    -8.2380    -0.7320 H     1 <1>   0.1500 
 40 H       -5.6750    -7.0250     1.3940 H     1 <1>   0.4000 
 41 H        0.2750    -7.1820    -2.4480 H     1 <1>   0.1500 
@<TRIPOS>BOND
  1   1   2  1   
  2   2   3  1   
  3   2   4  2   
  4   3   5  2   
  5   3   6  1   
  6   4   7  1   
  7   4   8  1   
  8   5   7  1   
  9   6   9  2   
 10   6  10  am  
 11   7  24  1   
 12   8  25  1   
 13   8  26  1   
 14   8  27  1   
 15  10  11  1   
 16  10  12  1   
 17  11  13  1   
 18  11  14  1   
 19  11  28  1   
 20  12  15  1   
 21  12  29  1   
 22  12  30  1   
 23  13  16  ar  
 24  13  17  ar  
 25  14  18  1   
 26  14  19  1   
 27  14  31  1   
 28  15  18  1   
 29  15  32  1   
 30  15  33  1   
 31  16  20  ar  
 32  16  34  1   
 33  17  21  ar  
 34  17  35  1   
 35  19  22  1   
 36  19  36  1   
 37  19  37  1   
 38  20  23  ar  
 39  20  38  1   
 40  21  23  ar  
 41  21  39  1   
 42  22  40  1   
 43  23  41  1   
@<TRIPOS>SUBSTRUCTURE
  1 ****  10 GROUP 4 **** **** 0

# MOE 2024.06 (io_trps.svl 2023.06)
