@<TRIPOS>MOLECULE
NONAME
51 53 1 0 0 
SMALL
USER_CHARGES


@<TRIPOS>ATOM
  1 O       -1.4150    -0.6540     0.4910 O.2   1 <1>  -0.5700 
  2 C       -2.2050     0.2380     0.1860 C.2   1 <1>   0.6160 
  3 N       -1.9580     1.5330     0.6460 N.am  1 <1>  -0.4690 
  4 C       -3.3710    -0.0310    -0.6100 C.2   1 <1>   0.0290 
  5 C       -2.8550     2.5480     0.3700 C.2   1 <1>  -0.0290 
  6 C       -0.7000     1.7790     1.4190 C.3   1 <1>   0.1400 
  7 C       -4.2580     0.9990    -0.8470 C.2   1 <1>  -0.1380 
  8 C       -3.5430    -1.3690    -1.1260 C.2   1 <1>   0.6160 
  9 C       -3.9760     2.2880    -0.3550 C.2   1 <1>  -0.1500 
 10 C       -2.5970     3.9620     0.8740 C.3   1 <1>  -0.1020 
 11 C        0.4520     2.0740     0.4580 C.3   1 <1>  -0.2400 
 12 C       -5.5580     0.8350    -1.6290 C.3   1 <1>  -0.1020 
 13 O       -3.9520    -1.5590    -2.2580 O.2   1 <1>  -0.5700 
 14 N       -3.2880    -2.4720    -0.3640 N.am  1 <1>  -0.7300 
 15 C       -3.3010    -3.8730    -0.8450 C.3   1 <1>   0.2200 
 16 C       -4.4840    -4.6410    -0.2760 C.3   1 <1>  -0.0800 
 17 C       -2.1380    -4.6320    -0.2170 C.3   1 <1>   0.1200 
 18 C       -3.9730    -5.0740     1.1000 C.3   1 <1>   0.1200 
 19 C       -5.8230    -3.8810    -0.2460 C.3   1 <1>  -0.0170 
 20 O       -2.5770    -5.0250     1.0500 O.3   1 <1>  -0.5600 
 21 C       -6.9440    -4.7770     0.2570 C.ar  1 <1>  -0.1430 
 22 C       -7.3690    -4.7520     1.5700 C.ar  1 <1>  -0.1500 
 23 C       -7.5930    -5.6650    -0.5770 C.ar  1 <1>  -0.1500 
 24 C       -8.3900    -5.5960     1.9750 C.ar  1 <1>   0.1600 
 25 C       -8.6040    -6.4650    -0.0710 C.ar  1 <1>   0.1600 
 26 N       -9.0170    -6.4540     1.1860 N.ar  1 <1>  -0.6200 
 27 H       -0.8290     2.5980     2.1010 H     1 <1>   0.0800 
 28 H       -0.4610     0.9150     2.0160 H     1 <1>   0.0800 
 29 H       -4.6780     3.0750    -0.5710 H     1 <1>   0.1500 
 30 H       -1.6510     4.3220     0.5150 H     1 <1>   0.0800 
 31 H       -2.6020     3.9800     1.9490 H     1 <1>   0.0800 
 32 H       -3.3600     4.6360     0.5280 H     1 <1>   0.0800 
 33 H        0.2300     2.9320    -0.1500 H     1 <1>   0.0800 
 34 H        0.6270     1.2240    -0.1780 H     1 <1>   0.0800 
 35 H        1.3490     2.2690     1.0160 H     1 <1>   0.0800 
 36 H       -6.2890     1.5580    -1.3170 H     1 <1>   0.0800 
 37 H       -5.9810    -0.1420    -1.4780 H     1 <1>   0.0800 
 38 H       -5.3680     0.9670    -2.6800 H     1 <1>   0.0800 
 39 H       -2.7100    -2.3280     0.4750 H     1 <1>   0.3700 
 40 H       -3.2660    -3.9070    -1.9210 H     1 <1>   0.0800 
 41 H       -4.6130    -5.5320    -0.8660 H     1 <1>   0.0800 
 42 H       -1.2500    -4.0310    -0.1240 H     1 <1>   0.0800 
 43 H       -1.9210    -5.5230    -0.7780 H     1 <1>   0.0800 
 44 H       -4.2840    -6.0740     1.3500 H     1 <1>   0.0800 
 45 H       -4.2910    -4.3900     1.8680 H     1 <1>   0.0800 
 46 H       -6.0580    -3.5360    -1.2380 H     1 <1>   0.0800 
 47 H       -5.7490    -3.0150     0.3870 H     1 <1>   0.0800 
 48 H       -6.9180    -4.0860     2.2820 H     1 <1>   0.1500 
 49 H       -7.3220    -5.7410    -1.6140 H     1 <1>   0.1500 
 50 H       -8.7090    -5.5630     3.0030 H     1 <1>   0.1500 
 51 H       -9.0990    -7.1520    -0.7360 H     1 <1>   0.1500 
@<TRIPOS>BOND
  1   1   2  2   
  2   2   3  am  
  3   2   4  1   
  4   3   5  1   
  5   3   6  1   
  6   4   7  2   
  7   4   8  1   
  8   5   9  2   
  9   5  10  1   
 10   6  11  1   
 11   6  27  1   
 12   6  28  1   
 13   7   9  1   
 14   7  12  1   
 15   8  13  2   
 16   8  14  am  
 17   9  29  1   
 18  10  30  1   
 19  10  31  1   
 20  10  32  1   
 21  11  33  1   
 22  11  34  1   
 23  11  35  1   
 24  12  36  1   
 25  12  37  1   
 26  12  38  1   
 27  14  15  1   
 28  14  39  1   
 29  15  16  1   
 30  15  17  1   
 31  15  40  1   
 32  16  18  1   
 33  16  19  1   
 34  16  41  1   
 35  17  20  1   
 36  17  42  1   
 37  17  43  1   
 38  18  20  1   
 39  18  44  1   
 40  18  45  1   
 41  19  21  1   
 42  19  46  1   
 43  19  47  1   
 44  21  22  ar  
 45  21  23  ar  
 46  22  24  ar  
 47  22  48  1   
 48  23  25  ar  
 49  23  49  1   
 50  24  26  ar  
 51  24  50  1   
 52  25  26  ar  
 53  25  51  1   
@<TRIPOS>SUBSTRUCTURE
  1 ****  14 GROUP 4 **** **** 0

# MOE 2024.06 (io_trps.svl 2023.06)
