@<TRIPOS>MOLECULE
NONAME
55 58 1 0 0 
SMALL
USER_CHARGES


@<TRIPOS>ATOM
  1 F       -2.2960    -0.6480     1.1570 F     1 <1>  -0.1900 
  2 C       -1.7930    -1.7860     0.7520 C.ar  1 <1>   0.1900 
  3 C       -2.6030    -2.8950     0.7100 C.ar  1 <1>  -0.1500 
  4 C       -0.4450    -1.8080     0.3800 C.ar  1 <1>  -0.1500 
  5 C       -2.0340    -4.0880     0.2740 C.ar  1 <1>   0.2270 
  6 C        0.1140    -2.9920    -0.0500 C.ar  1 <1>  -0.1500 
  7 N       -2.6020    -5.3180     0.1390 N.2   1 <1>  -0.5650 
  8 C       -0.7000    -4.1290    -0.0970 C.ar  1 <1>  -0.1520 
  9 C       -1.6500    -6.0700    -0.2970 C.2   1 <1>   0.0060 
 10 N       -0.4720    -5.4150    -0.4630 N.pl3 1 <1>   0.0330 
 11 C       -1.7780    -7.5530    -0.6120 C.3   1 <1>   0.0200 
 12 C       -3.2000    -8.0890    -0.3700 C.3   1 <1>  -0.0990 
 13 C       -3.3570    -9.5650    -0.7020 C.2   1 <1>   0.5690 
 14 O       -2.3660   -10.2230    -0.9150 O.2   1 <1>  -0.5700 
 15 N       -4.6000   -10.1480    -0.7400 N.am  1 <1>  -0.6600 
 16 C       -4.7600   -11.5650    -1.1670 C.3   1 <1>   0.1400 
 17 C       -5.8470    -9.5350    -0.2000 C.3   1 <1>   0.1400 
 18 C       -5.2130   -12.4180     0.0370 C.3   1 <1>   0.4230 
 19 C       -6.3080   -10.3640     1.0070 C.3   1 <1>  -0.1600 
 20 N       -5.2350   -13.9170    -0.2400 N.4   1 <1>  -0.9590 
 21 C       -6.5210   -11.8730     0.6860 C.3   1 <1>   0.0000 
 22 C       -6.0450   -14.7100     0.7410 C.3   1 <1>   0.3430 
 23 C       -5.6000   -14.3110    -1.6410 C.3   1 <1>   0.2630 
 24 C       -6.7870   -12.6340     2.0190 C.3   1 <1>  -0.1600 
 25 C       -7.7190   -12.0530    -0.2910 C.3   1 <1>   0.1200 
 26 C       -6.0990   -14.0110     2.0980 C.3   1 <1>  -0.1600 
 27 O       -8.8560   -11.4080     0.1660 O.3   1 <1>  -0.6800 
 28 H       -3.6360    -2.8650     0.9980 H     1 <1>   0.1500 
 29 H        0.1300    -0.9020     0.4380 H     1 <1>   0.1500 
 30 H        1.1480    -3.0470    -0.3440 H     1 <1>   0.1500 
 31 H        0.4120    -5.8070    -0.7940 H     1 <1>   0.2700 
 32 H       -1.5120    -7.7160    -1.6420 H     1 <1>   0.0800 
 33 H       -1.0850    -8.0990     0.0040 H     1 <1>   0.0800 
 34 H       -3.8840    -7.5250    -0.9760 H     1 <1>   0.0800 
 35 H       -3.4550    -7.9390     0.6630 H     1 <1>   0.0800 
 36 H       -5.4790   -11.5990    -1.9650 H     1 <1>   0.0800 
 37 H       -3.8270   -11.9470    -1.5440 H     1 <1>   0.0800 
 38 H       -5.6840    -8.5170     0.1090 H     1 <1>   0.0800 
 39 H       -6.6060    -9.5240    -0.9650 H     1 <1>   0.0800 
 40 H       -4.4490   -12.2650     0.7820 H     1 <1>   0.0800 
 41 H       -5.5590   -10.2540     1.7720 H     1 <1>   0.0800 
 42 H       -7.2110    -9.9280     1.3990 H     1 <1>   0.0800 
 43 H       -4.2560   -14.2120    -0.1000 H     1 <1>   0.4500 
 44 H       -7.0530   -14.8230     0.3760 H     1 <1>   0.0800 
 45 H       -5.6220   -15.6960     0.8540 H     1 <1>   0.0800 
 46 H       -6.6030   -13.9930    -1.8750 H     1 <1>   0.0800 
 47 H       -5.5460   -15.3820    -1.7530 H     1 <1>   0.0800 
 48 H       -4.9210   -13.8650    -2.3500 H     1 <1>   0.0800 
 49 H       -6.4420   -12.0560     2.8600 H     1 <1>   0.0800 
 50 H       -7.8450   -12.7650     2.1650 H     1 <1>   0.0800 
 51 H       -7.9710   -13.0900    -0.4230 H     1 <1>   0.0800 
 52 H       -7.5040   -11.6320    -1.2570 H     1 <1>   0.0800 
 53 H       -6.6350   -14.6330     2.7960 H     1 <1>   0.0800 
 54 H       -5.0980   -13.9050     2.4800 H     1 <1>   0.0800 
 55 H       -9.1840   -11.7830     1.0080 H     1 <1>   0.4000 
@<TRIPOS>BOND
  1   1   2  1   
  2   2   3  ar  
  3   2   4  ar  
  4   3   5  ar  
  5   3  28  1   
  6   4   6  ar  
  7   4  29  1   
  8   5   7  1   
  9   5   8  ar  
 10   6   8  ar  
 11   6  30  1   
 12   7   9  2   
 13   8  10  1   
 14   9  10  1   
 15   9  11  1   
 16  10  31  1   
 17  11  12  1   
 18  11  32  1   
 19  11  33  1   
 20  12  13  1   
 21  12  34  1   
 22  12  35  1   
 23  13  14  2   
 24  13  15  am  
 25  15  16  1   
 26  15  17  1   
 27  16  18  1   
 28  16  36  1   
 29  16  37  1   
 30  17  19  1   
 31  17  38  1   
 32  17  39  1   
 33  18  20  1   
 34  18  21  1   
 35  18  40  1   
 36  19  21  1   
 37  19  41  1   
 38  19  42  1   
 39  20  22  1   
 40  20  23  1   
 41  20  43  1   
 42  21  24  1   
 43  21  25  1   
 44  22  26  1   
 45  22  44  1   
 46  22  45  1   
 47  23  46  1   
 48  23  47  1   
 49  23  48  1   
 50  24  26  1   
 51  24  49  1   
 52  24  50  1   
 53  25  27  1   
 54  25  51  1   
 55  25  52  1   
 56  26  53  1   
 57  26  54  1   
 58  27  55  1   
@<TRIPOS>SUBSTRUCTURE
  1 ****  12 GROUP 4 **** **** 0

# MOE 2024.06 (io_trps.svl 2023.06)
