@<TRIPOS>MOLECULE
NONAME
49 51 1 0 0 
SMALL
USER_CHARGES


@<TRIPOS>ATOM
  1 S        1.8240     0.9810    -0.0740 S.o2  1 <1>   1.2040 
  2 O        2.2140     1.6550    -1.2950 O.2   1 <1>  -0.6500 
  3 O        2.8010     1.0020     0.9950 O.2   1 <1>  -0.6500 
  4 C        1.3190    -0.7150    -0.4350 C.ar  1 <1>  -0.0090 
  5 C        0.3220     1.7210     0.5700 C.3   1 <1>  -0.0550 
  6 C        1.5090    -1.7340     0.4910 C.ar  1 <1>  -0.1500 
  7 C        0.7000    -1.0330    -1.6390 C.ar  1 <1>  -0.1500 
  8 C        0.5380     3.1430     1.1190 C.3   1 <1>  -0.0990 
  9 C        1.0990    -3.0290     0.2250 C.ar  1 <1>  -0.1500 
 10 C        0.2870    -2.3260    -1.9120 C.ar  1 <1>  -0.1500 
 11 C        0.9630     4.0810     0.0010 C.2   1 <1>   0.5690 
 12 C        0.4860    -3.3250    -0.9780 C.ar  1 <1>  -0.1500 
 13 O        0.1080     4.3130    -0.8170 O.2   1 <1>  -0.5700 
 14 N        2.2330     4.5950    -0.1410 N.am  1 <1>  -0.6600 
 15 C        3.3100     4.5770     0.9210 C.3   1 <1>   0.2200 
 16 C        2.5330     5.2660    -1.4500 C.3   1 <1>   0.1400 
 17 C        3.8720     5.9810     1.2050 C.3   1 <1>   0.1200 
 18 C        4.4560     3.5890     0.5900 C.3   1 <1>   0.3430 
 19 C        4.0140     5.5500    -1.7550 C.3   1 <1>  -0.0800 
 20 O        4.9350     6.2780     0.3510 O.3   1 <1>  -0.5600 
 21 N        4.5280     3.2080    -0.8610 N.4   1 <1>  -0.9590 
 22 C        4.5770     6.7070    -0.9180 C.3   1 <1>   0.1200 
 23 C        4.9420     4.3200    -1.7680 C.3   1 <1>   0.3430 
 24 C        5.3820     2.0020    -1.0430 C.3   1 <1>   0.2630 
 25 H       -0.4230     1.7560    -0.2040 H     1 <1>   0.0800 
 26 H       -0.0640     1.1080     1.3620 H     1 <1>   0.0800 
 27 H        1.9870    -1.5200     1.4320 H     1 <1>   0.1500 
 28 H        0.5400    -0.2660    -2.3790 H     1 <1>   0.1500 
 29 H       -0.3940     3.5060     1.5140 H     1 <1>   0.0800 
 30 H        1.2330     3.1080     1.9310 H     1 <1>   0.0800 
 31 H        1.2570    -3.8070     0.9530 H     1 <1>   0.1500 
 32 H       -0.1890    -2.5550    -2.8510 H     1 <1>   0.1500 
 33 H        0.1670    -4.3320    -1.1880 H     1 <1>   0.1500 
 34 H        2.8840     4.2680     1.8540 H     1 <1>   0.0800 
 35 H        2.1430     4.6450    -2.2410 H     1 <1>   0.0800 
 36 H        1.9820     6.1920    -1.4860 H     1 <1>   0.0800 
 37 H        4.2730     6.0040     2.2040 H     1 <1>   0.0800 
 38 H        3.1100     6.7400     1.1320 H     1 <1>   0.0800 
 39 H        4.3030     2.7010     1.1770 H     1 <1>   0.0800 
 40 H        5.3950     4.0160     0.9030 H     1 <1>   0.0800 
 41 H        4.0240     5.9260    -2.7630 H     1 <1>   0.0800 
 42 H        3.5550     2.9360    -1.1250 H     1 <1>   0.4500 
 43 H        3.8750     7.5200    -0.8340 H     1 <1>   0.0800 
 44 H        5.4730     7.0880    -1.3790 H     1 <1>   0.0800 
 45 H        5.9410     4.6360    -1.5160 H     1 <1>   0.0800 
 46 H        4.9660     3.9370    -2.7750 H     1 <1>   0.0800 
 47 H        6.4030     2.2200    -0.7770 H     1 <1>   0.0800 
 48 H        5.3490     1.6740    -2.0690 H     1 <1>   0.0800 
 49 H        5.0230     1.1990    -0.4180 H     1 <1>   0.0800 
@<TRIPOS>BOND
  1   1   2  2   
  2   1   3  2   
  3   1   4  1   
  4   1   5  1   
  5   4   6  ar  
  6   4   7  ar  
  7   5   8  1   
  8   5  25  1   
  9   5  26  1   
 10   6   9  ar  
 11   6  27  1   
 12   7  10  ar  
 13   7  28  1   
 14   8  11  1   
 15   8  29  1   
 16   8  30  1   
 17   9  12  ar  
 18   9  31  1   
 19  10  12  ar  
 20  10  32  1   
 21  11  13  2   
 22  11  14  am  
 23  12  33  1   
 24  14  15  1   
 25  14  16  1   
 26  15  17  1   
 27  15  18  1   
 28  15  34  1   
 29  16  19  1   
 30  16  35  1   
 31  16  36  1   
 32  17  20  1   
 33  17  37  1   
 34  17  38  1   
 35  18  21  1   
 36  18  39  1   
 37  18  40  1   
 38  19  22  1   
 39  19  23  1   
 40  19  41  1   
 41  20  22  1   
 42  21  23  1   
 43  21  24  1   
 44  21  42  1   
 45  22  43  1   
 46  22  44  1   
 47  23  45  1   
 48  23  46  1   
 49  24  47  1   
 50  24  48  1   
 51  24  49  1   
@<TRIPOS>SUBSTRUCTURE
  1 ****   2 GROUP 4 **** **** 0

# MOE 2024.06 (io_trps.svl 2023.06)
