@<TRIPOS>MOLECULE
NONAME
47 48 1 0 0 
SMALL
USER_CHARGES


@<TRIPOS>ATOM
  1 O        0.1940     1.0310     0.1330 O.2   1 <1>  -0.5700 
  2 C       -0.0180     2.1990    -0.0930 C.2   1 <1>   0.5690 
  3 N       -0.7510     2.9910     0.7490 N.am  1 <1>  -0.6600 
  4 C        0.5370     2.7970    -1.3830 C.3   1 <1>   0.1810 
  5 C       -1.0440     4.4250     0.4180 C.3   1 <1>   0.3640 
  6 C       -1.2890     2.4930     2.0480 C.3   1 <1>   0.0600 
  7 O        0.7410     4.1840    -1.2840 O.3   1 <1>  -0.5600 
  8 C       -2.5590     4.6960     0.4690 C.ar  1 <1>  -0.1430 
  9 C       -0.4140     4.9290    -0.9110 C.3   1 <1>   0.2610 
 10 C       -3.5270     3.9630    -0.2270 C.ar  1 <1>  -0.1430 
 11 C       -2.9740     5.7500     1.2750 C.ar  1 <1>  -0.1500 
 12 C       -0.0430     6.4130    -0.7770 C.2   1 <1>   0.5690 
 13 C       -4.8670     4.3000    -0.0910 C.ar  1 <1>  -0.1500 
 14 C       -3.2060     2.7840    -1.1390 C.3   1 <1>  -0.0960 
 15 C       -4.3100     6.0780     1.4010 C.ar  1 <1>  -0.1500 
 16 O       -0.8920     7.2320    -0.5180 O.2   1 <1>  -0.5700 
 17 N        1.2560     6.7870    -0.9350 N.am  1 <1>  -0.7300 
 18 C       -5.2610     5.3490     0.7170 C.ar  1 <1>  -0.1500 
 19 C        1.7610     8.1800    -0.8880 C.3   1 <1>   0.1400 
 20 C        1.8440     8.6650     0.5620 C.3   1 <1>   0.1400 
 21 N        2.4200    10.0310     0.6130 N.am  1 <1>  -0.7300 
 22 C        3.6440    10.4280     1.0250 C.2   1 <1>   0.5690 
 23 O        3.9320    11.5960     1.0110 O.2   1 <1>  -0.5700 
 24 C        4.6660     9.4250     1.4990 C.3   1 <1>  -0.1790 
 25 H       -0.1370     2.6040    -2.1970 H     1 <1>   0.0800 
 26 H        1.4850     2.3420    -1.6030 H     1 <1>   0.0800 
 27 H       -0.5860     5.0020     1.2020 H     1 <1>   0.0800 
 28 H       -0.9790     3.1430     2.8470 H     1 <1>   0.0800 
 29 H       -0.9280     1.5000     2.2540 H     1 <1>   0.0800 
 30 H       -2.3640     2.4660     2.0140 H     1 <1>   0.0800 
 31 H       -1.1280     4.8450    -1.7080 H     1 <1>   0.0800 
 32 H       -2.2540     6.3420     1.8130 H     1 <1>   0.1500 
 33 H       -5.6230     3.7440    -0.6160 H     1 <1>   0.1500 
 34 H       -4.0700     2.4890    -1.7050 H     1 <1>   0.0800 
 35 H       -2.8930     1.9390    -0.5530 H     1 <1>   0.0800 
 36 H       -2.4350     3.0380    -1.8380 H     1 <1>   0.0800 
 37 H       -4.6090     6.9000     2.0270 H     1 <1>   0.1500 
 38 H        1.9220     6.0460    -1.1840 H     1 <1>   0.3700 
 39 H       -6.3040     5.5980     0.8100 H     1 <1>   0.1500 
 40 H        2.7340     8.2190    -1.3450 H     1 <1>   0.0800 
 41 H        1.0890     8.8160    -1.4400 H     1 <1>   0.0800 
 42 H        2.4500     7.9860     1.1350 H     1 <1>   0.0800 
 43 H        0.8560     8.6870     0.9910 H     1 <1>   0.0800 
 44 H        1.7970    10.7900     0.3230 H     1 <1>   0.3700 
 45 H        4.8290     8.6820     0.7420 H     1 <1>   0.0800 
 46 H        4.3240     8.9580     2.4020 H     1 <1>   0.0800 
 47 H        5.5960     9.9260     1.6980 H     1 <1>   0.0800 
@<TRIPOS>BOND
  1   1   2  2   
  2   2   3  am  
  3   2   4  1   
  4   3   5  1   
  5   3   6  1   
  6   4   7  1   
  7   4  25  1   
  8   4  26  1   
  9   5   8  1   
 10   5   9  1   
 11   5  27  1   
 12   6  28  1   
 13   6  29  1   
 14   6  30  1   
 15   7   9  1   
 16   8  10  ar  
 17   8  11  ar  
 18   9  12  1   
 19   9  31  1   
 20  10  13  ar  
 21  10  14  1   
 22  11  15  ar  
 23  11  32  1   
 24  12  16  2   
 25  12  17  am  
 26  13  18  ar  
 27  13  33  1   
 28  14  34  1   
 29  14  35  1   
 30  14  36  1   
 31  15  18  ar  
 32  15  37  1   
 33  17  19  1   
 34  17  38  1   
 35  18  39  1   
 36  19  20  1   
 37  19  40  1   
 38  19  41  1   
 39  20  21  1   
 40  20  42  1   
 41  20  43  1   
 42  21  22  am  
 43  21  44  1   
 44  22  23  2   
 45  22  24  1   
 46  24  45  1   
 47  24  46  1   
 48  24  47  1   
@<TRIPOS>SUBSTRUCTURE
  1 ****  12 GROUP 4 **** **** 0

# MOE 2024.06 (io_trps.svl 2023.06)
