@<TRIPOS>MOLECULE
NONAME
55 57 1 0 0 
SMALL
USER_CHARGES


@<TRIPOS>ATOM
  1 O        0.0240     0.9250    -1.0940 O.2   1 <1>  -0.5700 
  2 C        0.2620     1.9010    -0.4050 C.2   1 <1>   0.5440 
  3 N       -0.7370     2.4340     0.3830 N.am  1 <1>  -0.6600 
  4 C        1.5840     2.4810    -0.4380 C.ar  1 <1>   0.0860 
  5 C       -2.1170     1.8640     0.4160 C.3   1 <1>   0.1400 
  6 C       -0.5380     3.6650     1.2050 C.3   1 <1>   0.1400 
  7 C        2.4960     2.4220     0.6270 C.ar  1 <1>   0.0830 
  8 C        1.9770     3.1750    -1.5810 C.ar  1 <1>  -0.1500 
  9 C       -3.1410     2.8910    -0.1420 C.3   1 <1>   0.0000 
 10 C       -1.8720     4.3470     1.5480 C.3   1 <1>  -0.1600 
 11 O        2.2640     1.7590     1.7870 O.3   1 <1>  -0.3630 
 12 C        3.7190     3.0660     0.5440 C.ar  1 <1>  -0.1500 
 13 C        3.1940     3.8210    -1.6740 C.ar  1 <1>   0.0830 
 14 C       -4.5850     2.4650     0.1870 C.3   1 <1>   0.2000 
 15 C       -2.8260     4.3340     0.3430 C.3   1 <1>  -0.1600 
 16 C       -3.1530     2.8150    -1.6790 C.3   1 <1>  -0.1600 
 17 C        1.7070     0.4590     1.7720 C.3   1 <1>   0.0400 
 18 C        4.0940     3.7660    -0.5970 C.ar  1 <1>   0.0830 
 19 O        3.4170     4.4720    -2.8510 O.3   1 <1>  -0.3630 
 20 O       -4.7090     2.0180     1.5050 O.3   1 <1>  -0.5600 
 21 C       -4.9270     1.3580    -0.8140 C.3   1 <1>  -0.1600 
 22 C       -4.0340     1.6120    -2.0360 C.3   1 <1>  -0.1600 
 23 O        5.3090     4.3720    -0.6940 O.3   1 <1>  -0.3630 
 24 C        4.0820     5.7160    -2.8620 C.3   1 <1>   0.0400 
 25 C       -6.0170     1.9140     1.9710 C.3   1 <1>   0.0400 
 26 C        6.3110     4.2170     0.2870 C.3   1 <1>   0.0400 
 27 H       -2.1650     0.9430    -0.1380 H     1 <1>   0.0800 
 28 H       -2.3460     1.6250     1.4390 H     1 <1>   0.0800 
 29 H       -0.0160     3.4080     2.1110 H     1 <1>   0.0800 
 30 H        0.0710     4.3590     0.6510 H     1 <1>   0.0800 
 31 H        1.3030     3.2160    -2.4180 H     1 <1>   0.1500 
 32 H       -2.3330     3.8370     2.3770 H     1 <1>   0.0800 
 33 H       -1.6830     5.3590     1.8580 H     1 <1>   0.0800 
 34 H        4.3660     2.9960     1.3960 H     1 <1>   0.1500 
 35 H       -5.2460     3.3020     0.0370 H     1 <1>   0.0800 
 36 H       -2.3510     4.8830    -0.4510 H     1 <1>   0.0800 
 37 H       -3.7310     4.8570     0.5970 H     1 <1>   0.0800 
 38 H       -3.6060     3.7040    -2.0830 H     1 <1>   0.0800 
 39 H       -2.1610     2.7190    -2.0880 H     1 <1>   0.0800 
 40 H        2.0560    -0.0660     2.6420 H     1 <1>   0.0800 
 41 H        2.0220    -0.0560     0.8810 H     1 <1>   0.0800 
 42 H        0.6350     0.5350     1.8050 H     1 <1>   0.0800 
 43 H       -4.6920     0.3950    -0.3930 H     1 <1>   0.0800 
 44 H       -5.9670     1.3940    -1.0830 H     1 <1>   0.0800 
 45 H       -3.4150     0.7490    -2.2200 H     1 <1>   0.0800 
 46 H       -4.6170     1.8130    -2.9180 H     1 <1>   0.0800 
 47 H        3.8100     6.2330    -3.7640 H     1 <1>   0.0800 
 48 H        5.1430     5.5430    -2.8510 H     1 <1>   0.0800 
 49 H        3.7800     6.2870    -2.0020 H     1 <1>   0.0800 
 50 H       -5.9800     1.5850     2.9940 H     1 <1>   0.0800 
 51 H       -6.5530     1.1930     1.3790 H     1 <1>   0.0800 
 52 H       -6.4910     2.8790     1.9180 H     1 <1>   0.0800 
 53 H        7.1900     4.7370    -0.0490 H     1 <1>   0.0800 
 54 H        6.5280     3.1700     0.4030 H     1 <1>   0.0800 
 55 H        5.9660     4.6460     1.2110 H     1 <1>   0.0800 
@<TRIPOS>BOND
  1   1   2  2   
  2   2   3  am  
  3   2   4  1   
  4   3   5  1   
  5   3   6  1   
  6   4   7  ar  
  7   4   8  ar  
  8   5   9  1   
  9   5  27  1   
 10   5  28  1   
 11   6  10  1   
 12   6  29  1   
 13   6  30  1   
 14   7  11  1   
 15   7  12  ar  
 16   8  13  ar  
 17   8  31  1   
 18   9  14  1   
 19   9  15  1   
 20   9  16  1   
 21  10  15  1   
 22  10  32  1   
 23  10  33  1   
 24  11  17  1   
 25  12  18  ar  
 26  12  34  1   
 27  13  18  ar  
 28  13  19  1   
 29  14  20  1   
 30  14  21  1   
 31  14  35  1   
 32  15  36  1   
 33  15  37  1   
 34  16  22  1   
 35  16  38  1   
 36  16  39  1   
 37  17  40  1   
 38  17  41  1   
 39  17  42  1   
 40  18  23  1   
 41  19  24  1   
 42  20  25  1   
 43  21  22  1   
 44  21  43  1   
 45  21  44  1   
 46  22  45  1   
 47  22  46  1   
 48  23  26  1   
 49  24  47  1   
 50  24  48  1   
 51  24  49  1   
 52  25  50  1   
 53  25  51  1   
 54  25  52  1   
 55  26  53  1   
 56  26  54  1   
 57  26  55  1   
@<TRIPOS>SUBSTRUCTURE
  1 ****   2 GROUP 4 **** **** 0

# MOE 2024.06 (io_trps.svl 2023.06)
