@<TRIPOS>MOLECULE
NONAME
56 57 1 0 0 
SMALL
USER_CHARGES


@<TRIPOS>ATOM
  1 O       -0.3890     1.3400    -1.2490 O.2   1 <1>  -0.5700 
  2 C       -0.6090     2.5240    -1.1420 C.2   1 <1>   0.5690 
  3 N       -1.2550     3.0860    -0.0700 N.am  1 <1>  -0.6600 
  4 C       -0.1350     3.4380    -2.2660 C.3   1 <1>   0.1810 
  5 C       -1.4460     4.5740     0.0020 C.3   1 <1>   0.3640 
  6 C       -1.7200     2.3400     1.1330 C.3   1 <1>   0.2200 
  7 O        0.3240     4.6630    -1.7630 O.3   1 <1>  -0.5600 
  8 C       -2.9310     4.9260    -0.0900 C.ar  1 <1>  -0.1440 
  9 C       -0.6520     5.4010    -1.0470 C.3   1 <1>   0.2610 
 10 C       -0.5200     1.7830     1.8970 C.3   1 <1>  -0.2400 
 11 C       -2.7210     1.2440     0.7630 C.3   1 <1>  -0.2400 
 12 C       -3.7890     4.2600    -0.9570 C.ar  1 <1>  -0.1500 
 13 C       -3.4370     5.9490     0.6990 C.ar  1 <1>  -0.1500 
 14 C       -0.0390     6.6180    -0.3400 C.2   1 <1>   0.5690 
 15 C       -5.1270     4.6050    -1.0270 C.ar  1 <1>  -0.1500 
 16 C       -4.7750     6.2960     0.6300 C.ar  1 <1>  -0.1500 
 17 O       -0.6060     7.6750    -0.4960 O.2   1 <1>  -0.5700 
 18 N        1.0730     6.5320     0.4750 N.am  1 <1>  -0.6600 
 19 C       -5.6220     5.6230    -0.2320 C.ar  1 <1>  -0.1500 
 20 C        1.6120     7.7590     1.1410 C.3   1 <1>   0.1400 
 21 C        1.8210     5.2740     0.7730 C.3   1 <1>   0.1400 
 22 C        2.2960     8.6810     0.1290 C.3   1 <1>   0.1200 
 23 C        3.1070     5.2070    -0.0540 C.3   1 <1>  -0.1600 
 24 O        2.9940     9.6630     0.8290 O.3   1 <1>  -0.5600 
 25 C        3.8020     3.8520     0.1190 C.3   1 <1>  -0.2400 
 26 C        3.6040    10.6060     0.0090 C.3   1 <1>   0.0400 
 27 H       -0.9360     3.6230    -2.9580 H     1 <1>   0.0800 
 28 H        0.6820     2.9720    -2.7880 H     1 <1>   0.0800 
 29 H       -1.1070     4.8800     0.9760 H     1 <1>   0.0800 
 30 H       -2.2330     3.0260     1.7860 H     1 <1>   0.0800 
 31 H       -1.3430     5.7750    -1.7810 H     1 <1>   0.0800 
 32 H       -0.0030     1.0450     1.3100 H     1 <1>   0.0800 
 33 H       -0.8520     1.3150     2.8060 H     1 <1>   0.0800 
 34 H        0.1610     2.5750     2.1510 H     1 <1>   0.0800 
 35 H       -2.2560     0.4690     0.1820 H     1 <1>   0.0800 
 36 H       -3.5410     1.6600     0.2090 H     1 <1>   0.0800 
 37 H       -3.1130     0.7970     1.6580 H     1 <1>   0.0800 
 38 H       -3.4230     3.4640    -1.5830 H     1 <1>   0.1500 
 39 H       -2.7930     6.4940     1.3690 H     1 <1>   0.1500 
 40 H       -5.7840     4.0810    -1.6990 H     1 <1>   0.1500 
 41 H       -5.1560     7.0920     1.2450 H     1 <1>   0.1500 
 42 H       -6.6620     5.8920    -0.2850 H     1 <1>   0.1500 
 43 H        0.8040     8.2940     1.6100 H     1 <1>   0.0800 
 44 H        2.3230     7.4820     1.9000 H     1 <1>   0.0800 
 45 H        2.0600     5.2380     1.8220 H     1 <1>   0.0800 
 46 H        1.2170     4.4130     0.5540 H     1 <1>   0.0800 
 47 H        1.5590     9.1550    -0.4970 H     1 <1>   0.0800 
 48 H        2.9960     8.1290    -0.4720 H     1 <1>   0.0800 
 49 H        2.8690     5.3460    -1.0950 H     1 <1>   0.0800 
 50 H        3.7790     5.9880     0.2540 H     1 <1>   0.0800 
 51 H        3.1560     3.0550    -0.2070 H     1 <1>   0.0800 
 52 H        4.0640     3.6890     1.1500 H     1 <1>   0.0800 
 53 H        4.7020     3.8230    -0.4700 H     1 <1>   0.0800 
 54 H        4.1180    11.3130     0.6360 H     1 <1>   0.0800 
 55 H        2.8510    11.1130    -0.5690 H     1 <1>   0.0800 
 56 H        4.3100    10.1130    -0.6370 H     1 <1>   0.0800 
@<TRIPOS>BOND
  1   1   2  2   
  2   2   3  am  
  3   2   4  1   
  4   3   5  1   
  5   3   6  1   
  6   4   7  1   
  7   4  27  1   
  8   4  28  1   
  9   5   8  1   
 10   5   9  1   
 11   5  29  1   
 12   6  10  1   
 13   6  11  1   
 14   6  30  1   
 15   7   9  1   
 16   8  12  ar  
 17   8  13  ar  
 18   9  14  1   
 19   9  31  1   
 20  10  32  1   
 21  10  33  1   
 22  10  34  1   
 23  11  35  1   
 24  11  36  1   
 25  11  37  1   
 26  12  15  ar  
 27  12  38  1   
 28  13  16  ar  
 29  13  39  1   
 30  14  17  2   
 31  14  18  am  
 32  15  19  ar  
 33  15  40  1   
 34  16  19  ar  
 35  16  41  1   
 36  18  20  1   
 37  18  21  1   
 38  19  42  1   
 39  20  22  1   
 40  20  43  1   
 41  20  44  1   
 42  21  23  1   
 43  21  45  1   
 44  21  46  1   
 45  22  24  1   
 46  22  47  1   
 47  22  48  1   
 48  23  25  1   
 49  23  49  1   
 50  23  50  1   
 51  24  26  1   
 52  25  51  1   
 53  25  52  1   
 54  25  53  1   
 55  26  54  1   
 56  26  55  1   
 57  26  56  1   
@<TRIPOS>SUBSTRUCTURE
  1 ****   9 GROUP 4 **** **** 0

# MOE 2024.06 (io_trps.svl 2023.06)
