@<TRIPOS>MOLECULE
NONAME
58 61 1 0 0 
SMALL
USER_CHARGES


@<TRIPOS>ATOM
  1 O       -0.9470    -0.4580    -1.0800 O.2   1 <1>  -0.5700 
  2 C       -1.8770    -0.7940    -0.3700 C.2   1 <1>   0.5440 
  3 N       -2.0790    -2.1390    -0.1270 N.am  1 <1>  -0.6600 
  4 C       -2.7220     0.2170     0.2280 C.ar  1 <1>   0.0860 
  5 C       -1.6350    -3.1640    -1.1300 C.3   1 <1>   0.1400 
  6 C       -2.9430    -2.6170     0.9920 C.3   1 <1>   0.1400 
  7 C       -4.0470     0.4030    -0.1790 C.ar  1 <1>   0.0830 
  8 C       -2.2260     1.0200     1.2540 C.ar  1 <1>  -0.1500 
  9 C       -1.1200    -4.4410    -0.4570 C.3   1 <1>   0.2000 
 10 C       -2.3180    -3.8350     1.6700 C.3   1 <1>  -0.1600 
 11 O       -4.4970    -0.3460    -1.2180 O.3   1 <1>  -0.3630 
 12 C       -4.8600     1.3570     0.4460 C.ar  1 <1>   0.0830 
 13 C       -3.0210     1.9600     1.8770 C.ar  1 <1>  -0.1500 
 14 O       -0.9750    -5.4380    -1.4190 O.3   1 <1>  -0.6800 
 15 C       -2.0990    -4.9240     0.6250 C.3   1 <1>   0.2200 
 16 C       -5.5960    -1.2060    -1.0320 C.3   1 <1>   0.1200 
 17 O       -6.1440     1.5150     0.0080 O.3   1 <1>  -0.3630 
 18 C       -4.3370     2.1270     1.4800 C.ar  1 <1>  -0.1500 
 19 N       -1.6200    -6.1760     1.2570 N.am  1 <1>  -0.7300 
 20 C       -5.5300    -2.2650    -2.1380 C.3   1 <1>  -0.1600 
 21 C       -6.9610     2.5710     0.4630 C.3   1 <1>   0.0400 
 22 C       -2.3460    -7.2730     1.5650 C.2   1 <1>   0.5690 
 23 C       -6.5070    -3.4300    -1.9200 C.3   1 <1>   0.0960 
 24 O       -1.8050    -8.3470     1.5690 O.2   1 <1>  -0.5700 
 25 C       -3.8140    -7.1990     1.9470 C.3   1 <1>  -0.0990 
 26 N       -6.0680    -4.3360    -0.8350 N.pl3 1 <1>   0.3140 
 27 C       -4.7900    -7.3230     0.7620 C.3   1 <1>   0.0210 
 28 N       -6.3070    -4.0980     0.4580 N.2   1 <1>  -0.4180 
 29 C       -5.4660    -5.5210    -0.9600 C.2   1 <1>  -0.3020 
 30 C       -5.3620    -5.9930     0.2920 C.2   1 <1>   0.0460 
 31 N       -5.8800    -5.0990     1.1430 N.2   1 <1>  -0.2270 
 32 H       -2.4730    -3.4120    -1.7550 H     1 <1>   0.0800 
 33 H       -0.8560    -2.7620    -1.7550 H     1 <1>   0.0800 
 34 H       -3.0840    -1.8390     1.7230 H     1 <1>   0.0800 
 35 H       -3.9060    -2.8870     0.6000 H     1 <1>   0.0800 
 36 H       -1.2010     0.8940     1.5570 H     1 <1>   0.1500 
 37 H       -0.1530    -4.2460    -0.0270 H     1 <1>   0.0800 
 38 H       -2.9910    -4.1840     2.4310 H     1 <1>   0.0800 
 39 H       -1.3870    -3.5550     2.1310 H     1 <1>   0.0800 
 40 H       -2.6180     2.5660     2.6710 H     1 <1>   0.1500 
 41 H       -0.8730    -6.3070    -0.9800 H     1 <1>   0.4000 
 42 H       -3.0350    -5.1140     0.1410 H     1 <1>   0.0800 
 43 H       -5.5260    -1.6390    -0.0510 H     1 <1>   0.0800 
 44 H       -6.5030    -0.6330    -1.1070 H     1 <1>   0.0800 
 45 H       -4.9290     2.8640     1.9880 H     1 <1>   0.1500 
 46 H       -0.6090    -6.3220     1.2280 H     1 <1>   0.3700 
 47 H       -5.7720    -1.7830    -3.0690 H     1 <1>   0.0800 
 48 H       -4.5310    -2.6510    -2.2150 H     1 <1>   0.0800 
 49 H       -7.8900     2.5290    -0.0760 H     1 <1>   0.0800 
 50 H       -6.4670     3.5060     0.2640 H     1 <1>   0.0800 
 51 H       -7.1440     2.4450     1.5150 H     1 <1>   0.0800 
 52 H       -6.5840    -4.0070    -2.8230 H     1 <1>   0.0800 
 53 H       -7.4850    -3.0550    -1.6770 H     1 <1>   0.0800 
 54 H       -3.9980    -8.0220     2.6130 H     1 <1>   0.0800 
 55 H       -3.9970    -6.3060     2.5130 H     1 <1>   0.0800 
 56 H       -5.6230    -7.9270     1.0770 H     1 <1>   0.0800 
 57 H       -4.3170    -7.8330    -0.0580 H     1 <1>   0.0800 
 58 H       -5.1690    -5.9490    -1.8990 H     1 <1>   0.1500 
@<TRIPOS>BOND
  1   1   2  2   
  2   2   3  am  
  3   2   4  1   
  4   3   5  1   
  5   3   6  1   
  6   4   7  ar  
  7   4   8  ar  
  8   5   9  1   
  9   5  32  1   
 10   5  33  1   
 11   6  10  1   
 12   6  34  1   
 13   6  35  1   
 14   7  11  1   
 15   7  12  ar  
 16   8  13  ar  
 17   8  36  1   
 18   9  14  1   
 19   9  15  1   
 20   9  37  1   
 21  10  15  1   
 22  10  38  1   
 23  10  39  1   
 24  11  16  1   
 25  12  17  1   
 26  12  18  ar  
 27  13  18  ar  
 28  13  40  1   
 29  14  41  1   
 30  15  19  1   
 31  15  42  1   
 32  16  20  1   
 33  16  43  1   
 34  16  44  1   
 35  17  21  1   
 36  18  45  1   
 37  19  22  am  
 38  19  46  1   
 39  20  23  1   
 40  20  47  1   
 41  20  48  1   
 42  21  49  1   
 43  21  50  1   
 44  21  51  1   
 45  22  24  2   
 46  22  25  1   
 47  23  26  1   
 48  23  52  1   
 49  23  53  1   
 50  25  27  1   
 51  25  54  1   
 52  25  55  1   
 53  26  28  1   
 54  26  29  1   
 55  27  30  1   
 56  27  56  1   
 57  27  57  1   
 58  28  31  2   
 59  29  30  2   
 60  29  58  1   
 61  30  31  1   
@<TRIPOS>SUBSTRUCTURE
  1 ****   6 GROUP 4 **** **** 0

# MOE 2024.06 (io_trps.svl 2023.06)
