@<TRIPOS>MOLECULE
NONAME
48 50 1 0 0 
SMALL
USER_CHARGES


@<TRIPOS>ATOM
  1 S        1.5230     1.1200    -0.9840 S.3   1 <1>  -0.4600 
  2 C        0.7670     1.5240     0.6390 C.3   1 <1>   0.1310 
  3 C        1.0770    -0.6190    -1.2500 C.3   1 <1>   0.1650 
  4 C        1.2120     2.8860     1.1570 C.2   1 <1>   0.5690 
  5 C       -0.4450    -0.7270    -1.3630 C.3   1 <1>  -0.1950 
  6 O        0.9670     3.1760     2.3030 O.2   1 <1>  -0.5700 
  7 N        1.8690     3.7330     0.3240 N.am  1 <1>  -0.7300 
  8 C       -1.3090    -1.0020    -0.1710 C.3   1 <1>  -0.2000 
  9 C       -1.1170    -2.0560    -1.2220 C.3   1 <1>  -0.2000 
 10 C        2.4130     5.0600     0.6800 C.3   1 <1>   0.1400 
 11 C        3.9390     5.0470     0.5450 C.3   1 <1>  -0.0800 
 12 C        4.5600     6.4060     0.8620 C.3   1 <1>   0.2090 
 13 C        4.4380     4.7230    -0.8630 C.3   1 <1>  -0.1600 
 14 N        5.7550     6.5210    -0.0090 N.pl3 1 <1>  -0.8380 
 15 C        5.8180     5.3620    -0.9290 C.3   1 <1>   0.2090 
 16 C        6.0070     7.7800    -0.5580 C.ar  1 <1>   0.1000 
 17 C        7.0880     8.5470    -0.1180 C.ar  1 <1>  -0.1430 
 18 C        5.1810     8.2960    -1.5530 C.ar  1 <1>  -0.1500 
 19 C        7.3210     9.7950    -0.6720 C.ar  1 <1>  -0.1500 
 20 C        8.0130     8.0170     0.9670 C.3   1 <1>  -0.0970 
 21 C        5.4180     9.5410    -2.1030 C.ar  1 <1>  -0.1500 
 22 C        6.4910    10.2940    -1.6610 C.ar  1 <1>  -0.1500 
 23 H        1.0580     0.7560     1.3300 H     1 <1>   0.0800 
 24 H       -0.2990     1.5160     0.5080 H     1 <1>   0.0800 
 25 H        1.4640    -1.1900    -0.4230 H     1 <1>   0.0800 
 26 H        1.5550    -0.9280    -2.1630 H     1 <1>   0.0800 
 27 H       -0.8380    -0.0750    -2.1260 H     1 <1>   0.1000 
 28 H        2.0780     3.3910    -0.6190 H     1 <1>   0.3700 
 29 H       -2.2650    -0.5100    -0.1020 H     1 <1>   0.1000 
 30 H       -0.8570    -1.1600     0.7930 H     1 <1>   0.1000 
 31 H       -0.5300    -2.9240    -0.9750 H     1 <1>   0.1000 
 32 H       -1.9420    -2.2910    -1.8740 H     1 <1>   0.1000 
 33 H        2.1400     5.3060     1.6930 H     1 <1>   0.0800 
 34 H        1.9870     5.8020     0.0260 H     1 <1>   0.0800 
 35 H        4.3470     4.3350     1.2420 H     1 <1>   0.0800 
 36 H        4.8490     6.4680     1.8970 H     1 <1>   0.0800 
 37 H        3.8730     7.2060     0.6400 H     1 <1>   0.0800 
 38 H        3.8090     5.1850    -1.6030 H     1 <1>   0.0800 
 39 H        4.4850     3.6650    -1.0480 H     1 <1>   0.0800 
 40 H        6.0700     5.6650    -1.9320 H     1 <1>   0.0800 
 41 H        6.5660     4.6780    -0.5680 H     1 <1>   0.0800 
 42 H        4.3490     7.7110    -1.8930 H     1 <1>   0.1500 
 43 H        8.1530    10.3890    -0.3360 H     1 <1>   0.1500 
 44 H        8.4440     7.0850     0.6480 H     1 <1>   0.0800 
 45 H        7.4510     7.8440     1.8660 H     1 <1>   0.0800 
 46 H        8.8050     8.7100     1.1790 H     1 <1>   0.0800 
 47 H        4.7710     9.9250    -2.8710 H     1 <1>   0.1500 
 48 H        6.6810    11.2640    -2.0850 H     1 <1>   0.1500 
@<TRIPOS>BOND
  1   1   2  1   
  2   1   3  1   
  3   2   4  1   
  4   2  23  1   
  5   2  24  1   
  6   3   5  1   
  7   3  25  1   
  8   3  26  1   
  9   4   6  2   
 10   4   7  am  
 11   5   8  1   
 12   5   9  1   
 13   5  27  1   
 14   7  10  1   
 15   7  28  1   
 16   8   9  1   
 17   8  29  1   
 18   8  30  1   
 19   9  31  1   
 20   9  32  1   
 21  10  11  1   
 22  10  33  1   
 23  10  34  1   
 24  11  12  1   
 25  11  13  1   
 26  11  35  1   
 27  12  14  1   
 28  12  36  1   
 29  12  37  1   
 30  13  15  1   
 31  13  38  1   
 32  13  39  1   
 33  14  15  1   
 34  14  16  1   
 35  15  40  1   
 36  15  41  1   
 37  16  17  ar  
 38  16  18  ar  
 39  17  19  ar  
 40  17  20  1   
 41  18  21  ar  
 42  18  42  1   
 43  19  22  ar  
 44  19  43  1   
 45  20  44  1   
 46  20  45  1   
 47  20  46  1   
 48  21  22  ar  
 49  21  47  1   
 50  22  48  1   
@<TRIPOS>SUBSTRUCTURE
  1 ****  11 GROUP 4 **** **** 0

# MOE 2024.06 (io_trps.svl 2023.06)
