@<TRIPOS>MOLECULE
NONAME
56 58 1 0 0 
SMALL
USER_CHARGES


@<TRIPOS>ATOM
  1 O        0.0270     1.2210     1.7000 O.2   1 <1>  -0.5700 
  2 C        0.0450     2.3690     1.3370 C.2   1 <1>   0.5690 
  3 N       -1.0670     3.1320     1.4030 N.am  1 <1>  -0.7300 
  4 C        1.3290     2.9700     0.7580 C.3   1 <1>   0.1810 
  5 C       -1.1200     4.5510     0.9810 C.3   1 <1>   0.3640 
  6 O        1.3230     4.3850     0.7170 O.3   1 <1>  -0.5600 
  7 C       -2.3800     4.7740     0.1490 C.ar  1 <1>  -0.1440 
  8 C        0.1400     4.9540     0.1690 C.3   1 <1>   0.2610 
  9 C       -3.1580     5.9010     0.3720 C.ar  1 <1>  -0.1500 
 10 C       -2.7620     3.8780    -0.8420 C.ar  1 <1>  -0.1500 
 11 C        0.2870     6.4810     0.0720 C.2   1 <1>   0.5690 
 12 C       -4.2960     6.1310    -0.3810 C.ar  1 <1>  -0.1500 
 13 C       -3.9000     4.1060    -1.5950 C.ar  1 <1>  -0.1500 
 14 O       -0.2310     7.1850     0.9120 O.2   1 <1>  -0.5700 
 15 N        1.0560     7.0650    -0.9100 N.am  1 <1>  -0.6600 
 16 C       -4.6680     5.2330    -1.3660 C.ar  1 <1>  -0.1500 
 17 C        1.1060     8.5530    -1.0160 C.3   1 <1>   0.1400 
 18 C        2.0980     6.3530    -1.6930 C.3   1 <1>   0.1400 
 19 C        2.0560     9.1540     0.0360 C.3   1 <1>   0.3430 
 20 C        3.4140     6.2660    -0.9010 C.3   1 <1>  -0.1600 
 21 N        3.4630     8.6180    -0.0430 N.4   1 <1>  -0.9590 
 22 C        3.5250     7.1710     0.3330 C.3   1 <1>   0.3430 
 23 C        4.3600     9.4400     0.8180 C.3   1 <1>   0.3430 
 24 C        5.8420     9.2350     0.4540 C.3   1 <1>  -0.0800 
 25 C        6.7120    10.1510     1.3250 C.3   1 <1>  -0.2400 
 26 C        6.1330     9.5210    -1.0300 C.3   1 <1>  -0.2400 
 27 H       -1.9250     2.7260     1.7810 H     1 <1>   0.3700 
 28 H        1.4710     2.6020    -0.2420 H     1 <1>   0.0800 
 29 H        2.1640     2.6620     1.3610 H     1 <1>   0.0800 
 30 H       -1.1740     5.1500     1.8740 H     1 <1>   0.0800 
 31 H        0.0290     4.5690    -0.8280 H     1 <1>   0.0800 
 32 H       -2.8830     6.6130     1.1330 H     1 <1>   0.1500 
 33 H       -2.1810     2.9920    -1.0340 H     1 <1>   0.1500 
 34 H       -4.8920     7.0080    -0.2010 H     1 <1>   0.1500 
 35 H       -4.1910     3.4050    -2.3590 H     1 <1>   0.1500 
 36 H       -5.5540     5.4110    -1.9510 H     1 <1>   0.1500 
 37 H        1.4090     8.8490    -2.0050 H     1 <1>   0.0800 
 38 H        0.1170     8.9490    -0.8540 H     1 <1>   0.0800 
 39 H        1.7630     5.3630    -1.9520 H     1 <1>   0.0800 
 40 H        2.2650     6.8780    -2.6180 H     1 <1>   0.0800 
 41 H        1.6460     8.9540     1.0130 H     1 <1>   0.0800 
 42 H        2.0710    10.2230    -0.0980 H     1 <1>   0.0800 
 43 H        4.2450     6.4390    -1.5610 H     1 <1>   0.0800 
 44 H        3.5150     5.2520    -0.5570 H     1 <1>   0.0800 
 45 H        3.7990     8.7130    -1.0080 H     1 <1>   0.4500 
 46 H        4.4620     6.9590     0.8220 H     1 <1>   0.0800 
 47 H        2.7350     6.9360     1.0300 H     1 <1>   0.0800 
 48 H        4.1250    10.4840     0.6860 H     1 <1>   0.0800 
 49 H        4.2020     9.1940     1.8560 H     1 <1>   0.0800 
 50 H        6.1290     8.2210     0.6750 H     1 <1>   0.0800 
 51 H        6.4910    11.1880     1.1370 H     1 <1>   0.0800 
 52 H        7.7550     9.9860     1.1150 H     1 <1>   0.0800 
 53 H        6.5500     9.9490     2.3700 H     1 <1>   0.0800 
 54 H        5.8200    10.5150    -1.2990 H     1 <1>   0.0800 
 55 H        5.6440     8.8130    -1.6740 H     1 <1>   0.0800 
 56 H        7.1910     9.4440    -1.2180 H     1 <1>   0.0800 
@<TRIPOS>BOND
  1   1   2  2   
  2   2   3  am  
  3   2   4  1   
  4   3   5  1   
  5   3  27  1   
  6   4   6  1   
  7   4  28  1   
  8   4  29  1   
  9   5   7  1   
 10   5   8  1   
 11   5  30  1   
 12   6   8  1   
 13   7   9  ar  
 14   7  10  ar  
 15   8  11  1   
 16   8  31  1   
 17   9  12  ar  
 18   9  32  1   
 19  10  13  ar  
 20  10  33  1   
 21  11  14  2   
 22  11  15  am  
 23  12  16  ar  
 24  12  34  1   
 25  13  16  ar  
 26  13  35  1   
 27  15  17  1   
 28  15  18  1   
 29  16  36  1   
 30  17  19  1   
 31  17  37  1   
 32  17  38  1   
 33  18  20  1   
 34  18  39  1   
 35  18  40  1   
 36  19  21  1   
 37  19  41  1   
 38  19  42  1   
 39  20  22  1   
 40  20  43  1   
 41  20  44  1   
 42  21  22  1   
 43  21  23  1   
 44  21  45  1   
 45  22  46  1   
 46  22  47  1   
 47  23  24  1   
 48  23  48  1   
 49  23  49  1   
 50  24  25  1   
 51  24  26  1   
 52  24  50  1   
 53  25  51  1   
 54  25  52  1   
 55  25  53  1   
 56  26  54  1   
 57  26  55  1   
 58  26  56  1   
@<TRIPOS>SUBSTRUCTURE
  1 ****  11 GROUP 4 **** **** 0

# MOE 2024.06 (io_trps.svl 2023.06)
