@<TRIPOS>MOLECULE
NONAME
58 61 1 0 0 
SMALL
USER_CHARGES


@<TRIPOS>ATOM
  1 O       -0.5600     0.3560    -0.2540 O.2   1 <1>  -0.5700 
  2 C       -1.5980     0.9450    -0.5010 C.2   1 <1>   0.7150 
  3 N       -2.7390     0.2060    -0.7370 N.am  1 <1>  -0.6600 
  4 C       -1.5960     2.3950    -0.5330 C.2   1 <1>   0.0550 
  5 C       -4.1240     0.7160    -0.5750 C.3   1 <1>   0.1400 
  6 C       -2.7520    -1.2800    -0.7480 C.3   1 <1>   0.1400 
  7 O       -0.6940     3.0650     0.1770 O.3   1 <1>  -0.2800 
  8 C       -2.3590     3.3080    -1.1990 C.2   1 <1>  -0.1500 
  9 C       -4.9860    -0.5080    -0.2500 C.3   1 <1>   0.2000 
 10 C       -4.0190    -1.6620     0.0170 C.3   1 <1>  -0.0800 
 11 C       -0.8390     4.3530    -0.0220 C.2   1 <1>  -0.0400 
 12 C       -1.8700     4.5730    -0.8670 C.2   1 <1>  -0.1500 
 13 O       -5.7650    -0.2840     0.8730 O.3   1 <1>  -0.6800 
 14 C       -4.6060    -3.0270    -0.3790 C.3   1 <1>  -0.0170 
 15 C        0.1180     5.3090     0.6690 C.3   1 <1>   0.5230 
 16 C       -3.6240    -4.1580    -0.1270 C.ar  1 <1>   0.1660 
 17 N        1.5120     5.0300     0.2170 N.4   1 <1>  -0.9590 
 18 N       -2.7570    -4.4080    -1.0960 N.ar  1 <1>  -0.6200 
 19 C       -3.6720    -4.8550     1.0710 C.ar  1 <1>  -0.1500 
 20 C        2.0900     3.8330     0.9040 C.3   1 <1>   0.3430 
 21 C        2.3870     6.2270     0.3510 C.3   1 <1>   0.3430 
 22 C       -1.9020    -5.3900    -0.8600 C.ar  1 <1>   0.1600 
 23 C       -2.7760    -5.8770     1.3020 C.ar  1 <1>  -0.1500 
 24 C        3.4570     3.5050     0.3030 C.3   1 <1>  -0.1600 
 25 C        3.7570     5.9370    -0.2640 C.3   1 <1>  -0.1600 
 26 C       -1.8680    -6.1430     0.3010 C.ar  1 <1>  -0.1500 
 27 C        4.4130     4.7040     0.3720 C.3   1 <1>  -0.0800 
 28 C        5.7380     4.3770    -0.3250 C.3   1 <1>  -0.2400 
 29 H       -4.1650     1.4410     0.2190 H     1 <1>   0.0800 
 30 H       -4.4570     1.1580    -1.4980 H     1 <1>   0.0800 
 31 H       -2.8030    -1.6240    -1.7670 H     1 <1>   0.0800 
 32 H       -1.8760    -1.6990    -0.2810 H     1 <1>   0.0800 
 33 H       -3.1760     3.1210    -1.8740 H     1 <1>   0.1500 
 34 H       -5.6410    -0.7220    -1.0780 H     1 <1>   0.0800 
 35 H       -3.7570    -1.6820     1.0610 H     1 <1>   0.0800 
 36 H       -2.2630     5.5040    -1.2410 H     1 <1>   0.1500 
 37 H       -5.1990    -0.1540     1.6590 H     1 <1>   0.4000 
 38 H       -4.8740    -3.0250    -1.4210 H     1 <1>   0.0800 
 39 H       -5.5050    -3.2020     0.1840 H     1 <1>   0.0800 
 40 H        0.0400     5.1970     1.7380 H     1 <1>   0.0800 
 41 H       -0.1580     6.3180     0.4090 H     1 <1>   0.0800 
 42 H        1.4460     4.7830    -0.7780 H     1 <1>   0.4500 
 43 H       -4.4020    -4.6020     1.8180 H     1 <1>   0.1500 
 44 H        2.1990     4.0300     1.9580 H     1 <1>   0.0800 
 45 H        1.4450     2.9770     0.7850 H     1 <1>   0.0800 
 46 H        1.9430     7.0710    -0.1520 H     1 <1>   0.0800 
 47 H        2.5090     6.4760     1.3930 H     1 <1>   0.0800 
 48 H       -1.1870    -5.6070    -1.6360 H     1 <1>   0.1500 
 49 H       -2.7850    -6.4380     2.2200 H     1 <1>   0.1500 
 50 H        3.8810     2.6760     0.8420 H     1 <1>   0.0800 
 51 H        3.3250     3.1870    -0.7180 H     1 <1>   0.0800 
 52 H        3.6460     5.7950    -1.3250 H     1 <1>   0.0800 
 53 H        4.3920     6.7940    -0.1190 H     1 <1>   0.0800 
 54 H       -1.1400    -6.9260     0.4160 H     1 <1>   0.1500 
 55 H        4.6230     4.9180     1.4080 H     1 <1>   0.0800 
 56 H        5.5830     4.1520    -1.3660 H     1 <1>   0.0800 
 57 H        6.2070     3.5270     0.1400 H     1 <1>   0.0800 
 58 H        6.4160     5.2110    -0.2550 H     1 <1>   0.0800 
@<TRIPOS>BOND
  1   1   2  2   
  2   2   3  am  
  3   2   4  1   
  4   3   5  1   
  5   3   6  1   
  6   4   7  1   
  7   4   8  2   
  8   5   9  1   
  9   5  29  1   
 10   5  30  1   
 11   6  10  1   
 12   6  31  1   
 13   6  32  1   
 14   7  11  1   
 15   8  12  1   
 16   8  33  1   
 17   9  10  1   
 18   9  13  1   
 19   9  34  1   
 20  10  14  1   
 21  10  35  1   
 22  11  12  2   
 23  11  15  1   
 24  12  36  1   
 25  13  37  1   
 26  14  16  1   
 27  14  38  1   
 28  14  39  1   
 29  15  17  1   
 30  15  40  1   
 31  15  41  1   
 32  16  18  ar  
 33  16  19  ar  
 34  17  20  1   
 35  17  21  1   
 36  17  42  1   
 37  18  22  ar  
 38  19  23  ar  
 39  19  43  1   
 40  20  24  1   
 41  20  44  1   
 42  20  45  1   
 43  21  25  1   
 44  21  46  1   
 45  21  47  1   
 46  22  26  ar  
 47  22  48  1   
 48  23  26  ar  
 49  23  49  1   
 50  24  27  1   
 51  24  50  1   
 52  24  51  1   
 53  25  27  1   
 54  25  52  1   
 55  25  53  1   
 56  26  54  1   
 57  27  28  1   
 58  27  55  1   
 59  28  56  1   
 60  28  57  1   
 61  28  58  1   
@<TRIPOS>SUBSTRUCTURE
  1 ****   2 GROUP 4 **** **** 0

# MOE 2024.06 (io_trps.svl 2023.06)
