@<TRIPOS>MOLECULE
NONAME
36 36 1 0 0 
SMALL
USER_CHARGES


@<TRIPOS>ATOM
  1 S       -1.1300    -0.6180     0.7700 S.3   1 <1>  -0.0800 
  2 C       -1.5480    -1.1070    -0.8390 C.2   1 <1>   0.4420 
  3 C       -0.4420     0.8120     0.0770 C.2   1 <1>   0.1980 
  4 N       -1.1890    -0.2450    -1.7190 N.2   1 <1>  -0.3380 
  5 N       -2.1900    -2.3170    -0.9670 N.am  1 <1>  -0.4940 
  6 N       -0.5580     0.8480    -1.1890 N.2   1 <1>  -0.3380 
  7 C        0.1840     1.8410     1.0020 C.3   1 <1>   0.3000 
  8 C       -2.7040    -2.9480    -2.0590 C.2   1 <1>   0.5690 
  9 O        1.0740     1.2270     1.8900 O.3   1 <1>  -0.5600 
 10 O       -2.7110    -2.4910    -3.1740 O.2   1 <1>  -0.5700 
 11 C       -3.3080    -4.3300    -1.8090 C.3   1 <1>   0.1710 
 12 C        1.7360     2.1100     2.7370 C.3   1 <1>   0.0400 
 13 N       -3.7220    -4.5510    -0.3870 N.3   1 <1>  -0.8100 
 14 C       -3.8300    -5.9980    -0.1000 C.3   1 <1>   0.1100 
 15 C       -4.9920    -3.8530    -0.1110 C.3   1 <1>   0.0300 
 16 C       -3.8570    -6.2790     1.4080 C.3   1 <1>   0.1200 
 17 O       -3.8280    -7.6570     1.6320 O.3   1 <1>  -0.5600 
 18 C       -5.0690    -8.2890     1.6130 C.3   1 <1>   0.0400 
 19 H       -2.3530    -2.8490    -0.1090 H     1 <1>   0.3700 
 20 H       -0.5850     2.3320     1.5710 H     1 <1>   0.0800 
 21 H        0.7240     2.5660     0.4170 H     1 <1>   0.0800 
 22 H       -2.5530    -5.0470    -2.0810 H     1 <1>   0.0800 
 23 H       -4.1460    -4.4720    -2.4680 H     1 <1>   0.0800 
 24 H        2.3850     1.5360     3.3750 H     1 <1>   0.0800 
 25 H        1.0160     2.6390     3.3370 H     1 <1>   0.0800 
 26 H        2.3220     2.7960     2.1500 H     1 <1>   0.0800 
 27 H       -2.9680    -6.5040    -0.5010 H     1 <1>   0.0800 
 28 H       -4.7110    -6.3990    -0.5710 H     1 <1>   0.0800 
 29 H       -4.9090    -2.8080    -0.3590 H     1 <1>   0.0800 
 30 H       -5.2410    -3.9250     0.9340 H     1 <1>   0.0800 
 31 H       -5.7930    -4.2810    -0.6900 H     1 <1>   0.0800 
 32 H       -4.7270    -5.8610     1.8830 H     1 <1>   0.0800 
 33 H       -2.9730    -5.8670     1.8620 H     1 <1>   0.0800 
 34 H       -4.9110    -9.3370     1.7970 H     1 <1>   0.0800 
 35 H       -5.5280    -8.1570     0.6500 H     1 <1>   0.0800 
 36 H       -5.6890    -7.8770     2.3910 H     1 <1>   0.0800 
@<TRIPOS>BOND
  1   1   2  1   
  2   1   3  1   
  3   2   4  2   
  4   2   5  1   
  5   3   6  2   
  6   3   7  1   
  7   4   6  1   
  8   5   8  am  
  9   5  19  1   
 10   7   9  1   
 11   7  20  1   
 12   7  21  1   
 13   8  10  2   
 14   8  11  1   
 15   9  12  1   
 16  11  13  1   
 17  11  22  1   
 18  11  23  1   
 19  12  24  1   
 20  12  25  1   
 21  12  26  1   
 22  13  14  1   
 23  13  15  1   
 24  14  16  1   
 25  14  27  1   
 26  14  28  1   
 27  15  29  1   
 28  15  30  1   
 29  15  31  1   
 30  16  17  1   
 31  16  32  1   
 32  16  33  1   
 33  17  18  1   
 34  18  34  1   
 35  18  35  1   
 36  18  36  1   
@<TRIPOS>SUBSTRUCTURE
  1 ****   5 GROUP 4 **** **** 0

# MOE 2024.06 (io_trps.svl 2023.06)
