@<TRIPOS>MOLECULE
NONAME
54 56 1 0 0 
SMALL
USER_CHARGES


@<TRIPOS>ATOM
  1 O       -0.8480     0.4190    -1.5930 O.2   1 <1>  -0.5700 
  2 C       -1.7490     1.2120    -1.3850 C.2   1 <1>   0.5440 
  3 N       -3.0480     0.7450    -1.4210 N.am  1 <1>  -0.6600 
  4 C       -1.4450     2.5920    -1.0880 C.ar  1 <1>   0.0860 
  5 C       -3.3170    -0.6820    -1.7260 C.3   1 <1>   0.1400 
  6 C       -4.1440     1.4050    -0.6600 C.3   1 <1>   0.1400 
  7 C       -1.1020     2.9940     0.2040 C.ar  1 <1>   0.0820 
  8 C       -1.4970     3.5610    -2.0890 C.ar  1 <1>  -0.1500 
  9 C       -3.4230    -1.4450    -0.3890 C.3   1 <1>   0.4230 
 10 C       -4.3090     0.6680     0.6770 C.3   1 <1>  -0.1600 
 11 O       -1.0590     2.0560     1.1800 O.3   1 <1>  -0.3630 
 12 C       -0.8330     4.3360     0.4930 C.ar  1 <1>   0.0820 
 13 C       -1.2240     4.8870    -1.8160 C.ar  1 <1>  -0.1500 
 14 N       -3.4620    -2.9590    -0.5420 N.4   1 <1>  -0.9590 
 15 C       -4.5450    -0.8650     0.5280 C.3   1 <1>   0.0000 
 16 C        0.2260     1.6350     1.5830 C.3   1 <1>   0.0400 
 17 O       -0.5260     4.6710     1.7790 O.3   1 <1>  -0.3630 
 18 C       -0.8930     5.2770    -0.5300 C.ar  1 <1>  -0.1500 
 19 C       -3.9690    -3.6830     0.6690 C.3   1 <1>   0.3430 
 20 C       -4.1520    -3.4670    -1.7730 C.3   1 <1>   0.2630 
 21 C       -4.4450    -1.5250     1.9360 C.3   1 <1>  -0.1600 
 22 C       -5.9420    -1.1360    -0.1010 C.3   1 <1>   0.1200 
 23 C       -0.3040     6.0090     2.1660 C.3   1 <1>   0.0400 
 24 C       -3.7050    -2.8760     1.9400 C.3   1 <1>  -0.1600 
 25 O       -6.9520    -0.4790     0.5810 O.3   1 <1>  -0.6800 
 26 H       -4.2230    -0.7480    -2.2990 H     1 <1>   0.0800 
 27 H       -2.5150    -1.0870    -2.3180 H     1 <1>   0.0800 
 28 H       -3.9170     2.4420    -0.4770 H     1 <1>   0.0800 
 29 H       -5.0570     1.3670    -1.2300 H     1 <1>   0.0800 
 30 H       -1.7530     3.2610    -3.0910 H     1 <1>   0.1500 
 31 H       -2.5010    -1.2200     0.1240 H     1 <1>   0.0800 
 32 H       -3.4130     0.8440     1.2460 H     1 <1>   0.0800 
 33 H       -5.1110     1.1280     1.2280 H     1 <1>   0.0800 
 34 H       -1.2670     5.6190    -2.6050 H     1 <1>   0.1500 
 35 H       -2.4680    -3.2190    -0.6330 H     1 <1>   0.4500 
 36 H        0.1130     0.8840     2.3430 H     1 <1>   0.0800 
 37 H        0.7660     2.4770     1.9780 H     1 <1>   0.0800 
 38 H        0.7400     1.2260     0.7300 H     1 <1>   0.0800 
 39 H       -0.6870     6.3150    -0.3500 H     1 <1>   0.1500 
 40 H       -5.0310    -3.8420     0.5810 H     1 <1>   0.0800 
 41 H       -3.4940    -4.6490     0.7440 H     1 <1>   0.0800 
 42 H       -5.1920    -3.1850    -1.7680 H     1 <1>   0.0800 
 43 H       -4.0890    -4.5430    -1.8190 H     1 <1>   0.0800 
 44 H       -3.6890    -3.0650    -2.6600 H     1 <1>   0.0800 
 45 H       -3.9270    -0.8760     2.6220 H     1 <1>   0.0800 
 46 H       -5.4290    -1.6660     2.3490 H     1 <1>   0.0800 
 47 H       -6.1810    -2.1840    -0.0900 H     1 <1>   0.0800 
 48 H       -5.9910    -0.7880    -1.1170 H     1 <1>   0.0800 
 49 H       -0.1070     6.0220     3.2230 H     1 <1>   0.0800 
 50 H       -1.1870     6.5850     1.9530 H     1 <1>   0.0800 
 51 H        0.5470     6.3920     1.6320 H     1 <1>   0.0800 
 52 H       -4.0210    -3.4480     2.7950 H     1 <1>   0.0800 
 53 H       -2.6450    -2.7170     2.0420 H     1 <1>   0.0800 
 54 H       -6.9680    -0.7090     1.5310 H     1 <1>   0.4000 
@<TRIPOS>BOND
  1   1   2  2   
  2   2   3  am  
  3   2   4  1   
  4   3   5  1   
  5   3   6  1   
  6   4   7  ar  
  7   4   8  ar  
  8   5   9  1   
  9   5  26  1   
 10   5  27  1   
 11   6  10  1   
 12   6  28  1   
 13   6  29  1   
 14   7  11  1   
 15   7  12  ar  
 16   8  13  ar  
 17   8  30  1   
 18   9  14  1   
 19   9  15  1   
 20   9  31  1   
 21  10  15  1   
 22  10  32  1   
 23  10  33  1   
 24  11  16  1   
 25  12  17  1   
 26  12  18  ar  
 27  13  18  ar  
 28  13  34  1   
 29  14  19  1   
 30  14  20  1   
 31  14  35  1   
 32  15  21  1   
 33  15  22  1   
 34  16  36  1   
 35  16  37  1   
 36  16  38  1   
 37  17  23  1   
 38  18  39  1   
 39  19  24  1   
 40  19  40  1   
 41  19  41  1   
 42  20  42  1   
 43  20  43  1   
 44  20  44  1   
 45  21  24  1   
 46  21  45  1   
 47  21  46  1   
 48  22  25  1   
 49  22  47  1   
 50  22  48  1   
 51  23  49  1   
 52  23  50  1   
 53  23  51  1   
 54  24  52  1   
 55  24  53  1   
 56  25  54  1   
@<TRIPOS>SUBSTRUCTURE
  1 ****   3 GROUP 4 **** **** 0

# MOE 2024.06 (io_trps.svl 2023.06)
