@<TRIPOS>MOLECULE
NONAME
40 43 1 0 0 
SMALL
USER_CHARGES


@<TRIPOS>ATOM
  1 O       -0.2860     0.1860    -0.1590 O.2   1 <1>  -0.5700 
  2 C       -1.3120     0.8010     0.0600 C.2   1 <1>   0.5440 
  3 N       -2.4880     0.0970     0.1890 N.am  1 <1>  -0.6600 
  4 C       -1.2750     2.2450     0.1630 C.ar  1 <1>   0.0860 
  5 C       -3.8450     0.6820     0.0380 C.3   1 <1>   0.1400 
  6 C       -2.5390    -1.3800     0.0520 C.3   1 <1>   0.1400 
  7 C       -0.6680     3.0120    -0.8190 C.ar  1 <1>  -0.1500 
  8 C       -1.8500     2.9110     1.2690 C.ar  1 <1>  -0.1500 
  9 C       -4.7410    -0.4960    -0.3440 C.3   1 <1>   0.2000 
 10 C       -4.0220    -1.7420     0.1670 C.3   1 <1>  -0.0800 
 11 C       -0.6540     4.4010    -0.7180 C.ar  1 <1>   0.2270 
 12 C       -1.8380     4.2810     1.3800 C.ar  1 <1>  -0.1500 
 13 O       -5.9940    -0.3970     0.2420 O.3   1 <1>  -0.6800 
 14 C       -4.4230    -3.0140    -0.6000 C.3   1 <1>  -0.0170 
 15 N       -0.1410     5.3450    -1.5460 N.2   1 <1>  -0.2270 
 16 C       -1.2300     5.0190     0.3610 C.ar  1 <1>  -0.1520 
 17 C       -3.7350    -4.2490    -0.0410 C.ar  1 <1>   0.1670 
 18 N       -0.3690     6.4970    -1.0370 N.2   1 <1>  -0.4180 
 19 N       -1.0250     6.3300     0.1200 N.pl3 1 <1>   0.3000 
 20 N       -2.5060    -4.4860    -0.4690 N.ar  1 <1>  -0.6200 
 21 C       -4.3990    -5.0610     0.8770 C.ar  1 <1>   0.1600 
 22 C       -1.9890    -5.5730     0.0780 C.ar  1 <1>   0.1600 
 23 N       -3.8840    -6.1480     1.4270 N.ar  1 <1>  -0.6200 
 24 C       -2.6560    -6.3770     0.9950 C.ar  1 <1>   0.1600 
 25 H       -4.1540     1.1070     0.9760 H     1 <1>   0.0800 
 26 H       -3.8520     1.4320    -0.7340 H     1 <1>   0.0800 
 27 H       -2.1470    -1.6580    -0.9120 H     1 <1>   0.0800 
 28 H       -1.9520    -1.8560     0.8190 H     1 <1>   0.0800 
 29 H       -0.2020     2.5470    -1.6690 H     1 <1>   0.1500 
 30 H       -2.2990     2.3110     2.0420 H     1 <1>   0.1500 
 31 H       -4.8660    -0.5260    -1.4140 H     1 <1>   0.0800 
 32 H       -4.2340    -1.8740     1.2130 H     1 <1>   0.0800 
 33 H       -2.2790     4.7800     2.2280 H     1 <1>   0.1500 
 34 H       -5.9170    -0.4010     1.2160 H     1 <1>   0.4000 
 35 H       -4.1680    -2.9120    -1.6410 H     1 <1>   0.0800 
 36 H       -5.4890    -3.1410    -0.5410 H     1 <1>   0.0800 
 37 H       -1.3120     7.1130     0.7150 H     1 <1>   0.2700 
 38 H       -5.4000    -4.7980     1.1720 H     1 <1>   0.1500 
 39 H       -0.9890    -5.8420    -0.2130 H     1 <1>   0.1500 
 40 H       -2.1510    -7.2430     1.3850 H     1 <1>   0.1500 
@<TRIPOS>BOND
  1   1   2  2   
  2   2   3  am  
  3   2   4  1   
  4   3   5  1   
  5   3   6  1   
  6   4   7  ar  
  7   4   8  ar  
  8   5   9  1   
  9   5  25  1   
 10   5  26  1   
 11   6  10  1   
 12   6  27  1   
 13   6  28  1   
 14   7  11  ar  
 15   7  29  1   
 16   8  12  ar  
 17   8  30  1   
 18   9  10  1   
 19   9  13  1   
 20   9  31  1   
 21  10  14  1   
 22  10  32  1   
 23  11  15  1   
 24  11  16  ar  
 25  12  16  ar  
 26  12  33  1   
 27  13  34  1   
 28  14  17  1   
 29  14  35  1   
 30  14  36  1   
 31  15  18  2   
 32  16  19  1   
 33  17  20  ar  
 34  17  21  ar  
 35  18  19  1   
 36  19  37  1   
 37  20  22  ar  
 38  21  23  ar  
 39  21  38  1   
 40  22  24  ar  
 41  22  39  1   
 42  23  24  ar  
 43  24  40  1   
@<TRIPOS>SUBSTRUCTURE
  1 ****   3 GROUP 4 **** **** 0

# MOE 2024.06 (io_trps.svl 2023.06)
