@<TRIPOS>MOLECULE
NONAME
40 43 1 0 0 
SMALL
USER_CHARGES


@<TRIPOS>ATOM
  1 S       -0.5060     0.0750    -1.0880 S.3   1 <1>  -0.0800 
  2 C       -0.4570     1.6780    -0.3840 C.2   1 <1>  -0.1400 
  3 C        1.2320     0.1150    -1.3430 C.2   1 <1>  -0.1100 
  4 C        0.7870     2.1720    -0.3480 C.2   1 <1>  -0.1810 
  5 C       -1.6890     2.3860     0.1080 C.3   1 <1>   0.0200 
  6 C        1.7590     1.2750    -0.9050 C.2   1 <1>  -0.1500 
  7 C        1.0730     3.5530     0.2490 C.3   1 <1>   0.4610 
  8 C       -1.3430     3.8800     0.2010 C.3   1 <1>   0.1200 
  9 O       -0.1010     4.0830     0.8370 O.3   1 <1>  -0.5600 
 10 C        1.5440     4.5290    -0.8430 C.3   1 <1>  -0.1600 
 11 C        2.0840     3.4410     1.4080 C.3   1 <1>  -0.1600 
 12 C        2.2410     5.7380    -0.2230 C.3   1 <1>   0.1400 
 13 C        3.4920     3.8990     1.0260 C.3   1 <1>   0.1400 
 14 N        3.4720     5.2990     0.5030 N.am  1 <1>  -0.6600 
 15 C        4.6210     6.0610     0.5480 C.2   1 <1>   0.5440 
 16 O        5.6760     5.5210     0.8190 O.2   1 <1>  -0.5700 
 17 C        4.6100     7.4800     0.2730 C.ar  1 <1>   0.0860 
 18 C        3.7020     8.3290     0.9120 C.ar  1 <1>   0.1600 
 19 C        5.5010     8.0540    -0.6250 C.ar  1 <1>  -0.1500 
 20 N        3.5860     9.6380     0.7240 N.ar  1 <1>  -0.6200 
 21 C        5.3910     9.4100    -0.8190 C.ar  1 <1>   0.1900 
 22 C        4.4420    10.1600    -0.1460 C.ar  1 <1>   0.1600 
 23 F        6.2000    10.0000    -1.6580 F     1 <1>  -0.1900 
 24 H        1.6810    -0.7480    -1.8010 H     1 <1>   0.1500 
 25 H       -1.9720     2.0060     1.0730 H     1 <1>   0.0800 
 26 H       -2.5060     2.2410    -0.5760 H     1 <1>   0.0800 
 27 H        2.8010     1.5360    -0.9520 H     1 <1>   0.1500 
 28 H       -2.0930     4.3990     0.7710 H     1 <1>   0.0800 
 29 H       -1.3000     4.3120    -0.7830 H     1 <1>   0.0800 
 30 H        0.7170     4.8460    -1.4470 H     1 <1>   0.0800 
 31 H        2.2400     4.0370    -1.4970 H     1 <1>   0.0800 
 32 H        2.1270     2.4250     1.7550 H     1 <1>   0.0800 
 33 H        1.7600     4.0470     2.2350 H     1 <1>   0.0800 
 34 H        1.5720     6.2240     0.4670 H     1 <1>   0.0800 
 35 H        2.5000     6.4350    -1.0020 H     1 <1>   0.0800 
 36 H        3.9040     3.2510     0.2710 H     1 <1>   0.0800 
 37 H        4.1320     3.8470     1.8910 H     1 <1>   0.0800 
 38 H        3.0290     7.8860     1.6280 H     1 <1>   0.1500 
 39 H        6.2390     7.4640    -1.1390 H     1 <1>   0.1500 
 40 H        4.3910    11.2190    -0.3300 H     1 <1>   0.1500 
@<TRIPOS>BOND
  1   1   2  1   
  2   1   3  1   
  3   2   4  2   
  4   2   5  1   
  5   3   6  2   
  6   3  24  1   
  7   4   6  1   
  8   4   7  1   
  9   5   8  1   
 10   5  25  1   
 11   5  26  1   
 12   6  27  1   
 13   7   9  1   
 14   7  10  1   
 15   7  11  1   
 16   8   9  1   
 17   8  28  1   
 18   8  29  1   
 19  10  12  1   
 20  10  30  1   
 21  10  31  1   
 22  11  13  1   
 23  11  32  1   
 24  11  33  1   
 25  12  14  1   
 26  12  34  1   
 27  12  35  1   
 28  13  14  1   
 29  13  36  1   
 30  13  37  1   
 31  14  15  am  
 32  15  16  2   
 33  15  17  1   
 34  17  18  ar  
 35  17  19  ar  
 36  18  20  ar  
 37  18  38  1   
 38  19  21  ar  
 39  19  39  1   
 40  20  22  ar  
 41  21  22  ar  
 42  21  23  1   
 43  22  40  1   
@<TRIPOS>SUBSTRUCTURE
  1 ****  12 GROUP 4 **** **** 0

# MOE 2024.06 (io_trps.svl 2023.06)
