@<TRIPOS>MOLECULE
NONAME
59 62 1 0 0 
SMALL
USER_CHARGES


@<TRIPOS>ATOM
  1 O       -1.2780    -0.3780    -1.2700 O.2   1 <1>  -0.5700 
  2 C       -1.9530     0.3810    -0.5880 C.2   1 <1>   0.6160 
  3 N       -1.8950     1.7520    -0.8140 N.am  1 <1>  -0.4770 
  4 C       -2.7860    -0.1030     0.4740 C.2   1 <1>  -0.1240 
  5 C       -2.5430     2.6620     0.0480 C.ar  1 <1>   0.1170 
  6 C       -1.1280     2.2610    -1.9910 C.3   1 <1>   0.0600 
  7 C       -3.4350     0.7580     1.2930 C.2   1 <1>  -0.1780 
  8 C       -2.9110    -1.6090     0.6550 C.3   1 <1>   0.2480 
  9 C       -3.3230     2.1690     1.1110 C.ar  1 <1>   0.0280 
 10 C       -2.4400     4.0500    -0.1040 C.ar  1 <1>  -0.1500 
 11 N       -3.8560    -2.1950    -0.3200 N.3   1 <1>  -0.8100 
 12 C       -3.9720     3.0620     1.9660 C.ar  1 <1>  -0.1500 
 13 C       -3.0870     4.9180     0.7500 C.ar  1 <1>  -0.1500 
 14 C       -3.8920    -3.6800    -0.2510 C.3   1 <1>   0.3330 
 15 C       -5.2210    -1.6440    -0.1880 C.3   1 <1>   0.1100 
 16 C       -3.8580     4.4220     1.7900 C.ar  1 <1>  -0.1500 
 17 C       -2.5030    -4.2770    -0.4880 C.ar  1 <1>  -0.1430 
 18 C       -4.9190    -4.2570    -1.2670 C.3   1 <1>   0.2000 
 19 C       -6.1880    -2.2940    -1.1900 C.3   1 <1>   0.1200 
 20 C       -2.0310    -5.2860     0.3410 C.ar  1 <1>  -0.1500 
 21 C       -1.7050    -3.8360    -1.5360 C.ar  1 <1>  -0.1500 
 22 O       -6.1810    -3.6830    -1.0400 O.3   1 <1>  -0.5600 
 23 C       -5.0940    -5.7830    -1.1770 C.3   1 <1>   0.1200 
 24 C       -0.7920    -5.8620     0.1210 C.ar  1 <1>   0.0830 
 25 C       -0.4560    -4.3930    -1.7510 C.ar  1 <1>  -0.1500 
 26 O       -4.0240    -6.4550    -1.7640 O.3   1 <1>  -0.6800 
 27 O       -0.4230    -6.8750     0.9430 O.3   1 <1>  -0.3630 
 28 C        0.0140    -5.3960    -0.9220 C.ar  1 <1>   0.0830 
 29 C       -0.2810    -8.1440     0.3440 C.3   1 <1>   0.0400 
 30 O        1.2560    -5.8820    -1.1610 O.3   1 <1>  -0.3630 
 31 C        2.2350    -5.5700    -0.1950 C.3   1 <1>   0.0400 
 32 H       -1.7450     2.9290    -2.5640 H     1 <1>   0.0800 
 33 H       -0.8200     1.4590    -2.6390 H     1 <1>   0.0800 
 34 H       -0.2500     2.7810    -1.6500 H     1 <1>   0.0800 
 35 H       -4.0560     0.4120     2.0990 H     1 <1>   0.1500 
 36 H       -3.2480    -1.8290     1.6540 H     1 <1>   0.0800 
 37 H       -1.9330    -2.0430     0.5390 H     1 <1>   0.0800 
 38 H       -1.8480     4.4690    -0.8940 H     1 <1>   0.1500 
 39 H       -4.5680     2.6790     2.7750 H     1 <1>   0.1500 
 40 H       -2.9960     5.9820     0.6150 H     1 <1>   0.1500 
 41 H       -4.2180    -3.9650     0.7340 H     1 <1>   0.0800 
 42 H       -5.5900    -1.8020     0.8110 H     1 <1>   0.0800 
 43 H       -5.2040    -0.5850    -0.3780 H     1 <1>   0.0800 
 44 H       -4.3620     5.1040     2.4540 H     1 <1>   0.1500 
 45 H       -4.6220    -4.0040    -2.2700 H     1 <1>   0.0800 
 46 H       -5.9040    -2.0510    -2.2000 H     1 <1>   0.0800 
 47 H       -7.1920    -1.9480    -1.0180 H     1 <1>   0.0800 
 48 H       -2.6240    -5.6480     1.1620 H     1 <1>   0.1500 
 49 H       -2.0520    -3.0430    -2.1790 H     1 <1>   0.1500 
 50 H       -5.9820    -6.0790    -1.7060 H     1 <1>   0.0800 
 51 H       -5.1690    -6.0970    -0.1510 H     1 <1>   0.0800 
 52 H        0.1600    -4.0400    -2.5580 H     1 <1>   0.1500 
 53 H       -3.1670    -6.0920    -1.4460 H     1 <1>   0.4000 
 54 H       -0.1160    -8.8670     1.1230 H     1 <1>   0.0800 
 55 H        0.5590    -8.1310    -0.3260 H     1 <1>   0.0800 
 56 H       -1.1840    -8.3790    -0.1920 H     1 <1>   0.0800 
 57 H        3.1800    -5.9520    -0.5380 H     1 <1>   0.0800 
 58 H        1.9700    -6.0280     0.7400 H     1 <1>   0.0800 
 59 H        2.2850    -4.5010    -0.0870 H     1 <1>   0.0800 
@<TRIPOS>BOND
  1   1   2  2   
  2   2   3  am  
  3   2   4  1   
  4   3   5  1   
  5   3   6  1   
  6   4   7  2   
  7   4   8  1   
  8   5   9  ar  
  9   5  10  ar  
 10   6  32  1   
 11   6  33  1   
 12   6  34  1   
 13   7   9  1   
 14   7  35  1   
 15   8  11  1   
 16   8  36  1   
 17   8  37  1   
 18   9  12  ar  
 19  10  13  ar  
 20  10  38  1   
 21  11  14  1   
 22  11  15  1   
 23  12  16  ar  
 24  12  39  1   
 25  13  16  ar  
 26  13  40  1   
 27  14  17  1   
 28  14  18  1   
 29  14  41  1   
 30  15  19  1   
 31  15  42  1   
 32  15  43  1   
 33  16  44  1   
 34  17  20  ar  
 35  17  21  ar  
 36  18  22  1   
 37  18  23  1   
 38  18  45  1   
 39  19  22  1   
 40  19  46  1   
 41  19  47  1   
 42  20  24  ar  
 43  20  48  1   
 44  21  25  ar  
 45  21  49  1   
 46  23  26  1   
 47  23  50  1   
 48  23  51  1   
 49  24  27  1   
 50  24  28  ar  
 51  25  28  ar  
 52  25  52  1   
 53  26  53  1   
 54  27  29  1   
 55  28  30  1   
 56  29  54  1   
 57  29  55  1   
 58  29  56  1   
 59  30  31  1   
 60  31  57  1   
 61  31  58  1   
 62  31  59  1   
@<TRIPOS>SUBSTRUCTURE
  1 ****   8 GROUP 4 **** **** 0

# MOE 2024.06 (io_trps.svl 2023.06)
