@<TRIPOS>MOLECULE
NONAME
45 47 1 0 0 
SMALL
USER_CHARGES


@<TRIPOS>ATOM
  1 S       -0.6210     0.1380     1.4700 S.o2  1 <1>   1.5000 
  2 O       -1.8080    -0.6600     1.6930 O.2   1 <1>  -0.6500 
  3 O        0.0810     0.6630     2.6210 O.2   1 <1>  -0.6500 
  4 N       -1.0460     1.4610     0.4910 N.am  1 <1>  -0.8490 
  5 C        0.5360    -0.8040     0.4460 C.2   1 <1>  -0.0220 
  6 C       -1.5820     2.6200     1.2050 C.3   1 <1>   0.1960 
  7 C       -1.7930     1.1670    -0.7380 C.3   1 <1>   0.1960 
  8 S        1.8500     0.0650    -0.3450 S.3   1 <1>  -0.0800 
  9 C        0.6260    -2.1160     0.1420 C.2   1 <1>  -0.1500 
 10 C       -3.0650     2.4310     1.5390 C.3   1 <1>  -0.1600 
 11 C       -3.3000     1.0040    -0.4950 C.3   1 <1>  -0.1600 
 12 C        2.4730    -1.4040    -1.0740 C.2   1 <1>  -0.1400 
 13 C        1.7170    -2.4580    -0.7190 C.2   1 <1>  -0.1500 
 14 C       -3.9020     2.1930     0.2700 C.3   1 <1>   0.2800 
 15 C        3.7040    -1.2780    -1.9460 C.3   1 <1>  -0.0600 
 16 O       -3.7700     3.3040    -0.5860 O.3   1 <1>  -0.5600 
 17 C       -5.3950     1.9380     0.6010 C.3   1 <1>  -0.1600 
 18 C       -4.5260     4.4450    -0.2930 C.3   1 <1>   0.1200 
 19 C       -6.3510     2.6500    -0.3580 C.3   1 <1>   0.2800 
 20 C       -6.0320     4.1480    -0.3800 C.3   1 <1>  -0.1600 
 21 O       -6.1170     2.1720    -1.6200 O.3   1 <1>  -0.6800 
 22 C       -7.8180     2.3700    -0.0450 C.3   1 <1>  -0.2400 
 23 H       -1.4690     3.4910     0.5810 H     1 <1>   0.0800 
 24 H       -1.0190     2.7970     2.1060 H     1 <1>   0.0800 
 25 H       -1.4000     0.2800    -1.2070 H     1 <1>   0.0800 
 26 H       -1.6460     1.9850    -1.4250 H     1 <1>   0.0800 
 27 H       -0.0510    -2.8730     0.4980 H     1 <1>   0.1500 
 28 H       -3.4220     3.2920     2.0700 H     1 <1>   0.0800 
 29 H       -3.1720     1.5920     2.2020 H     1 <1>   0.0800 
 30 H       -3.4760     0.0970     0.0500 H     1 <1>   0.0800 
 31 H       -3.7950     0.8920    -1.4410 H     1 <1>   0.0800 
 32 H        1.8800    -3.4770    -1.0250 H     1 <1>   0.1500 
 33 H        3.5030    -0.6170    -2.7700 H     1 <1>   0.0800 
 34 H        3.9870    -2.2400    -2.3320 H     1 <1>   0.0800 
 35 H        4.5200    -0.8800    -1.3700 H     1 <1>   0.0800 
 36 H       -5.5980     2.2950     1.5940 H     1 <1>   0.0800 
 37 H       -5.6070     0.8840     0.6170 H     1 <1>   0.0800 
 38 H       -4.2560     5.2070    -1.0030 H     1 <1>   0.0800 
 39 H       -4.2600     4.7900     0.6910 H     1 <1>   0.0800 
 40 H       -6.4480     4.5980    -1.2640 H     1 <1>   0.0800 
 41 H       -6.5050     4.6250     0.4590 H     1 <1>   0.0800 
 42 H       -5.1960     2.4250    -1.8420 H     1 <1>   0.4000 
 43 H       -8.0620     2.7190     0.9420 H     1 <1>   0.0800 
 44 H       -8.0120     1.3140    -0.0910 H     1 <1>   0.0800 
 45 H       -8.4520     2.8740    -0.7520 H     1 <1>   0.0800 
@<TRIPOS>BOND
  1   1   2  2   
  2   1   3  2   
  3   1   4  am  
  4   1   5  1   
  5   4   6  1   
  6   4   7  1   
  7   5   8  1   
  8   5   9  2   
  9   6  10  1   
 10   6  23  1   
 11   6  24  1   
 12   7  11  1   
 13   7  25  1   
 14   7  26  1   
 15   8  12  1   
 16   9  13  1   
 17   9  27  1   
 18  10  14  1   
 19  10  28  1   
 20  10  29  1   
 21  11  14  1   
 22  11  30  1   
 23  11  31  1   
 24  12  13  2   
 25  12  15  1   
 26  13  32  1   
 27  14  16  1   
 28  14  17  1   
 29  15  33  1   
 30  15  34  1   
 31  15  35  1   
 32  16  18  1   
 33  17  19  1   
 34  17  36  1   
 35  17  37  1   
 36  18  20  1   
 37  18  38  1   
 38  18  39  1   
 39  19  20  1   
 40  19  21  1   
 41  19  22  1   
 42  20  40  1   
 43  20  41  1   
 44  21  42  1   
 45  22  43  1   
 46  22  44  1   
 47  22  45  1   
@<TRIPOS>SUBSTRUCTURE
  1 ****   7 GROUP 4 **** **** 0

# MOE 2024.06 (io_trps.svl 2023.06)
