@<TRIPOS>MOLECULE
NONAME
52 55 1 0 0 
SMALL
USER_CHARGES


@<TRIPOS>ATOM
  1 O        2.0340     0.4670     1.7420 O.3   1 <1>  -0.6800 
  2 C        2.1420    -0.0070     0.4370 C.3   1 <1>   0.2000 
  3 C        2.9510    -1.3090     0.4540 C.3   1 <1>  -0.0800 
  4 C        3.0120     0.9610    -0.3690 C.3   1 <1>   0.3430 
  5 C        4.3900    -0.9120     0.0730 C.3   1 <1>   0.3430 
  6 C        2.3830    -2.3510    -0.5280 C.3   1 <1>   0.0210 
  7 N        4.4190     0.5680    -0.0690 N.4   1 <1>  -0.9590 
  8 C        3.1860    -3.6370    -0.4970 C.2   1 <1>   0.1080 
  9 C        4.9320     1.2100     1.1640 C.3   1 <1>   0.5230 
 10 N        4.4370    -3.6970    -0.8370 N.2   1 <1>  -0.7070 
 11 C        2.6850    -4.8760    -0.1120 C.2   1 <1>  -0.1500 
 12 C        4.9520     2.6940     0.9050 C.2   1 <1>  -0.3320 
 13 N        4.7670    -4.9980    -0.6880 N.pl3 1 <1>   0.3000 
 14 C        3.7230    -5.7270    -0.2450 C.2   1 <1>  -0.3320 
 15 N        4.0090     3.5240     1.4530 N.pl3 1 <1>   0.0330 
 16 C        5.8140     3.4260     0.1560 C.2   1 <1>  -0.1810 
 17 C        3.7800    -7.2200     0.0240 C.3   1 <1>  -0.0600 
 18 C        4.2610     4.7980     1.0240 C.ar  1 <1>  -0.1520 
 19 C        5.3870     4.7720     0.2100 C.ar  1 <1>   0.0000 
 20 C        7.0360     2.9840    -0.6270 C.3   1 <1>  -0.0590 
 21 C        3.5900     5.9950     1.2830 C.ar  1 <1>  -0.1500 
 22 C        5.8540     5.9630    -0.3570 C.ar  1 <1>  -0.1500 
 23 C        4.0610     7.1560     0.7150 C.ar  1 <1>  -0.1500 
 24 C        5.1950     7.1460    -0.1080 C.ar  1 <1>  -0.1430 
 25 C        5.6770     8.4530    -0.7100 C.3   1 <1>  -0.0970 
 26 H        1.3830    -0.0610     2.2540 H     1 <1>   0.4000 
 27 H        1.1510    -0.1050     0.0250 H     1 <1>   0.0800 
 28 H        2.9520    -1.7500     1.4370 H     1 <1>   0.0800 
 29 H        2.8030     1.9870    -0.1200 H     1 <1>   0.0800 
 30 H        2.8210     0.8120    -1.4190 H     1 <1>   0.0800 
 31 H        4.6480    -1.3630    -0.8720 H     1 <1>   0.0800 
 32 H        5.0950    -1.2550     0.8140 H     1 <1>   0.0800 
 33 H        2.3950    -1.9690    -1.5340 H     1 <1>   0.0800 
 34 H        1.3630    -2.5750    -0.2710 H     1 <1>   0.0800 
 35 H        5.0350     0.8800    -0.8280 H     1 <1>   0.4500 
 36 H        4.3070     0.9780     2.0120 H     1 <1>   0.0800 
 37 H        5.9330     0.8680     1.3690 H     1 <1>   0.0800 
 38 H        1.6820    -5.0910     0.2130 H     1 <1>   0.1500 
 39 H        5.7060    -5.3610    -0.9000 H     1 <1>   0.2700 
 40 H        3.2410     3.2710     2.0880 H     1 <1>   0.2700 
 41 H        2.8230    -7.5720     0.3670 H     1 <1>   0.0800 
 42 H        4.5140    -7.4370     0.7800 H     1 <1>   0.0800 
 43 H        4.0360    -7.7510    -0.8760 H     1 <1>   0.0800 
 44 H        7.9000     3.5220    -0.2770 H     1 <1>   0.0800 
 45 H        6.9000     3.2020    -1.6720 H     1 <1>   0.0800 
 46 H        7.2180     1.9330    -0.5080 H     1 <1>   0.0800 
 47 H        2.7210     6.0040     1.9160 H     1 <1>   0.1500 
 48 H        6.7260     5.9320    -0.9830 H     1 <1>   0.1500 
 49 H        3.5570     8.0880     0.9030 H     1 <1>   0.1500 
 50 H        4.9060     8.8760    -1.3280 H     1 <1>   0.0800 
 51 H        6.5540     8.2990    -1.3120 H     1 <1>   0.0800 
 52 H        5.9170     9.1490     0.0730 H     1 <1>   0.0800 
@<TRIPOS>BOND
  1   1   2  1   
  2   1  26  1   
  3   2   3  1   
  4   2   4  1   
  5   2  27  1   
  6   3   5  1   
  7   3   6  1   
  8   3  28  1   
  9   4   7  1   
 10   4  29  1   
 11   4  30  1   
 12   5   7  1   
 13   5  31  1   
 14   5  32  1   
 15   6   8  1   
 16   6  33  1   
 17   6  34  1   
 18   7   9  1   
 19   7  35  1   
 20   8  10  2   
 21   8  11  1   
 22   9  12  1   
 23   9  36  1   
 24   9  37  1   
 25  10  13  1   
 26  11  14  2   
 27  11  38  1   
 28  12  15  1   
 29  12  16  2   
 30  13  14  1   
 31  13  39  1   
 32  14  17  1   
 33  15  18  1   
 34  15  40  1   
 35  16  19  1   
 36  16  20  1   
 37  17  41  1   
 38  17  42  1   
 39  17  43  1   
 40  18  19  ar  
 41  18  21  ar  
 42  19  22  ar  
 43  20  44  1   
 44  20  45  1   
 45  20  46  1   
 46  21  23  ar  
 47  21  47  1   
 48  22  24  ar  
 49  22  48  1   
 50  23  24  ar  
 51  23  49  1   
 52  24  25  1   
 53  25  50  1   
 54  25  51  1   
 55  25  52  1   
@<TRIPOS>SUBSTRUCTURE
  1 ****   7 GROUP 4 **** **** 0

# MOE 2024.06 (io_trps.svl 2023.06)
