@<TRIPOS>MOLECULE
NONAME
50 52 1 0 0 
SMALL
USER_CHARGES


@<TRIPOS>ATOM
  1 F        1.5330     0.3640     0.7690 F     1 <1>  -0.1900 
  2 C        2.4220     1.3160     0.7320 C.ar  1 <1>   0.1900 
  3 C        2.1570     2.4530    -0.0040 C.ar  1 <1>  -0.1500 
  4 C        3.6010     1.1600     1.4330 C.ar  1 <1>  -0.1500 
  5 C        3.1060     3.4590    -0.0420 C.ar  1 <1>  -0.1500 
  6 C        4.5390     2.1760     1.3830 C.ar  1 <1>  -0.1500 
  7 C        4.3260     3.3440     0.6400 C.ar  1 <1>   0.0860 
  8 C        5.3500     4.3690     0.6130 C.2   1 <1>   0.4230 
  9 O        6.1310     4.5370     1.5170 O.2   1 <1>  -0.5700 
 10 C        5.5180     5.2970    -0.5830 C.3   1 <1>  -0.0990 
 11 C        6.9100     5.1420    -1.2290 C.3   1 <1>  -0.0990 
 12 C        7.4210     6.4610    -1.7770 C.2   1 <1>   0.5690 
 13 O        7.2280     6.6740    -2.9480 O.2   1 <1>  -0.5700 
 14 N        8.0730     7.3730    -0.9810 N.am  1 <1>  -0.6600 
 15 C        8.1900     7.2450     0.5240 C.3   1 <1>   0.2200 
 16 C        8.6520     8.5850    -1.6520 C.3   1 <1>   0.1400 
 17 C        7.6500     8.4790     1.2640 C.3   1 <1>   0.1200 
 18 C        9.6290     6.9040     0.9760 C.3   1 <1>   0.3430 
 19 C        9.6050     9.4450    -0.8020 C.3   1 <1>  -0.0800 
 20 O        8.6360     9.4530     1.4130 O.3   1 <1>  -0.5600 
 21 N       10.6660     7.2510    -0.0430 N.4   1 <1>  -0.9590 
 22 C        8.8790    10.2380     0.2940 C.3   1 <1>   0.1200 
 23 C       10.8550     8.7190    -0.2750 C.3   1 <1>   0.3430 
 24 C       12.0160     6.6150     0.2620 C.3   1 <1>   0.2370 
 25 C       13.0930     6.8480    -0.8030 C.2   1 <1>   0.9060 
 26 O       13.7070     7.9200    -0.7800 O.co2 1 <1>  -0.9000 
 27 O       13.2080     6.0120    -1.6990 O.co2 1 <1>  -0.9000 
 28 H        1.2230     2.5420    -0.5310 H     1 <1>   0.1500 
 29 H        3.7740     0.2650     2.0030 H     1 <1>   0.1500 
 30 H        2.8780     4.3470    -0.6040 H     1 <1>   0.1500 
 31 H        5.4610     2.0670     1.9300 H     1 <1>   0.1500 
 32 H        4.7750     5.1240    -1.3390 H     1 <1>   0.0800 
 33 H        5.3860     6.3030    -0.2290 H     1 <1>   0.0800 
 34 H        6.8460     4.4340    -2.0360 H     1 <1>   0.0800 
 35 H        7.6310     4.7490    -0.5370 H     1 <1>   0.0800 
 36 H        7.5680     6.4400     0.8590 H     1 <1>   0.0800 
 37 H        9.1850     8.2590    -2.5310 H     1 <1>   0.0800 
 38 H        7.8370     9.1990    -1.9960 H     1 <1>   0.0800 
 39 H        7.3580     8.1890     2.2590 H     1 <1>   0.0800 
 40 H        6.7880     8.8940     0.7700 H     1 <1>   0.0800 
 41 H        9.6720     5.8450     1.1680 H     1 <1>   0.0800 
 42 H        9.8420     7.4090     1.9040 H     1 <1>   0.0800 
 43 H        9.9780    10.1980    -1.4730 H     1 <1>   0.0800 
 44 H       10.3570     6.8610    -0.9480 H     1 <1>   0.4500 
 45 H        7.9480    10.6500    -0.0600 H     1 <1>   0.0800 
 46 H        9.5020    11.0540     0.6200 H     1 <1>   0.0800 
 47 H       11.1890     9.1910     0.6340 H     1 <1>   0.0800 
 48 H       11.6380     8.8510    -1.0060 H     1 <1>   0.0800 
 49 H       12.4010     7.0050     1.1870 H     1 <1>   0.0800 
 50 H       11.9040     5.5510     0.3600 H     1 <1>   0.0800 
@<TRIPOS>BOND
  1   1   2  1   
  2   2   3  ar  
  3   2   4  ar  
  4   3   5  ar  
  5   3  28  1   
  6   4   6  ar  
  7   4  29  1   
  8   5   7  ar  
  9   5  30  1   
 10   6   7  ar  
 11   6  31  1   
 12   7   8  1   
 13   8   9  2   
 14   8  10  1   
 15  10  11  1   
 16  10  32  1   
 17  10  33  1   
 18  11  12  1   
 19  11  34  1   
 20  11  35  1   
 21  12  13  2   
 22  12  14  am  
 23  14  15  1   
 24  14  16  1   
 25  15  17  1   
 26  15  18  1   
 27  15  36  1   
 28  16  19  1   
 29  16  37  1   
 30  16  38  1   
 31  17  20  1   
 32  17  39  1   
 33  17  40  1   
 34  18  21  1   
 35  18  41  1   
 36  18  42  1   
 37  19  22  1   
 38  19  23  1   
 39  19  43  1   
 40  20  22  1   
 41  21  23  1   
 42  21  24  1   
 43  21  44  1   
 44  22  45  1   
 45  22  46  1   
 46  23  47  1   
 47  23  48  1   
 48  24  25  1   
 49  24  49  1   
 50  24  50  1   
 51  25  26  ar  
 52  25  27  ar  
@<TRIPOS>SUBSTRUCTURE
  1 ****  11 GROUP 4 **** **** 0

# MOE 2024.06 (io_trps.svl 2023.06)
