@<TRIPOS>MOLECULE
NONAME
44 46 1 0 0 
SMALL
USER_CHARGES


@<TRIPOS>ATOM
  1 O       -2.0690    -0.2800    -2.7930 O.2   1 <1>  -0.5700 
  2 C       -2.2090    -0.7260    -1.6880 C.2   1 <1>   0.5690 
  3 N       -2.1250     0.0780    -0.6140 N.am  1 <1>  -0.7300 
  4 C       -2.5190    -2.1880    -1.5080 C.3   1 <1>  -0.0190 
  5 C       -2.2800    -0.3440     0.7970 C.3   1 <1>   0.2200 
  6 C       -1.4210    -2.9090    -0.6950 C.3   1 <1>   0.1200 
  7 C       -3.9590    -2.3190    -0.9940 C.3   1 <1>   0.3430 
  8 C       -1.2080    -1.4020     1.1620 C.3   1 <1>   0.1200 
  9 C       -3.7380    -0.8130     1.0680 C.3   1 <1>   0.3430 
 10 O       -1.5190    -2.6890     0.6890 O.3   1 <1>  -0.5600 
 11 N       -4.0910    -2.1620     0.4960 N.4   1 <1>  -0.9590 
 12 C       -5.3750    -2.6980     1.0180 C.3   1 <1>   0.4860 
 13 C       -5.4600    -4.1670     0.6540 C.ar  1 <1>  -0.1430 
 14 C       -4.5400    -5.0700     1.1680 C.ar  1 <1>  -0.1500 
 15 C       -6.4450    -4.6160    -0.2130 C.ar  1 <1>  -0.1500 
 16 C       -4.5860    -6.4070     0.8110 C.ar  1 <1>  -0.1430 
 17 C       -6.5010    -5.9500    -0.5710 C.ar  1 <1>  -0.1500 
 18 C       -5.5700    -6.8540    -0.0660 C.ar  1 <1>   0.0830 
 19 C       -3.5640    -7.3810     1.3820 C.3   1 <1>  -0.0970 
 20 O       -5.5740    -8.1730    -0.3890 O.3   1 <1>  -0.3630 
 21 C       -6.5950    -8.7480    -1.1750 C.3   1 <1>   0.0400 
 22 H       -1.8580     1.0510    -0.8030 H     1 <1>   0.3700 
 23 H       -2.5020    -2.6130    -2.4960 H     1 <1>   0.0800 
 24 H       -2.0970     0.5260     1.4030 H     1 <1>   0.0800 
 25 H       -0.4390    -2.6090    -1.0240 H     1 <1>   0.0800 
 26 H       -1.5090    -3.9720    -0.8450 H     1 <1>   0.0800 
 27 H       -4.3060    -3.3020    -1.2710 H     1 <1>   0.0800 
 28 H       -4.5860    -1.6010    -1.4980 H     1 <1>   0.0800 
 29 H       -1.1390    -1.4790     2.2330 H     1 <1>   0.0800 
 30 H       -0.2380    -1.1150     0.7890 H     1 <1>   0.0800 
 31 H       -4.4160    -0.0670     0.6890 H     1 <1>   0.0800 
 32 H       -3.8680    -0.8550     2.1370 H     1 <1>   0.0800 
 33 H       -3.3470    -2.7950     0.8530 H     1 <1>   0.4500 
 34 H       -5.4140    -2.5980     2.0900 H     1 <1>   0.0800 
 35 H       -6.2060    -2.1610     0.5910 H     1 <1>   0.0800 
 36 H       -3.7750    -4.7430     1.8520 H     1 <1>   0.1500 
 37 H       -7.1780    -3.9390    -0.6180 H     1 <1>   0.1500 
 38 H       -7.2730    -6.2700    -1.2450 H     1 <1>   0.1500 
 39 H       -2.8680    -6.8880     2.0350 H     1 <1>   0.0800 
 40 H       -3.0150    -7.8440     0.5820 H     1 <1>   0.0800 
 41 H       -4.0690    -8.1510     1.9390 H     1 <1>   0.0800 
 42 H       -6.4030    -9.8030    -1.2490 H     1 <1>   0.0800 
 43 H       -6.5740    -8.3040    -2.1540 H     1 <1>   0.0800 
 44 H       -7.5420    -8.5820    -0.6930 H     1 <1>   0.0800 
@<TRIPOS>BOND
  1   1   2  2   
  2   2   3  am  
  3   2   4  1   
  4   3   5  1   
  5   3  22  1   
  6   4   6  1   
  7   4   7  1   
  8   4  23  1   
  9   5   8  1   
 10   5   9  1   
 11   5  24  1   
 12   6  10  1   
 13   6  25  1   
 14   6  26  1   
 15   7  11  1   
 16   7  27  1   
 17   7  28  1   
 18   8  10  1   
 19   8  29  1   
 20   8  30  1   
 21   9  11  1   
 22   9  31  1   
 23   9  32  1   
 24  11  12  1   
 25  11  33  1   
 26  12  13  1   
 27  12  34  1   
 28  12  35  1   
 29  13  14  ar  
 30  13  15  ar  
 31  14  16  ar  
 32  14  36  1   
 33  15  17  ar  
 34  15  37  1   
 35  16  18  ar  
 36  16  19  1   
 37  17  18  ar  
 38  17  38  1   
 39  18  20  1   
 40  19  39  1   
 41  19  40  1   
 42  19  41  1   
 43  20  21  1   
 44  21  42  1   
 45  21  43  1   
 46  21  44  1   
@<TRIPOS>SUBSTRUCTURE
  1 ****  11 GROUP 4 **** **** 0

# MOE 2024.06 (io_trps.svl 2023.06)
