@<TRIPOS>MOLECULE
NONAME
52 56 1 0 0 
SMALL
USER_CHARGES


@<TRIPOS>ATOM
  1 S        0.1190     0.1080     1.8690 S.o2  1 <1>   1.4470 
  2 O       -0.4830    -0.9430     2.6630 O.2   1 <1>  -0.6500 
  3 O        0.3960     1.3740     2.5120 O.2   1 <1>  -0.6500 
  4 N       -0.9520     0.4290     0.5960 N.am  1 <1>  -0.8490 
  5 C        1.5720    -0.5920     1.0250 C.ar  1 <1>  -0.0090 
  6 C       -2.3220     0.6380     1.0970 C.3   1 <1>   0.1960 
  7 C       -0.5360     1.5790    -0.2130 C.3   1 <1>   0.1960 
  8 C        2.7010     0.1950     0.6490 C.ar  1 <1>   0.0000 
  9 C        1.5620    -1.9420     0.7090 C.ar  1 <1>  -0.1500 
 10 C       -3.3430     0.7260    -0.0540 C.3   1 <1>   0.0000 
 11 C       -1.4440     1.7310    -1.4370 C.3   1 <1>  -0.1600 
 12 C        3.7270    -0.4870    -0.0140 C.ar  1 <1>   0.0000 
 13 C        2.9620     1.5770     0.8320 C.ar  1 <1>  -0.1500 
 14 C        2.6130    -2.5890     0.0450 C.ar  1 <1>  -0.1500 
 15 C       -4.7640     0.9180     0.5070 C.3   1 <1>   0.2000 
 16 C       -2.9210     1.8560    -1.0300 C.3   1 <1>  -0.1600 
 17 C       -3.4970    -0.6120    -0.8020 C.3   1 <1>  -0.1600 
 18 C        3.7030    -1.8450    -0.3150 C.ar  1 <1>   0.1170 
 19 C        4.9160     0.0840    -0.4710 C.ar  1 <1>   0.0860 
 20 C        4.1250     2.1680     0.3910 C.ar  1 <1>  -0.1500 
 21 O       -5.0110     2.2480     0.8520 O.3   1 <1>  -0.5600 
 22 C       -5.7080     0.4350    -0.5970 C.3   1 <1>  -0.1600 
 23 C       -4.9060    -0.5940    -1.4080 C.3   1 <1>  -0.1600 
 24 N        4.8930    -2.1370    -0.9660 N.am  1 <1>  -0.5470 
 25 C        5.6420    -1.0010    -1.0750 C.2   1 <1>   0.5440 
 26 C        5.1170     1.4280    -0.2670 C.ar  1 <1>  -0.1500 
 27 C       -6.1490     2.4540     1.6290 C.3   1 <1>   0.0400 
 28 O        6.7330    -0.9770    -1.6080 O.2   1 <1>  -0.5700 
 29 H       -2.6030    -0.1780     1.7400 H     1 <1>   0.0800 
 30 H       -2.3610     1.5440     1.6810 H     1 <1>   0.0800 
 31 H       -0.5730     2.4790     0.3810 H     1 <1>   0.0800 
 32 H        0.4750     1.4410    -0.5540 H     1 <1>   0.0800 
 33 H        0.7050    -2.5380     0.9840 H     1 <1>   0.1500 
 34 H       -1.1520     2.6090    -1.9850 H     1 <1>   0.0800 
 35 H       -1.3020     0.8860    -2.0850 H     1 <1>   0.0800 
 36 H        2.2430     2.1990     1.3310 H     1 <1>   0.1500 
 37 H        2.5590    -3.6410    -0.1730 H     1 <1>   0.1500 
 38 H       -4.8850     0.3010     1.3820 H     1 <1>   0.0800 
 39 H       -3.5440     1.8600    -1.9070 H     1 <1>   0.0800 
 40 H       -3.0470     2.8090    -0.5450 H     1 <1>   0.0800 
 41 H       -2.7410    -0.7690    -1.5500 H     1 <1>   0.0800 
 42 H       -3.4360    -1.4230    -0.0960 H     1 <1>   0.0800 
 43 H        4.2900     3.2210     0.5510 H     1 <1>   0.1500 
 44 H       -6.5920    -0.0100    -0.1780 H     1 <1>   0.0800 
 45 H       -5.9800     1.2590    -1.2330 H     1 <1>   0.0800 
 46 H       -5.3540    -1.5710    -1.3580 H     1 <1>   0.0800 
 47 H       -4.8600    -0.2850    -2.4380 H     1 <1>   0.0800 
 48 H        5.2130    -3.0370    -1.3240 H     1 <1>   0.3700 
 49 H        6.0230     1.9010    -0.6060 H     1 <1>   0.1500 
 50 H       -6.2150     3.5040     1.8490 H     1 <1>   0.0800 
 51 H       -6.0610     1.8970     2.5450 H     1 <1>   0.0800 
 52 H       -7.0200     2.1460     1.0780 H     1 <1>   0.0800 
@<TRIPOS>BOND
  1   1   2  2   
  2   1   3  2   
  3   1   4  am  
  4   1   5  1   
  5   4   6  1   
  6   4   7  1   
  7   5   8  ar  
  8   5   9  ar  
  9   6  10  1   
 10   6  29  1   
 11   6  30  1   
 12   7  11  1   
 13   7  31  1   
 14   7  32  1   
 15   8  12  ar  
 16   8  13  ar  
 17   9  14  ar  
 18   9  33  1   
 19  10  15  1   
 20  10  16  1   
 21  10  17  1   
 22  11  16  1   
 23  11  34  1   
 24  11  35  1   
 25  12  18  ar  
 26  12  19  ar  
 27  13  20  ar  
 28  13  36  1   
 29  14  18  ar  
 30  14  37  1   
 31  15  21  1   
 32  15  22  1   
 33  15  38  1   
 34  16  39  1   
 35  16  40  1   
 36  17  23  1   
 37  17  41  1   
 38  17  42  1   
 39  18  24  1   
 40  19  25  1   
 41  19  26  ar  
 42  20  26  ar  
 43  20  43  1   
 44  21  27  1   
 45  22  23  1   
 46  22  44  1   
 47  22  45  1   
 48  23  46  1   
 49  23  47  1   
 50  24  25  am  
 51  24  48  1   
 52  25  28  2   
 53  26  49  1   
 54  27  50  1   
 55  27  51  1   
 56  27  52  1   
@<TRIPOS>SUBSTRUCTURE
  1 ****   4 GROUP 4 **** **** 0

# MOE 2024.06 (io_trps.svl 2023.06)
