@<TRIPOS>MOLECULE
NONAME
48 50 1 0 0 
SMALL
USER_CHARGES


@<TRIPOS>ATOM
  1 O        2.2510     3.2710     1.2290 O.2   1 <1>  -0.5700 
  2 C        2.9420     2.3000     1.0600 C.2   1 <1>   0.5690 
  3 N        4.2770     2.3430     0.9370 N.am  1 <1>  -0.7300 
  4 C        2.4450     0.8850     0.9560 C.3   1 <1>  -0.0990 
  5 C        4.8810     1.0300     0.6990 C.3   1 <1>   0.3000 
  6 C        3.7510     0.0740     1.1210 C.3   1 <1>  -0.1860 
  7 C        5.2330     0.9490    -0.7990 C.3   1 <1>  -0.1600 
  8 C        6.1290     0.8590     1.5720 C.3   1 <1>  -0.1600 
  9 C        3.8600    -1.2370     0.3830 C.2   1 <1>   0.9060 
 10 C        6.3720     1.8820    -1.1570 C.3   1 <1>   0.3430 
 11 C        7.2640     1.7680     1.1260 C.3   1 <1>   0.3430 
 12 O        3.0280    -1.5290    -0.4750 O.co2 1 <1>  -0.9000 
 13 O        4.8760    -1.9090     0.5890 O.co2 1 <1>  -0.9000 
 14 N        7.5600     1.5410    -0.3190 N.4   1 <1>  -0.9590 
 15 C        8.7780     2.3190    -0.7420 C.3   1 <1>   0.4860 
 16 C        8.4980     3.8100    -0.9780 C.ar  1 <1>   0.1670 
 17 N        7.9250     4.5040    -0.0120 N.ar  1 <1>  -0.6200 
 18 C        8.8200     4.3940    -2.1820 C.ar  1 <1>  -0.1500 
 19 C        7.6690     5.7800    -0.2720 C.ar  1 <1>   0.4770 
 20 C        8.5140     5.7230    -2.3460 C.ar  1 <1>   0.1600 
 21 N        7.9310     6.4200    -1.4010 N.ar  1 <1>  -0.6200 
 22 C        6.9900     6.5790     0.8500 C.3   1 <1>   0.0630 
 23 C        5.5480     6.9590     0.4780 C.3   1 <1>  -0.2400 
 24 C        7.7870     7.8380     1.2320 C.3   1 <1>  -0.2400 
 25 H        4.7790     3.2280     0.9730 H     1 <1>   0.3700 
 26 H        2.0030     0.7390    -0.0130 H     1 <1>   0.0800 
 27 H        1.7300     0.6570     1.7240 H     1 <1>   0.0800 
 28 H        3.8600    -0.1570     2.1630 H     1 <1>   0.0800 
 29 H        4.3650     1.1810    -1.3910 H     1 <1>   0.0800 
 30 H        5.5380    -0.0450    -1.0720 H     1 <1>   0.0800 
 31 H        6.4640    -0.1620     1.5260 H     1 <1>   0.0800 
 32 H        5.8830     1.0650     2.5990 H     1 <1>   0.0800 
 33 H        6.0710     2.9030    -0.9780 H     1 <1>   0.0800 
 34 H        6.6060     1.7710    -2.2030 H     1 <1>   0.0800 
 35 H        8.1390     1.5630     1.7220 H     1 <1>   0.0800 
 36 H        6.9780     2.7940     1.2890 H     1 <1>   0.0800 
 37 H        7.7310     0.5320    -0.4310 H     1 <1>   0.4500 
 38 H        9.1640     1.8980    -1.6550 H     1 <1>   0.0800 
 39 H        9.5430     2.2270     0.0100 H     1 <1>   0.0800 
 40 H        9.2920     3.8490    -2.9780 H     1 <1>   0.1500 
 41 H        8.7460     6.2270    -3.2710 H     1 <1>   0.1500 
 42 H        6.9450     5.9520     1.7230 H     1 <1>   0.0800 
 43 H        5.5420     7.6060    -0.3830 H     1 <1>   0.0800 
 44 H        5.0700     7.4700     1.2950 H     1 <1>   0.0800 
 45 H        4.9780     6.0770     0.2460 H     1 <1>   0.0800 
 46 H        7.8300     8.5230     0.4030 H     1 <1>   0.0800 
 47 H        8.7930     7.5690     1.5040 H     1 <1>   0.0800 
 48 H        7.3270     8.3360     2.0670 H     1 <1>   0.0800 
@<TRIPOS>BOND
  1   1   2  2   
  2   2   3  am  
  3   2   4  1   
  4   3   5  1   
  5   3  25  1   
  6   4   6  1   
  7   4  26  1   
  8   4  27  1   
  9   5   6  1   
 10   5   7  1   
 11   5   8  1   
 12   6   9  1   
 13   6  28  1   
 14   7  10  1   
 15   7  29  1   
 16   7  30  1   
 17   8  11  1   
 18   8  31  1   
 19   8  32  1   
 20   9  12  ar  
 21   9  13  ar  
 22  10  14  1   
 23  10  33  1   
 24  10  34  1   
 25  11  14  1   
 26  11  35  1   
 27  11  36  1   
 28  14  15  1   
 29  14  37  1   
 30  15  16  1   
 31  15  38  1   
 32  15  39  1   
 33  16  17  ar  
 34  16  18  ar  
 35  17  19  ar  
 36  18  20  ar  
 37  18  40  1   
 38  19  21  ar  
 39  19  22  1   
 40  20  21  ar  
 41  20  41  1   
 42  22  23  1   
 43  22  24  1   
 44  22  42  1   
 45  23  43  1   
 46  23  44  1   
 47  23  45  1   
 48  24  46  1   
 49  24  47  1   
 50  24  48  1   
@<TRIPOS>SUBSTRUCTURE
  1 ****  10 GROUP 4 **** **** 0

# MOE 2024.06 (io_trps.svl 2023.06)
