@<TRIPOS>MOLECULE
NONAME
40 42 1 0 0 
SMALL
USER_CHARGES


@<TRIPOS>ATOM
  1 CL       0.1800    -0.0670     1.4500 Cl    1 <1>  -0.1770 
  2 C        0.0760    -1.7600     1.0520 C.ar  1 <1>   0.1770 
  3 C       -0.0400    -2.1400    -0.2700 C.ar  1 <1>  -0.1500 
  4 C        0.1100    -2.7010     2.0670 C.ar  1 <1>  -0.1500 
  5 C       -0.1260    -3.4900    -0.5520 C.ar  1 <1>   0.1900 
  6 C        0.0210    -4.0480     1.7550 C.ar  1 <1>  -0.1500 
  7 F       -0.2290    -3.8360    -1.8050 F     1 <1>  -0.1900 
  8 C       -0.1090    -4.4780     0.4320 C.ar  1 <1>   0.0860 
  9 C       -0.2180    -5.8840     0.1190 C.2   1 <1>   0.5440 
 10 O        0.7590    -6.5900     0.2860 O.2   1 <1>  -0.5700 
 11 N       -1.3980    -6.4590    -0.3150 N.am  1 <1>  -0.6600 
 12 C       -2.6980    -5.7220    -0.2900 C.3   1 <1>   0.2200 
 13 C       -1.4060    -7.8920    -0.7420 C.3   1 <1>   0.0600 
 14 C       -3.8200    -6.4600     0.4380 C.3   1 <1>  -0.1600 
 15 C       -3.2620    -5.4480    -1.6810 C.3   1 <1>  -0.1600 
 16 C       -5.1070    -5.8110    -0.0890 C.3   1 <1>  -0.0800 
 17 C       -4.7530    -5.1760    -1.4460 C.3   1 <1>  -0.0800 
 18 C       -5.6280    -4.6730     0.8000 C.3   1 <1>  -0.1600 
 19 C       -5.0900    -3.6820    -1.3260 C.3   1 <1>  -0.1600 
 20 C       -6.0850    -3.6040    -0.1790 C.3   1 <1>   0.2000 
 21 O       -6.0330    -2.3610     0.4130 O.3   1 <1>  -0.6800 
 22 H       -0.0590    -1.4070    -1.0560 H     1 <1>   0.1500 
 23 H        0.2090    -2.3770     3.0880 H     1 <1>   0.1500 
 24 H        0.0560    -4.7870     2.5380 H     1 <1>   0.1500 
 25 H       -2.5760    -4.7740     0.2030 H     1 <1>   0.0800 
 26 H       -2.1650    -8.0730    -1.4800 H     1 <1>   0.0800 
 27 H       -1.5850    -8.5200     0.1130 H     1 <1>   0.0800 
 28 H       -0.4530    -8.1570    -1.1680 H     1 <1>   0.0800 
 29 H       -3.8350    -7.4980     0.1630 H     1 <1>   0.0800 
 30 H       -3.7230    -6.3790     1.5060 H     1 <1>   0.0800 
 31 H       -2.7650    -4.6230    -2.1600 H     1 <1>   0.0800 
 32 H       -3.1660    -6.3180    -2.3030 H     1 <1>   0.0800 
 33 H       -5.8800    -6.5510    -0.2160 H     1 <1>   0.0800 
 34 H       -5.3470    -5.6190    -2.2290 H     1 <1>   0.0800 
 35 H       -4.8330    -4.2870     1.4150 H     1 <1>   0.0800 
 36 H       -6.4400    -5.0020     1.4240 H     1 <1>   0.0800 
 37 H       -5.5170    -3.3020    -2.2370 H     1 <1>   0.0800 
 38 H       -4.2060    -3.1190    -1.0800 H     1 <1>   0.0800 
 39 H       -7.0890    -3.7910    -0.5210 H     1 <1>   0.0800 
 40 H       -5.1290    -2.1760     0.7230 H     1 <1>   0.4000 
@<TRIPOS>BOND
  1   1   2  1   
  2   2   3  ar  
  3   2   4  ar  
  4   3   5  ar  
  5   3  22  1   
  6   4   6  ar  
  7   4  23  1   
  8   5   7  1   
  9   5   8  ar  
 10   6   8  ar  
 11   6  24  1   
 12   8   9  1   
 13   9  10  2   
 14   9  11  am  
 15  11  12  1   
 16  11  13  1   
 17  12  14  1   
 18  12  15  1   
 19  12  25  1   
 20  13  26  1   
 21  13  27  1   
 22  13  28  1   
 23  14  16  1   
 24  14  29  1   
 25  14  30  1   
 26  15  17  1   
 27  15  31  1   
 28  15  32  1   
 29  16  17  1   
 30  16  18  1   
 31  16  33  1   
 32  17  19  1   
 33  17  34  1   
 34  18  20  1   
 35  18  35  1   
 36  18  36  1   
 37  19  20  1   
 38  19  37  1   
 39  19  38  1   
 40  20  21  1   
 41  20  39  1   
 42  21  40  1   
@<TRIPOS>SUBSTRUCTURE
  1 ****  12 GROUP 4 **** **** 0

# MOE 2024.06 (io_trps.svl 2023.06)
