@<TRIPOS>MOLECULE
NONAME
44 46 1 0 0 
SMALL
USER_CHARGES


@<TRIPOS>ATOM
  1 S       -0.0610    -0.2590     1.6320 S.o2  1 <1>   1.5000 
  2 O       -0.7080    -1.3810     2.2800 O.2   1 <1>  -0.6500 
  3 O        0.3340     0.8800     2.4340 O.2   1 <1>  -0.6500 
  4 N       -1.1440     0.3280     0.4680 N.am  1 <1>  -0.8490 
  5 C        1.3140    -0.8770     0.6310 C.2   1 <1>  -0.0220 
  6 C       -2.4760     0.5560     1.0510 C.3   1 <1>   0.1960 
  7 C       -0.6470     1.5440    -0.1820 C.3   1 <1>   0.1960 
  8 S        2.8350     0.0140     0.6550 S.3   1 <1>  -0.0800 
  9 C        1.4310    -1.9300    -0.2050 C.2   1 <1>  -0.1500 
 10 C       -3.5280     0.9530    -0.0150 C.3   1 <1>   0.0000 
 11 C       -1.5900     1.9640    -1.3120 C.3   1 <1>  -0.1600 
 12 C        3.5810    -1.0950    -0.4810 C.2   1 <1>  -0.1400 
 13 C        2.7110    -2.0570    -0.8330 C.2   1 <1>  -0.1500 
 14 C       -4.8820     1.1910     0.6860 C.3   1 <1>   0.2000 
 15 C       -3.0170     2.1860    -0.7930 C.3   1 <1>  -0.1600 
 16 C       -3.8310    -0.2390    -0.9420 C.3   1 <1>  -0.1600 
 17 C        5.0170    -0.8230    -0.8750 C.3   1 <1>  -0.0600 
 18 O       -5.7240     1.9270    -0.1550 O.3   1 <1>  -0.5600 
 19 C       -5.4840    -0.2060     0.8750 C.3   1 <1>  -0.1600 
 20 C       -4.8620    -1.1010    -0.2060 C.3   1 <1>  -0.1600 
 21 C       -6.7350     2.6340     0.4890 C.3   1 <1>   0.0400 
 22 H       -2.8040    -0.3420     1.5460 H     1 <1>   0.0800 
 23 H       -2.4070     1.3320     1.7950 H     1 <1>   0.0800 
 24 H       -0.5650     2.3420     0.5380 H     1 <1>   0.0800 
 25 H        0.3310     1.3630    -0.5960 H     1 <1>   0.0800 
 26 H        0.6440    -2.6360    -0.4090 H     1 <1>   0.1500 
 27 H       -1.2260     2.8710    -1.7600 H     1 <1>   0.0800 
 28 H       -1.5880     1.2010    -2.0710 H     1 <1>   0.0800 
 29 H        2.9120    -2.8640    -1.5160 H     1 <1>   0.1500 
 30 H       -4.7610     1.7230     1.6150 H     1 <1>   0.0800 
 31 H       -3.6700     2.4070    -1.6190 H     1 <1>   0.0800 
 32 H       -3.0240     3.0410    -0.1390 H     1 <1>   0.0800 
 33 H       -4.2810     0.1250    -1.8500 H     1 <1>   0.0800 
 34 H       -2.9500    -0.8000    -1.1990 H     1 <1>   0.0800 
 35 H        5.3590    -1.5680    -1.5700 H     1 <1>   0.0800 
 36 H        5.6460    -0.8450    -0.0040 H     1 <1>   0.0800 
 37 H        5.0940     0.1450    -1.3370 H     1 <1>   0.0800 
 38 H       -5.2050    -0.5830     1.8430 H     1 <1>   0.0800 
 39 H       -6.5570    -0.1970     0.8090 H     1 <1>   0.0800 
 40 H       -4.3800    -1.9490     0.2500 H     1 <1>   0.0800 
 41 H       -5.6120    -1.4540    -0.8930 H     1 <1>   0.0800 
 42 H       -7.3260     3.1280    -0.2620 H     1 <1>   0.0800 
 43 H       -6.2940     3.3670     1.1420 H     1 <1>   0.0800 
 44 H       -7.3540     1.9530     1.0460 H     1 <1>   0.0800 
@<TRIPOS>BOND
  1   1   2  2   
  2   1   3  2   
  3   1   4  am  
  4   1   5  1   
  5   4   6  1   
  6   4   7  1   
  7   5   8  1   
  8   5   9  2   
  9   6  10  1   
 10   6  22  1   
 11   6  23  1   
 12   7  11  1   
 13   7  24  1   
 14   7  25  1   
 15   8  12  1   
 16   9  13  1   
 17   9  26  1   
 18  10  14  1   
 19  10  15  1   
 20  10  16  1   
 21  11  15  1   
 22  11  27  1   
 23  11  28  1   
 24  12  13  2   
 25  12  17  1   
 26  13  29  1   
 27  14  18  1   
 28  14  19  1   
 29  14  30  1   
 30  15  31  1   
 31  15  32  1   
 32  16  20  1   
 33  16  33  1   
 34  16  34  1   
 35  17  35  1   
 36  17  36  1   
 37  17  37  1   
 38  18  21  1   
 39  19  20  1   
 40  19  38  1   
 41  19  39  1   
 42  20  40  1   
 43  20  41  1   
 44  21  42  1   
 45  21  43  1   
 46  21  44  1   
@<TRIPOS>SUBSTRUCTURE
  1 ****   4 GROUP 4 **** **** 0

# MOE 2024.06 (io_trps.svl 2023.06)
