@<TRIPOS>MOLECULE
NONAME
53 56 1 0 0 
SMALL
USER_CHARGES


@<TRIPOS>ATOM
  1 O       -0.7850     0.2740     0.4920 O.2   1 <1>  -0.5700 
  2 C       -1.6140     0.9660    -0.0660 C.2   1 <1>   0.7150 
  3 N       -2.7270     0.3730    -0.6120 N.am  1 <1>  -0.6600 
  4 C       -1.4320     2.3910    -0.1410 C.2   1 <1>  -0.2370 
  5 C       -4.0900     0.9670    -0.4410 C.3   1 <1>   0.1400 
  6 C       -2.7700    -1.0980    -0.8690 C.3   1 <1>   0.1400 
  7 N       -1.8420     3.1350    -1.2210 N.pl3 1 <1>   0.0330 
  8 C       -0.8460     3.2460     0.7480 C.2   1 <1>  -0.1500 
  9 C       -4.9310     0.1430     0.5580 C.3   1 <1>   0.2950 
 10 C       -3.6780    -1.8100     0.1560 C.3   1 <1>   0.2000 
 11 C       -1.5380     4.4510    -1.0050 C.ar  1 <1>  -0.1520 
 12 C       -0.9080     4.5510     0.2290 C.ar  1 <1>   0.0000 
 13 O       -4.9380    -1.2020     0.1740 O.3   1 <1>  -0.5600 
 14 C       -6.4020     0.5800     0.6790 C.3   1 <1>  -0.1950 
 15 C       -3.9070    -3.2920    -0.1660 C.3   1 <1>  -0.1600 
 16 C       -1.7560     5.5850    -1.7920 C.ar  1 <1>  -0.1500 
 17 C       -0.4880     5.8030     0.6920 C.ar  1 <1>  -0.1500 
 18 C       -7.2650     0.9440    -0.4900 C.3   1 <1>  -0.2000 
 19 C       -6.8640     1.9960     0.5070 C.3   1 <1>  -0.2000 
 20 C       -2.6220    -4.1320    -0.0800 C.3   1 <1>  -0.1600 
 21 C       -1.3380     6.8080    -1.3230 C.ar  1 <1>  -0.1500 
 22 C       -0.7020     6.9240    -0.0780 C.ar  1 <1>  -0.1430 
 23 C       -2.9210    -5.6170    -0.3130 C.3   1 <1>  -0.1600 
 24 C       -0.2590     8.2960     0.3950 C.3   1 <1>  -0.0970 
 25 C       -1.6430    -6.4570    -0.2310 C.3   1 <1>  -0.2400 
 26 H       -4.0160     1.9750    -0.0760 H     1 <1>   0.0800 
 27 H       -4.5830     0.9900    -1.3960 H     1 <1>   0.0800 
 28 H       -3.1490    -1.2730    -1.8600 H     1 <1>   0.0800 
 29 H       -1.7770    -1.5100    -0.8210 H     1 <1>   0.0800 
 30 H       -2.2710     2.7540    -2.0700 H     1 <1>   0.2700 
 31 H       -0.4010     2.9890     1.6930 H     1 <1>   0.1500 
 32 H       -4.4770     0.2080     1.5330 H     1 <1>   0.0800 
 33 H       -3.2480    -1.7230     1.1400 H     1 <1>   0.0800 
 34 H       -6.8840     0.0250     1.4650 H     1 <1>   0.1000 
 35 H       -4.6200    -3.6800     0.5400 H     1 <1>   0.0800 
 36 H       -4.3300    -3.3790    -1.1510 H     1 <1>   0.0800 
 37 H       -2.2420     5.4950    -2.7470 H     1 <1>   0.1500 
 38 H       -0.0030     5.8600     1.6480 H     1 <1>   0.1500 
 39 H       -6.8400     0.9650    -1.4780 H     1 <1>   0.1000 
 40 H       -8.2820     0.5910    -0.4960 H     1 <1>   0.1000 
 41 H       -7.6130     2.3760     1.1810 H     1 <1>   0.1000 
 42 H       -6.1870     2.7660     0.1820 H     1 <1>   0.1000 
 43 H       -1.9130    -3.8000    -0.8180 H     1 <1>   0.0800 
 44 H       -2.1770    -4.0080     0.8930 H     1 <1>   0.0800 
 45 H       -1.4970     7.6930    -1.9140 H     1 <1>   0.1500 
 46 H       -3.6210    -5.9660     0.4270 H     1 <1>   0.0800 
 47 H       -3.3700    -5.7490    -1.2840 H     1 <1>   0.0800 
 48 H        0.4440     8.7140    -0.3030 H     1 <1>   0.0800 
 49 H        0.2120     8.2350     1.3600 H     1 <1>   0.0800 
 50 H       -1.1090     8.9500     0.4690 H     1 <1>   0.0800 
 51 H       -1.1890    -6.3560     0.7390 H     1 <1>   0.0800 
 52 H       -0.9370    -6.1410    -0.9790 H     1 <1>   0.0800 
 53 H       -1.8740    -7.4950    -0.3950 H     1 <1>   0.0800 
@<TRIPOS>BOND
  1   1   2  2   
  2   2   3  am  
  3   2   4  1   
  4   3   5  1   
  5   3   6  1   
  6   4   7  1   
  7   4   8  2   
  8   5   9  1   
  9   5  26  1   
 10   5  27  1   
 11   6  10  1   
 12   6  28  1   
 13   6  29  1   
 14   7  11  1   
 15   7  30  1   
 16   8  12  1   
 17   8  31  1   
 18   9  13  1   
 19   9  14  1   
 20   9  32  1   
 21  10  13  1   
 22  10  15  1   
 23  10  33  1   
 24  11  12  ar  
 25  11  16  ar  
 26  12  17  ar  
 27  14  18  1   
 28  14  19  1   
 29  14  34  1   
 30  15  20  1   
 31  15  35  1   
 32  15  36  1   
 33  16  21  ar  
 34  16  37  1   
 35  17  22  ar  
 36  17  38  1   
 37  18  19  1   
 38  18  39  1   
 39  18  40  1   
 40  19  41  1   
 41  19  42  1   
 42  20  23  1   
 43  20  43  1   
 44  20  44  1   
 45  21  22  ar  
 46  21  45  1   
 47  22  24  1   
 48  23  25  1   
 49  23  46  1   
 50  23  47  1   
 51  24  48  1   
 52  24  49  1   
 53  24  50  1   
 54  25  51  1   
 55  25  52  1   
 56  25  53  1   
@<TRIPOS>SUBSTRUCTURE
  1 ****   3 GROUP 4 **** **** 0

# MOE 2024.06 (io_trps.svl 2023.06)
