@<TRIPOS>MOLECULE
NONAME
39 40 1 0 0 
SMALL
USER_CHARGES


@<TRIPOS>ATOM
  1 O        3.0730    -0.8790     0.3600 O.3   1 <1>  -0.0190 
  2 N        3.0180    -1.5160    -0.7670 N.2   1 <1>  -0.4100 
  3 C        1.9590    -0.2470     0.6090 C.2   1 <1>  -0.0400 
  4 C        1.8200    -1.3680    -1.2120 C.2   1 <1>   0.1080 
  5 C        1.0840    -0.5460    -0.3640 C.2   1 <1>  -0.1500 
  6 C        1.8820     0.6620     1.8170 C.3   1 <1>   0.3890 
  7 C        1.2960    -1.9960    -2.4860 C.3   1 <1>  -0.0590 
  8 N        2.5380     2.0080     1.6250 N.pl3 1 <1>  -0.8380 
  9 C        3.2790     2.5090     0.5820 C.ar  1 <1>   0.7710 
 10 C        2.2310     2.9060     2.7930 C.3   1 <1>   0.1290 
 11 N        3.5730     3.8030     0.5980 N.ar  1 <1>  -0.6200 
 12 N        3.7070     1.7270    -0.4310 N.ar  1 <1>  -0.1790 
 13 C        4.2840     4.3280    -0.3850 C.ar  1 <1>   0.4100 
 14 C        4.4510     2.2070    -1.4520 C.ar  1 <1>   0.2110 
 15 N        4.5450     5.6650    -0.3360 N.pl3 1 <1>  -0.8380 
 16 C        4.7530     3.5250    -1.4420 C.ar  1 <1>  -0.1500 
 17 C        4.9350     6.4910    -1.5110 C.3   1 <1>   0.2090 
 18 C        4.3030     6.4720     0.9020 C.3   1 <1>   0.1290 
 19 C        6.4500     6.6680    -1.5240 C.3   1 <1>  -0.2400 
 20 H        0.0630    -0.2350    -0.5050 H     1 <1>   0.1500 
 21 H        2.3310     0.1620     2.6590 H     1 <1>   0.0800 
 22 H        0.8420     0.8190     2.0480 H     1 <1>   0.0800 
 23 H        2.0910    -2.5050    -3.0020 H     1 <1>   0.0800 
 24 H        0.8880    -1.2420    -3.1330 H     1 <1>   0.0800 
 25 H        0.5280    -2.7110    -2.2500 H     1 <1>   0.0800 
 26 H        1.9640     2.3340     3.6650 H     1 <1>   0.0800 
 27 H        1.4130     3.5620     2.5430 H     1 <1>   0.0800 
 28 H        3.0880     3.5080     3.0470 H     1 <1>   0.0800 
 29 H        3.4560     0.7390    -0.3880 H     1 <1>   0.4570 
 30 H        4.7780     1.5310    -2.2260 H     1 <1>   0.1500 
 31 H        5.3510     3.9620    -2.2170 H     1 <1>   0.1500 
 32 H        4.4550     7.4550    -1.4510 H     1 <1>   0.0800 
 33 H        4.6050     6.0260    -2.4240 H     1 <1>   0.0800 
 34 H        4.4180     5.8630     1.7820 H     1 <1>   0.0800 
 35 H        3.3050     6.8730     0.8830 H     1 <1>   0.0800 
 36 H        5.0070     7.2830     0.9650 H     1 <1>   0.0800 
 37 H        6.7750     7.1890    -0.6420 H     1 <1>   0.0800 
 38 H        6.7400     7.2450    -2.3830 H     1 <1>   0.0800 
 39 H        6.9430     5.7140    -1.5700 H     1 <1>   0.0800 
@<TRIPOS>BOND
  1   1   2  1   
  2   1   3  1   
  3   2   4  2   
  4   3   5  2   
  5   3   6  1   
  6   4   5  1   
  7   4   7  1   
  8   5  20  1   
  9   6   8  1   
 10   6  21  1   
 11   6  22  1   
 12   7  23  1   
 13   7  24  1   
 14   7  25  1   
 15   8   9  1   
 16   8  10  1   
 17   9  11  ar  
 18   9  12  ar  
 19  10  26  1   
 20  10  27  1   
 21  10  28  1   
 22  11  13  ar  
 23  12  14  ar  
 24  12  29  1   
 25  13  15  1   
 26  13  16  ar  
 27  14  16  ar  
 28  14  30  1   
 29  15  17  1   
 30  15  18  1   
 31  16  31  1   
 32  17  19  1   
 33  17  32  1   
 34  17  33  1   
 35  18  34  1   
 36  18  35  1   
 37  18  36  1   
 38  19  37  1   
 39  19  38  1   
 40  19  39  1   
@<TRIPOS>SUBSTRUCTURE
  1 ****  12 GROUP 4 **** **** 0

# MOE 2024.06 (io_trps.svl 2023.06)
