@<TRIPOS>MOLECULE
NONAME
46 47 1 0 0 
SMALL
USER_CHARGES


@<TRIPOS>ATOM
  1 S        1.2140    -0.6550    -0.7630 S.o2  1 <1>   1.3330 
  2 O        2.3740    -1.0240     0.0180 O.2   1 <1>  -0.6500 
  3 O        1.1210    -1.0750    -2.1420 O.2   1 <1>  -0.6500 
  4 N       -0.1630    -1.2590     0.0300 N.am  1 <1>  -0.8490 
  5 C        0.9920     1.1300    -0.6830 C.3   1 <1>  -0.0550 
  6 C        0.0840    -2.5610     0.6570 C.3   1 <1>   0.1160 
  7 C       -1.3450    -1.3460    -0.8360 C.3   1 <1>   0.1160 
  8 C        1.3760     1.8420     0.6350 C.3   1 <1>  -0.0800 
  9 C        2.8800     1.8230     0.9230 C.3   1 <1>   0.2200 
 10 C        0.7480     1.3020     1.9250 C.3   1 <1>   0.1200 
 11 N        3.4000     3.2080     0.9040 N.am  1 <1>  -0.7300 
 12 C        2.9590     1.2340     2.3300 C.3   1 <1>   0.1200 
 13 O        1.7180     1.4950     2.9010 O.3   1 <1>  -0.5600 
 14 C        3.7930     3.8860    -0.2120 C.2   1 <1>   0.7150 
 15 O        3.7080     3.3150    -1.2850 O.2   1 <1>  -0.5700 
 16 C        4.2670     5.2460    -0.1010 C.2   1 <1>   0.0550 
 17 O        4.2860     5.8430     1.0860 O.3   1 <1>  -0.2800 
 18 C        4.7330     6.1160    -1.0240 C.2   1 <1>   0.0460 
 19 C        4.7630     7.0360     0.7930 C.2   1 <1>   0.2980 
 20 N        5.0470     7.2630    -0.4360 N.2   1 <1>  -0.5650 
 21 C        4.9340     5.9770    -2.5200 C.3   1 <1>  -0.0590 
 22 C        4.9250     8.0160     1.9470 C.3   1 <1>   0.0200 
 23 C        5.4900     9.3830     1.5300 C.3   1 <1>  -0.2400 
 24 H        1.5830     1.5710    -1.4630 H     1 <1>   0.0800 
 25 H       -0.0310     1.3580    -0.9080 H     1 <1>   0.0800 
 26 H       -0.8030    -2.9120     1.1560 H     1 <1>   0.0800 
 27 H        0.8690    -2.4750     1.3910 H     1 <1>   0.0800 
 28 H        0.3830    -3.2840    -0.0850 H     1 <1>   0.0800 
 29 H       -2.2050    -1.6420    -0.2600 H     1 <1>   0.0800 
 30 H       -1.1850    -2.0680    -1.6210 H     1 <1>   0.0800 
 31 H       -1.5500    -0.3900    -1.2860 H     1 <1>   0.0800 
 32 H        1.0510     2.8630     0.5400 H     1 <1>   0.0800 
 33 H        3.4420     1.2200     0.2290 H     1 <1>   0.0800 
 34 H        0.5450     0.2480     1.8860 H     1 <1>   0.0800 
 35 H       -0.1430     1.8360     2.2050 H     1 <1>   0.0800 
 36 H        3.3440     3.7200     1.7860 H     1 <1>   0.3700 
 37 H        3.7360     1.6730     2.9300 H     1 <1>   0.0800 
 38 H        3.0850     0.1660     2.2870 H     1 <1>   0.0800 
 39 H        4.6560     5.0000    -2.8680 H     1 <1>   0.0800 
 40 H        5.9670     6.1470    -2.7600 H     1 <1>   0.0800 
 41 H        4.3360     6.7090    -3.0320 H     1 <1>   0.0800 
 42 H        3.9630     8.1570     2.4060 H     1 <1>   0.0800 
 43 H        5.5780     7.5720     2.6760 H     1 <1>   0.0800 
 44 H        4.8380     9.8480     0.8110 H     1 <1>   0.0800 
 45 H        6.4600     9.2600     1.0820 H     1 <1>   0.0800 
 46 H        5.5800    10.0270     2.3860 H     1 <1>   0.0800 
@<TRIPOS>BOND
  1   1   2  2   
  2   1   3  2   
  3   1   4  am  
  4   1   5  1   
  5   4   6  1   
  6   4   7  1   
  7   5   8  1   
  8   5  24  1   
  9   5  25  1   
 10   6  26  1   
 11   6  27  1   
 12   6  28  1   
 13   7  29  1   
 14   7  30  1   
 15   7  31  1   
 16   8   9  1   
 17   8  10  1   
 18   8  32  1   
 19   9  11  1   
 20   9  12  1   
 21   9  33  1   
 22  10  13  1   
 23  10  34  1   
 24  10  35  1   
 25  11  14  am  
 26  11  36  1   
 27  12  13  1   
 28  12  37  1   
 29  12  38  1   
 30  14  15  2   
 31  14  16  1   
 32  16  17  1   
 33  16  18  2   
 34  17  19  1   
 35  18  20  1   
 36  18  21  1   
 37  19  20  2   
 38  19  22  1   
 39  21  39  1   
 40  21  40  1   
 41  21  41  1   
 42  22  23  1   
 43  22  42  1   
 44  22  43  1   
 45  23  44  1   
 46  23  45  1   
 47  23  46  1   
@<TRIPOS>SUBSTRUCTURE
  1 ****  11 GROUP 4 **** **** 0

# MOE 2024.06 (io_trps.svl 2023.06)
