@<TRIPOS>MOLECULE
NONAME
48 49 1 0 0 
SMALL
USER_CHARGES


@<TRIPOS>ATOM
  1 O       -0.1660    -0.5240     0.2990 O.2   1 <1>  -0.5700 
  2 C       -1.1610     0.1480     0.1640 C.2   1 <1>   0.5690 
  3 N       -2.2730    -0.3250    -0.4890 N.am  1 <1>  -0.6600 
  4 C       -1.1130     1.5550     0.7420 C.3   1 <1>  -0.0990 
  5 C       -2.2530    -1.6950    -1.0810 C.3   1 <1>   0.3200 
  6 C       -3.4930     0.4920    -0.7720 C.3   1 <1>   0.1400 
  7 C       -0.5920     2.5780    -0.2850 C.3   1 <1>  -0.1600 
  8 C       -3.3960    -2.5250    -0.5330 C.2   1 <1>  -0.3320 
  9 C       -4.5080     0.4230     0.3780 C.3   1 <1>   0.1200 
 10 C       -0.5030     4.0140     0.2640 C.3   1 <1>  -0.0800 
 11 N       -4.6040    -2.6590    -1.1150 N.pl3 1 <1>   0.0330 
 12 C       -3.4380    -3.2670     0.5950 C.2   1 <1>   0.0770 
 13 O       -5.6120     1.1980     0.0450 O.3   1 <1>  -0.6800 
 14 C       -1.8910     4.6030     0.5870 C.3   1 <1>  -0.1600 
 15 C        0.2290     4.9070    -0.7540 C.3   1 <1>  -0.1600 
 16 C       -5.3060    -3.4680    -0.2940 C.2   1 <1>   0.0060 
 17 N       -4.6400    -3.8560     0.7420 N.2   1 <1>  -0.5650 
 18 C       -1.7940     6.0590     1.0640 C.3   1 <1>  -0.1600 
 19 C        0.3280     6.3600    -0.2700 C.3   1 <1>  -0.1600 
 20 C       -6.7390    -3.8710    -0.5680 C.3   1 <1>  -0.0600 
 21 C       -1.0580     6.9330     0.0430 C.3   1 <1>  -0.1600 
 22 H       -0.4480     1.5420     1.5870 H     1 <1>   0.0800 
 23 H       -2.0800     1.8280     1.1080 H     1 <1>   0.0800 
 24 H       -1.3290    -2.1970    -0.8470 H     1 <1>   0.0800 
 25 H       -2.3190    -1.6260    -2.1520 H     1 <1>   0.0800 
 26 H       -3.9590     0.1330    -1.6730 H     1 <1>   0.0800 
 27 H       -3.2120     1.5150    -0.9360 H     1 <1>   0.0800 
 28 H       -1.2150     2.5680    -1.1620 H     1 <1>   0.0800 
 29 H        0.3910     2.2620    -0.5910 H     1 <1>   0.0800 
 30 H       -4.0950     0.7980     1.2970 H     1 <1>   0.0800 
 31 H       -4.8530    -0.5830     0.5340 H     1 <1>   0.0800 
 32 H        0.0810     3.9980     1.1700 H     1 <1>   0.0800 
 33 H       -4.9410    -2.2350    -1.9840 H     1 <1>   0.2700 
 34 H       -2.6550    -3.4050     1.3220 H     1 <1>   0.1500 
 35 H       -5.4270     2.1490     0.1720 H     1 <1>   0.4000 
 36 H       -2.3700     4.0300     1.3600 H     1 <1>   0.0800 
 37 H       -2.5110     4.5630    -0.2920 H     1 <1>   0.0800 
 38 H       -0.2960     4.8870    -1.6940 H     1 <1>   0.0800 
 39 H        1.2210     4.5270    -0.9230 H     1 <1>   0.0800 
 40 H       -1.2670     6.0910     2.0030 H     1 <1>   0.0800 
 41 H       -2.7820     6.4520     1.2280 H     1 <1>   0.0800 
 42 H        0.8040     6.9600    -1.0270 H     1 <1>   0.0800 
 43 H        0.9400     6.4000     0.6150 H     1 <1>   0.0800 
 44 H       -6.8020    -4.4010    -1.5000 H     1 <1>   0.0800 
 45 H       -7.3660    -2.9990    -0.6070 H     1 <1>   0.0800 
 46 H       -7.0910    -4.5130     0.2190 H     1 <1>   0.0800 
 47 H       -0.9560     7.9320     0.4300 H     1 <1>   0.0800 
 48 H       -1.6350     6.9870    -0.8640 H     1 <1>   0.0800 
@<TRIPOS>BOND
  1   1   2  2   
  2   2   3  am  
  3   2   4  1   
  4   3   5  1   
  5   3   6  1   
  6   4   7  1   
  7   4  22  1   
  8   4  23  1   
  9   5   8  1   
 10   5  24  1   
 11   5  25  1   
 12   6   9  1   
 13   6  26  1   
 14   6  27  1   
 15   7  10  1   
 16   7  28  1   
 17   7  29  1   
 18   8  11  1   
 19   8  12  2   
 20   9  13  1   
 21   9  30  1   
 22   9  31  1   
 23  10  14  1   
 24  10  15  1   
 25  10  32  1   
 26  11  16  1   
 27  11  33  1   
 28  12  17  1   
 29  12  34  1   
 30  13  35  1   
 31  14  18  1   
 32  14  36  1   
 33  14  37  1   
 34  15  19  1   
 35  15  38  1   
 36  15  39  1   
 37  16  17  2   
 38  16  20  1   
 39  18  21  1   
 40  18  40  1   
 41  18  41  1   
 42  19  21  1   
 43  19  42  1   
 44  19  43  1   
 45  20  44  1   
 46  20  45  1   
 47  20  46  1   
 48  21  47  1   
 49  21  48  1   
@<TRIPOS>SUBSTRUCTURE
  1 ****   6 GROUP 4 **** **** 0

# MOE 2024.06 (io_trps.svl 2023.06)
