@<TRIPOS>MOLECULE
NONAME
49 51 1 0 0 
SMALL
USER_CHARGES


@<TRIPOS>ATOM
  1 O        0.8960    -0.5640     1.7830 O.2   1 <1>  -0.5700 
  2 C        1.4900    -0.9840     0.8180 C.2   1 <1>   0.5690 
  3 N        2.2190    -0.1890    -0.0230 N.am  1 <1>  -0.4940 
  4 C        1.4450    -2.4750     0.5210 C.3   1 <1>  -0.0190 
  5 C        2.4890     1.2020     0.0030 C.2   1 <1>  -0.0880 
  6 C       -0.0110    -2.9300     0.3770 C.3   1 <1>   0.2090 
  7 C        2.1710    -3.2990     1.6050 C.3   1 <1>  -0.1600 
  8 N        1.6670     2.2070     0.4200 N.pl3 1 <1>   0.3140 
  9 C        3.6310     1.7990    -0.4190 C.2   1 <1>  -0.1810 
 10 N       -0.0400    -4.3890     0.0700 N.pl3 1 <1>  -0.8380 
 11 C        2.0320    -4.8060     1.3280 C.3   1 <1>  -0.1600 
 12 N        2.2520     3.4150     0.2700 N.2   1 <1>  -0.7070 
 13 C        0.2780     2.1310     0.8910 C.3   1 <1>   0.0160 
 14 C        3.4210     3.1620    -0.2260 C.2   1 <1>   0.1080 
 15 C        4.8870     1.1560    -0.9810 C.3   1 <1>  -0.0590 
 16 C       -1.1650    -4.9030    -0.5480 C.ar  1 <1>   0.4100 
 17 C        0.5670    -5.2160     1.1410 C.3   1 <1>   0.2090 
 18 C        4.4100     4.2690    -0.5440 C.3   1 <1>   0.0210 
 19 N       -2.3320    -4.3320    -0.2690 N.ar  1 <1>  -0.6200 
 20 C       -1.0340    -5.9850    -1.4140 C.ar  1 <1>  -0.1500 
 21 C        4.2540     4.7530    -1.9890 C.3   1 <1>  -0.2400 
 22 C       -3.3890    -4.8590    -0.8640 C.ar  1 <1>   0.1600 
 23 C       -2.1410    -6.5230    -2.0270 C.ar  1 <1>  -0.1500 
 24 C       -3.3540    -5.9330    -1.7350 C.ar  1 <1>  -0.1500 
 25 H        2.7310    -0.6890    -0.7470 H     1 <1>   0.3700 
 26 H        1.9260    -2.6520    -0.4230 H     1 <1>   0.0800 
 27 H       -0.4900    -2.3840    -0.4180 H     1 <1>   0.0800 
 28 H       -0.5550    -2.7450     1.2880 H     1 <1>   0.0800 
 29 H        1.7400    -3.0760     2.5670 H     1 <1>   0.0800 
 30 H        3.2120    -3.0270     1.6380 H     1 <1>   0.0800 
 31 H        2.4530    -5.3640     2.1450 H     1 <1>   0.0800 
 32 H        2.5760    -5.0650     0.4370 H     1 <1>   0.0800 
 33 H       -0.2370     1.3530     0.3620 H     1 <1>   0.0800 
 34 H       -0.2070     3.0720     0.7120 H     1 <1>   0.0800 
 35 H        0.2780     1.9220     1.9440 H     1 <1>   0.0800 
 36 H        4.7920     0.0870    -1.0100 H     1 <1>   0.0800 
 37 H        5.7300     1.4060    -0.3630 H     1 <1>   0.0800 
 38 H        5.0660     1.5150    -1.9790 H     1 <1>   0.0800 
 39 H        0.5070    -6.2600     0.8820 H     1 <1>   0.0800 
 40 H        0.0190    -5.0640     2.0560 H     1 <1>   0.0800 
 41 H        5.4120     3.9190    -0.3790 H     1 <1>   0.0800 
 42 H        4.2340     5.0900     0.1290 H     1 <1>   0.0800 
 43 H       -0.0550    -6.3840    -1.5950 H     1 <1>   0.1500 
 44 H        4.4350     3.9460    -2.6750 H     1 <1>   0.0800 
 45 H        4.9480     5.5490    -2.1920 H     1 <1>   0.0800 
 46 H        3.2530     5.1170    -2.1420 H     1 <1>   0.0800 
 47 H       -4.3400    -4.4060    -0.6440 H     1 <1>   0.1500 
 48 H       -2.0670    -7.3590    -2.7000 H     1 <1>   0.1500 
 49 H       -4.2620    -6.3020    -2.1770 H     1 <1>   0.1500 
@<TRIPOS>BOND
  1   1   2  2   
  2   2   3  am  
  3   2   4  1   
  4   3   5  1   
  5   3  25  1   
  6   4   6  1   
  7   4   7  1   
  8   4  26  1   
  9   5   8  1   
 10   5   9  2   
 11   6  10  1   
 12   6  27  1   
 13   6  28  1   
 14   7  11  1   
 15   7  29  1   
 16   7  30  1   
 17   8  12  1   
 18   8  13  1   
 19   9  14  1   
 20   9  15  1   
 21  10  16  1   
 22  10  17  1   
 23  11  17  1   
 24  11  31  1   
 25  11  32  1   
 26  12  14  2   
 27  13  33  1   
 28  13  34  1   
 29  13  35  1   
 30  14  18  1   
 31  15  36  1   
 32  15  37  1   
 33  15  38  1   
 34  16  19  ar  
 35  16  20  ar  
 36  17  39  1   
 37  17  40  1   
 38  18  21  1   
 39  18  41  1   
 40  18  42  1   
 41  19  22  ar  
 42  20  23  ar  
 43  20  43  1   
 44  21  44  1   
 45  21  45  1   
 46  21  46  1   
 47  22  24  ar  
 48  22  47  1   
 49  23  24  ar  
 50  23  48  1   
 51  24  49  1   
@<TRIPOS>SUBSTRUCTURE
  1 ****   2 GROUP 4 **** **** 0

# MOE 2024.06 (io_trps.svl 2023.06)
