@<TRIPOS>MOLECULE
NONAME
52 55 1 0 0 
SMALL
USER_CHARGES


@<TRIPOS>ATOM
  1 S       -0.1570     0.9340     0.8700 S.3   1 <1>  -0.0800 
  2 C       -1.6190     0.8300    -0.1090 C.2   1 <1>   0.4620 
  3 C        0.7040     1.6010    -0.4900 C.2   1 <1>  -0.1400 
  4 N       -1.4450     1.2530    -1.3100 N.2   1 <1>  -0.5650 
  5 N       -2.7870     0.3300     0.4360 N.pl3 1 <1>  -0.8220 
  6 C       -0.1510     1.6830    -1.5230 C.2   1 <1>   0.0460 
  7 C        2.1640     1.9430    -0.2680 C.3   1 <1>  -0.0600 
  8 C       -4.0230     0.2240    -0.3790 C.3   1 <1>   0.2090 
  9 C       -2.9370    -0.1750     1.8260 C.3   1 <1>   0.2090 
 10 C        0.1470     2.2030    -2.9130 C.3   1 <1>  -0.0590 
 11 C       -4.4310    -1.2450    -0.4610 C.3   1 <1>  -0.1600 
 12 C       -3.3310    -1.6500     1.7700 C.3   1 <1>  -0.1600 
 13 C       -4.6010    -1.8690     0.9350 C.3   1 <1>   0.4240 
 14 O       -5.6160    -1.1640     1.6140 O.3   1 <1>  -0.5600 
 15 C       -4.9250    -3.3760     0.8350 C.ar  1 <1>  -0.1430 
 16 C       -6.9360    -1.5310     1.3620 C.3   1 <1>   0.1200 
 17 C       -6.1390    -3.8840     1.2890 C.ar  1 <1>  -0.1430 
 18 C       -4.0030    -4.2580     0.2820 C.ar  1 <1>  -0.1500 
 19 C       -7.1640    -2.9440     1.8890 C.3   1 <1>  -0.0170 
 20 C       -6.4190    -5.2380     1.1910 C.ar  1 <1>  -0.1500 
 21 C       -4.2690    -5.6130     0.1910 C.ar  1 <1>   0.0820 
 22 C       -5.5000    -6.1070     0.6300 C.ar  1 <1>   0.0820 
 23 O       -3.2990    -6.4080    -0.3230 O.3   1 <1>  -0.3630 
 24 O       -5.8530    -7.4130     0.5310 O.3   1 <1>  -0.3630 
 25 C       -2.7050    -7.3220     0.5720 C.3   1 <1>   0.0400 
 26 C       -5.9910    -7.9270    -0.7750 C.3   1 <1>   0.0400 
 27 H        2.2510     2.6710     0.5180 H     1 <1>   0.0800 
 28 H        2.6030     2.3460    -1.1620 H     1 <1>   0.0800 
 29 H        2.7060     1.0590     0.0150 H     1 <1>   0.0800 
 30 H       -3.8620     0.6130    -1.3700 H     1 <1>   0.0800 
 31 H       -4.8030     0.8030     0.0850 H     1 <1>   0.0800 
 32 H       -3.7030     0.3930     2.3260 H     1 <1>   0.0800 
 33 H       -2.0280    -0.0660     2.3890 H     1 <1>   0.0800 
 34 H        1.1680     2.5190    -2.9980 H     1 <1>   0.0800 
 35 H       -0.4960     3.0360    -3.1280 H     1 <1>   0.0800 
 36 H       -0.0410     1.4260    -3.6320 H     1 <1>   0.0800 
 37 H       -3.6620    -1.7690    -0.9980 H     1 <1>   0.0800 
 38 H       -5.3360    -1.3460    -1.0280 H     1 <1>   0.0800 
 39 H       -3.4940    -2.0230     2.7640 H     1 <1>   0.0800 
 40 H       -2.5090    -2.1950     1.3480 H     1 <1>   0.0800 
 41 H       -7.1250    -1.4760     0.3040 H     1 <1>   0.0800 
 42 H       -7.5760    -0.8310     1.8700 H     1 <1>   0.0800 
 43 H       -3.0560    -3.9070    -0.0860 H     1 <1>   0.1500 
 44 H       -8.1570    -3.2630     1.6330 H     1 <1>   0.0800 
 45 H       -7.0730    -2.9450     2.9610 H     1 <1>   0.0800 
 46 H       -7.3550    -5.6320     1.5420 H     1 <1>   0.1500 
 47 H       -1.9020    -7.8200     0.0600 H     1 <1>   0.0800 
 48 H       -3.4400    -8.0400     0.8880 H     1 <1>   0.0800 
 49 H       -2.3250    -6.7800     1.4190 H     1 <1>   0.0800 
 50 H       -6.3930    -8.9210    -0.7040 H     1 <1>   0.0800 
 51 H       -5.0290    -7.9540    -1.2520 H     1 <1>   0.0800 
 52 H       -6.6640    -7.2950    -1.3280 H     1 <1>   0.0800 
@<TRIPOS>BOND
  1   1   2  1   
  2   1   3  1   
  3   2   4  2   
  4   2   5  1   
  5   3   6  2   
  6   3   7  1   
  7   4   6  1   
  8   5   8  1   
  9   5   9  1   
 10   6  10  1   
 11   7  27  1   
 12   7  28  1   
 13   7  29  1   
 14   8  11  1   
 15   8  30  1   
 16   8  31  1   
 17   9  12  1   
 18   9  32  1   
 19   9  33  1   
 20  10  34  1   
 21  10  35  1   
 22  10  36  1   
 23  11  13  1   
 24  11  37  1   
 25  11  38  1   
 26  12  13  1   
 27  12  39  1   
 28  12  40  1   
 29  13  14  1   
 30  13  15  1   
 31  14  16  1   
 32  15  17  ar  
 33  15  18  ar  
 34  16  19  1   
 35  16  41  1   
 36  16  42  1   
 37  17  19  1   
 38  17  20  ar  
 39  18  21  ar  
 40  18  43  1   
 41  19  44  1   
 42  19  45  1   
 43  20  22  ar  
 44  20  46  1   
 45  21  22  ar  
 46  21  23  1   
 47  22  24  1   
 48  23  25  1   
 49  24  26  1   
 50  25  47  1   
 51  25  48  1   
 52  25  49  1   
 53  26  50  1   
 54  26  51  1   
 55  26  52  1   
@<TRIPOS>SUBSTRUCTURE
  1 ****  13 GROUP 4 **** **** 0

# MOE 2024.06 (io_trps.svl 2023.06)
