@<TRIPOS>MOLECULE
NONAME
50 52 1 0 0 
SMALL
USER_CHARGES


@<TRIPOS>ATOM
  1 O       -0.5270     1.1260    -0.4480 O.2   1 <1>  -0.5700 
  2 C       -0.4910     2.3180    -0.2820 C.2   1 <1>   0.5690 
  3 N       -1.4560     2.9500     0.4190 N.am  1 <1>  -0.7300 
  4 C        0.6310     3.1500    -0.9000 C.3   1 <1>   0.1810 
  5 C       -1.5440     4.4250     0.5650 C.3   1 <1>   0.3640 
  6 O        0.8080     4.3800    -0.2350 O.3   1 <1>  -0.5600 
  7 C       -2.8940     4.8660    -0.0010 C.ar  1 <1>  -0.1440 
  8 C       -0.3690     5.1800    -0.1240 C.3   1 <1>   0.2610 
  9 C       -3.3520     4.3980    -1.2270 C.ar  1 <1>  -0.1500 
 10 C       -3.6860     5.7550     0.7130 C.ar  1 <1>  -0.1500 
 11 C       -0.0520     6.4730     0.6410 C.2   1 <1>   0.5690 
 12 C       -4.5760     4.8070    -1.7260 C.ar  1 <1>  -0.1500 
 13 C       -4.9100     6.1660     0.2150 C.ar  1 <1>  -0.1500 
 14 O       -0.9470     7.2150     0.9720 O.2   1 <1>  -0.5700 
 15 N        1.2450     6.7600     0.9370 N.am  1 <1>  -0.7300 
 16 C       -5.3570     5.6920    -1.0050 C.ar  1 <1>  -0.1500 
 17 C        1.7360     7.9660     1.6310 C.3   1 <1>   0.1400 
 18 C        2.6370     8.7530     0.6810 C.3   1 <1>  -0.1600 
 19 C        3.1200    10.0550     1.3260 C.3   1 <1>   0.0210 
 20 C        4.0000    10.8280     0.3590 C.2   1 <1>  -0.1810 
 21 C        3.5740    11.7530    -0.5930 C.2   1 <1>   0.1080 
 22 C        5.3430    10.7840     0.2190 C.2   1 <1>  -0.3320 
 23 N        4.5590    12.2520    -1.2690 N.2   1 <1>  -0.7070 
 24 C        2.1420    12.1690    -0.8470 C.3   1 <1>  -0.0590 
 25 N        5.6520    11.6530    -0.7670 N.pl3 1 <1>   0.3000 
 26 C        6.3890     9.9650     0.9570 C.3   1 <1>  -0.0600 
 27 H       -2.2410     2.4030     0.7740 H     1 <1>   0.3700 
 28 H        0.4100     3.3470    -1.9340 H     1 <1>   0.0800 
 29 H        1.5550     2.6050    -0.8370 H     1 <1>   0.0800 
 30 H       -1.5190     4.6490     1.6180 H     1 <1>   0.0800 
 31 H       -0.6630     5.4560    -1.1200 H     1 <1>   0.0800 
 32 H       -2.7620     3.7060    -1.8040 H     1 <1>   0.1500 
 33 H       -3.3520     6.1430     1.6610 H     1 <1>   0.1500 
 34 H       -4.9220     4.4370    -2.6750 H     1 <1>   0.1500 
 35 H       -5.5130     6.8580     0.7780 H     1 <1>   0.1500 
 36 H        1.9470     6.0740     0.6400 H     1 <1>   0.3700 
 37 H       -6.3090     6.0120    -1.3910 H     1 <1>   0.1500 
 38 H        0.9020     8.5760     1.9350 H     1 <1>   0.0800 
 39 H        2.2830     7.6730     2.5110 H     1 <1>   0.0800 
 40 H        3.4910     8.1570     0.4120 H     1 <1>   0.0800 
 41 H        2.0890     8.9880    -0.2140 H     1 <1>   0.0800 
 42 H        3.6780     9.8380     2.2190 H     1 <1>   0.0800 
 43 H        2.2790    10.6650     1.6070 H     1 <1>   0.0800 
 44 H        1.5080    11.3040    -0.9020 H     1 <1>   0.0800 
 45 H        2.0790    12.7030    -1.7770 H     1 <1>   0.0800 
 46 H        1.8070    12.8100    -0.0540 H     1 <1>   0.0800 
 47 H        6.5940    11.8580    -1.1200 H     1 <1>   0.2700 
 48 H        5.9240     9.3110     1.6710 H     1 <1>   0.0800 
 49 H        7.0660    10.6170     1.4800 H     1 <1>   0.0800 
 50 H        6.9470     9.3650     0.2610 H     1 <1>   0.0800 
@<TRIPOS>BOND
  1   1   2  2   
  2   2   3  am  
  3   2   4  1   
  4   3   5  1   
  5   3  27  1   
  6   4   6  1   
  7   4  28  1   
  8   4  29  1   
  9   5   7  1   
 10   5   8  1   
 11   5  30  1   
 12   6   8  1   
 13   7   9  ar  
 14   7  10  ar  
 15   8  11  1   
 16   8  31  1   
 17   9  12  ar  
 18   9  32  1   
 19  10  13  ar  
 20  10  33  1   
 21  11  14  2   
 22  11  15  am  
 23  12  16  ar  
 24  12  34  1   
 25  13  16  ar  
 26  13  35  1   
 27  15  17  1   
 28  15  36  1   
 29  16  37  1   
 30  17  18  1   
 31  17  38  1   
 32  17  39  1   
 33  18  19  1   
 34  18  40  1   
 35  18  41  1   
 36  19  20  1   
 37  19  42  1   
 38  19  43  1   
 39  20  21  1   
 40  20  22  2   
 41  21  23  2   
 42  21  24  1   
 43  22  25  1   
 44  22  26  1   
 45  23  25  1   
 46  24  44  1   
 47  24  45  1   
 48  24  46  1   
 49  25  47  1   
 50  26  48  1   
 51  26  49  1   
 52  26  50  1   
@<TRIPOS>SUBSTRUCTURE
  1 ****  11 GROUP 4 **** **** 0

# MOE 2024.06 (io_trps.svl 2023.06)
