@<TRIPOS>MOLECULE
NONAME
55 58 1 0 0 
SMALL
USER_CHARGES


@<TRIPOS>ATOM
  1 O       -0.1750    -0.2820     0.5150 O.2   1 <1>  -0.5700 
  2 C        0.8350     0.3740     0.3940 C.2   1 <1>   0.5690 
  3 N        2.0660    -0.2130     0.2420 N.am  1 <1>  -0.6600 
  4 C        0.6980     1.8870     0.4190 C.3   1 <1>  -0.0990 
  5 C        3.3140     0.5400    -0.0630 C.3   1 <1>   0.1400 
  6 C        2.2000    -1.6930     0.2610 C.3   1 <1>   0.1400 
  7 C        1.8840     2.6180    -0.2230 C.3   1 <1>  -0.1600 
  8 C        3.1930     2.0230     0.3020 C.3   1 <1>  -0.1600 
  9 C        1.9810    -2.2530    -1.1420 C.3   1 <1>  -0.0990 
 10 C        1.7700    -3.7480    -1.0570 C.2   1 <1>   0.5690 
 11 O        2.7430    -4.4570    -1.1460 O.2   1 <1>  -0.5700 
 12 N        0.5170    -4.2580    -0.8600 N.am  1 <1>  -0.6600 
 13 C       -0.7350    -3.4780    -0.6620 C.3   1 <1>   0.1400 
 14 C        0.2600    -5.7070    -0.6820 C.3   1 <1>   0.1400 
 15 C       -1.8150    -4.5260    -0.3830 C.3   1 <1>   0.2000 
 16 C       -1.0670    -5.7760     0.0740 C.3   1 <1>  -0.0800 
 17 O       -2.6950    -4.1110     0.6040 O.3   1 <1>  -0.6800 
 18 C       -1.8620    -7.0670    -0.1770 C.3   1 <1>  -0.0170 
 19 C       -1.0800    -8.2940     0.2590 C.ar  1 <1>   0.1670 
 20 N       -0.3670    -8.9020    -0.6390 N.ar  1 <1>  -0.6200 
 21 C       -1.1590    -8.7050     1.6000 C.ar  1 <1>  -0.1500 
 22 C        0.3420    -9.9930    -0.2510 C.ar  1 <1>   0.3100 
 23 C       -0.4580    -9.7960     2.0160 C.ar  1 <1>  -0.1500 
 24 C        0.3280   -10.4800     1.0750 C.ar  1 <1>   0.0000 
 25 C        1.1260   -10.6670    -1.2010 C.ar  1 <1>  -0.1500 
 26 C        1.0960   -11.6170     1.3950 C.ar  1 <1>  -0.1500 
 27 C        1.8650   -11.7720    -0.8700 C.ar  1 <1>  -0.1500 
 28 C        1.8490   -12.2510     0.4440 C.ar  1 <1>  -0.1500 
 29 H       -0.2110     2.1620    -0.0840 H     1 <1>   0.0800 
 30 H        0.6080     2.1850     1.4470 H     1 <1>   0.0800 
 31 H        4.1380     0.1100     0.4810 H     1 <1>   0.0800 
 32 H        3.5200     0.4460    -1.1160 H     1 <1>   0.0800 
 33 H        3.1710    -1.9790     0.6270 H     1 <1>   0.0800 
 34 H        1.4660    -2.1030     0.9340 H     1 <1>   0.0800 
 35 H        1.8400     2.5030    -1.2930 H     1 <1>   0.0800 
 36 H        1.8330     3.6690     0.0060 H     1 <1>   0.0800 
 37 H        3.2400     2.1290     1.3720 H     1 <1>   0.0800 
 38 H        4.0290     2.5570    -0.1150 H     1 <1>   0.0800 
 39 H        2.8440    -2.0570    -1.7500 H     1 <1>   0.0800 
 40 H        1.1290    -1.7920    -1.6040 H     1 <1>   0.0800 
 41 H       -0.6190    -2.8150     0.1770 H     1 <1>   0.0800 
 42 H       -0.9730    -2.9160    -1.5480 H     1 <1>   0.0800 
 43 H        0.1770    -6.1710    -1.6510 H     1 <1>   0.0800 
 44 H        1.0560    -6.1820    -0.1320 H     1 <1>   0.0800 
 45 H       -2.3780    -4.7160    -1.2810 H     1 <1>   0.0800 
 46 H       -0.8390    -5.6930     1.1230 H     1 <1>   0.0800 
 47 H       -2.2020    -3.7640     1.3730 H     1 <1>   0.4000 
 48 H       -2.0960    -7.1550    -1.2240 H     1 <1>   0.0800 
 49 H       -2.7930    -7.0260     0.3600 H     1 <1>   0.0800 
 50 H       -1.7730    -8.1480     2.2840 H     1 <1>   0.1500 
 51 H       -0.4930   -10.1400     3.0340 H     1 <1>   0.1500 
 52 H        1.1250   -10.2820    -2.2040 H     1 <1>   0.1500 
 53 H        1.0800   -11.9800     2.4070 H     1 <1>   0.1500 
 54 H        2.4620   -12.2780    -1.6090 H     1 <1>   0.1500 
 55 H        2.4350   -13.1200     0.6910 H     1 <1>   0.1500 
@<TRIPOS>BOND
  1   1   2  2   
  2   2   3  am  
  3   2   4  1   
  4   3   5  1   
  5   3   6  1   
  6   4   7  1   
  7   4  29  1   
  8   4  30  1   
  9   5   8  1   
 10   5  31  1   
 11   5  32  1   
 12   6   9  1   
 13   6  33  1   
 14   6  34  1   
 15   7   8  1   
 16   7  35  1   
 17   7  36  1   
 18   8  37  1   
 19   8  38  1   
 20   9  10  1   
 21   9  39  1   
 22   9  40  1   
 23  10  11  2   
 24  10  12  am  
 25  12  13  1   
 26  12  14  1   
 27  13  15  1   
 28  13  41  1   
 29  13  42  1   
 30  14  16  1   
 31  14  43  1   
 32  14  44  1   
 33  15  16  1   
 34  15  17  1   
 35  15  45  1   
 36  16  18  1   
 37  16  46  1   
 38  17  47  1   
 39  18  19  1   
 40  18  48  1   
 41  18  49  1   
 42  19  20  ar  
 43  19  21  ar  
 44  20  22  ar  
 45  21  23  ar  
 46  21  50  1   
 47  22  24  ar  
 48  22  25  ar  
 49  23  24  ar  
 50  23  51  1   
 51  24  26  ar  
 52  25  27  ar  
 53  25  52  1   
 54  26  28  ar  
 55  26  53  1   
 56  27  28  ar  
 57  27  54  1   
 58  28  55  1   
@<TRIPOS>SUBSTRUCTURE
  1 ****  14 GROUP 4 **** **** 0

# MOE 2024.06 (io_trps.svl 2023.06)
