@<TRIPOS>MOLECULE
NONAME
54 57 1 0 0 
SMALL
USER_CHARGES


@<TRIPOS>ATOM
  1 O       -1.9460     0.5060    -3.0170 O.2   1 <1>  -0.5700 
  2 C       -1.6430     0.7850    -1.8820 C.2   1 <1>   0.5690 
  3 N       -1.5390    -0.1610    -0.9170 N.am  1 <1>  -0.7300 
  4 C       -1.3830     2.2470    -1.5010 C.3   1 <1>   0.1710 
  5 C       -1.7220    -1.6180    -1.0890 C.3   1 <1>   0.2200 
  6 N       -0.6260     2.4330    -0.2260 N.3   1 <1>  -0.8100 
  7 C       -2.9390    -2.1140    -0.3220 C.3   1 <1>  -0.0800 
  8 C       -0.6070    -2.3510    -0.3550 C.3   1 <1>   0.1200 
  9 C        0.8060     2.0730    -0.4040 C.3   1 <1>   0.1100 
 10 C       -0.7290     3.8370     0.2410 C.3   1 <1>   0.1100 
 11 C       -2.3910    -2.3260     1.0930 C.3   1 <1>   0.1200 
 12 C       -4.1860    -1.2130    -0.3900 C.3   1 <1>  -0.0160 
 13 O       -0.9970    -2.3790     0.9860 O.3   1 <1>  -0.5600 
 14 C        1.6200     2.2760     0.8880 C.3   1 <1>   0.2090 
 15 C        0.0650     4.0890     1.5380 C.3   1 <1>   0.2090 
 16 C       -5.3580    -1.8540     0.3370 C.ar  1 <1>  -0.1440 
 17 N        1.4920     3.6870     1.3620 N.pl3 1 <1>  -0.8380 
 18 C       -6.1420    -2.8190    -0.2620 C.ar  1 <1>  -0.1500 
 19 C       -5.6990    -1.5070     1.6280 C.ar  1 <1>  -0.1500 
 20 C        2.5000     4.6170     1.2220 C.ar  1 <1>   0.7200 
 21 C       -7.1950    -3.3800     0.4420 C.ar  1 <1>   0.1600 
 22 C       -6.7730    -2.1290     2.2430 C.ar  1 <1>   0.1600 
 23 N        2.3190     5.7980     1.8120 N.ar  1 <1>  -0.6200 
 24 N        3.5660     4.2600     0.5040 N.ar  1 <1>  -0.6200 
 25 N       -7.5280    -3.0590     1.6820 N.ar  1 <1>  -0.6200 
 26 C        3.2860     6.6720     1.6780 C.ar  1 <1>   0.1600 
 27 C        4.5160     5.1540     0.3850 C.ar  1 <1>   0.1600 
 28 C        4.4250     6.3970     0.9630 C.ar  1 <1>  -0.1500 
 29 H       -1.2470     0.1560     0.0150 H     1 <1>   0.3700 
 30 H       -2.3460     2.7170    -1.4090 H     1 <1>   0.0800 
 31 H       -0.8610     2.7270    -2.3100 H     1 <1>   0.0800 
 32 H       -1.7570    -1.8740    -2.1350 H     1 <1>   0.0800 
 33 H       -3.2010    -3.0810    -0.7130 H     1 <1>   0.0800 
 34 H        0.3460    -1.8610    -0.4470 H     1 <1>   0.0800 
 35 H       -0.5330    -3.3690    -0.6960 H     1 <1>   0.0800 
 36 H        0.8910     1.0430    -0.7010 H     1 <1>   0.0800 
 37 H        1.2450     2.6790    -1.1780 H     1 <1>   0.0800 
 38 H       -0.3560     4.5030    -0.5190 H     1 <1>   0.0800 
 39 H       -1.7620     4.0780     0.4190 H     1 <1>   0.0800 
 40 H       -2.7460    -3.2450     1.5260 H     1 <1>   0.0800 
 41 H       -2.6330    -1.5010     1.7390 H     1 <1>   0.0800 
 42 H       -4.4510    -1.0480    -1.4200 H     1 <1>   0.0800 
 43 H       -3.9800    -0.2510     0.0470 H     1 <1>   0.0800 
 44 H        2.6480     2.0130     0.7150 H     1 <1>   0.0800 
 45 H        1.2440     1.6150     1.6490 H     1 <1>   0.0800 
 46 H       -0.3660     3.5120     2.3370 H     1 <1>   0.0800 
 47 H       -0.0200     5.1270     1.8050 H     1 <1>   0.0800 
 48 H       -5.9430    -3.1410    -1.2680 H     1 <1>   0.1500 
 49 H       -5.1420    -0.7600     2.1630 H     1 <1>   0.1500 
 50 H       -7.7950    -4.1320    -0.0410 H     1 <1>   0.1500 
 51 H       -7.0240    -1.8460     3.2510 H     1 <1>   0.1500 
 52 H        3.1670     7.6320     2.1500 H     1 <1>   0.1500 
 53 H        5.3890     4.8900    -0.1860 H     1 <1>   0.1500 
 54 H        5.2110     7.1210     0.8600 H     1 <1>   0.1500 
@<TRIPOS>BOND
  1   1   2  2   
  2   2   3  am  
  3   2   4  1   
  4   3   5  1   
  5   3  29  1   
  6   4   6  1   
  7   4  30  1   
  8   4  31  1   
  9   5   7  1   
 10   5   8  1   
 11   5  32  1   
 12   6   9  1   
 13   6  10  1   
 14   7  11  1   
 15   7  12  1   
 16   7  33  1   
 17   8  13  1   
 18   8  34  1   
 19   8  35  1   
 20   9  14  1   
 21   9  36  1   
 22   9  37  1   
 23  10  15  1   
 24  10  38  1   
 25  10  39  1   
 26  11  13  1   
 27  11  40  1   
 28  11  41  1   
 29  12  16  1   
 30  12  42  1   
 31  12  43  1   
 32  14  17  1   
 33  14  44  1   
 34  14  45  1   
 35  15  17  1   
 36  15  46  1   
 37  15  47  1   
 38  16  18  ar  
 39  16  19  ar  
 40  17  20  1   
 41  18  21  ar  
 42  18  48  1   
 43  19  22  ar  
 44  19  49  1   
 45  20  23  ar  
 46  20  24  ar  
 47  21  25  ar  
 48  21  50  1   
 49  22  25  ar  
 50  22  51  1   
 51  23  26  ar  
 52  24  27  ar  
 53  26  28  ar  
 54  26  52  1   
 55  27  28  ar  
 56  27  53  1   
 57  28  54  1   
@<TRIPOS>SUBSTRUCTURE
  1 ****   6 GROUP 4 **** **** 0

# MOE 2024.06 (io_trps.svl 2023.06)
