@<TRIPOS>MOLECULE
NONAME
43 45 1 0 0 
SMALL
USER_CHARGES


@<TRIPOS>ATOM
  1 CL      -1.6500    -3.4660     0.8030 Cl    1 <1>  -0.1770 
  2 C       -1.9810    -1.8530     0.2180 C.ar  1 <1>   0.1770 
  3 C       -3.1610    -1.2170     0.5770 C.ar  1 <1>  -0.1440 
  4 C       -1.0450    -1.2500    -0.5980 C.ar  1 <1>  -0.1500 
  5 C       -3.3940     0.0780     0.1160 C.ar  1 <1>  -0.1440 
  6 C       -4.1380    -1.9690     1.4600 C.3   1 <1>   0.4870 
  7 C       -1.2890     0.0260    -1.0680 C.ar  1 <1>  -0.1500 
  8 C       -2.4540     0.6810    -0.7090 C.ar  1 <1>  -0.1500 
  9 C       -4.6370     0.8790     0.4880 C.3   1 <1>  -0.0970 
 10 N       -4.8590    -2.9690     0.6320 N.4   1 <1>  -0.9590 
 11 C       -5.7630    -2.3940    -0.4070 C.3   1 <1>   0.3430 
 12 C       -5.6250    -3.9960     1.3720 C.3   1 <1>   0.3430 
 13 C       -6.9030    -3.4040    -0.5920 C.3   1 <1>   0.2000 
 14 C       -6.6010    -4.5800     0.3470 C.3   1 <1>  -0.0800 
 15 O       -8.1020    -2.8150    -0.2090 O.3   1 <1>  -0.6800 
 16 C       -6.0500    -5.8240    -0.3970 C.3   1 <1>  -0.0170 
 17 C       -4.5930    -5.7740    -0.8590 C.ar  1 <1>   0.1670 
 18 N       -4.2170    -4.7350    -1.5920 N.ar  1 <1>  -0.6200 
 19 C       -3.7320    -6.8170    -0.5170 C.ar  1 <1>   0.1600 
 20 C       -2.9530    -4.8270    -1.9830 C.ar  1 <1>   0.1600 
 21 N       -2.4640    -6.8890    -0.8760 N.ar  1 <1>  -0.6200 
 22 C       -2.1030    -5.8680    -1.6320 C.ar  1 <1>   0.1600 
 23 H       -0.1380    -1.7670    -0.8580 H     1 <1>   0.1500 
 24 H       -4.8380    -1.2900     1.9160 H     1 <1>   0.0800 
 25 H       -3.5910    -2.4680     2.2430 H     1 <1>   0.0800 
 26 H       -0.5710     0.5140    -1.7070 H     1 <1>   0.1500 
 27 H       -2.6200     1.6790    -1.0810 H     1 <1>   0.1500 
 28 H       -4.4750     1.9270     0.3060 H     1 <1>   0.0800 
 29 H       -4.8720     0.7710     1.5310 H     1 <1>   0.0800 
 30 H       -5.4780     0.5700    -0.1060 H     1 <1>   0.0800 
 31 H       -4.1470    -3.4890     0.0790 H     1 <1>   0.4500 
 32 H       -6.1680    -1.4490    -0.0910 H     1 <1>   0.0800 
 33 H       -5.2240    -2.2650    -1.3320 H     1 <1>   0.0800 
 34 H       -4.9760    -4.7540     1.7830 H     1 <1>   0.0800 
 35 H       -6.1800    -3.5300     2.1690 H     1 <1>   0.0800 
 36 H       -6.9980    -3.6990    -1.6240 H     1 <1>   0.0800 
 37 H       -7.5030    -4.8940     0.8460 H     1 <1>   0.0800 
 38 H       -8.1900    -2.7040     0.7570 H     1 <1>   0.4000 
 39 H       -6.6650    -6.0160    -1.2600 H     1 <1>   0.0800 
 40 H       -6.1710    -6.6740     0.2510 H     1 <1>   0.0800 
 41 H       -4.1030    -7.6340     0.0780 H     1 <1>   0.1500 
 42 H       -2.5650    -4.0410    -2.6090 H     1 <1>   0.1500 
 43 H       -1.0880    -5.8560    -1.9900 H     1 <1>   0.1500 
@<TRIPOS>BOND
  1   1   2  1   
  2   2   3  ar  
  3   2   4  ar  
  4   3   5  ar  
  5   3   6  1   
  6   4   7  ar  
  7   4  23  1   
  8   5   8  ar  
  9   5   9  1   
 10   6  10  1   
 11   6  24  1   
 12   6  25  1   
 13   7   8  ar  
 14   7  26  1   
 15   8  27  1   
 16   9  28  1   
 17   9  29  1   
 18   9  30  1   
 19  10  11  1   
 20  10  12  1   
 21  10  31  1   
 22  11  13  1   
 23  11  32  1   
 24  11  33  1   
 25  12  14  1   
 26  12  34  1   
 27  12  35  1   
 28  13  14  1   
 29  13  15  1   
 30  13  36  1   
 31  14  16  1   
 32  14  37  1   
 33  15  38  1   
 34  16  17  1   
 35  16  39  1   
 36  16  40  1   
 37  17  18  ar  
 38  17  19  ar  
 39  18  20  ar  
 40  19  21  ar  
 41  19  41  1   
 42  20  22  ar  
 43  20  42  1   
 44  21  22  ar  
 45  22  43  1   
@<TRIPOS>SUBSTRUCTURE
  1 ****  10 GROUP 4 **** **** 0

# MOE 2024.06 (io_trps.svl 2023.06)
