@<TRIPOS>MOLECULE
NONAME
37 38 1 0 0 
SMALL
USER_CHARGES


@<TRIPOS>ATOM
  1 S        1.9480    -0.0950     1.0330 S.3   1 <1>  -0.0800 
  2 C        3.4590     0.3170     0.2560 C.2   1 <1>   0.1980 
  3 C        1.1250     0.9760    -0.0620 C.2   1 <1>  -0.1100 
  4 N        3.3500     1.1540    -0.6960 N.2   1 <1>  -0.5650 
  5 C        4.7120    -0.3460     0.7790 C.3   1 <1>  -0.0600 
  6 C        2.0260     1.5340    -0.8860 C.2   1 <1>   0.0460 
  7 C        1.7240     2.5300    -1.9970 C.3   1 <1>   0.0820 
  8 C        2.2370     3.9250    -1.6880 C.2   1 <1>   0.5690 
  9 O        1.5740     4.8690    -2.0460 O.2   1 <1>  -0.5700 
 10 N        3.4240     4.0400    -1.0220 N.am  1 <1>  -0.4940 
 11 C        4.1410     5.1400    -0.4950 C.2   1 <1>  -0.0880 
 12 N        4.1930     6.4210    -0.9560 N.pl3 1 <1>   0.3140 
 13 C        4.9520     5.0940     0.5890 C.2   1 <1>  -0.1810 
 14 N        5.0160     7.1820    -0.2000 N.2   1 <1>  -0.7070 
 15 C        3.5610     6.9970    -2.1490 C.3   1 <1>   0.0160 
 16 C        5.4600     6.3830     0.7150 C.2   1 <1>   0.1080 
 17 C        5.2390     3.8960     1.4790 C.3   1 <1>   0.0210 
 18 C        6.4230     6.8530     1.7820 C.3   1 <1>  -0.0590 
 19 C        6.4150     3.0890     0.9290 C.3   1 <1>  -0.2400 
 20 H        0.0580     1.0710     0.0320 H     1 <1>   0.1500 
 21 H        4.6180    -1.4130     0.7000 H     1 <1>   0.0800 
 22 H        4.8630    -0.0780     1.8080 H     1 <1>   0.0800 
 23 H        5.5610    -0.0270     0.2030 H     1 <1>   0.0800 
 24 H        0.6620     2.5830    -2.1460 H     1 <1>   0.0800 
 25 H        2.1720     2.1900    -2.9110 H     1 <1>   0.0800 
 26 H        3.7960     3.1230    -0.7370 H     1 <1>   0.3700 
 27 H        3.5920     6.2820    -2.9480 H     1 <1>   0.0800 
 28 H        4.0940     7.8840    -2.4370 H     1 <1>   0.0800 
 29 H        2.5430     7.2460    -1.9180 H     1 <1>   0.0800 
 30 H        4.3640     3.2710     1.5290 H     1 <1>   0.0800 
 31 H        5.4570     4.2310     2.4770 H     1 <1>   0.0800 
 32 H        7.2010     6.1270     1.9250 H     1 <1>   0.0800 
 33 H        5.8940     7.0010     2.7040 H     1 <1>   0.0800 
 34 H        6.8690     7.7840     1.4820 H     1 <1>   0.0800 
 35 H        6.1840     2.7250    -0.0570 H     1 <1>   0.0800 
 36 H        6.6230     2.2510     1.5700 H     1 <1>   0.0800 
 37 H        7.2930     3.7080     0.8690 H     1 <1>   0.0800 
@<TRIPOS>BOND
  1   1   2  1   
  2   1   3  1   
  3   2   4  2   
  4   2   5  1   
  5   3   6  2   
  6   3  20  1   
  7   4   6  1   
  8   5  21  1   
  9   5  22  1   
 10   5  23  1   
 11   6   7  1   
 12   7   8  1   
 13   7  24  1   
 14   7  25  1   
 15   8   9  2   
 16   8  10  am  
 17  10  11  1   
 18  10  26  1   
 19  11  12  1   
 20  11  13  2   
 21  12  14  1   
 22  12  15  1   
 23  13  16  1   
 24  13  17  1   
 25  14  16  2   
 26  15  27  1   
 27  15  28  1   
 28  15  29  1   
 29  16  18  1   
 30  17  19  1   
 31  17  30  1   
 32  17  31  1   
 33  18  32  1   
 34  18  33  1   
 35  18  34  1   
 36  19  35  1   
 37  19  36  1   
 38  19  37  1   
@<TRIPOS>SUBSTRUCTURE
  1 ****  10 GROUP 4 **** **** 0

# MOE 2024.06 (io_trps.svl 2023.06)
