@<TRIPOS>MOLECULE
NONAME
56 59 1 0 0 
SMALL
USER_CHARGES


@<TRIPOS>ATOM
  1 O        0.6230    -1.0630    -3.1010 O.2   1 <1>  -0.5700 
  2 C        0.1310     0.0290    -2.9330 C.2   1 <1>   0.5690 
  3 N       -1.2000     0.1680    -2.6390 N.am  1 <1>  -0.6600 
  4 C        1.0530     1.2380    -2.9810 C.3   1 <1>   0.0820 
  5 C       -1.9760     1.4300    -2.5380 C.3   1 <1>   0.1400 
  6 C       -1.9400    -0.9130    -1.9420 C.3   1 <1>   0.1400 
  7 C        1.1370     1.8990    -1.6070 C.2   1 <1>  -0.1810 
  8 C       -2.7630     1.2870    -1.2390 C.3   1 <1>   0.2000 
  9 C       -3.0600    -0.2160    -1.1550 C.3   1 <1>  -0.0800 
 10 C        1.4800     1.2550    -0.4200 C.2   1 <1>   0.1080 
 11 C        0.8740     3.1730    -1.2390 C.2   1 <1>  -0.3320 
 12 O       -1.9560     1.6980    -0.1860 O.3   1 <1>  -0.6800 
 13 C       -3.2490    -0.7740     0.2680 C.3   1 <1>   0.0210 
 14 N        1.4070     2.0420     0.6000 N.2   1 <1>  -0.7070 
 15 C        1.8920    -0.1940    -0.2650 C.3   1 <1>  -0.0590 
 16 N        1.0320     3.2470     0.1120 N.pl3 1 <1>   0.5930 
 17 C        0.4580     4.3770    -2.0750 C.3   1 <1>  -0.0600 
 18 C       -3.5450    -2.2600     0.2350 C.2   1 <1>   0.1080 
 19 C        0.8020     4.3800     0.9350 C.ar  1 <1>  -0.0230 
 20 N       -4.5600    -2.7660    -0.3970 N.2   1 <1>  -0.7070 
 21 C       -2.7730    -3.2360     0.8560 C.2   1 <1>  -0.1500 
 22 C       -0.4750     4.6550     1.4140 C.ar  1 <1>  -0.1500 
 23 C        1.8440     5.2390     1.2670 C.ar  1 <1>  -0.1500 
 24 N       -4.4610    -4.0930    -0.1910 N.pl3 1 <1>   0.3000 
 25 C       -3.3850    -4.4030     0.5630 C.2   1 <1>  -0.3320 
 26 C       -0.7070     5.7720     2.1980 C.ar  1 <1>  -0.1500 
 27 C        1.6130     6.3550     2.0510 C.ar  1 <1>  -0.1500 
 28 C       -3.0030    -5.8160     0.9650 C.3   1 <1>  -0.0600 
 29 C        0.3370     6.6230     2.5150 C.ar  1 <1>  -0.1500 
 30 H        2.0350     0.9190    -3.2780 H     1 <1>   0.0800 
 31 H        0.6920     1.9240    -3.7210 H     1 <1>   0.0800 
 32 H       -1.3640     2.3110    -2.5350 H     1 <1>   0.0800 
 33 H       -2.6590     1.4780    -3.3680 H     1 <1>   0.0800 
 34 H       -2.3460    -1.6100    -2.6550 H     1 <1>   0.0800 
 35 H       -1.2710    -1.4390    -1.2820 H     1 <1>   0.0800 
 36 H       -3.6570     1.8870    -1.2270 H     1 <1>   0.0800 
 37 H       -3.9720    -0.3930    -1.6980 H     1 <1>   0.0800 
 38 H       -1.0450     1.3460    -0.2980 H     1 <1>   0.4000 
 39 H       -4.0690    -0.2690     0.7460 H     1 <1>   0.0800 
 40 H       -2.3660    -0.6070     0.8580 H     1 <1>   0.0800 
 41 H        2.5120    -0.4980    -1.0870 H     1 <1>   0.0800 
 42 H        1.0200    -0.8200    -0.2280 H     1 <1>   0.0800 
 43 H        2.4460    -0.3190     0.6480 H     1 <1>   0.0800 
 44 H        0.4280     4.1340    -3.1200 H     1 <1>   0.0800 
 45 H        1.1600     5.1810    -1.9350 H     1 <1>   0.0800 
 46 H       -0.5160     4.7170    -1.7720 H     1 <1>   0.0800 
 47 H       -1.8840    -3.0670     1.4360 H     1 <1>   0.1500 
 48 H       -1.2860     3.9880     1.1730 H     1 <1>   0.1500 
 49 H        2.8380     5.0260     0.9120 H     1 <1>   0.1500 
 50 H       -5.1420    -4.7570    -0.5770 H     1 <1>   0.2700 
 51 H       -1.6980     5.9760     2.5630 H     1 <1>   0.1500 
 52 H        2.4260     7.0150     2.3030 H     1 <1>   0.1500 
 53 H       -2.1080    -5.8000     1.5610 H     1 <1>   0.0800 
 54 H       -2.8220    -6.4150     0.0900 H     1 <1>   0.0800 
 55 H       -3.7920    -6.2650     1.5420 H     1 <1>   0.0800 
 56 H        0.1570     7.4910     3.1250 H     1 <1>   0.1500 
@<TRIPOS>BOND
  1   1   2  2   
  2   2   3  am  
  3   2   4  1   
  4   3   5  1   
  5   3   6  1   
  6   4   7  1   
  7   4  30  1   
  8   4  31  1   
  9   5   8  1   
 10   5  32  1   
 11   5  33  1   
 12   6   9  1   
 13   6  34  1   
 14   6  35  1   
 15   7  10  1   
 16   7  11  2   
 17   8   9  1   
 18   8  12  1   
 19   8  36  1   
 20   9  13  1   
 21   9  37  1   
 22  10  14  2   
 23  10  15  1   
 24  11  16  1   
 25  11  17  1   
 26  12  38  1   
 27  13  18  1   
 28  13  39  1   
 29  13  40  1   
 30  14  16  1   
 31  15  41  1   
 32  15  42  1   
 33  15  43  1   
 34  16  19  1   
 35  17  44  1   
 36  17  45  1   
 37  17  46  1   
 38  18  20  2   
 39  18  21  1   
 40  19  22  ar  
 41  19  23  ar  
 42  20  24  1   
 43  21  25  2   
 44  21  47  1   
 45  22  26  ar  
 46  22  48  1   
 47  23  27  ar  
 48  23  49  1   
 49  24  25  1   
 50  24  50  1   
 51  25  28  1   
 52  26  29  ar  
 53  26  51  1   
 54  27  29  ar  
 55  27  52  1   
 56  28  53  1   
 57  28  54  1   
 58  28  55  1   
 59  29  56  1   
@<TRIPOS>SUBSTRUCTURE
  1 ****  12 GROUP 4 **** **** 0

# MOE 2024.06 (io_trps.svl 2023.06)
