@<TRIPOS>MOLECULE
NONAME
36 38 1 0 0 
SMALL
USER_CHARGES


@<TRIPOS>ATOM
  1 CL       0.1420     2.0840    -0.6140 Cl    1 <1>  -0.1770 
  2 C        1.8640     2.2490    -0.3590 C.ar  1 <1>   0.1770 
  3 C        2.3790     3.3210     0.3280 C.ar  1 <1>   0.1600 
  4 C        2.7460     1.3170    -0.8450 C.ar  1 <1>   0.1600 
  5 N        3.6740     3.4620     0.5270 N.ar  1 <1>  -0.6200 
  6 N        4.0440     1.4330    -0.6590 N.ar  1 <1>  -0.6200 
  7 C        4.4520     2.4900     0.0400 C.ar  1 <1>   0.7200 
  8 N        5.8050     2.6170     0.2650 N.pl3 1 <1>  -0.8380 
  9 C        6.3410     3.3160     1.4800 C.3   1 <1>   0.2090 
 10 C        6.8350     1.9090    -0.5570 C.3   1 <1>   0.2090 
 11 C        7.3060     4.5010     1.1800 C.3   1 <1>   0.4230 
 12 C        7.7820     2.9180    -1.2370 C.3   1 <1>  -0.0800 
 13 N        7.1300     5.1890    -0.1670 N.4   1 <1>  -0.9590 
 14 C        8.7800     4.1050     1.4130 C.3   1 <1>   0.1200 
 15 C        9.1920     2.9550    -0.6270 C.3   1 <1>   0.1200 
 16 C        7.1310     4.3020    -1.3870 C.3   1 <1>   0.3430 
 17 C        5.8570     5.9730    -0.1630 C.3   1 <1>   0.2630 
 18 O        9.1410     2.9280     0.7610 O.3   1 <1>  -0.5600 
 19 H        1.7090     4.0680     0.7170 H     1 <1>   0.1500 
 20 H        2.3760     0.4670    -1.3930 H     1 <1>   0.1500 
 21 H        5.5320     3.6900     2.0810 H     1 <1>   0.0800 
 22 H        6.8480     2.5910     2.0950 H     1 <1>   0.0800 
 23 H        7.3850     1.2220     0.0650 H     1 <1>   0.0800 
 24 H        6.3610     1.3210    -1.3250 H     1 <1>   0.0800 
 25 H        7.1020     5.2400     1.9360 H     1 <1>   0.0800 
 26 H        7.9170     2.5550    -2.2400 H     1 <1>   0.0800 
 27 H        7.9120     5.8450    -0.2690 H     1 <1>   0.4500 
 28 H        8.9270     3.9220     2.4630 H     1 <1>   0.0800 
 29 H        9.4530     4.8910     1.1190 H     1 <1>   0.0800 
 30 H        9.7570     3.8130    -0.9510 H     1 <1>   0.0800 
 31 H        9.7290     2.0700    -0.9260 H     1 <1>   0.0800 
 32 H        6.1110     4.1350    -1.6950 H     1 <1>   0.0800 
 33 H        7.6200     4.8260    -2.1920 H     1 <1>   0.0800 
 34 H        5.0130     5.3090    -0.0790 H     1 <1>   0.0800 
 35 H        5.7590     6.5350    -1.0780 H     1 <1>   0.0800 
 36 H        5.8380     6.6600     0.6670 H     1 <1>   0.0800 
@<TRIPOS>BOND
  1   1   2  1   
  2   2   3  ar  
  3   2   4  ar  
  4   3   5  ar  
  5   3  19  1   
  6   4   6  ar  
  7   4  20  1   
  8   5   7  ar  
  9   6   7  ar  
 10   7   8  1   
 11   8   9  1   
 12   8  10  1   
 13   9  11  1   
 14   9  21  1   
 15   9  22  1   
 16  10  12  1   
 17  10  23  1   
 18  10  24  1   
 19  11  13  1   
 20  11  14  1   
 21  11  25  1   
 22  12  15  1   
 23  12  16  1   
 24  12  26  1   
 25  13  16  1   
 26  13  17  1   
 27  13  27  1   
 28  14  18  1   
 29  14  28  1   
 30  14  29  1   
 31  15  18  1   
 32  15  30  1   
 33  15  31  1   
 34  16  32  1   
 35  16  33  1   
 36  17  34  1   
 37  17  35  1   
 38  17  36  1   
@<TRIPOS>SUBSTRUCTURE
  1 ****   8 GROUP 4 **** **** 0

# MOE 2024.06 (io_trps.svl 2023.06)
