@<TRIPOS>MOLECULE
NONAME
48 50 1 0 0 
SMALL
USER_CHARGES


@<TRIPOS>ATOM
  1 S       -2.7100    -0.9490    -1.4800 S.o2  1 <1>   1.3330 
  2 O       -1.9370    -0.2750    -2.4920 O.2   1 <1>  -0.6500 
  3 O       -3.6080    -2.0040    -1.8790 O.2   1 <1>  -0.6500 
  4 N       -1.5480    -1.5610    -0.4340 N.am  1 <1>  -0.9140 
  5 C       -3.5790     0.2870    -0.5370 C.3   1 <1>  -0.1350 
  6 C       -1.8070    -2.6460     0.5030 C.3   1 <1>   0.2760 
  7 C       -2.0210    -4.0110    -0.1650 C.3   1 <1>  -0.1600 
  8 C       -2.9270    -2.3210     1.4920 C.3   1 <1>  -0.1600 
  9 C       -2.1520    -5.0990     0.9060 C.3   1 <1>   0.1400 
 10 C       -3.0170    -3.4230     2.5500 C.3   1 <1>   0.1400 
 11 N       -3.2350    -4.7240     1.8590 N.am  1 <1>  -0.6600 
 12 C       -4.4070    -5.4210     2.0500 C.2   1 <1>   0.5690 
 13 O       -5.1100    -5.1940     3.0110 O.2   1 <1>  -0.5700 
 14 C       -4.9190    -6.4300     1.0110 C.3   1 <1>   0.2610 
 15 O       -4.7130    -7.7720     1.4190 O.3   1 <1>  -0.5600 
 16 C       -6.4130    -6.1460     0.7260 C.3   1 <1>   0.3640 
 17 C       -5.1100    -8.7460     0.4740 C.3   1 <1>   0.1810 
 18 N       -7.0270    -7.2420    -0.0600 N.am  1 <1>  -0.7300 
 19 C       -6.5330    -4.8240    -0.0240 C.ar  1 <1>  -0.1440 
 20 C       -6.4880    -8.4790    -0.1450 C.2   1 <1>   0.5690 
 21 C       -6.7880    -3.6540     0.6820 C.ar  1 <1>   0.1600 
 22 C       -6.3470    -4.7430    -1.3920 C.ar  1 <1>  -0.1500 
 23 O       -7.0700    -9.3610    -0.7240 O.2   1 <1>  -0.5700 
 24 N       -6.8600    -2.4440     0.1500 N.ar  1 <1>  -0.6200 
 25 C       -6.4210    -3.4910    -1.9620 C.ar  1 <1>  -0.1500 
 26 C       -6.6730    -2.3930    -1.1590 C.ar  1 <1>   0.1600 
 27 H       -0.7910    -1.8380    -1.0560 H     1 <1>   0.4200 
 28 H       -2.8810     0.9760    -0.1020 H     1 <1>   0.0800 
 29 H       -4.1600    -0.1620     0.2420 H     1 <1>   0.0800 
 30 H       -4.2420     0.8320    -1.1790 H     1 <1>   0.0800 
 31 H       -0.9070    -2.7380     1.0910 H     1 <1>   0.0800 
 32 H       -2.9180    -4.0230    -0.7540 H     1 <1>   0.0800 
 33 H       -1.1880    -4.2420    -0.8040 H     1 <1>   0.0800 
 34 H       -2.7280    -1.3840     1.9780 H     1 <1>   0.0800 
 35 H       -3.8750    -2.2660     0.9860 H     1 <1>   0.0800 
 36 H       -1.2280    -5.1830     1.4530 H     1 <1>   0.0800 
 37 H       -2.3410    -6.0550     0.4530 H     1 <1>   0.0800 
 38 H       -3.8260    -3.2040     3.2260 H     1 <1>   0.0800 
 39 H       -2.1080    -3.4730     3.1250 H     1 <1>   0.0800 
 40 H       -4.3830    -6.2880     0.0930 H     1 <1>   0.0800 
 41 H       -6.9450    -6.0750     1.6600 H     1 <1>   0.0800 
 42 H       -4.3720    -8.7780    -0.3060 H     1 <1>   0.0800 
 43 H       -5.1240    -9.6970     0.9740 H     1 <1>   0.0800 
 44 H       -7.9600    -7.0830    -0.4430 H     1 <1>   0.3700 
 45 H       -6.9310    -3.7110     1.7490 H     1 <1>   0.1500 
 46 H       -6.1440    -5.6090    -1.9980 H     1 <1>   0.1500 
 47 H       -6.2720    -3.3590    -3.0180 H     1 <1>   0.1500 
 48 H       -6.7180    -1.4220    -1.6220 H     1 <1>   0.1500 
@<TRIPOS>BOND
  1   1   2  2   
  2   1   3  2   
  3   1   4  am  
  4   1   5  1   
  5   4   6  1   
  6   4  27  1   
  7   5  28  1   
  8   5  29  1   
  9   5  30  1   
 10   6   7  1   
 11   6   8  1   
 12   6  31  1   
 13   7   9  1   
 14   7  32  1   
 15   7  33  1   
 16   8  10  1   
 17   8  34  1   
 18   8  35  1   
 19   9  11  1   
 20   9  36  1   
 21   9  37  1   
 22  10  11  1   
 23  10  38  1   
 24  10  39  1   
 25  11  12  am  
 26  12  13  2   
 27  12  14  1   
 28  14  15  1   
 29  14  16  1   
 30  14  40  1   
 31  15  17  1   
 32  16  18  1   
 33  16  19  1   
 34  16  41  1   
 35  17  20  1   
 36  17  42  1   
 37  17  43  1   
 38  18  20  am  
 39  18  44  1   
 40  19  21  ar  
 41  19  22  ar  
 42  20  23  2   
 43  21  24  ar  
 44  21  45  1   
 45  22  25  ar  
 46  22  46  1   
 47  24  26  ar  
 48  25  26  ar  
 49  25  47  1   
 50  26  48  1   
@<TRIPOS>SUBSTRUCTURE
  1 ****  19 GROUP 4 **** **** 0

# MOE 2024.06 (io_trps.svl 2023.06)
