@<TRIPOS>MOLECULE
NONAME
51 53 1 0 0 
SMALL
USER_CHARGES


@<TRIPOS>ATOM
  1 O        0.3480     4.0460    -1.9090 O.3   1 <1>  -0.5600 
  2 C       -0.4430     4.3990    -0.8130 C.3   1 <1>   0.1200 
  3 C        0.0950     2.7630    -2.3980 C.3   1 <1>   0.1200 
  4 C       -0.0860     3.5020     0.3880 C.3   1 <1>  -0.0800 
  5 C        0.4020     1.7220    -1.3120 C.3   1 <1>  -0.1600 
  6 C       -0.3410     2.0400    -0.0070 C.3   1 <1>  -0.1600 
  7 C       -0.8620     3.8890     1.6700 C.3   1 <1>  -0.1600 
  8 C       -0.1490     4.9240     2.5580 C.3   1 <1>   0.2090 
  9 N        0.0270     6.2170     1.8500 N.pl3 1 <1>  -0.8690 
 10 C        1.1250     6.6130     1.1670 C.ar  1 <1>   0.4100 
 11 N        2.2100     5.8770     1.2820 N.ar  1 <1>  -0.6200 
 12 C        1.0640     7.7330     0.3050 C.ar  1 <1>  -0.1430 
 13 C        3.2300     6.1330     0.4790 C.ar  1 <1>   0.7710 
 14 C        2.1250     7.9660    -0.5130 C.ar  1 <1>   0.2180 
 15 C       -0.1790     8.6240     0.2780 C.3   1 <1>  -0.0160 
 16 N        3.1880     7.1360    -0.4110 N.ar  1 <1>  -0.1790 
 17 N        4.3500     5.3590     0.5480 N.pl3 1 <1>  -0.8380 
 18 C        2.1820     9.1010    -1.5300 C.3   1 <1>  -0.0170 
 19 C        0.0620     9.9500    -0.4570 C.3   1 <1>  -0.1600 
 20 C        4.3740     4.1160     1.3890 C.3   1 <1>   0.1290 
 21 C        5.6660     5.6170    -0.1160 C.3   1 <1>   0.1290 
 22 C        0.8000     9.7200    -1.7790 C.3   1 <1>  -0.1600 
 23 H       -1.4790     4.2860    -1.0850 H     1 <1>   0.0800 
 24 H       -0.2600     5.4330    -0.6080 H     1 <1>   0.0800 
 25 H        0.7230     2.6080    -3.2580 H     1 <1>   0.0800 
 26 H       -0.9360     2.7100    -2.7050 H     1 <1>   0.0800 
 27 H        0.9670     3.6070     0.5840 H     1 <1>   0.0800 
 28 H        1.4630     1.7160    -1.1340 H     1 <1>   0.0800 
 29 H        0.1230     0.7440    -1.6630 H     1 <1>   0.0800 
 30 H       -1.3970     1.8820    -0.1490 H     1 <1>   0.0800 
 31 H       -0.0030     1.3770     0.7710 H     1 <1>   0.0800 
 32 H       -0.9860     3.0080     2.2740 H     1 <1>   0.0800 
 33 H       -1.8490     4.2370     1.4220 H     1 <1>   0.0800 
 34 H        0.8070     4.5350     2.8660 H     1 <1>   0.0800 
 35 H       -0.7290     5.0920     3.4500 H     1 <1>   0.0800 
 36 H       -0.8270     6.7760     1.8040 H     1 <1>   0.4000 
 37 H       -0.4960     8.8450     1.2840 H     1 <1>   0.0800 
 38 H       -0.9760     8.0890    -0.2100 H     1 <1>   0.0800 
 39 H        3.9930     7.2060    -1.0150 H     1 <1>   0.4570 
 40 H        2.5710     8.7420    -2.4680 H     1 <1>   0.0800 
 41 H        2.8460     9.8630    -1.1600 H     1 <1>   0.0800 
 42 H        0.6420    10.6080     0.1690 H     1 <1>   0.0800 
 43 H       -0.8840    10.4310    -0.6450 H     1 <1>   0.0800 
 44 H        3.3850     3.7100     1.5190 H     1 <1>   0.0800 
 45 H        4.7860     4.3390     2.3580 H     1 <1>   0.0800 
 46 H        4.9780     3.3580     0.9180 H     1 <1>   0.0800 
 47 H        5.7710     6.6450    -0.4110 H     1 <1>   0.0800 
 48 H        5.7680     4.9830    -0.9820 H     1 <1>   0.0800 
 49 H        6.4680     5.3900     0.5670 H     1 <1>   0.0800 
 50 H        0.2160     9.0620    -2.4010 H     1 <1>   0.0800 
 51 H        0.9100    10.6540    -2.3050 H     1 <1>   0.0800 
@<TRIPOS>BOND
  1   1   2  1   
  2   1   3  1   
  3   2   4  1   
  4   2  23  1   
  5   2  24  1   
  6   3   5  1   
  7   3  25  1   
  8   3  26  1   
  9   4   6  1   
 10   4   7  1   
 11   4  27  1   
 12   5   6  1   
 13   5  28  1   
 14   5  29  1   
 15   6  30  1   
 16   6  31  1   
 17   7   8  1   
 18   7  32  1   
 19   7  33  1   
 20   8   9  1   
 21   8  34  1   
 22   8  35  1   
 23   9  10  1   
 24   9  36  1   
 25  10  11  ar  
 26  10  12  ar  
 27  11  13  ar  
 28  12  14  ar  
 29  12  15  1   
 30  13  16  ar  
 31  13  17  1   
 32  14  16  ar  
 33  14  18  1   
 34  15  19  1   
 35  15  37  1   
 36  15  38  1   
 37  16  39  1   
 38  17  20  1   
 39  17  21  1   
 40  18  22  1   
 41  18  40  1   
 42  18  41  1   
 43  19  22  1   
 44  19  42  1   
 45  19  43  1   
 46  20  44  1   
 47  20  45  1   
 48  20  46  1   
 49  21  47  1   
 50  21  48  1   
 51  21  49  1   
 52  22  50  1   
 53  22  51  1   
@<TRIPOS>SUBSTRUCTURE
  1 ****  10 GROUP 4 **** **** 0

# MOE 2024.06 (io_trps.svl 2023.06)
