@<TRIPOS>MOLECULE
NONAME
48 50 1 0 0 
SMALL
USER_CHARGES


@<TRIPOS>ATOM
  1 S        1.7570     1.1800     0.9080 S.o2  1 <1>   1.4470 
  2 O        2.1600     2.2000    -0.0260 O.2   1 <1>  -0.6500 
  3 O        1.9800     1.3370     2.3230 O.2   1 <1>  -0.6500 
  4 N        0.1080     1.2110     0.7910 N.am  1 <1>  -0.9780 
  5 C        2.1970    -0.4830     0.3280 C.ar  1 <1>  -0.0090 
  6 C        1.8720    -1.6040     1.0840 C.ar  1 <1>  -0.1500 
  7 C        2.8370    -0.6760    -0.8940 C.ar  1 <1>  -0.1500 
  8 C        2.1320    -2.9040     0.6510 C.ar  1 <1>   0.0860 
  9 C        3.1360    -1.9490    -1.3480 C.ar  1 <1>  -0.1500 
 10 C        2.7780    -3.0350    -0.5740 C.ar  1 <1>   0.1900 
 11 C        1.7260    -4.0420     1.4410 C.2   1 <1>   0.5440 
 12 F        3.0590    -4.2230    -1.0310 F     1 <1>  -0.1900 
 13 O        2.2200    -4.1770     2.5450 O.2   1 <1>  -0.5700 
 14 N        0.7950    -4.9720     1.0120 N.am  1 <1>  -0.6600 
 15 C       -0.2320    -4.7560    -0.0640 C.3   1 <1>   0.2200 
 16 C        0.9020    -6.3690     1.5360 C.3   1 <1>   0.0600 
 17 C       -1.5370    -5.5020     0.2380 C.3   1 <1>  -0.1600 
 18 C       -0.7110    -3.3080    -0.2070 C.3   1 <1>  -0.1600 
 19 C       -2.6230    -4.8050    -0.5910 C.3   1 <1>  -0.0800 
 20 C       -2.0900    -3.3860    -0.8670 C.3   1 <1>  -0.0800 
 21 C       -4.0110    -4.8580     0.0760 C.3   1 <1>   0.1400 
 22 C       -3.0370    -2.2590    -0.4120 C.3   1 <1>  -0.0990 
 23 N       -4.9120    -3.8520    -0.5410 N.am  1 <1>  -0.6600 
 24 C       -4.4680    -2.5830    -0.7880 C.2   1 <1>   0.5690 
 25 C       -6.3080    -4.2820    -0.8230 C.3   1 <1>   0.0600 
 26 O       -5.1550    -1.7200    -1.2800 O.2   1 <1>  -0.5700 
 27 H       -0.0650     1.9680     0.1330 H     1 <1>   0.4200 
 28 H       -0.1810     1.5620     1.7020 H     1 <1>   0.4200 
 29 H        1.3890    -1.4740     2.0390 H     1 <1>   0.1500 
 30 H        3.1030     0.1790    -1.4950 H     1 <1>   0.1500 
 31 H        3.6360    -2.0990    -2.2890 H     1 <1>   0.1500 
 32 H        0.1620    -5.0980    -1.0070 H     1 <1>   0.0800 
 33 H        0.8050    -7.0760     0.7310 H     1 <1>   0.0800 
 34 H        0.1320    -6.5450     2.2670 H     1 <1>   0.0800 
 35 H        1.8580    -6.5250     2.0060 H     1 <1>   0.0800 
 36 H       -1.4700    -6.5450    -0.0150 H     1 <1>   0.0800 
 37 H       -1.7620    -5.3960     1.2850 H     1 <1>   0.0800 
 38 H       -0.8000    -2.8680     0.7710 H     1 <1>   0.0800 
 39 H       -0.0520    -2.7210    -0.8200 H     1 <1>   0.0800 
 40 H       -2.6990    -5.3150    -1.5370 H     1 <1>   0.0800 
 41 H       -1.9640    -3.2960    -1.9340 H     1 <1>   0.0800 
 42 H       -3.9290    -4.6350     1.1270 H     1 <1>   0.0800 
 43 H       -4.4260    -5.8450    -0.0290 H     1 <1>   0.0800 
 44 H       -2.7470    -1.3270    -0.8620 H     1 <1>   0.0800 
 45 H       -3.0020    -2.1430     0.6550 H     1 <1>   0.0800 
 46 H       -6.3030    -5.0940    -1.5280 H     1 <1>   0.0800 
 47 H       -6.8760    -3.4680    -1.2400 H     1 <1>   0.0800 
 48 H       -6.7810    -4.6010     0.0890 H     1 <1>   0.0800 
@<TRIPOS>BOND
  1   1   2  2   
  2   1   3  2   
  3   1   4  am  
  4   1   5  1   
  5   4  27  1   
  6   4  28  1   
  7   5   6  ar  
  8   5   7  ar  
  9   6   8  ar  
 10   6  29  1   
 11   7   9  ar  
 12   7  30  1   
 13   8  10  ar  
 14   8  11  1   
 15   9  10  ar  
 16   9  31  1   
 17  10  12  1   
 18  11  13  2   
 19  11  14  am  
 20  14  15  1   
 21  14  16  1   
 22  15  17  1   
 23  15  18  1   
 24  15  32  1   
 25  16  33  1   
 26  16  34  1   
 27  16  35  1   
 28  17  19  1   
 29  17  36  1   
 30  17  37  1   
 31  18  20  1   
 32  18  38  1   
 33  18  39  1   
 34  19  20  1   
 35  19  21  1   
 36  19  40  1   
 37  20  22  1   
 38  20  41  1   
 39  21  23  1   
 40  21  42  1   
 41  21  43  1   
 42  22  24  1   
 43  22  44  1   
 44  22  45  1   
 45  23  24  am  
 46  23  25  1   
 47  24  26  2   
 48  25  46  1   
 49  25  47  1   
 50  25  48  1   
@<TRIPOS>SUBSTRUCTURE
  1 ****  18 GROUP 4 **** **** 0

# MOE 2024.06 (io_trps.svl 2023.06)
