@<TRIPOS>MOLECULE
NONAME
47 49 1 0 0 
SMALL
USER_CHARGES


@<TRIPOS>ATOM
  1 O       -0.5040     0.2890     0.7570 O.2   1 <1>  -0.5700 
  2 C       -1.4730     0.8360     0.2880 C.2   1 <1>   0.5690 
  3 N       -2.5690     0.1200    -0.1010 N.am  1 <1>  -0.6600 
  4 C       -1.4760     2.3500     0.1420 C.3   1 <1>  -0.0990 
  5 C       -3.8860     0.6570    -0.5340 C.3   1 <1>   0.1400 
  6 C       -2.6240    -1.3630    -0.0280 C.3   1 <1>   0.1400 
  7 C       -0.0760     2.9750     0.2180 C.3   1 <1>  -0.0160 
  8 C       -4.8700    -0.4660    -0.2110 C.3   1 <1>   0.2000 
  9 C       -4.0490    -1.7350    -0.4540 C.3   1 <1>  -0.0800 
 10 C       -0.1550     4.4800     0.0110 C.ar  1 <1>  -0.1440 
 11 O       -5.1950    -0.3730     1.1350 O.3   1 <1>  -0.6800 
 12 C       -4.5820    -3.0150     0.2160 C.3   1 <1>   0.0210 
 13 C       -0.0680     5.0140    -1.2670 C.ar  1 <1>  -0.1500 
 14 C       -0.3190     5.3280     1.0970 C.ar  1 <1>  -0.1500 
 15 C       -3.6790    -4.1950    -0.0850 C.2   1 <1>   0.1080 
 16 C       -0.1430     6.3830    -1.4580 C.ar  1 <1>  -0.1500 
 17 C       -0.3950     6.6980     0.9110 C.ar  1 <1>  -0.1500 
 18 N       -3.4430    -4.6130    -1.2900 N.2   1 <1>  -0.7070 
 19 C       -3.0030    -4.9440     0.8730 C.2   1 <1>  -0.1500 
 20 C       -0.3070     7.2200    -0.3690 C.ar  1 <1>   0.0820 
 21 N       -2.6020    -5.6520    -1.1310 N.pl3 1 <1>   0.3000 
 22 C       -2.3190    -5.8710     0.1700 C.2   1 <1>  -0.3320 
 23 O       -0.3780     8.5460    -0.5660 O.3   1 <1>  -0.5330 
 24 C       -1.3980    -6.9680     0.6690 C.3   1 <1>  -0.0600 
 25 H       -1.9110     2.6060    -0.8050 H     1 <1>   0.0800 
 26 H       -2.0900     2.7650     0.9200 H     1 <1>   0.0800 
 27 H       -4.1450     1.5690    -0.0240 H     1 <1>   0.0800 
 28 H       -3.8610     0.8270    -1.5960 H     1 <1>   0.0800 
 29 H       -1.8920    -1.8050    -0.6840 H     1 <1>   0.0800 
 30 H       -2.4250    -1.6740     0.9830 H     1 <1>   0.0800 
 31 H        0.5570     2.5370    -0.5340 H     1 <1>   0.0800 
 32 H        0.3670     2.7630     1.1760 H     1 <1>   0.0800 
 33 H       -5.7760    -0.4210    -0.7900 H     1 <1>   0.0800 
 34 H       -4.0240    -1.9070    -1.5160 H     1 <1>   0.0800 
 35 H       -4.3650    -0.2990     1.6490 H     1 <1>   0.4000 
 36 H       -5.5670    -3.2310    -0.1560 H     1 <1>   0.0800 
 37 H       -4.6490    -2.8870     1.2810 H     1 <1>   0.0800 
 38 H        0.0610     4.3680    -2.1170 H     1 <1>   0.1500 
 39 H       -0.3870     4.9230     2.0910 H     1 <1>   0.1500 
 40 H       -0.0750     6.8050    -2.4440 H     1 <1>   0.1500 
 41 H       -0.5210     7.3460     1.7580 H     1 <1>   0.1500 
 42 H       -3.0360    -4.7930     1.9370 H     1 <1>   0.1500 
 43 H       -2.2400    -6.1870    -1.9290 H     1 <1>   0.2700 
 44 H       -0.4800     9.0490     0.2600 H     1 <1>   0.4500 
 45 H       -1.3340    -6.9370     1.7430 H     1 <1>   0.0800 
 46 H       -0.4100    -6.8380     0.2640 H     1 <1>   0.0800 
 47 H       -1.7740    -7.9320     0.3770 H     1 <1>   0.0800 
@<TRIPOS>BOND
  1   1   2  2   
  2   2   3  am  
  3   2   4  1   
  4   3   5  1   
  5   3   6  1   
  6   4   7  1   
  7   4  25  1   
  8   4  26  1   
  9   5   8  1   
 10   5  27  1   
 11   5  28  1   
 12   6   9  1   
 13   6  29  1   
 14   6  30  1   
 15   7  10  1   
 16   7  31  1   
 17   7  32  1   
 18   8   9  1   
 19   8  11  1   
 20   8  33  1   
 21   9  12  1   
 22   9  34  1   
 23  10  13  ar  
 24  10  14  ar  
 25  11  35  1   
 26  12  15  1   
 27  12  36  1   
 28  12  37  1   
 29  13  16  ar  
 30  13  38  1   
 31  14  17  ar  
 32  14  39  1   
 33  15  18  2   
 34  15  19  1   
 35  16  20  ar  
 36  16  40  1   
 37  17  20  ar  
 38  17  41  1   
 39  18  21  1   
 40  19  22  2   
 41  19  42  1   
 42  20  23  1   
 43  21  22  1   
 44  21  43  1   
 45  22  24  1   
 46  23  44  1   
 47  24  45  1   
 48  24  46  1   
 49  24  47  1   
@<TRIPOS>SUBSTRUCTURE
  1 ****   3 GROUP 4 **** **** 0

# MOE 2024.06 (io_trps.svl 2023.06)
