@<TRIPOS>MOLECULE
NONAME
51 54 1 0 0 
SMALL
USER_CHARGES


@<TRIPOS>ATOM
  1 O       -0.4180     0.9130    -1.8650 O.2   1 <1>  -0.5700 
  2 C       -0.6840     2.1000    -1.7980 C.2   1 <1>   0.5410 
  3 C       -1.6290     2.6130    -0.8760 C.2   1 <1>  -0.1360 
  4 C       -0.0580     3.0580    -2.6400 C.2   1 <1>  -0.1360 
  5 C       -1.9120     3.9440    -0.8050 C.2   1 <1>   0.0910 
  6 C       -0.3740     4.3680    -2.5400 C.2   1 <1>  -0.0620 
  7 O       -1.2790     4.7860    -1.6500 O.3   1 <1>  -0.1530 
  8 C       -2.8730     4.5390     0.1060 C.2   1 <1>   0.6160 
  9 C        0.2240     5.4800    -3.3790 C.3   1 <1>  -0.1020 
 10 O       -3.7340     3.8340     0.6010 O.2   1 <1>  -0.5700 
 11 N       -2.8410     5.8760     0.4340 N.am  1 <1>  -0.6600 
 12 C       -4.0910     6.6410     0.7810 C.3   1 <1>   0.2200 
 13 C       -1.5370     6.5650     0.6820 C.3   1 <1>   0.1400 
 14 C       -3.8410     8.1750     0.9400 C.3   1 <1>   0.1380 
 15 C       -5.2750     6.3120    -0.1520 C.3   1 <1>  -0.1600 
 16 C       -1.5720     7.4360     1.9480 C.3   1 <1>  -0.1600 
 17 C       -3.2680     8.9000    -0.3190 C.2   1 <1>  -0.2760 
 18 C       -5.1900     8.8540     1.3290 C.3   1 <1>   0.1200 
 19 C       -2.8460     8.2910     2.1220 C.3   1 <1>  -0.1600 
 20 C       -6.2900     7.4550    -0.2020 C.3   1 <1>   0.1200 
 21 C       -3.1300     8.3790    -1.5480 C.2   1 <1>  -0.2880 
 22 C       -2.7970    10.3460    -0.1160 C.3   1 <1>  -0.0220 
 23 O       -6.3160     8.0680     1.0450 O.3   1 <1>  -0.5600 
 24 C       -2.5370     9.1160    -2.7410 C.3   1 <1>   0.2580 
 25 C       -2.6150    11.0720    -1.4560 C.3   1 <1>   0.1200 
 26 O       -1.8730    10.2690    -2.3210 O.3   1 <1>  -0.5600 
 27 H       -2.1140     1.8980    -0.2380 H     1 <1>   0.1500 
 28 H        0.6610     2.6770    -3.3390 H     1 <1>   0.1500 
 29 H        0.7060     6.2000    -2.7430 H     1 <1>   0.0800 
 30 H       -0.5510     5.9740    -3.9360 H     1 <1>   0.0800 
 31 H        0.9490     5.0870    -4.0690 H     1 <1>   0.0800 
 32 H       -4.3950     6.2900     1.7540 H     1 <1>   0.0800 
 33 H       -0.7510     5.8370     0.7850 H     1 <1>   0.0800 
 34 H       -1.2950     7.1760    -0.1690 H     1 <1>   0.0800 
 35 H       -5.7750     5.4410     0.2290 H     1 <1>   0.0800 
 36 H       -4.9530     6.0810    -1.1480 H     1 <1>   0.0800 
 37 H       -1.4650     6.7910     2.8020 H     1 <1>   0.0800 
 38 H       -0.7110     8.0810     1.9330 H     1 <1>   0.0800 
 39 H       -5.3200     9.7840     0.8080 H     1 <1>   0.0800 
 40 H       -5.2230     9.0590     2.3840 H     1 <1>   0.0800 
 41 H       -2.5810     9.3140     2.3150 H     1 <1>   0.0800 
 42 H       -3.3410     7.9410     3.0130 H     1 <1>   0.0800 
 43 H       -7.2760     7.0810    -0.4150 H     1 <1>   0.0800 
 44 H       -6.0230     8.1900    -0.9430 H     1 <1>   0.0800 
 45 H       -3.4090     7.3810    -1.8180 H     1 <1>   0.1500 
 46 H       -1.8510    10.3480     0.3950 H     1 <1>   0.0800 
 47 H       -3.4920    10.9100     0.4750 H     1 <1>   0.0800 
 48 H       -3.3050     9.3950    -3.4410 H     1 <1>   0.0800 
 49 H       -1.8120     8.4960    -3.2400 H     1 <1>   0.0800 
 50 H       -2.0780    11.9940    -1.3170 H     1 <1>   0.0800 
 51 H       -3.5660    11.2820    -1.9140 H     1 <1>   0.0800 
@<TRIPOS>BOND
  1   1   2  2   
  2   2   3  1   
  3   2   4  1   
  4   3   5  2   
  5   3  27  1   
  6   4   6  2   
  7   4  28  1   
  8   5   7  1   
  9   5   8  1   
 10   6   7  1   
 11   6   9  1   
 12   8  10  2   
 13   8  11  am  
 14   9  29  1   
 15   9  30  1   
 16   9  31  1   
 17  11  12  1   
 18  11  13  1   
 19  12  14  1   
 20  12  15  1   
 21  12  32  1   
 22  13  16  1   
 23  13  33  1   
 24  13  34  1   
 25  14  17  1   
 26  14  18  1   
 27  14  19  1   
 28  15  20  1   
 29  15  35  1   
 30  15  36  1   
 31  16  19  1   
 32  16  37  1   
 33  16  38  1   
 34  17  21  2   
 35  17  22  1   
 36  18  23  1   
 37  18  39  1   
 38  18  40  1   
 39  19  41  1   
 40  19  42  1   
 41  20  23  1   
 42  20  43  1   
 43  20  44  1   
 44  21  24  1   
 45  21  45  1   
 46  22  25  1   
 47  22  46  1   
 48  22  47  1   
 49  24  26  1   
 50  24  48  1   
 51  24  49  1   
 52  25  26  1   
 53  25  50  1   
 54  25  51  1   
@<TRIPOS>SUBSTRUCTURE
  1 ****  11 GROUP 4 **** **** 0

# MOE 2024.06 (io_trps.svl 2023.06)
