@<TRIPOS>MOLECULE
NONAME
52 55 1 0 0 
SMALL
USER_CHARGES


@<TRIPOS>ATOM
  1 O       -1.3850     1.1420     2.4450 O.2   1 <1>  -0.5700 
  2 C       -2.0690     1.3680     1.4720 C.2   1 <1>   0.5690 
  3 N       -3.2840     0.7360     1.3040 N.am  1 <1>  -0.6600 
  4 C       -1.4810     2.3830     0.4810 C.3   1 <1>  -0.0190 
  5 C       -3.7590    -0.2740     2.2950 C.3   1 <1>   0.1400 
  6 C       -4.2520     0.9140     0.1850 C.3   1 <1>   0.1400 
  7 C       -2.2680     3.7060     0.3940 C.3   1 <1>  -0.1600 
  8 C       -1.1730     1.8050    -0.9150 C.3   1 <1>  -0.1600 
  9 C       -3.9250    -1.6300     1.6020 C.3   1 <1>  -0.1600 
 10 C       -4.4180    -0.4140    -0.5580 C.3   1 <1>  -0.1600 
 11 C       -1.6490     4.6410    -0.6480 C.3   1 <1>   0.1200 
 12 C       -0.6390     2.8950    -1.8480 C.3   1 <1>   0.1200 
 13 C       -4.8660    -1.5480     0.3860 C.3   1 <1>   0.4240 
 14 O       -1.5320     3.9650    -1.8620 O.3   1 <1>  -0.5600 
 15 O       -6.0990    -1.1450     0.9440 O.3   1 <1>  -0.5600 
 16 C       -4.9850    -2.9200    -0.3390 C.ar  1 <1>  -0.1440 
 17 C       -7.2560    -1.3980     0.2180 C.3   1 <1>   0.1200 
 18 C       -3.8800    -3.5540    -0.9240 C.ar  1 <1>   0.0820 
 19 C       -6.2240    -3.5550    -0.4230 C.ar  1 <1>  -0.1440 
 20 C       -7.4580    -2.9040     0.1660 C.3   1 <1>  -0.0170 
 21 O       -2.6660    -2.9430    -0.8760 O.3   1 <1>  -0.3630 
 22 C       -4.0300    -4.7900    -1.5500 C.ar  1 <1>  -0.1500 
 23 C       -6.3600    -4.7850    -1.0450 C.ar  1 <1>  -0.1500 
 24 C       -1.4700    -3.5920    -1.2470 C.3   1 <1>   0.0400 
 25 C       -5.2640    -5.4040    -1.6080 C.ar  1 <1>  -0.1500 
 26 H       -0.5220     2.6540     0.8880 H     1 <1>   0.0800 
 27 H       -4.7010     0.0490     2.7050 H     1 <1>   0.0800 
 28 H       -3.0650    -0.3750     3.1110 H     1 <1>   0.0800 
 29 H       -3.9330     1.6660    -0.5070 H     1 <1>   0.0800 
 30 H       -5.1990     1.2270     0.5900 H     1 <1>   0.0800 
 31 H       -2.2580     4.1890     1.3550 H     1 <1>   0.0800 
 32 H       -3.2950     3.5430     0.1330 H     1 <1>   0.0800 
 33 H       -2.0410     1.3740    -1.3710 H     1 <1>   0.0800 
 34 H       -0.4400     1.0220    -0.8230 H     1 <1>   0.0800 
 35 H       -4.3140    -2.3500     2.2970 H     1 <1>   0.0800 
 36 H       -2.9490    -1.9630     1.3130 H     1 <1>   0.0800 
 37 H       -3.4750    -0.6560    -1.0050 H     1 <1>   0.0800 
 38 H       -5.1220    -0.3040    -1.3590 H     1 <1>   0.0800 
 39 H       -0.6710     4.9760    -0.3440 H     1 <1>   0.0800 
 40 H       -2.2780     5.4990    -0.8080 H     1 <1>   0.0800 
 41 H       -0.5550     2.5220    -2.8550 H     1 <1>   0.0800 
 42 H        0.3250     3.2520    -1.5260 H     1 <1>   0.0800 
 43 H       -7.1600    -0.9820    -0.7690 H     1 <1>   0.0800 
 44 H       -8.0770    -0.9240     0.7270 H     1 <1>   0.0800 
 45 H       -8.3210    -3.1230    -0.4370 H     1 <1>   0.0800 
 46 H       -7.6310    -3.2790     1.1590 H     1 <1>   0.0800 
 47 H       -3.1990    -5.2940    -2.0040 H     1 <1>   0.1500 
 48 H       -7.3210    -5.2660    -1.0940 H     1 <1>   0.1500 
 49 H       -0.6510    -2.9320    -1.0250 H     1 <1>   0.0800 
 50 H       -1.4970    -3.7980    -2.3020 H     1 <1>   0.0800 
 51 H       -1.3730    -4.4990    -0.6760 H     1 <1>   0.0800 
 52 H       -5.3730    -6.3600    -2.0900 H     1 <1>   0.1500 
@<TRIPOS>BOND
  1   1   2  2   
  2   2   3  am  
  3   2   4  1   
  4   3   5  1   
  5   3   6  1   
  6   4   7  1   
  7   4   8  1   
  8   4  26  1   
  9   5   9  1   
 10   5  27  1   
 11   5  28  1   
 12   6  10  1   
 13   6  29  1   
 14   6  30  1   
 15   7  11  1   
 16   7  31  1   
 17   7  32  1   
 18   8  12  1   
 19   8  33  1   
 20   8  34  1   
 21   9  13  1   
 22   9  35  1   
 23   9  36  1   
 24  10  13  1   
 25  10  37  1   
 26  10  38  1   
 27  11  14  1   
 28  11  39  1   
 29  11  40  1   
 30  12  14  1   
 31  12  41  1   
 32  12  42  1   
 33  13  15  1   
 34  13  16  1   
 35  15  17  1   
 36  16  18  ar  
 37  16  19  ar  
 38  17  20  1   
 39  17  43  1   
 40  17  44  1   
 41  18  21  1   
 42  18  22  ar  
 43  19  20  1   
 44  19  23  ar  
 45  20  45  1   
 46  20  46  1   
 47  21  24  1   
 48  22  25  ar  
 49  22  47  1   
 50  23  25  ar  
 51  23  48  1   
 52  24  49  1   
 53  24  50  1   
 54  24  51  1   
 55  25  52  1   
@<TRIPOS>SUBSTRUCTURE
  1 ****  10 GROUP 4 **** **** 0

# MOE 2024.06 (io_trps.svl 2023.06)
