@<TRIPOS>MOLECULE
NONAME
61 64 1 0 0 
SMALL
USER_CHARGES


@<TRIPOS>ATOM
  1 S       -0.4700     0.0580     1.8490 S.o2  1 <1>   1.4470 
  2 O       -0.2570    -1.3470     2.1390 O.2   1 <1>  -0.6500 
  3 O       -1.1390     0.8820     2.8280 O.2   1 <1>  -0.6500 
  4 N       -1.3980     0.0940     0.4170 N.am  1 <1>  -0.8490 
  5 C        1.0960     0.8270     1.3550 C.ar  1 <1>  -0.0090 
  6 C       -1.3460    -1.1430    -0.3760 C.3   1 <1>   0.1960 
  7 C       -2.7680     0.6100     0.5620 C.3   1 <1>   0.1960 
  8 C        1.1220     1.9620     0.5540 C.ar  1 <1>  -0.1500 
  9 C        2.3140     0.3200     1.7910 C.ar  1 <1>  -0.1500 
 10 C       -2.2600    -2.2600     0.2110 C.3   1 <1>   0.4230 
 11 C       -3.6850    -0.4500     1.1910 C.3   1 <1>  -0.1600 
 12 C        2.3160     2.5540     0.1780 C.ar  1 <1>  -0.1440 
 13 C        3.5110     0.9050     1.4170 C.ar  1 <1>  -0.1500 
 14 N       -2.1290    -3.6100    -0.4810 N.4   1 <1>  -0.9590 
 15 C       -3.7280    -1.7790     0.3860 C.3   1 <1>   0.0000 
 16 C        3.5350     2.0140     0.5790 C.ar  1 <1>   0.1170 
 17 C        2.3310     3.8330    -0.6390 C.3   1 <1>  -0.0170 
 18 C       -3.2580    -4.5550    -0.1900 C.3   1 <1>   0.3430 
 19 C       -1.8650    -3.5670    -1.9570 C.3   1 <1>   0.2630 
 20 C       -4.5200    -2.8390     1.2070 C.3   1 <1>  -0.1600 
 21 C       -4.3930    -1.5600    -1.0020 C.3   1 <1>   0.1200 
 22 N        4.7440     2.6110     0.1520 N.am  1 <1>  -0.4770 
 23 C        3.3830     4.7540    -0.0150 C.3   1 <1>  -0.1600 
 24 C       -3.8980    -4.2480     1.1630 C.3   1 <1>  -0.1600 
 25 O       -5.6090    -0.9070    -0.8900 O.3   1 <1>  -0.6800 
 26 C        5.8760     1.9400    -0.2680 C.2   1 <1>   0.5690 
 27 C        4.7750     4.1010    -0.0070 C.3   1 <1>   0.1400 
 28 O        6.9320     2.5040    -0.4300 O.2   1 <1>  -0.5700 
 29 C        5.8400     0.4620    -0.5930 C.3   1 <1>  -0.1790 
 30 H       -1.6480    -0.9060    -1.3800 H     1 <1>   0.0800 
 31 H       -0.3270    -1.4910    -0.4140 H     1 <1>   0.0800 
 32 H       -2.7720     1.5060     1.1610 H     1 <1>   0.0800 
 33 H       -3.1490     0.8860    -0.4080 H     1 <1>   0.0800 
 34 H        0.1890     2.3930     0.2300 H     1 <1>   0.1500 
 35 H        2.3280    -0.5410     2.4380 H     1 <1>   0.1500 
 36 H       -1.9110    -2.4200     1.2160 H     1 <1>   0.0800 
 37 H       -3.3420    -0.6320     2.1950 H     1 <1>   0.0800 
 38 H       -4.6730    -0.0330     1.2860 H     1 <1>   0.0800 
 39 H        4.4330     0.5010     1.7910 H     1 <1>   0.1500 
 40 H       -1.2970    -4.0340    -0.0400 H     1 <1>   0.4500 
 41 H        2.5860     3.6110    -1.6600 H     1 <1>   0.0800 
 42 H        1.3670     4.3120    -0.6190 H     1 <1>   0.0800 
 43 H       -4.0150    -4.4640    -0.9530 H     1 <1>   0.0800 
 44 H       -2.8980    -5.5710    -0.2020 H     1 <1>   0.0800 
 45 H       -2.6880    -3.1020    -2.4750 H     1 <1>   0.0800 
 46 H       -1.7400    -4.5670    -2.3420 H     1 <1>   0.0800 
 47 H       -0.9650    -3.0120    -2.1660 H     1 <1>   0.0800 
 48 H       -4.5790    -2.5480     2.2440 H     1 <1>   0.0800 
 49 H       -5.5360    -2.8930     0.8570 H     1 <1>   0.0800 
 50 H       -4.5760    -2.4920    -1.5050 H     1 <1>   0.0800 
 51 H       -3.7830    -0.9460    -1.6400 H     1 <1>   0.0800 
 52 H        3.0990     4.9730     1.0000 H     1 <1>   0.0800 
 53 H        3.4270     5.6860    -0.5480 H     1 <1>   0.0800 
 54 H       -4.6630    -4.9770     1.3670 H     1 <1>   0.0800 
 55 H       -3.1540    -4.3490     1.9350 H     1 <1>   0.0800 
 56 H       -6.2600    -1.4200    -0.3710 H     1 <1>   0.4000 
 57 H        5.3750     4.5250     0.7790 H     1 <1>   0.0800 
 58 H        5.2580     4.3270    -0.9430 H     1 <1>   0.0800 
 59 H        4.8710     0.1740    -0.9530 H     1 <1>   0.0800 
 60 H        6.0940    -0.1080     0.2790 H     1 <1>   0.0800 
 61 H        6.5630     0.2520    -1.3600 H     1 <1>   0.0800 
@<TRIPOS>BOND
  1   1   2  2   
  2   1   3  2   
  3   1   4  am  
  4   1   5  1   
  5   4   6  1   
  6   4   7  1   
  7   5   8  ar  
  8   5   9  ar  
  9   6  10  1   
 10   6  30  1   
 11   6  31  1   
 12   7  11  1   
 13   7  32  1   
 14   7  33  1   
 15   8  12  ar  
 16   8  34  1   
 17   9  13  ar  
 18   9  35  1   
 19  10  14  1   
 20  10  15  1   
 21  10  36  1   
 22  11  15  1   
 23  11  37  1   
 24  11  38  1   
 25  12  16  ar  
 26  12  17  1   
 27  13  16  ar  
 28  13  39  1   
 29  14  18  1   
 30  14  19  1   
 31  14  40  1   
 32  15  20  1   
 33  15  21  1   
 34  16  22  1   
 35  17  23  1   
 36  17  41  1   
 37  17  42  1   
 38  18  24  1   
 39  18  43  1   
 40  18  44  1   
 41  19  45  1   
 42  19  46  1   
 43  19  47  1   
 44  20  24  1   
 45  20  48  1   
 46  20  49  1   
 47  21  25  1   
 48  21  50  1   
 49  21  51  1   
 50  22  26  am  
 51  22  27  1   
 52  23  27  1   
 53  23  52  1   
 54  23  53  1   
 55  24  54  1   
 56  24  55  1   
 57  25  56  1   
 58  26  28  2   
 59  26  29  1   
 60  27  57  1   
 61  27  58  1   
 62  29  59  1   
 63  29  60  1   
 64  29  61  1   
@<TRIPOS>SUBSTRUCTURE
  1 ****   5 GROUP 4 **** **** 0

# MOE 2024.06 (io_trps.svl 2023.06)
