@<TRIPOS>MOLECULE
NONAME
54 57 1 0 0 
SMALL
USER_CHARGES


@<TRIPOS>ATOM
  1 O       -4.5570    -2.7450    -3.1640 O.co2 1 <1>  -0.9000 
  2 C       -4.4540    -2.0520    -2.1480 C.2   1 <1>   0.9060 
  3 O       -3.5750    -1.2010    -1.9860 O.co2 1 <1>  -0.9000 
  4 C       -5.3360    -2.3970    -0.9480 C.3   1 <1>   0.2370 
  5 N       -4.8060    -3.5160    -0.0650 N.4   1 <1>  -0.9590 
  6 C       -3.4420    -3.1760     0.4940 C.3   1 <1>   0.4230 
  7 C       -4.9160    -4.8350    -0.7670 C.3   1 <1>   0.3430 
  8 C       -2.2320    -3.5800    -0.3900 C.3   1 <1>   0.1200 
  9 C       -3.3290    -3.7920     1.9150 C.3   1 <1>   0.1400 
 10 C       -4.0170    -5.9570    -0.2170 C.3   1 <1>  -0.0800 
 11 O       -1.8420    -4.9100    -0.1850 O.3   1 <1>  -0.5600 
 12 N       -4.3030    -4.9280     2.1160 N.am  1 <1>  -0.6600 
 13 C       -2.6130    -5.8630    -0.8330 C.3   1 <1>   0.1200 
 14 C       -3.9860    -6.1610     1.3210 C.3   1 <1>   0.1400 
 15 C       -5.5360    -4.6870     2.6810 C.2   1 <1>   0.5690 
 16 O       -5.8250    -3.5830     3.0800 O.2   1 <1>  -0.5700 
 17 C       -6.6360    -5.7540     2.6860 C.3   1 <1>   0.1710 
 18 N       -7.1990    -5.9540     1.3210 N.3   1 <1>  -0.8100 
 19 C       -7.7320    -7.3120     1.1300 C.3   1 <1>   0.2530 
 20 C       -8.2520    -4.9690     1.0210 C.3   1 <1>   0.1100 
 21 C       -8.1990    -7.4920    -0.3080 C.ar  1 <1>  -0.1430 
 22 C       -8.6080    -4.9970    -0.4720 C.3   1 <1>  -0.0170 
 23 C       -8.6220    -6.4020    -1.0610 C.ar  1 <1>  -0.1430 
 24 C       -8.2100    -8.7590    -0.8720 C.ar  1 <1>  -0.1500 
 25 C       -9.0450    -6.5900    -2.3670 C.ar  1 <1>  -0.1500 
 26 C       -8.6340    -8.9410    -2.1760 C.ar  1 <1>  -0.1500 
 27 C       -9.0520    -7.8560    -2.9240 C.ar  1 <1>  -0.1500 
 28 H       -6.3040    -2.6620    -1.3310 H     1 <1>   0.0800 
 29 H       -5.4370    -1.4980    -0.3680 H     1 <1>   0.0800 
 30 H       -5.3950    -3.6030     0.7760 H     1 <1>   0.4500 
 31 H       -3.3890    -2.1050     0.5970 H     1 <1>   0.0800 
 32 H       -5.9390    -5.1690    -0.7090 H     1 <1>   0.0800 
 33 H       -4.6860    -4.6980    -1.8130 H     1 <1>   0.0800 
 34 H       -1.3920    -2.9710    -0.1070 H     1 <1>   0.0800 
 35 H       -2.4070    -3.4130    -1.4380 H     1 <1>   0.0800 
 36 H       -3.5240    -3.0160     2.6340 H     1 <1>   0.0800 
 37 H       -2.3270    -4.1350     2.1050 H     1 <1>   0.0800 
 38 H       -4.4260    -6.8620    -0.6270 H     1 <1>   0.0800 
 39 H       -2.6530    -5.6260    -1.8840 H     1 <1>   0.0800 
 40 H       -2.1030    -6.8040    -0.7200 H     1 <1>   0.0800 
 41 H       -3.0130    -6.5160     1.6160 H     1 <1>   0.0800 
 42 H       -4.6780    -6.9440     1.5680 H     1 <1>   0.0800 
 43 H       -7.4140    -5.4610     3.3700 H     1 <1>   0.0800 
 44 H       -6.2110    -6.6700     3.0550 H     1 <1>   0.0800 
 45 H       -6.9610    -8.0320     1.3420 H     1 <1>   0.0800 
 46 H       -8.5570    -7.4860     1.8000 H     1 <1>   0.0800 
 47 H       -9.1320    -5.1960     1.6010 H     1 <1>   0.0800 
 48 H       -7.9250    -3.9770     1.2870 H     1 <1>   0.0800 
 49 H       -9.5730    -4.5410    -0.6080 H     1 <1>   0.0800 
 50 H       -7.8960    -4.4040    -1.0140 H     1 <1>   0.0800 
 51 H       -7.8910    -9.6120    -0.3000 H     1 <1>   0.1500 
 52 H       -9.3700    -5.7510    -2.9570 H     1 <1>   0.1500 
 53 H       -8.6400    -9.9260    -2.6090 H     1 <1>   0.1500 
 54 H       -9.3820    -7.9960    -3.9390 H     1 <1>   0.1500 
@<TRIPOS>BOND
  1   1   2  ar  
  2   2   3  ar  
  3   2   4  1   
  4   4   5  1   
  5   4  28  1   
  6   4  29  1   
  7   5   6  1   
  8   5   7  1   
  9   5  30  1   
 10   6   8  1   
 11   6   9  1   
 12   6  31  1   
 13   7  10  1   
 14   7  32  1   
 15   7  33  1   
 16   8  11  1   
 17   8  34  1   
 18   8  35  1   
 19   9  12  1   
 20   9  36  1   
 21   9  37  1   
 22  10  13  1   
 23  10  14  1   
 24  10  38  1   
 25  11  13  1   
 26  12  14  1   
 27  12  15  am  
 28  13  39  1   
 29  13  40  1   
 30  14  41  1   
 31  14  42  1   
 32  15  16  2   
 33  15  17  1   
 34  17  18  1   
 35  17  43  1   
 36  17  44  1   
 37  18  19  1   
 38  18  20  1   
 39  19  21  1   
 40  19  45  1   
 41  19  46  1   
 42  20  22  1   
 43  20  47  1   
 44  20  48  1   
 45  21  23  ar  
 46  21  24  ar  
 47  22  23  1   
 48  22  49  1   
 49  22  50  1   
 50  23  25  ar  
 51  24  26  ar  
 52  24  51  1   
 53  25  27  ar  
 54  25  52  1   
 55  26  27  ar  
 56  26  53  1   
 57  27  54  1   
@<TRIPOS>SUBSTRUCTURE
  1 ****   7 GROUP 4 **** **** 0

# MOE 2024.06 (io_trps.svl 2023.06)
