@<TRIPOS>MOLECULE
NONAME
56 60 1 0 0 
SMALL
USER_CHARGES


@<TRIPOS>ATOM
  1 S       -2.7330    -0.0630     0.5060 S.3   1 <1>  -0.0800 
  2 C       -1.8710     1.3630    -0.0890 C.2   1 <1>   0.0410 
  3 C       -1.7580    -1.1540    -0.4590 C.2   1 <1>  -0.1100 
  4 C       -2.2040     2.6970     0.3560 C.2   1 <1>   0.2880 
  5 C       -0.9130     0.9470    -0.9540 C.2   1 <1>  -0.1500 
  6 C       -0.8490    -0.4620    -1.1670 C.2   1 <1>  -0.1500 
  7 N       -1.3660     3.6840     0.1810 N.2   1 <1>  -0.7070 
  8 C       -3.3750     3.1690     0.9700 C.2   1 <1>  -0.1810 
  9 N       -1.9340     4.7920     0.7040 N.pl3 1 <1>   0.5930 
 10 C       -3.1650     4.4850     1.1750 C.2   1 <1>  -0.3020 
 11 C       -4.6400     2.4110     1.3100 C.3   1 <1>   0.5240 
 12 C       -1.3220     6.0790     0.6960 C.ar  1 <1>  -0.0230 
 13 N       -5.6030     2.5950     0.2000 N.4   1 <1>  -0.9590 
 14 C       -1.5420     6.9880     1.7300 C.ar  1 <1>  -0.1500 
 15 C       -0.4880     6.4590    -0.3520 C.ar  1 <1>  -0.1500 
 16 C       -6.9720     2.1310     0.5360 C.3   1 <1>   0.3430 
 17 C       -5.1200     2.0830    -1.1210 C.3   1 <1>   0.3430 
 18 C       -0.9570     8.2410     1.7070 C.ar  1 <1>  -0.1500 
 19 C        0.0980     7.7120    -0.3750 C.ar  1 <1>  -0.1500 
 20 C       -7.9790     2.8020    -0.4310 C.3   1 <1>   0.0000 
 21 C       -6.2820     1.8590    -2.1030 C.3   1 <1>  -0.1600 
 22 C       -0.1380     8.6060     0.6540 C.ar  1 <1>  -0.1500 
 23 C       -8.3580     4.2060     0.0760 C.3   1 <1>   0.2000 
 24 C       -7.4340     2.8530    -1.8860 C.3   1 <1>  -0.1600 
 25 C       -9.3190     2.0610    -0.3260 C.3   1 <1>  -0.1600 
 26 O       -7.2540     4.8910     0.5700 O.3   1 <1>  -0.6800 
 27 C       -9.3950     3.9970     1.1800 C.3   1 <1>  -0.1600 
 28 C       -9.9710     2.5910     0.9560 C.3   1 <1>  -0.1600 
 29 H       -1.9650    -2.2080    -0.3910 H     1 <1>   0.1500 
 30 H       -0.2290     1.6130    -1.4530 H     1 <1>   0.1500 
 31 H       -0.1220    -0.8890    -1.8380 H     1 <1>   0.1500 
 32 H       -3.8030     5.2320     1.6110 H     1 <1>   0.1500 
 33 H       -5.0560     2.8240     2.2140 H     1 <1>   0.0800 
 34 H       -4.4460     1.3680     1.4800 H     1 <1>   0.0800 
 35 H       -5.7310     3.6210     0.1060 H     1 <1>   0.4500 
 36 H       -2.1680     6.7210     2.5630 H     1 <1>   0.1500 
 37 H       -0.2930     5.7690    -1.1560 H     1 <1>   0.1500 
 38 H       -7.0260     1.0590     0.4370 H     1 <1>   0.0800 
 39 H       -7.2240     2.3980     1.5490 H     1 <1>   0.0800 
 40 H       -4.4280     2.7960    -1.5400 H     1 <1>   0.0800 
 41 H       -4.5930     1.1520    -0.9910 H     1 <1>   0.0800 
 42 H       -1.1350     8.9360     2.5110 H     1 <1>   0.1500 
 43 H        0.7390     7.9920    -1.1940 H     1 <1>   0.1500 
 44 H       -5.9090     1.9440    -3.1090 H     1 <1>   0.0800 
 45 H       -6.6490     0.8540    -1.9890 H     1 <1>   0.0800 
 46 H        0.3180     9.5810     0.6360 H     1 <1>   0.1500 
 47 H       -8.7920     4.7840    -0.7250 H     1 <1>   0.0800 
 48 H       -8.2180     2.6630    -2.5990 H     1 <1>   0.0800 
 49 H       -7.0570     3.8410    -2.0930 H     1 <1>   0.0800 
 50 H       -9.9520     2.3260    -1.1580 H     1 <1>   0.0800 
 51 H       -9.2100     0.9900    -0.3130 H     1 <1>   0.0800 
 52 H       -7.5320     5.7910     0.8460 H     1 <1>   0.4000 
 53 H       -8.9490     4.0550     2.1580 H     1 <1>   0.0800 
 54 H      -10.1740     4.7360     1.1000 H     1 <1>   0.0800 
 55 H       -9.7210     1.9570     1.7900 H     1 <1>   0.0800 
 56 H      -11.0450     2.6160     0.8600 H     1 <1>   0.0800 
@<TRIPOS>BOND
  1   1   2  1   
  2   1   3  1   
  3   2   4  1   
  4   2   5  2   
  5   3   6  2   
  6   3  29  1   
  7   4   7  2   
  8   4   8  1   
  9   5   6  1   
 10   5  30  1   
 11   6  31  1   
 12   7   9  1   
 13   8  10  2   
 14   8  11  1   
 15   9  10  1   
 16   9  12  1   
 17  10  32  1   
 18  11  13  1   
 19  11  33  1   
 20  11  34  1   
 21  12  14  ar  
 22  12  15  ar  
 23  13  16  1   
 24  13  17  1   
 25  13  35  1   
 26  14  18  ar  
 27  14  36  1   
 28  15  19  ar  
 29  15  37  1   
 30  16  20  1   
 31  16  38  1   
 32  16  39  1   
 33  17  21  1   
 34  17  40  1   
 35  17  41  1   
 36  18  22  ar  
 37  18  42  1   
 38  19  22  ar  
 39  19  43  1   
 40  20  23  1   
 41  20  24  1   
 42  20  25  1   
 43  21  24  1   
 44  21  44  1   
 45  21  45  1   
 46  22  46  1   
 47  23  26  1   
 48  23  27  1   
 49  23  47  1   
 50  24  48  1   
 51  24  49  1   
 52  25  28  1   
 53  25  50  1   
 54  25  51  1   
 55  26  52  1   
 56  27  28  1   
 57  27  53  1   
 58  27  54  1   
 59  28  55  1   
 60  28  56  1   
@<TRIPOS>SUBSTRUCTURE
  1 ****   8 GROUP 4 **** **** 0

# MOE 2024.06 (io_trps.svl 2023.06)
