@<TRIPOS>MOLECULE
NONAME
52 54 1 0 0 
SMALL
USER_CHARGES


@<TRIPOS>ATOM
  1 O        0.5410    -0.1850     2.5320 O.3   1 <1>  -0.6800 
  2 C        0.8900    -0.2880     1.1920 C.3   1 <1>   0.2000 
  3 C        1.6240    -1.6160     1.0030 C.3   1 <1>  -0.0800 
  4 C        1.9660     0.7720     0.8930 C.3   1 <1>   0.3430 
  5 C        2.9970    -1.2640     1.5830 C.3   1 <1>   0.3430 
  6 C        1.6500    -2.0210    -0.4970 C.3   1 <1>  -0.0160 
  7 N        3.2850     0.0710     1.0160 N.4   1 <1>  -0.9590 
  8 C        2.9810    -2.5810    -0.9830 C.ar  1 <1>   0.1670 
  9 C        4.3090     0.8480     1.7520 C.3   1 <1>   0.4860 
 10 N        3.9290    -1.6890    -1.2510 N.ar  1 <1>  -0.6200 
 11 C        3.1500    -3.9570    -1.1310 C.ar  1 <1>   0.1600 
 12 C        4.5510     2.1390     0.9980 C.ar  1 <1>  -0.1430 
 13 C        5.0360    -2.2680    -1.6990 C.ar  1 <1>   0.1600 
 14 N        4.2640    -4.5280    -1.5500 N.ar  1 <1>  -0.6200 
 15 C        4.1170     3.3470     1.5240 C.ar  1 <1>  -0.1500 
 16 C        5.1980     2.1250    -0.2300 C.ar  1 <1>  -0.1500 
 17 C        5.1980    -3.6400    -1.8410 C.ar  1 <1>   0.1600 
 18 C        4.3190     4.5230     0.8260 C.ar  1 <1>  -0.1500 
 19 C        5.3980     3.3050    -0.9250 C.ar  1 <1>  -0.1500 
 20 C        4.9600     4.5100    -0.4020 C.ar  1 <1>  -0.1430 
 21 C        5.1780     5.8110    -1.1650 C.3   1 <1>  -0.0170 
 22 C        6.3200     6.6580    -0.5740 C.3   1 <1>  -0.0800 
 23 C        6.4230     8.0000    -1.3110 C.3   1 <1>  -0.2400 
 24 C        7.6690     5.9280    -0.6430 C.3   1 <1>  -0.2400 
 25 H       -0.2880    -0.6720     2.7280 H     1 <1>   0.4000 
 26 H        0.0030    -0.1680     0.5910 H     1 <1>   0.0800 
 27 H        1.1750    -2.4090     1.5750 H     1 <1>   0.0800 
 28 H        1.8810     1.5880     1.5930 H     1 <1>   0.0800 
 29 H        1.8540     1.1520    -0.1090 H     1 <1>   0.0800 
 30 H        3.7540    -1.9850     1.3170 H     1 <1>   0.0800 
 31 H        2.9220    -1.1980     2.6570 H     1 <1>   0.0800 
 32 H        1.4220    -1.1750    -1.1230 H     1 <1>   0.0800 
 33 H        0.8710    -2.7420    -0.6760 H     1 <1>   0.0800 
 34 H        3.6440    -0.1030     0.0580 H     1 <1>   0.4500 
 35 H        3.9650     1.0630     2.7510 H     1 <1>   0.0800 
 36 H        5.2280     0.2890     1.8140 H     1 <1>   0.0800 
 37 H        2.3330    -4.6160    -0.8940 H     1 <1>   0.1500 
 38 H        5.8590    -1.6290    -1.9710 H     1 <1>   0.1500 
 39 H        3.6190     3.3890     2.4780 H     1 <1>   0.1500 
 40 H        5.5520     1.2040    -0.6590 H     1 <1>   0.1500 
 41 H        6.1360    -4.0180    -2.2100 H     1 <1>   0.1500 
 42 H        3.9790     5.4570     1.2410 H     1 <1>   0.1500 
 43 H        5.9030     3.2840    -1.8760 H     1 <1>   0.1500 
 44 H        5.3870     5.5970    -2.1990 H     1 <1>   0.0800 
 45 H        4.2640     6.3790    -1.1380 H     1 <1>   0.0800 
 46 H        6.0960     6.8600     0.4600 H     1 <1>   0.0800 
 47 H        6.6540     7.8460    -2.3510 H     1 <1>   0.0800 
 48 H        7.1980     8.6060    -0.8750 H     1 <1>   0.0800 
 49 H        5.4960     8.5400    -1.2400 H     1 <1>   0.0800 
 50 H        7.9150     5.6800    -1.6600 H     1 <1>   0.0800 
 51 H        7.6370     5.0220    -0.0650 H     1 <1>   0.0800 
 52 H        8.4500     6.5490    -0.2420 H     1 <1>   0.0800 
@<TRIPOS>BOND
  1   1   2  1   
  2   1  25  1   
  3   2   3  1   
  4   2   4  1   
  5   2  26  1   
  6   3   5  1   
  7   3   6  1   
  8   3  27  1   
  9   4   7  1   
 10   4  28  1   
 11   4  29  1   
 12   5   7  1   
 13   5  30  1   
 14   5  31  1   
 15   6   8  1   
 16   6  32  1   
 17   6  33  1   
 18   7   9  1   
 19   7  34  1   
 20   8  10  ar  
 21   8  11  ar  
 22   9  12  1   
 23   9  35  1   
 24   9  36  1   
 25  10  13  ar  
 26  11  14  ar  
 27  11  37  1   
 28  12  15  ar  
 29  12  16  ar  
 30  13  17  ar  
 31  13  38  1   
 32  14  17  ar  
 33  15  18  ar  
 34  15  39  1   
 35  16  19  ar  
 36  16  40  1   
 37  17  41  1   
 38  18  20  ar  
 39  18  42  1   
 40  19  20  ar  
 41  19  43  1   
 42  20  21  1   
 43  21  22  1   
 44  21  44  1   
 45  21  45  1   
 46  22  23  1   
 47  22  24  1   
 48  22  46  1   
 49  23  47  1   
 50  23  48  1   
 51  23  49  1   
 52  24  50  1   
 53  24  51  1   
 54  24  52  1   
@<TRIPOS>SUBSTRUCTURE
  1 ****   7 GROUP 4 **** **** 0

# MOE 2024.06 (io_trps.svl 2023.06)
