@<TRIPOS>MOLECULE
NONAME
43 45 1 0 0 
SMALL
USER_CHARGES


@<TRIPOS>ATOM
  1 O       -1.7510    -1.9170    -1.5060 O.co2 1 <1>  -0.9000 
  2 C       -2.9960    -1.9010    -1.5200 C.2   1 <1>   1.0330 
  3 O       -3.5950    -2.2200    -2.5640 O.co2 1 <1>  -0.9000 
  4 C       -3.7210    -1.4960    -0.3160 C.2   1 <1>  -0.0060 
  5 N       -5.0830    -1.4550    -0.1430 N.2   1 <1>  -0.5650 
  6 C       -3.1670    -1.0790     0.8420 C.2   1 <1>  -0.0100 
  7 C       -5.2280    -1.0230     1.0530 C.2   1 <1>   0.2980 
  8 O       -4.1120    -0.7850     1.6930 O.3   1 <1>  -0.2800 
  9 C       -6.5750    -0.7850     1.7210 C.3   1 <1>   0.5230 
 10 N       -7.6650    -0.9240     0.6990 N.4   1 <1>  -0.9590 
 11 C       -8.9870    -1.3130     1.2680 C.3   1 <1>   0.3430 
 12 C       -7.7390     0.2740    -0.1840 C.3   1 <1>   0.3430 
 13 C       -9.9880    -1.6510     0.1540 C.3   1 <1>   0.0000 
 14 C       -8.7050     0.0010    -1.3370 C.3   1 <1>  -0.1600 
 15 C      -11.3390    -2.0140     0.7880 C.3   1 <1>   0.2000 
 16 C      -10.0860    -0.4580    -0.8380 C.3   1 <1>  -0.1600 
 17 C       -9.6540    -2.9530    -0.5980 C.3   1 <1>  -0.1600 
 18 O      -12.0030    -0.8680     1.2170 O.3   1 <1>  -0.5600 
 19 C      -12.0920    -2.7830    -0.2980 C.3   1 <1>  -0.1600 
 20 C      -10.9990    -3.4750    -1.1280 C.3   1 <1>  -0.1600 
 21 C      -13.1870    -1.0900     1.9200 C.3   1 <1>   0.0400 
 22 H       -2.1280    -0.9740     1.1040 H     1 <1>   0.1500 
 23 H       -6.5940     0.1960     2.1620 H     1 <1>   0.0800 
 24 H       -6.6980    -1.5200     2.4980 H     1 <1>   0.0800 
 25 H       -7.3180    -1.6780     0.0770 H     1 <1>   0.4500 
 26 H       -8.8740    -2.1690     1.9120 H     1 <1>   0.0800 
 27 H       -9.3850    -0.4990     1.8520 H     1 <1>   0.0800 
 28 H       -8.0840     1.1250     0.3800 H     1 <1>   0.0800 
 29 H       -6.7630     0.4980    -0.5870 H     1 <1>   0.0800 
 30 H       -8.8180     0.9020    -1.9140 H     1 <1>   0.0800 
 31 H       -8.2710    -0.7350    -1.9920 H     1 <1>   0.0800 
 32 H      -11.1830    -2.6580     1.6380 H     1 <1>   0.0800 
 33 H      -10.7040    -0.7110    -1.6820 H     1 <1>   0.0800 
 34 H      -10.5540     0.3800    -0.3490 H     1 <1>   0.0800 
 35 H       -8.9440    -2.8240    -1.3960 H     1 <1>   0.0800 
 36 H       -9.2550    -3.6800     0.0900 H     1 <1>   0.0800 
 37 H      -12.7670    -3.5030     0.1300 H     1 <1>   0.0800 
 38 H      -12.6400    -2.0980    -0.9220 H     1 <1>   0.0800 
 39 H      -11.0550    -4.5460    -1.0320 H     1 <1>   0.0800 
 40 H      -11.1160    -3.2180    -2.1680 H     1 <1>   0.0800 
 41 H      -13.5650    -0.1380     2.2500 H     1 <1>   0.0800 
 42 H      -12.9880    -1.7150     2.7730 H     1 <1>   0.0800 
 43 H      -13.9110    -1.5540     1.2710 H     1 <1>   0.0800 
@<TRIPOS>BOND
  1   1   2  ar  
  2   2   3  ar  
  3   2   4  1   
  4   4   5  1   
  5   4   6  2   
  6   5   7  2   
  7   6   8  1   
  8   6  22  1   
  9   7   8  1   
 10   7   9  1   
 11   9  10  1   
 12   9  23  1   
 13   9  24  1   
 14  10  11  1   
 15  10  12  1   
 16  10  25  1   
 17  11  13  1   
 18  11  26  1   
 19  11  27  1   
 20  12  14  1   
 21  12  28  1   
 22  12  29  1   
 23  13  15  1   
 24  13  16  1   
 25  13  17  1   
 26  14  16  1   
 27  14  30  1   
 28  14  31  1   
 29  15  18  1   
 30  15  19  1   
 31  15  32  1   
 32  16  33  1   
 33  16  34  1   
 34  17  20  1   
 35  17  35  1   
 36  17  36  1   
 37  18  21  1   
 38  19  20  1   
 39  19  37  1   
 40  19  38  1   
 41  20  39  1   
 42  20  40  1   
 43  21  41  1   
 44  21  42  1   
 45  21  43  1   
@<TRIPOS>SUBSTRUCTURE
  1 ****  10 GROUP 4 **** **** 0

# MOE 2024.06 (io_trps.svl 2023.06)
