@<TRIPOS>MOLECULE
NONAME
46 47 1 0 0 
SMALL
USER_CHARGES


@<TRIPOS>ATOM
  1 S       -0.6140     0.4500     1.7410 S.o2  1 <1>   1.4470 
  2 O       -0.4210    -0.6960     2.6000 O.2   1 <1>  -0.6500 
  3 O       -1.1390     1.6610     2.3350 O.2   1 <1>  -0.6500 
  4 N       -1.6700     0.0590     0.4700 N.am  1 <1>  -0.8490 
  5 C        0.9450     0.8820     0.9170 C.ar  1 <1>  -0.0090 
  6 C       -1.2290    -0.8570    -0.6120 C.3   1 <1>   0.1960 
  7 C       -3.0810    -0.0560     0.8350 C.3   1 <1>   0.1960 
  8 C        0.9720     1.8280    -0.1010 C.ar  1 <1>  -0.1500 
  9 C        2.1490     0.2880     1.2820 C.ar  1 <1>  -0.1500 
 10 C       -1.6400    -2.3440    -0.4640 C.3   1 <1>  -0.1060 
 11 C       -3.4790    -1.5050     1.1080 C.3   1 <1>  -0.1600 
 12 C        2.1620     2.1500    -0.7250 C.ar  1 <1>   0.1900 
 13 C        3.3400     0.6120     0.6520 C.ar  1 <1>  -0.1500 
 14 C       -1.4960    -3.0040    -1.8400 C.2   1 <1>   0.9060 
 15 C       -3.1420    -2.3590    -0.1110 C.3   1 <1>   0.2000 
 16 C       -0.7770    -3.1390     0.5670 C.3   1 <1>  -0.1600 
 17 F        2.0960     3.0610    -1.6640 F     1 <1>  -0.1900 
 18 C        3.3730     1.5480    -0.3690 C.ar  1 <1>   0.0820 
 19 O       -0.8040    -2.4620    -2.7100 O.co2 1 <1>  -0.9000 
 20 O       -2.0920    -4.0700    -2.0570 O.co2 1 <1>  -0.9000 
 21 O       -3.5760    -3.6480     0.1160 O.3   1 <1>  -0.6800 
 22 C        0.7380    -3.1170     0.3010 C.3   1 <1>  -0.1600 
 23 O        4.5990     1.7760    -0.9170 O.3   1 <1>  -0.3630 
 24 C        1.4880    -3.9370     1.3530 C.3   1 <1>  -0.2400 
 25 C        4.7790     2.5230    -2.0990 C.3   1 <1>   0.0400 
 26 H       -1.6870    -0.4930    -1.5170 H     1 <1>   0.0800 
 27 H       -0.1710    -0.7770    -0.7790 H     1 <1>   0.0800 
 28 H       -3.2980     0.5530     1.6970 H     1 <1>   0.0800 
 29 H       -3.6730     0.3180     0.0170 H     1 <1>   0.0800 
 30 H        0.0610     2.3130    -0.4060 H     1 <1>   0.1500 
 31 H        2.1530    -0.4470     2.0710 H     1 <1>   0.1500 
 32 H       -4.5370    -1.5490     1.2890 H     1 <1>   0.0800 
 33 H       -2.9720    -1.8640     1.9840 H     1 <1>   0.0800 
 34 H        4.2560     0.1330     0.9500 H     1 <1>   0.1500 
 35 H       -3.6990    -1.9940    -0.9590 H     1 <1>   0.0800 
 36 H       -0.9720    -2.7970     1.5620 H     1 <1>   0.0800 
 37 H       -1.0910    -4.1690     0.5390 H     1 <1>   0.0800 
 38 H       -3.2030    -4.1810    -0.6430 H     1 <1>   0.4000 
 39 H        0.9410    -3.5210    -0.6770 H     1 <1>   0.0800 
 40 H        1.1100    -2.1110     0.3270 H     1 <1>   0.0800 
 41 H        1.1570    -4.9600     1.3310 H     1 <1>   0.0800 
 42 H        1.3110    -3.5340     2.3350 H     1 <1>   0.0800 
 43 H        2.5450    -3.9130     1.1530 H     1 <1>   0.0800 
 44 H        5.8130     2.4520    -2.3850 H     1 <1>   0.0800 
 45 H        4.5250     3.5500    -1.9070 H     1 <1>   0.0800 
 46 H        4.1570     2.1100    -2.8740 H     1 <1>   0.0800 
@<TRIPOS>BOND
  1   1   2  2   
  2   1   3  2   
  3   1   4  am  
  4   1   5  1   
  5   4   6  1   
  6   4   7  1   
  7   5   8  ar  
  8   5   9  ar  
  9   6  10  1   
 10   6  26  1   
 11   6  27  1   
 12   7  11  1   
 13   7  28  1   
 14   7  29  1   
 15   8  12  ar  
 16   8  30  1   
 17   9  13  ar  
 18   9  31  1   
 19  10  14  1   
 20  10  15  1   
 21  10  16  1   
 22  11  15  1   
 23  11  32  1   
 24  11  33  1   
 25  12  17  1   
 26  12  18  ar  
 27  13  18  ar  
 28  13  34  1   
 29  14  19  ar  
 30  14  20  ar  
 31  15  21  1   
 32  15  35  1   
 33  16  22  1   
 34  16  36  1   
 35  16  37  1   
 36  18  23  1   
 37  21  38  1   
 38  22  24  1   
 39  22  39  1   
 40  22  40  1   
 41  23  25  1   
 42  24  41  1   
 43  24  42  1   
 44  24  43  1   
 45  25  44  1   
 46  25  45  1   
 47  25  46  1   
@<TRIPOS>SUBSTRUCTURE
  1 ****   6 GROUP 4 **** **** 0

# MOE 2024.06 (io_trps.svl 2023.06)
