@<TRIPOS>MOLECULE
NONAME
47 49 1 0 0 
SMALL
USER_CHARGES


@<TRIPOS>ATOM
  1 O        3.5970    -0.7600     0.8080 O.2   1 <1>  -0.5700 
  2 C        2.6050    -1.0570     0.1690 C.2   1 <1>   0.5440 
  3 N        2.1060    -0.1980    -0.7850 N.am  1 <1>  -0.4940 
  4 C        1.9520    -2.3320     0.3940 C.ar  1 <1>   0.0860 
  5 C        2.3570     1.1670    -1.0850 C.2   1 <1>  -0.0880 
  6 C        2.6610    -3.4610     0.7770 C.ar  1 <1>  -0.1500 
  7 C        0.5840    -2.5240     0.2500 C.ar  1 <1>  -0.1500 
  8 N        3.5330     1.8630    -1.0610 N.pl3 1 <1>   0.3140 
  9 C        1.4110     2.0500    -1.4840 C.2   1 <1>  -0.1500 
 10 C        2.0140    -4.6680     0.9690 C.ar  1 <1>   0.1670 
 11 C        0.0240    -3.7710     0.4630 C.ar  1 <1>   0.1660 
 12 N        3.3440     3.1590    -1.4180 N.2   1 <1>  -0.7070 
 13 C        4.8980     1.3790    -0.7350 C.3   1 <1>   0.1760 
 14 C        2.0760     3.2540    -1.6680 C.2   1 <1>   0.1390 
 15 N        0.7150    -4.8390     0.8120 N.ar  1 <1>  -0.6200 
 16 C        2.7940    -5.8970     1.3840 C.3   1 <1>  -0.0970 
 17 C       -1.4670    -3.9810     0.3060 C.3   1 <1>  -0.0970 
 18 C        5.2920     1.8520     0.6720 C.3   1 <1>  -0.1600 
 19 C        5.9430     1.8530    -1.7580 C.3   1 <1>  -0.1600 
 20 C        6.6750     1.3340     1.0310 C.3   1 <1>   0.3430 
 21 C        7.3330     1.3630    -1.3640 C.3   1 <1>   0.3430 
 22 N        7.6610     1.8230     0.0190 N.4   1 <1>  -0.9590 
 23 C        9.0500     1.4280     0.3990 C.3   1 <1>   0.2630 
 24 H        1.3020    -0.5770    -1.2860 H     1 <1>   0.3700 
 25 H        3.7220    -3.3900     0.9260 H     1 <1>   0.1500 
 26 H       -0.0510    -1.7010    -0.0170 H     1 <1>   0.1500 
 27 H        0.3590     1.8920    -1.6310 H     1 <1>   0.1500 
 28 H        4.8870     0.3080    -0.7770 H     1 <1>   0.0800 
 29 H        1.6020     4.1700    -1.9820 H     1 <1>   0.1500 
 30 H        3.8400    -5.6790     1.4920 H     1 <1>   0.0800 
 31 H        2.6730    -6.6660     0.6420 H     1 <1>   0.0800 
 32 H        2.4150    -6.2620     2.3210 H     1 <1>   0.0800 
 33 H       -1.9650    -3.0720     0.0260 H     1 <1>   0.0800 
 34 H       -1.8780    -4.3320     1.2350 H     1 <1>   0.0800 
 35 H       -1.6460    -4.7250    -0.4490 H     1 <1>   0.0800 
 36 H        4.5840     1.4850     1.3930 H     1 <1>   0.0800 
 37 H        5.2800     2.9280     0.7210 H     1 <1>   0.0800 
 38 H        5.9520     2.9280    -1.8230 H     1 <1>   0.0800 
 39 H        5.6930     1.4640    -2.7290 H     1 <1>   0.0800 
 40 H        6.6620     0.2560     1.0470 H     1 <1>   0.0800 
 41 H        6.9460     1.6870     2.0140 H     1 <1>   0.0800 
 42 H        8.0590     1.7480    -2.0630 H     1 <1>   0.0800 
 43 H        7.3600     0.2860    -1.4050 H     1 <1>   0.0800 
 44 H        7.6020     2.8530     0.0180 H     1 <1>   0.4500 
 45 H        9.1450     0.3550     0.4140 H     1 <1>   0.0800 
 46 H        9.2920     1.8090     1.3790 H     1 <1>   0.0800 
 47 H        9.7600     1.8280    -0.3070 H     1 <1>   0.0800 
@<TRIPOS>BOND
  1   1   2  2   
  2   2   3  am  
  3   2   4  1   
  4   3   5  1   
  5   3  24  1   
  6   4   6  ar  
  7   4   7  ar  
  8   5   8  1   
  9   5   9  2   
 10   6  10  ar  
 11   6  25  1   
 12   7  11  ar  
 13   7  26  1   
 14   8  12  1   
 15   8  13  1   
 16   9  14  1   
 17   9  27  1   
 18  10  15  ar  
 19  10  16  1   
 20  11  15  ar  
 21  11  17  1   
 22  12  14  2   
 23  13  18  1   
 24  13  19  1   
 25  13  28  1   
 26  14  29  1   
 27  16  30  1   
 28  16  31  1   
 29  16  32  1   
 30  17  33  1   
 31  17  34  1   
 32  17  35  1   
 33  18  20  1   
 34  18  36  1   
 35  18  37  1   
 36  19  21  1   
 37  19  38  1   
 38  19  39  1   
 39  20  22  1   
 40  20  40  1   
 41  20  41  1   
 42  21  22  1   
 43  21  42  1   
 44  21  43  1   
 45  22  23  1   
 46  22  44  1   
 47  23  45  1   
 48  23  46  1   
 49  23  47  1   
@<TRIPOS>SUBSTRUCTURE
  1 ****   2 GROUP 4 **** **** 0

# MOE 2024.06 (io_trps.svl 2023.06)
