@<TRIPOS>MOLECULE
NONAME
50 52 1 0 0 
SMALL
USER_CHARGES


@<TRIPOS>ATOM
  1 F        2.2340     2.6260     2.1300 F     1 <1>  -0.1900 
  2 C        1.0320     2.5190     1.6280 C.ar  1 <1>   0.1900 
  3 C        0.2800     3.6590     1.4530 C.ar  1 <1>  -0.1500 
  4 C        0.5630     1.2640     1.2910 C.ar  1 <1>  -0.1500 
  5 C       -1.0030     3.5750     0.9140 C.ar  1 <1>   0.0860 
  6 C       -0.7150     1.1640     0.7720 C.ar  1 <1>  -0.1500 
  7 C       -1.5010     2.2970     0.5980 C.ar  1 <1>   0.0830 
  8 C       -1.7280     4.8040     0.6850 C.2   1 <1>   0.5440 
  9 O       -2.7410     2.0770     0.1010 O.3   1 <1>  -0.3630 
 10 O       -2.1570     5.4160     1.6470 O.2   1 <1>  -0.5700 
 11 N       -1.9260     5.3210    -0.5810 N.am  1 <1>  -0.6600 
 12 C       -3.8670     2.7040     0.6840 C.3   1 <1>   0.0400 
 13 C       -1.4500     4.6220    -1.8230 C.3   1 <1>   0.1400 
 14 C       -2.4310     6.7100    -0.7550 C.3   1 <1>   0.1400 
 15 C       -0.5760     5.5060    -2.7300 C.3   1 <1>   0.1400 
 16 C       -1.2900     7.7200    -0.5510 C.3   1 <1>  -0.1600 
 17 N        0.3240     6.3830    -1.9270 N.am  1 <1>  -0.6600 
 18 C       -0.2260     7.7400    -1.6590 C.3   1 <1>   0.1400 
 19 C        1.4450     5.8500    -1.3460 C.2   1 <1>   0.5690 
 20 O        1.7930     4.7160    -1.5800 O.2   1 <1>  -0.5700 
 21 C        2.2670     6.6780    -0.3700 C.3   1 <1>  -0.0990 
 22 C        3.4350     5.9090     0.2610 C.3   1 <1>   0.0210 
 23 C        4.1720     6.7970     1.2440 C.2   1 <1>  -0.1810 
 24 C        3.7600     7.1330     2.5310 C.2   1 <1>   0.1390 
 25 C        5.3500     7.4350     1.0840 C.2   1 <1>  -0.3020 
 26 N        4.6020     7.9200     3.1270 N.2   1 <1>  -0.7070 
 27 N        5.5890     8.1030     2.2300 N.pl3 1 <1>   0.3000 
 28 H        0.6840     4.6170     1.7240 H     1 <1>   0.1500 
 29 H        1.1830     0.3980     1.4340 H     1 <1>   0.1500 
 30 H       -1.1150     0.2020     0.5020 H     1 <1>   0.1500 
 31 H       -4.7200     2.0690     0.5280 H     1 <1>   0.0800 
 32 H       -4.0310     3.6510     0.2040 H     1 <1>   0.0800 
 33 H       -3.6970     2.8370     1.7380 H     1 <1>   0.0800 
 34 H       -2.3020     4.2730    -2.3800 H     1 <1>   0.0800 
 35 H       -0.8660     3.7570    -1.5680 H     1 <1>   0.0800 
 36 H       -3.2010     6.8960    -0.0240 H     1 <1>   0.0800 
 37 H       -2.8730     6.8260    -1.7290 H     1 <1>   0.0800 
 38 H       -1.2050     6.1060    -3.3620 H     1 <1>   0.0800 
 39 H        0.0140     4.8750    -3.3730 H     1 <1>   0.0800 
 40 H       -0.8210     7.5350     0.3990 H     1 <1>   0.0800 
 41 H       -1.7230     8.7020    -0.4950 H     1 <1>   0.0800 
 42 H        0.5650     8.4140    -1.3810 H     1 <1>   0.0800 
 43 H       -0.6620     8.1250    -2.5660 H     1 <1>   0.0800 
 44 H        1.6180     7.0230     0.4130 H     1 <1>   0.0800 
 45 H        2.6590     7.5310    -0.8910 H     1 <1>   0.0800 
 46 H        4.1140     5.5860    -0.5100 H     1 <1>   0.0800 
 47 H        3.0730     5.0330     0.7710 H     1 <1>   0.0800 
 48 H        2.8490     6.7860     2.9900 H     1 <1>   0.1500 
 49 H        6.0150     7.4520     0.2410 H     1 <1>   0.1500 
 50 H        6.4090     8.6880     2.4320 H     1 <1>   0.2700 
@<TRIPOS>BOND
  1   1   2  1   
  2   2   3  ar  
  3   2   4  ar  
  4   3   5  ar  
  5   3  28  1   
  6   4   6  ar  
  7   4  29  1   
  8   5   7  ar  
  9   5   8  1   
 10   6   7  ar  
 11   6  30  1   
 12   7   9  1   
 13   8  10  2   
 14   8  11  am  
 15   9  12  1   
 16  11  13  1   
 17  11  14  1   
 18  12  31  1   
 19  12  32  1   
 20  12  33  1   
 21  13  15  1   
 22  13  34  1   
 23  13  35  1   
 24  14  16  1   
 25  14  36  1   
 26  14  37  1   
 27  15  17  1   
 28  15  38  1   
 29  15  39  1   
 30  16  18  1   
 31  16  40  1   
 32  16  41  1   
 33  17  18  1   
 34  17  19  am  
 35  18  42  1   
 36  18  43  1   
 37  19  20  2   
 38  19  21  1   
 39  21  22  1   
 40  21  44  1   
 41  21  45  1   
 42  22  23  1   
 43  22  46  1   
 44  22  47  1   
 45  23  24  1   
 46  23  25  2   
 47  24  26  2   
 48  24  48  1   
 49  25  27  1   
 50  25  49  1   
 51  26  27  1   
 52  27  50  1   
@<TRIPOS>SUBSTRUCTURE
  1 ****   3 GROUP 4 **** **** 0

# MOE 2024.06 (io_trps.svl 2023.06)
