@<TRIPOS>MOLECULE
NONAME
54 56 1 0 0 
SMALL
USER_CHARGES


@<TRIPOS>ATOM
  1 CL      -0.0050     0.3300     0.4010 Cl    1 <1>  -0.1770 
  2 C       -1.7150     0.6500     0.2910 C.ar  1 <1>   0.1770 
  3 C       -2.1550     1.9410     0.0750 C.ar  1 <1>  -0.1500 
  4 C       -2.6130    -0.3920     0.4220 C.ar  1 <1>  -0.1500 
  5 C       -3.5130     2.1880    -0.0100 C.ar  1 <1>  -0.1500 
  6 C       -3.9700    -0.1330     0.3370 C.ar  1 <1>  -0.1500 
  7 C       -4.4540     1.1610     0.1170 C.ar  1 <1>   0.0530 
  8 C       -5.8670     1.4460     0.0290 C.2   1 <1>   0.0870 
  9 O       -6.3060     2.6590     0.2610 O.3   1 <1>  -0.0190 
 10 C       -6.9590     0.6880    -0.2580 C.2   1 <1>  -0.0860 
 11 N       -7.6030     2.7670     0.1460 N.2   1 <1>  -0.4100 
 12 C       -8.0180     1.5940    -0.1720 C.2   1 <1>   0.3720 
 13 C       -7.0740    -0.6910    -0.6150 C.2   1 <1>   0.7160 
 14 N       -9.3550     1.2750    -0.4000 N.pl3 1 <1>  -0.8520 
 15 O       -6.4270    -1.1100    -1.5570 O.2   1 <1>  -0.5700 
 16 N       -7.8850    -1.5700     0.0760 N.am  1 <1>  -0.6600 
 17 C      -10.2490     2.3470    -0.9170 C.3   1 <1>   0.2090 
 18 C       -8.1630    -2.9450    -0.4330 C.3   1 <1>   0.1400 
 19 C       -8.4040    -1.3070     1.4490 C.3   1 <1>   0.1400 
 20 C      -11.7080     1.9080    -0.7990 C.3   1 <1>   0.1200 
 21 C       -9.6730    -3.2240    -0.4130 C.3   1 <1>  -0.0800 
 22 C       -9.9090    -1.5920     1.5100 C.3   1 <1>  -0.1600 
 23 O      -12.5190     2.8760    -1.3860 O.3   1 <1>  -0.5600 
 24 C      -10.2480    -2.9990     0.9990 C.3   1 <1>  -0.1600 
 25 C       -9.9440    -4.6470    -0.9180 C.3   1 <1>   0.1200 
 26 C      -13.8790     2.5890    -1.3140 C.3   1 <1>   0.0400 
 27 O      -11.3190    -4.8550    -0.9710 O.3   1 <1>  -0.5600 
 28 C      -11.6830    -6.1250    -1.4050 C.3   1 <1>   0.0400 
 29 H       -1.4400     2.7380    -0.0240 H     1 <1>   0.1500 
 30 H       -2.2500    -1.3900     0.5880 H     1 <1>   0.1500 
 31 H       -3.8510     3.1950    -0.1810 H     1 <1>   0.1500 
 32 H       -4.6550    -0.9530     0.4430 H     1 <1>   0.1500 
 33 H       -9.4570     0.4030    -0.9300 H     1 <1>   0.4000 
 34 H      -10.0100     2.5440    -1.9480 H     1 <1>   0.0800 
 35 H      -10.1080     3.2490    -0.3450 H     1 <1>   0.0800 
 36 H       -7.6490    -3.6560     0.1890 H     1 <1>   0.0800 
 37 H       -7.7970    -3.0560    -1.4400 H     1 <1>   0.0800 
 38 H       -8.2200    -0.2900     1.7500 H     1 <1>   0.0800 
 39 H       -7.8910    -1.9520     2.1420 H     1 <1>   0.0800 
 40 H      -11.9780     1.8110     0.2380 H     1 <1>   0.0800 
 41 H      -11.8600     0.9770    -1.3160 H     1 <1>   0.0800 
 42 H      -10.1420    -2.5410    -1.1000 H     1 <1>   0.0800 
 43 H      -10.4310    -0.8590     0.9220 H     1 <1>   0.0800 
 44 H      -10.2470    -1.4870     2.5260 H     1 <1>   0.0800 
 45 H       -9.8420    -3.7320     1.6750 H     1 <1>   0.0800 
 46 H      -11.3170    -3.1230     0.9810 H     1 <1>   0.0800 
 47 H       -9.5110    -5.3750    -0.2530 H     1 <1>   0.0800 
 48 H       -9.5430    -4.7760    -1.9100 H     1 <1>   0.0800 
 49 H      -14.4150     3.3900    -1.7930 H     1 <1>   0.0800 
 50 H      -14.1740     2.5220    -0.2820 H     1 <1>   0.0800 
 51 H      -14.0750     1.6640    -1.8280 H     1 <1>   0.0800 
 52 H      -12.7570    -6.1800    -1.4120 H     1 <1>   0.0800 
 53 H      -11.2870    -6.8610    -0.7270 H     1 <1>   0.0800 
 54 H      -11.3060    -6.2830    -2.4010 H     1 <1>   0.0800 
@<TRIPOS>BOND
  1   1   2  1   
  2   2   3  ar  
  3   2   4  ar  
  4   3   5  ar  
  5   3  29  1   
  6   4   6  ar  
  7   4  30  1   
  8   5   7  ar  
  9   5  31  1   
 10   6   7  ar  
 11   6  32  1   
 12   7   8  1   
 13   8   9  1   
 14   8  10  2   
 15   9  11  1   
 16  10  12  1   
 17  10  13  1   
 18  11  12  2   
 19  12  14  1   
 20  13  15  2   
 21  13  16  am  
 22  14  17  1   
 23  14  33  1   
 24  16  18  1   
 25  16  19  1   
 26  17  20  1   
 27  17  34  1   
 28  17  35  1   
 29  18  21  1   
 30  18  36  1   
 31  18  37  1   
 32  19  22  1   
 33  19  38  1   
 34  19  39  1   
 35  20  23  1   
 36  20  40  1   
 37  20  41  1   
 38  21  24  1   
 39  21  25  1   
 40  21  42  1   
 41  22  24  1   
 42  22  43  1   
 43  22  44  1   
 44  23  26  1   
 45  24  45  1   
 46  24  46  1   
 47  25  27  1   
 48  25  47  1   
 49  25  48  1   
 50  26  49  1   
 51  26  50  1   
 52  26  51  1   
 53  27  28  1   
 54  28  52  1   
 55  28  53  1   
 56  28  54  1   
@<TRIPOS>SUBSTRUCTURE
  1 ****  13 GROUP 4 **** **** 0

# MOE 2024.06 (io_trps.svl 2023.06)
