@<TRIPOS>MOLECULE
NONAME
40 42 1 0 0 
SMALL
USER_CHARGES


@<TRIPOS>ATOM
  1 O       -0.5440     0.2730    -0.3040 O.2   1 <1>  -0.5700 
  2 C       -1.5260     0.8750     0.0910 C.2   1 <1>   0.6160 
  3 N       -2.6660     0.1520     0.3720 N.am  1 <1>  -0.6600 
  4 C       -1.4770     2.3120     0.2360 C.2   1 <1>   0.0140 
  5 C       -4.0460     0.6910     0.2510 C.3   1 <1>   0.1400 
  6 C       -2.6880    -1.3330     0.2890 C.3   1 <1>   0.1400 
  7 C       -2.0870     2.9860     1.2680 C.2   1 <1>  -0.0410 
  8 C       -0.7540     3.0980    -0.7160 C.2   1 <1>  -0.1500 
  9 C       -4.8920    -0.4970    -0.2000 C.3   1 <1>   0.2000 
 10 C       -4.1650    -1.7260     0.3340 C.3   1 <1>  -0.0800 
 11 N       -2.0330     4.3540     1.3680 N.am  1 <1>  -0.5390 
 12 C       -0.7020     4.4530    -0.6030 C.2   1 <1>  -0.1360 
 13 O       -6.1770    -0.4320     0.3150 O.3   1 <1>  -0.6800 
 14 C       -4.4840    -3.0090    -0.4480 C.3   1 <1>   0.0210 
 15 C       -1.3600     5.1240     0.4620 C.2   1 <1>   0.6160 
 16 C       -3.6630    -4.1740     0.0690 C.2   1 <1>   0.1080 
 17 O       -1.3560     6.3340     0.6090 O.2   1 <1>  -0.5700 
 18 N       -3.7730    -4.6290     1.2780 N.2   1 <1>  -0.7070 
 19 C       -2.7100    -4.8670    -0.6700 C.2   1 <1>  -0.1500 
 20 N       -2.8850    -5.6390     1.3430 N.pl3 1 <1>   0.3000 
 21 C       -2.2270    -5.8010     0.1760 C.2   1 <1>  -0.3320 
 22 C       -1.1610    -6.8540    -0.0640 C.3   1 <1>  -0.0600 
 23 H       -4.3730     1.0420     1.2130 H     1 <1>   0.0800 
 24 H       -4.0880     1.4860    -0.4730 H     1 <1>   0.0800 
 25 H       -2.2360    -1.6440    -0.6380 H     1 <1>   0.0800 
 26 H       -2.1420    -1.7700     1.1090 H     1 <1>   0.0800 
 27 H       -2.6230     2.4530     2.0360 H     1 <1>   0.1500 
 28 H       -0.2520     2.5790    -1.5160 H     1 <1>   0.1500 
 29 H       -4.9560    -0.5100    -1.2750 H     1 <1>   0.0800 
 30 H       -4.4190    -1.8750     1.3700 H     1 <1>   0.0800 
 31 H       -2.4710     4.8820     2.1250 H     1 <1>   0.3700 
 32 H       -0.1680     5.0720    -1.2990 H     1 <1>   0.1500 
 33 H       -6.1710    -0.6430     1.2690 H     1 <1>   0.4000 
 34 H       -4.2820    -2.8660    -1.4940 H     1 <1>   0.0800 
 35 H       -5.5270    -3.2470    -0.3380 H     1 <1>   0.0800 
 36 H       -2.4360    -4.6780    -1.6920 H     1 <1>   0.1500 
 37 H       -2.7520    -6.1960     2.1950 H     1 <1>   0.2700 
 38 H       -0.7890    -6.7810    -1.0700 H     1 <1>   0.0800 
 39 H       -1.5710    -7.8390     0.0790 H     1 <1>   0.0800 
 40 H       -0.3400    -6.7130     0.6160 H     1 <1>   0.0800 
@<TRIPOS>BOND
  1   1   2  2   
  2   2   3  am  
  3   2   4  1   
  4   3   5  1   
  5   3   6  1   
  6   4   7  2   
  7   4   8  1   
  8   5   9  1   
  9   5  23  1   
 10   5  24  1   
 11   6  10  1   
 12   6  25  1   
 13   6  26  1   
 14   7  11  1   
 15   7  27  1   
 16   8  12  2   
 17   8  28  1   
 18   9  10  1   
 19   9  13  1   
 20   9  29  1   
 21  10  14  1   
 22  10  30  1   
 23  11  15  am  
 24  11  31  1   
 25  12  15  1   
 26  12  32  1   
 27  13  33  1   
 28  14  16  1   
 29  14  34  1   
 30  14  35  1   
 31  15  17  2   
 32  16  18  2   
 33  16  19  1   
 34  18  20  1   
 35  19  21  2   
 36  19  36  1   
 37  20  21  1   
 38  20  37  1   
 39  21  22  1   
 40  22  38  1   
 41  22  39  1   
 42  22  40  1   
@<TRIPOS>SUBSTRUCTURE
  1 ****   3 GROUP 4 **** **** 0

# MOE 2024.06 (io_trps.svl 2023.06)
