@<TRIPOS>MOLECULE
NONAME
51 54 1 0 0 
SMALL
USER_CHARGES


@<TRIPOS>ATOM
  1 O       -1.9480     1.8840     2.0750 O.3   1 <1>  -0.0190 
  2 N       -1.0080     2.5620     1.4870 N.2   1 <1>  -0.4100 
  3 C       -2.2530     0.8000     1.4200 C.2   1 <1>  -0.0400 
  4 C       -0.6900     1.9070     0.4100 C.2   1 <1>   0.2350 
  5 C       -1.4770     0.7520     0.3300 C.2   1 <1>  -0.1500 
  6 C       -3.3340    -0.1210     1.9560 C.3   1 <1>   0.2900 
  7 C        0.3230     2.3120    -0.5480 C.ar  1 <1>   0.0540 
  8 N       -3.3350    -1.4150     1.2470 N.3   1 <1>  -0.8100 
  9 C        1.3150     3.2290    -0.1980 C.ar  1 <1>  -0.1500 
 10 C        0.3490     1.8080    -1.8500 C.ar  1 <1>  -0.1500 
 11 C       -4.6320    -2.1040     1.3870 C.3   1 <1>   0.2900 
 12 C       -2.2100    -2.2670     1.6720 C.3   1 <1>   0.0300 
 13 C        2.2900     3.6190    -1.0970 C.ar  1 <1>  -0.1500 
 14 C        1.3230     2.1940    -2.7540 C.ar  1 <1>  -0.1500 
 15 C       -4.7050    -3.3620     0.5380 C.2   1 <1>  -0.0400 
 16 C        2.2970     3.1000    -2.3790 C.ar  1 <1>  -0.1500 
 17 O       -4.6590    -3.2800    -0.7650 O.3   1 <1>  -0.0190 
 18 C       -4.8230    -4.6580     0.8650 C.2   1 <1>  -0.1500 
 19 N       -4.7400    -4.4520    -1.3270 N.2   1 <1>  -0.4100 
 20 C       -4.8390    -5.3060    -0.3680 C.2   1 <1>   0.1080 
 21 C       -4.9560    -6.8160    -0.5480 C.3   1 <1>   0.1010 
 22 C       -3.7020    -7.3880    -1.2330 C.3   1 <1>  -0.1600 
 23 C       -6.2220    -7.1820    -1.3410 C.3   1 <1>  -0.1600 
 24 C       -3.8150    -8.9050    -1.4430 C.3   1 <1>  -0.1600 
 25 C       -6.3400    -8.6990    -1.5520 C.3   1 <1>  -0.1600 
 26 C       -5.0830    -9.2620    -2.2300 C.3   1 <1>  -0.1600 
 27 H       -1.4550     0.0010    -0.4360 H     1 <1>   0.1500 
 28 H       -4.2800     0.3740     1.8200 H     1 <1>   0.0800 
 29 H       -3.1850    -0.2810     3.0110 H     1 <1>   0.0800 
 30 H        1.3190     3.6400     0.7970 H     1 <1>   0.1500 
 31 H       -0.4020     1.1080    -2.1660 H     1 <1>   0.1500 
 32 H       -5.4220    -1.4440     1.0690 H     1 <1>   0.0800 
 33 H       -4.7980    -2.3590     2.4190 H     1 <1>   0.0800 
 34 H       -1.2790    -1.7340     1.5780 H     1 <1>   0.0800 
 35 H       -2.1500    -3.1410     1.0460 H     1 <1>   0.0800 
 36 H       -2.3320    -2.5750     2.6960 H     1 <1>   0.0800 
 37 H        3.0440     4.3270    -0.7990 H     1 <1>   0.1500 
 38 H        1.3220     1.7900    -3.7520 H     1 <1>   0.1500 
 39 H        3.0550     3.4020    -3.0800 H     1 <1>   0.1500 
 40 H       -4.8910    -5.1220     1.8310 H     1 <1>   0.1500 
 41 H       -5.0340    -7.2620     0.4280 H     1 <1>   0.0800 
 42 H       -2.8350    -7.1680    -0.6350 H     1 <1>   0.0800 
 43 H       -3.5720    -6.9060    -2.1870 H     1 <1>   0.0800 
 44 H       -6.1910    -6.6930    -2.3000 H     1 <1>   0.0800 
 45 H       -7.0900    -6.8200    -0.8190 H     1 <1>   0.0800 
 46 H       -3.8370    -9.3990    -0.4870 H     1 <1>   0.0800 
 47 H       -2.9490    -9.2580    -1.9770 H     1 <1>   0.0800 
 48 H       -7.2020    -8.9120    -2.1600 H     1 <1>   0.0800 
 49 H       -6.4790    -9.1830    -0.6000 H     1 <1>   0.0800 
 50 H       -5.1670   -10.3320    -2.3140 H     1 <1>   0.0800 
 51 H       -5.0070    -8.8580    -3.2260 H     1 <1>   0.0800 
@<TRIPOS>BOND
  1   1   2  1   
  2   1   3  1   
  3   2   4  2   
  4   3   5  2   
  5   3   6  1   
  6   4   5  1   
  7   4   7  1   
  8   5  27  1   
  9   6   8  1   
 10   6  28  1   
 11   6  29  1   
 12   7   9  ar  
 13   7  10  ar  
 14   8  11  1   
 15   8  12  1   
 16   9  13  ar  
 17   9  30  1   
 18  10  14  ar  
 19  10  31  1   
 20  11  15  1   
 21  11  32  1   
 22  11  33  1   
 23  12  34  1   
 24  12  35  1   
 25  12  36  1   
 26  13  16  ar  
 27  13  37  1   
 28  14  16  ar  
 29  14  38  1   
 30  15  17  1   
 31  15  18  2   
 32  16  39  1   
 33  17  19  1   
 34  18  20  1   
 35  18  40  1   
 36  19  20  2   
 37  20  21  1   
 38  21  22  1   
 39  21  23  1   
 40  21  41  1   
 41  22  24  1   
 42  22  42  1   
 43  22  43  1   
 44  23  25  1   
 45  23  44  1   
 46  23  45  1   
 47  24  26  1   
 48  24  46  1   
 49  24  47  1   
 50  25  26  1   
 51  25  48  1   
 52  25  49  1   
 53  26  50  1   
 54  26  51  1   
@<TRIPOS>SUBSTRUCTURE
  1 ****   8 GROUP 4 **** **** 0

# MOE 2024.06 (io_trps.svl 2023.06)
