@<TRIPOS>MOLECULE
NONAME
38 39 1 0 0 
SMALL
USER_CHARGES


@<TRIPOS>ATOM
  1 O        1.1800     0.2380    -1.2150 O.2   1 <1>  -0.5700 
  2 C        1.9560     1.0170    -0.7100 C.2   1 <1>   0.5690 
  3 N        1.7790     2.3760    -0.7730 N.am  1 <1>  -0.6600 
  4 C        3.1900     0.4530     0.0030 C.3   1 <1>   0.1810 
  5 C        2.7310     3.3040    -0.0920 C.3   1 <1>   0.1400 
  6 C        0.6080     3.0100    -1.4320 C.3   1 <1>   0.0600 
  7 O        3.7980     1.3680     0.8870 O.3   1 <1>  -0.5600 
  8 C        4.0560     2.6180     0.3050 C.3   1 <1>   0.2000 
  9 C        4.8610     3.4580     1.3090 C.3   1 <1>   0.2090 
 10 N        4.9580     4.8880     0.8950 N.pl3 1 <1>  -0.8690 
 11 C        5.8570     5.3680    -0.0300 C.ar  1 <1>   0.4100 
 12 N        6.3900     4.4550    -0.8410 N.ar  1 <1>  -0.6200 
 13 C        6.1570     6.7440    -0.0920 C.ar  1 <1>   0.0860 
 14 C        7.2620     4.8890    -1.7280 C.ar  1 <1>   0.1600 
 15 C        5.5170     7.6990     0.7840 C.2   1 <1>   0.5440 
 16 C        7.0880     7.1580    -1.0380 C.ar  1 <1>  -0.1500 
 17 C        7.6450     6.2100    -1.8660 C.ar  1 <1>  -0.1500 
 18 O        5.2980     7.4440     1.9560 O.2   1 <1>  -0.5700 
 19 N        5.1350     8.9250     0.3050 N.am  1 <1>  -0.7300 
 20 C        4.4780     9.9970     1.0960 C.3   1 <1>   0.0600 
 21 H        3.9180     0.1570    -0.7290 H     1 <1>   0.0800 
 22 H        2.9040    -0.4100     0.5750 H     1 <1>   0.0800 
 23 H        2.2600     3.6990     0.7910 H     1 <1>   0.0800 
 24 H        2.9550     4.1300    -0.7440 H     1 <1>   0.0800 
 25 H       -0.0270     2.2630    -1.8770 H     1 <1>   0.0800 
 26 H        0.9440     3.6810    -2.2030 H     1 <1>   0.0800 
 27 H        0.0360     3.5600    -0.7050 H     1 <1>   0.0800 
 28 H        4.6590     2.4600    -0.5730 H     1 <1>   0.0800 
 29 H        5.8500     3.0450     1.4040 H     1 <1>   0.0800 
 30 H        4.3770     3.4120     2.2690 H     1 <1>   0.0800 
 31 H        4.7780     5.5580     1.6630 H     1 <1>   0.4000 
 32 H        7.7000     4.1530    -2.3810 H     1 <1>   0.1500 
 33 H        7.3720     8.1920    -1.1170 H     1 <1>   0.1500 
 34 H        8.3700     6.4860    -2.6110 H     1 <1>   0.1500 
 35 H        5.2270     9.1100    -0.6960 H     1 <1>   0.3700 
 36 H        4.4400     9.7290     2.1390 H     1 <1>   0.0800 
 37 H        3.4730    10.1470     0.7420 H     1 <1>   0.0800 
 38 H        5.0310    10.9150     0.9960 H     1 <1>   0.0800 
@<TRIPOS>BOND
  1   1   2  2   
  2   2   3  am  
  3   2   4  1   
  4   3   5  1   
  5   3   6  1   
  6   4   7  1   
  7   4  21  1   
  8   4  22  1   
  9   5   8  1   
 10   5  23  1   
 11   5  24  1   
 12   6  25  1   
 13   6  26  1   
 14   6  27  1   
 15   7   8  1   
 16   8   9  1   
 17   8  28  1   
 18   9  10  1   
 19   9  29  1   
 20   9  30  1   
 21  10  11  1   
 22  10  31  1   
 23  11  12  ar  
 24  11  13  ar  
 25  12  14  ar  
 26  13  15  1   
 27  13  16  ar  
 28  14  17  ar  
 29  14  32  1   
 30  15  18  2   
 31  15  19  am  
 32  16  17  ar  
 33  16  33  1   
 34  17  34  1   
 35  19  20  1   
 36  19  35  1   
 37  20  36  1   
 38  20  37  1   
 39  20  38  1   
@<TRIPOS>SUBSTRUCTURE
  1 ****  10 GROUP 4 **** **** 0

# MOE 2024.06 (io_trps.svl 2023.06)
