@<TRIPOS>MOLECULE
NONAME
49 52 1 0 0 
SMALL
USER_CHARGES


@<TRIPOS>ATOM
  1 O       -0.7720     0.5190    -1.6990 O.2   1 <1>  -0.5700 
  2 C       -1.6650     1.1070    -1.1100 C.2   1 <1>   0.5440 
  3 N       -2.7070     0.3430    -0.6200 N.am  1 <1>  -0.6600 
  4 C       -1.5970     2.5590    -0.9200 C.ar  1 <1>   0.3960 
  5 C       -3.8640     0.8540     0.1590 C.3   1 <1>   0.1400 
  6 C       -2.8080    -1.1190    -0.8120 C.3   1 <1>   0.1400 
  7 N       -2.6360     3.2980    -1.3000 N.ar  1 <1>  -0.6200 
  8 C       -0.4780     3.1660    -0.3510 C.ar  1 <1>  -0.1430 
  9 C       -4.6980    -0.3870     0.4900 C.3   1 <1>   0.2000 
 10 C       -3.7740    -1.5870     0.2770 C.3   1 <1>  -0.0800 
 11 C       -2.5270     4.5890    -1.1050 C.ar  1 <1>   0.7200 
 12 C       -0.4930     4.5410    -0.2200 C.ar  1 <1>   0.1660 
 13 C        0.7320     2.3430     0.1050 C.3   1 <1>  -0.0160 
 14 O       -5.1500    -0.3650     1.8000 O.3   1 <1>  -0.6800 
 15 C       -4.5460    -2.8650    -0.0880 C.3   1 <1>   0.0200 
 16 N       -1.5190     5.2600    -0.5950 N.ar  1 <1>  -0.6200 
 17 N       -3.5690     5.3230    -1.4930 N.pl3 1 <1>  -0.9000 
 18 C        0.6690     5.3190     0.3840 C.3   1 <1>  -0.0170 
 19 C        1.6640     3.1110     1.0480 C.3   1 <1>  -0.1600 
 20 C       -3.6480    -4.0760    -0.2740 C.2   1 <1>  -0.0400 
 21 C        1.9610     4.5010     0.4840 C.3   1 <1>  -0.1600 
 22 O       -4.1630    -5.1650    -0.7810 O.3   1 <1>  -0.0190 
 23 C       -2.3510    -4.3190    -0.0200 C.2   1 <1>  -0.1500 
 24 N       -3.2830    -6.1180    -0.8850 N.2   1 <1>  -0.4100 
 25 C       -2.1810    -5.6370    -0.4340 C.2   1 <1>   0.1080 
 26 C       -0.8820    -6.4070    -0.3670 C.3   1 <1>  -0.0590 
 27 H       -3.5120     1.3410     1.0520 H     1 <1>   0.0800 
 28 H       -4.4380     1.5420    -0.4360 H     1 <1>   0.0800 
 29 H       -3.2060    -1.3140    -1.7940 H     1 <1>   0.0800 
 30 H       -1.8420    -1.5860    -0.7210 H     1 <1>   0.0800 
 31 H       -5.5540    -0.4280    -0.1620 H     1 <1>   0.0800 
 32 H       -3.1980    -1.7570     1.1700 H     1 <1>   0.0800 
 33 H        0.4080     1.4460     0.6030 H     1 <1>   0.0800 
 34 H        1.2870     2.0460    -0.7700 H     1 <1>   0.0800 
 35 H       -4.3970    -0.3210     2.4210 H     1 <1>   0.4000 
 36 H       -5.0960    -2.7040    -0.9990 H     1 <1>   0.0800 
 37 H       -5.2580    -3.0870     0.6880 H     1 <1>   0.0800 
 38 H       -4.1650     4.8990    -2.1960 H     1 <1>   0.4000 
 39 H       -3.3710     6.3140    -1.6040 H     1 <1>   0.4000 
 40 H        0.8520     6.1990    -0.2080 H     1 <1>   0.0800 
 41 H        0.3740     5.6430     1.3660 H     1 <1>   0.0800 
 42 H        1.2000     3.2060     2.0150 H     1 <1>   0.0800 
 43 H        2.5820     2.5610     1.1710 H     1 <1>   0.0800 
 44 H        2.4010     4.4050    -0.4940 H     1 <1>   0.0800 
 45 H        2.6650     5.0150     1.1160 H     1 <1>   0.0800 
 46 H       -1.5910    -3.6880     0.4000 H     1 <1>   0.1500 
 47 H       -0.5260    -6.4370     0.6460 H     1 <1>   0.0800 
 48 H       -0.1450    -5.9350    -0.9890 H     1 <1>   0.0800 
 49 H       -1.0340    -7.4140    -0.7120 H     1 <1>   0.0800 
@<TRIPOS>BOND
  1   1   2  2   
  2   2   3  am  
  3   2   4  1   
  4   3   5  1   
  5   3   6  1   
  6   4   7  ar  
  7   4   8  ar  
  8   5   9  1   
  9   5  27  1   
 10   5  28  1   
 11   6  10  1   
 12   6  29  1   
 13   6  30  1   
 14   7  11  ar  
 15   8  12  ar  
 16   8  13  1   
 17   9  10  1   
 18   9  14  1   
 19   9  31  1   
 20  10  15  1   
 21  10  32  1   
 22  11  16  ar  
 23  11  17  1   
 24  12  16  ar  
 25  12  18  1   
 26  13  19  1   
 27  13  33  1   
 28  13  34  1   
 29  14  35  1   
 30  15  20  1   
 31  15  36  1   
 32  15  37  1   
 33  17  38  1   
 34  17  39  1   
 35  18  21  1   
 36  18  40  1   
 37  18  41  1   
 38  19  21  1   
 39  19  42  1   
 40  19  43  1   
 41  20  22  1   
 42  20  23  2   
 43  21  44  1   
 44  21  45  1   
 45  22  24  1   
 46  23  25  1   
 47  23  46  1   
 48  24  25  2   
 49  25  26  1   
 50  26  47  1   
 51  26  48  1   
 52  26  49  1   
@<TRIPOS>SUBSTRUCTURE
  1 ****   3 GROUP 4 **** **** 0

# MOE 2024.06 (io_trps.svl 2023.06)
