@<TRIPOS>MOLECULE
NONAME
54 56 1 0 0 
SMALL
USER_CHARGES


@<TRIPOS>ATOM
  1 S       -0.1490    -0.5050    -1.2280 S.o2  1 <1>   1.4470 
  2 O       -0.1380     0.8240    -1.8040 O.2   1 <1>  -0.6500 
  3 O       -0.5530    -1.6000    -2.0860 O.2   1 <1>  -0.6500 
  4 N       -1.2870    -0.4300     0.0330 N.am  1 <1>  -0.8490 
  5 C        1.4330    -0.9580    -0.3960 C.ar  1 <1>  -0.0090 
  6 C       -2.6960    -0.5380    -0.4050 C.3   1 <1>   0.1960 
  7 C       -1.0250     0.5720     1.0670 C.3   1 <1>   0.1960 
  8 C        2.6420    -0.2790    -0.6440 C.ar  1 <1>  -0.1440 
  9 C        1.4660    -2.0150     0.5260 C.ar  1 <1>  -0.1430 
 10 C       -3.6130     0.6620    -0.0360 C.3   1 <1>   0.0000 
 11 C       -1.5340     1.9720     0.6880 C.3   1 <1>  -0.1600 
 12 C        3.7950    -0.5560     0.0960 C.ar  1 <1>  -0.1430 
 13 C        2.7130     0.7710    -1.7600 C.3   1 <1>  -0.0970 
 14 C        2.6190    -2.3090     1.2290 C.ar  1 <1>  -0.1500 
 15 C        0.2650    -2.9140     0.8190 C.3   1 <1>  -0.0970 
 16 C       -4.2630     0.5890     1.3670 C.3   1 <1>   0.2000 
 17 C       -2.7930     1.9630    -0.1990 C.3   1 <1>  -0.1600 
 18 C       -4.8430     0.7230    -0.9630 C.3   1 <1>  -0.1600 
 19 C        3.7820    -1.5830     1.0350 C.ar  1 <1>   0.0830 
 20 C        5.0870     0.2460    -0.1030 C.3   1 <1>  -0.0970 
 21 O       -4.7270    -0.6890     1.6260 O.3   1 <1>  -0.6800 
 22 C       -5.4920     1.4910     1.2820 C.3   1 <1>  -0.1600 
 23 C       -5.9500     1.4470    -0.1820 C.3   1 <1>  -0.1600 
 24 O        4.9220    -1.8520     1.7280 O.3   1 <1>  -0.3630 
 25 C        5.0130    -2.9040     2.6630 C.3   1 <1>   0.0400 
 26 H       -2.7170    -0.6340    -1.4770 H     1 <1>   0.0800 
 27 H       -3.1010    -1.4560    -0.0160 H     1 <1>   0.0800 
 28 H       -1.5220     0.2500     1.9660 H     1 <1>   0.0800 
 29 H        0.0270     0.6130     1.2920 H     1 <1>   0.0800 
 30 H       -1.7370     2.5100     1.5970 H     1 <1>   0.0800 
 31 H       -0.7520     2.5070     0.1780 H     1 <1>   0.0800 
 32 H        3.7110     0.9460    -2.1090 H     1 <1>   0.0800 
 33 H        2.3030     1.7050    -1.4190 H     1 <1>   0.0800 
 34 H        2.1680     0.4390    -2.6250 H     1 <1>   0.0800 
 35 H        2.5990    -3.1160     1.9340 H     1 <1>   0.1500 
 36 H        0.5800    -3.8530     1.2380 H     1 <1>   0.0800 
 37 H       -0.2840    -3.1420    -0.0760 H     1 <1>   0.0800 
 38 H       -0.3930    -2.4410     1.5250 H     1 <1>   0.0800 
 39 H       -3.6040     0.8710     2.1680 H     1 <1>   0.0800 
 40 H       -2.4720     2.0300    -1.2250 H     1 <1>   0.0800 
 41 H       -3.3850     2.8380     0.0010 H     1 <1>   0.0800 
 42 H       -4.6270     1.2160    -1.8960 H     1 <1>   0.0800 
 43 H       -5.1760    -0.2770    -1.1850 H     1 <1>   0.0800 
 44 H        4.8700     1.2960    -0.1840 H     1 <1>   0.0800 
 45 H        5.5870    -0.0850    -0.9950 H     1 <1>   0.0800 
 46 H        5.7680     0.1390     0.7210 H     1 <1>   0.0800 
 47 H       -5.4580    -0.8900     1.0120 H     1 <1>   0.4000 
 48 H       -6.2660     1.1920     1.9690 H     1 <1>   0.0800 
 49 H       -5.1990     2.4970     1.5260 H     1 <1>   0.0800 
 50 H       -6.8830     0.9170    -0.2780 H     1 <1>   0.0800 
 51 H       -6.0820     2.4480    -0.5560 H     1 <1>   0.0800 
 52 H        6.0130    -2.9130     3.0570 H     1 <1>   0.0800 
 53 H        4.8100    -3.8340     2.1620 H     1 <1>   0.0800 
 54 H        4.3090    -2.7290     3.4560 H     1 <1>   0.0800 
@<TRIPOS>BOND
  1   1   2  2   
  2   1   3  2   
  3   1   4  am  
  4   1   5  1   
  5   4   6  1   
  6   4   7  1   
  7   5   8  ar  
  8   5   9  ar  
  9   6  10  1   
 10   6  26  1   
 11   6  27  1   
 12   7  11  1   
 13   7  28  1   
 14   7  29  1   
 15   8  12  ar  
 16   8  13  1   
 17   9  14  ar  
 18   9  15  1   
 19  10  16  1   
 20  10  17  1   
 21  10  18  1   
 22  11  17  1   
 23  11  30  1   
 24  11  31  1   
 25  12  19  ar  
 26  12  20  1   
 27  13  32  1   
 28  13  33  1   
 29  13  34  1   
 30  14  19  ar  
 31  14  35  1   
 32  15  36  1   
 33  15  37  1   
 34  15  38  1   
 35  16  21  1   
 36  16  22  1   
 37  16  39  1   
 38  17  40  1   
 39  17  41  1   
 40  18  23  1   
 41  18  42  1   
 42  18  43  1   
 43  19  24  1   
 44  20  44  1   
 45  20  45  1   
 46  20  46  1   
 47  21  47  1   
 48  22  23  1   
 49  22  48  1   
 50  22  49  1   
 51  23  50  1   
 52  23  51  1   
 53  24  25  1   
 54  25  52  1   
 55  25  53  1   
 56  25  54  1   
@<TRIPOS>SUBSTRUCTURE
  1 ****   4 GROUP 4 **** **** 0

# MOE 2024.06 (io_trps.svl 2023.06)
