@<TRIPOS>MOLECULE
NONAME
44 45 1 0 0 
SMALL
USER_CHARGES


@<TRIPOS>ATOM
  1 O       -0.3580     0.0450     0.4110 O.2   1 <1>  -0.5700 
  2 C        0.6770    -0.5580     0.5620 C.2   1 <1>   0.5690 
  3 N        1.9000     0.0400     0.5950 N.am  1 <1>  -0.4930 
  4 C        0.6120    -2.0620     0.7170 C.3   1 <1>  -0.0990 
  5 C        2.2170     1.4150     0.4520 C.2   1 <1>   0.0630 
  6 C        0.1680    -2.7300    -0.5870 C.3   1 <1>   0.0210 
  7 C        1.3710     2.5010     0.2220 C.2   1 <1>   0.1390 
  8 C        3.4510     1.9550     0.5110 C.2   1 <1>  -0.3020 
  9 C        0.1740    -4.2390    -0.4180 C.2   1 <1>  -0.1810 
 10 N        2.0210     3.6240     0.1440 N.2   1 <1>  -0.7070 
 11 N        3.3160     3.2890     0.3250 N.pl3 1 <1>   0.3140 
 12 C        1.2080    -5.1120    -0.7440 C.2   1 <1>   0.1080 
 13 C       -0.7990    -5.0320     0.0820 C.2   1 <1>  -0.3320 
 14 C        4.4260     4.2850     0.3150 C.3   1 <1>   0.1760 
 15 N        0.9140    -6.3420    -0.4720 N.2   1 <1>  -0.7070 
 16 C        2.5380    -4.7280    -1.3510 C.3   1 <1>  -0.0590 
 17 N       -0.3270    -6.2980     0.0360 N.pl3 1 <1>   0.3140 
 18 C       -2.1750    -4.6570     0.6130 C.3   1 <1>  -0.0600 
 19 C        4.2490     5.3050     1.4480 C.3   1 <1>  -0.2400 
 20 C        4.5110     4.9900    -1.0460 C.3   1 <1>  -0.2400 
 21 C       -1.0130    -7.5220     0.4630 C.3   1 <1>   0.0160 
 22 H        2.7030    -0.5640     0.7490 H     1 <1>   0.3700 
 23 H       -0.0930    -2.2960     1.4930 H     1 <1>   0.0800 
 24 H        1.5700    -2.4480     1.0120 H     1 <1>   0.0800 
 25 H        0.8230    -2.4510    -1.3920 H     1 <1>   0.0800 
 26 H       -0.8230    -2.4000    -0.8460 H     1 <1>   0.0800 
 27 H        0.3020     2.4250     0.1210 H     1 <1>   0.1500 
 28 H        4.3990     1.4810     0.6730 H     1 <1>   0.1500 
 29 H        5.3440     3.7490     0.4800 H     1 <1>   0.0800 
 30 H        3.0100    -3.9720    -0.7540 H     1 <1>   0.0800 
 31 H        2.3870    -4.3600    -2.3480 H     1 <1>   0.0800 
 32 H        3.1800    -5.5890    -1.3920 H     1 <1>   0.0800 
 33 H       -2.3220    -3.5930     0.5740 H     1 <1>   0.0800 
 34 H       -2.2770    -4.9760     1.6340 H     1 <1>   0.0800 
 35 H       -2.9400    -5.1270     0.0200 H     1 <1>   0.0800 
 36 H        3.3390     5.8630     1.3080 H     1 <1>   0.0800 
 37 H        5.0740     5.9930     1.4630 H     1 <1>   0.0800 
 38 H        4.2060     4.8010     2.3970 H     1 <1>   0.0800 
 39 H        3.6070     5.5410    -1.2370 H     1 <1>   0.0800 
 40 H        4.6510     4.2670    -1.8300 H     1 <1>   0.0800 
 41 H        5.3400     5.6740    -1.0600 H     1 <1>   0.0800 
 42 H       -1.9200    -7.6320    -0.1000 H     1 <1>   0.0800 
 43 H       -1.2320    -7.4550     1.5110 H     1 <1>   0.0800 
 44 H       -0.3720    -8.3650     0.2810 H     1 <1>   0.0800 
@<TRIPOS>BOND
  1   1   2  2   
  2   2   3  am  
  3   2   4  1   
  4   3   5  1   
  5   3  22  1   
  6   4   6  1   
  7   4  23  1   
  8   4  24  1   
  9   5   7  1   
 10   5   8  2   
 11   6   9  1   
 12   6  25  1   
 13   6  26  1   
 14   7  10  2   
 15   7  27  1   
 16   8  11  1   
 17   8  28  1   
 18   9  12  1   
 19   9  13  2   
 20  10  11  1   
 21  11  14  1   
 22  12  15  2   
 23  12  16  1   
 24  13  17  1   
 25  13  18  1   
 26  14  19  1   
 27  14  20  1   
 28  14  29  1   
 29  15  17  1   
 30  16  30  1   
 31  16  31  1   
 32  16  32  1   
 33  17  21  1   
 34  18  33  1   
 35  18  34  1   
 36  18  35  1   
 37  19  36  1   
 38  19  37  1   
 39  19  38  1   
 40  20  39  1   
 41  20  40  1   
 42  20  41  1   
 43  21  42  1   
 44  21  43  1   
 45  21  44  1   
@<TRIPOS>SUBSTRUCTURE
  1 ****   2 GROUP 4 **** **** 0

# MOE 2024.06 (io_trps.svl 2023.06)
