@<TRIPOS>MOLECULE
NONAME
55 57 1 0 0 
SMALL
USER_CHARGES


@<TRIPOS>ATOM
  1 F        0.9600     0.8770     2.4860 F     1 <1>  -0.1900 
  2 C        1.5840     0.9440     1.3390 C.ar  1 <1>   0.1900 
  3 C        1.9560    -0.2260     0.6940 C.ar  1 <1>  -0.1440 
  4 C        1.8410     2.1970     0.8140 C.ar  1 <1>  -0.1500 
  5 C        2.6080    -0.1140    -0.5260 C.ar  1 <1>  -0.1500 
  6 C        1.6700    -1.5980     1.2830 C.3   1 <1>   0.2840 
  7 C        2.4930     2.2880    -0.4030 C.ar  1 <1>  -0.1500 
  8 C        2.8750     1.1330    -1.0690 C.ar  1 <1>  -0.1500 
  9 N        0.5240    -2.2170     0.5640 N.am  1 <1>  -0.6600 
 10 C        0.7180    -3.1970    -0.3750 C.2   1 <1>   0.5690 
 11 C       -0.8330    -1.7180     0.9570 C.3   1 <1>   0.1400 
 12 O        1.8110    -3.6460    -0.6280 O.2   1 <1>  -0.5700 
 13 C       -0.4700    -3.7700    -1.1520 C.3   1 <1>   0.2010 
 14 C       -1.9310    -2.0920    -0.0540 C.3   1 <1>   0.1400 
 15 N       -1.7960    -3.5170    -0.4850 N.am  1 <1>  -0.6600 
 16 C       -2.7010    -4.4750    -0.1060 C.2   1 <1>   0.5690 
 17 O       -3.6850    -4.1990     0.5430 O.2   1 <1>  -0.5700 
 18 C       -2.5300    -5.9580    -0.4870 C.3   1 <1>   0.4040 
 19 N       -3.8360    -6.7150    -0.4950 N.4   1 <1>  -0.9590 
 20 C       -3.6960    -8.1680    -0.2580 C.3   1 <1>   0.3430 
 21 C       -4.6990    -6.4000    -1.6530 C.3   1 <1>   0.3430 
 22 C       -4.0270    -8.4450     1.2060 C.3   1 <1>  -0.1600 
 23 C       -6.1010    -6.0520    -1.1500 C.3   1 <1>  -0.1600 
 24 C       -5.5350    -8.4780     1.5220 C.3   1 <1>  -0.1600 
 25 C       -6.8000    -7.1350    -0.3050 C.3   1 <1>  -0.1600 
 26 C       -6.3480    -7.2160     1.1710 C.3   1 <1>  -0.1600 
 27 H        1.5360     3.0790     1.3480 H     1 <1>   0.1500 
 28 H        2.9090    -1.0040    -1.0550 H     1 <1>   0.1500 
 29 H        1.4430    -1.5290     2.3320 H     1 <1>   0.0800 
 30 H        2.5490    -2.2130     1.1850 H     1 <1>   0.0800 
 31 H        2.7050     3.2530    -0.8320 H     1 <1>   0.1500 
 32 H        3.3830     1.2050    -2.0160 H     1 <1>   0.1500 
 33 H       -0.8090    -0.6460     1.0550 H     1 <1>   0.0800 
 34 H       -1.0880    -2.1280     1.9180 H     1 <1>   0.0800 
 35 H       -0.2980    -4.8210    -1.2860 H     1 <1>   0.0800 
 36 H       -0.4760    -3.3100    -2.1240 H     1 <1>   0.0800 
 37 H       -1.8490    -1.4520    -0.9160 H     1 <1>   0.0800 
 38 H       -2.8970    -1.9120     0.3880 H     1 <1>   0.0800 
 39 H       -1.8680    -6.3980     0.2380 H     1 <1>   0.0800 
 40 H       -2.0650    -6.0260    -1.4550 H     1 <1>   0.0800 
 41 H       -4.3630    -6.3360     0.3130 H     1 <1>   0.4500 
 42 H       -2.6900    -8.4850    -0.4780 H     1 <1>   0.0800 
 43 H       -4.3750    -8.7230    -0.8850 H     1 <1>   0.0800 
 44 H       -4.7440    -7.2400    -2.3270 H     1 <1>   0.0800 
 45 H       -4.3050    -5.5520    -2.1920 H     1 <1>   0.0800 
 46 H       -3.5290    -7.7350     1.8430 H     1 <1>   0.0800 
 47 H       -3.6290    -9.4140     1.4510 H     1 <1>   0.0800 
 48 H       -6.7090    -5.8710    -2.0190 H     1 <1>   0.0800 
 49 H       -6.0710    -5.1230    -0.6050 H     1 <1>   0.0800 
 50 H       -5.6310    -8.6400     2.5830 H     1 <1>   0.0800 
 51 H       -5.9850    -9.3340     1.0480 H     1 <1>   0.0800 
 52 H       -6.7280    -8.0950    -0.7880 H     1 <1>   0.0800 
 53 H       -7.8490    -6.8870    -0.2950 H     1 <1>   0.0800 
 54 H       -5.8380    -6.3220     1.4870 H     1 <1>   0.0800 
 55 H       -7.2470    -7.2620     1.7650 H     1 <1>   0.0800 
@<TRIPOS>BOND
  1   1   2  1   
  2   2   3  ar  
  3   2   4  ar  
  4   3   5  ar  
  5   3   6  1   
  6   4   7  ar  
  7   4  27  1   
  8   5   8  ar  
  9   5  28  1   
 10   6   9  1   
 11   6  29  1   
 12   6  30  1   
 13   7   8  ar  
 14   7  31  1   
 15   8  32  1   
 16   9  10  am  
 17   9  11  1   
 18  10  12  2   
 19  10  13  1   
 20  11  14  1   
 21  11  33  1   
 22  11  34  1   
 23  13  15  1   
 24  13  35  1   
 25  13  36  1   
 26  14  15  1   
 27  14  37  1   
 28  14  38  1   
 29  15  16  am  
 30  16  17  2   
 31  16  18  1   
 32  18  19  1   
 33  18  39  1   
 34  18  40  1   
 35  19  20  1   
 36  19  21  1   
 37  19  41  1   
 38  20  22  1   
 39  20  42  1   
 40  20  43  1   
 41  21  23  1   
 42  21  44  1   
 43  21  45  1   
 44  22  24  1   
 45  22  46  1   
 46  22  47  1   
 47  23  25  1   
 48  23  48  1   
 49  23  49  1   
 50  24  26  1   
 51  24  50  1   
 52  24  51  1   
 53  25  26  1   
 54  25  52  1   
 55  25  53  1   
 56  26  54  1   
 57  26  55  1   
@<TRIPOS>SUBSTRUCTURE
  1 ****  15 GROUP 4 **** **** 0

# MOE 2024.06 (io_trps.svl 2023.06)
