@<TRIPOS>MOLECULE
NONAME
48 50 1 0 0 
SMALL
USER_CHARGES


@<TRIPOS>ATOM
  1 O       -0.7730     0.1060     1.5200 O.2   1 <1>  -0.5700 
  2 C       -1.5590     0.6980     0.8040 C.2   1 <1>   0.7160 
  3 N       -2.6070    -0.0040     0.2570 N.am  1 <1>  -0.6600 
  4 C       -1.4000     2.1090     0.5220 C.2   1 <1>  -0.0860 
  5 C       -3.5680     0.5360    -0.7330 C.3   1 <1>   0.1400 
  6 C       -2.7950    -1.4640     0.4270 C.3   1 <1>   0.1400 
  7 C       -2.1580     3.1690     0.9600 C.2   1 <1>  -0.3320 
  8 C       -0.4100     2.6770    -0.2960 C.2   1 <1>  -0.1810 
  9 C       -4.6700    -0.5200    -0.7890 C.3   1 <1>   0.2000 
 10 C       -3.9170    -1.8360    -0.5500 C.3   1 <1>  -0.0800 
 11 N       -1.6770     4.3140     0.4460 N.pl3 1 <1>   0.0330 
 12 C       -3.3560     3.1350     1.8940 C.3   1 <1>  -0.0600 
 13 C       -0.5930     4.0390    -0.3470 C.2   1 <1>  -0.2370 
 14 C        0.6660     1.8470    -0.9790 C.3   1 <1>  -0.0590 
 15 O       -5.5380    -0.2870     0.2670 O.3   1 <1>  -0.6800 
 16 C       -4.7850    -3.0180    -0.0810 C.3   1 <1>  -0.0170 
 17 C        0.1290     5.0640    -1.0510 C.2   1 <1>   0.5940 
 18 C       -3.9520    -4.2840     0.0440 C.ar  1 <1>  -0.1440 
 19 O        0.9830     4.8520    -1.8730 O.2   1 <1>  -0.5700 
 20 C       -0.1920     6.5170    -0.7690 C.3   1 <1>  -0.1790 
 21 C       -3.4220    -4.6980     1.2490 C.ar  1 <1>  -0.1500 
 22 C       -3.6800    -5.0840    -1.0480 C.ar  1 <1>  -0.1500 
 23 C       -2.6620    -5.8550     1.3020 C.ar  1 <1>   0.1600 
 24 C       -2.9090    -6.2240    -0.8860 C.ar  1 <1>   0.1600 
 25 N       -2.3920    -6.6270     0.2620 N.ar  1 <1>  -0.6200 
 26 H       -3.9510     1.5000    -0.4450 H     1 <1>   0.0800 
 27 H       -3.0780     0.6140    -1.6880 H     1 <1>   0.0800 
 28 H       -1.8840    -1.9960     0.2050 H     1 <1>   0.0800 
 29 H       -3.0820    -1.6610     1.4450 H     1 <1>   0.0800 
 30 H       -5.2300    -0.5030    -1.7070 H     1 <1>   0.0800 
 31 H       -3.4490    -2.1120    -1.4790 H     1 <1>   0.0800 
 32 H       -2.0580     5.2500     0.6210 H     1 <1>   0.2700 
 33 H       -3.5500     2.1300     2.2240 H     1 <1>   0.0800 
 34 H       -4.2320     3.5050     1.3920 H     1 <1>   0.0800 
 35 H       -3.1660     3.7430     2.7610 H     1 <1>   0.0800 
 36 H        1.1080     1.1680    -0.2720 H     1 <1>   0.0800 
 37 H        1.4480     2.4650    -1.3770 H     1 <1>   0.0800 
 38 H        0.2340     1.2790    -1.7830 H     1 <1>   0.0800 
 39 H       -5.0070    -0.1560     1.0780 H     1 <1>   0.4000 
 40 H       -5.5800    -3.1810    -0.7880 H     1 <1>   0.0800 
 41 H       -5.2420    -2.7960     0.8680 H     1 <1>   0.0800 
 42 H       -0.1230     6.7110     0.2840 H     1 <1>   0.0800 
 43 H       -1.1800     6.7470    -1.1220 H     1 <1>   0.0800 
 44 H        0.5110     7.1490    -1.2800 H     1 <1>   0.0800 
 45 H       -3.5900    -4.1340     2.1480 H     1 <1>   0.1500 
 46 H       -4.0590    -4.8330    -2.0210 H     1 <1>   0.1500 
 47 H       -2.2550    -6.1610     2.2510 H     1 <1>   0.1500 
 48 H       -2.7070    -6.8360    -1.7490 H     1 <1>   0.1500 
@<TRIPOS>BOND
  1   1   2  2   
  2   2   3  am  
  3   2   4  1   
  4   3   5  1   
  5   3   6  1   
  6   4   7  2   
  7   4   8  1   
  8   5   9  1   
  9   5  26  1   
 10   5  27  1   
 11   6  10  1   
 12   6  28  1   
 13   6  29  1   
 14   7  11  1   
 15   7  12  1   
 16   8  13  2   
 17   8  14  1   
 18   9  10  1   
 19   9  15  1   
 20   9  30  1   
 21  10  16  1   
 22  10  31  1   
 23  11  13  1   
 24  11  32  1   
 25  12  33  1   
 26  12  34  1   
 27  12  35  1   
 28  13  17  1   
 29  14  36  1   
 30  14  37  1   
 31  14  38  1   
 32  15  39  1   
 33  16  18  1   
 34  16  40  1   
 35  16  41  1   
 36  17  19  2   
 37  17  20  1   
 38  18  21  ar  
 39  18  22  ar  
 40  20  42  1   
 41  20  43  1   
 42  20  44  1   
 43  21  23  ar  
 44  21  45  1   
 45  22  24  ar  
 46  22  46  1   
 47  23  25  ar  
 48  23  47  1   
 49  24  25  ar  
 50  24  48  1   
@<TRIPOS>SUBSTRUCTURE
  1 ****   3 GROUP 4 **** **** 0

# MOE 2024.06 (io_trps.svl 2023.06)
