@<TRIPOS>MOLECULE
NONAME
54 56 1 0 0 
SMALL
USER_CHARGES


@<TRIPOS>ATOM
  1 O        4.6020    -0.9170    -1.4580 O.2   1 <1>  -0.5700 
  2 C        3.5890    -0.8830    -0.7860 C.2   1 <1>   0.5440 
  3 N        2.6790     0.1090    -1.0860 N.am  1 <1>  -0.6600 
  4 C        3.4220    -1.7750     0.3440 C.ar  1 <1>   0.0860 
  5 C        2.6300     0.7110    -2.4640 C.3   1 <1>   0.1400 
  6 C        2.0870     0.9500    -0.0120 C.3   1 <1>   0.1400 
  7 C        2.2020    -2.3390     0.6880 C.ar  1 <1>  -0.1500 
  8 C        4.4820    -2.1210     1.1690 C.ar  1 <1>  -0.1500 
  9 C        3.8350     1.6340    -2.7630 C.3   1 <1>   0.3430 
 10 C        3.1230     1.9590     0.5060 C.3   1 <1>  -0.1600 
 11 C        2.0990    -3.1620     1.7940 C.ar  1 <1>   0.1670 
 12 C        4.2820    -2.9530     2.2540 C.ar  1 <1>   0.1660 
 13 N        4.5600     2.0000    -1.5110 N.4   1 <1>  -0.9590 
 14 C        3.7710     2.8400    -0.5680 C.3   1 <1>   0.3430 
 15 N        3.1120    -3.4690     2.5820 N.ar  1 <1>  -0.6200 
 16 C        0.7670    -3.7750     2.1710 C.3   1 <1>  -0.0970 
 17 C        5.4430    -3.3240     3.1510 C.3   1 <1>  -0.0970 
 18 C        5.9560     2.4540    -1.7190 C.3   1 <1>   0.4860 
 19 C        6.6610     2.3740    -0.3790 C.ar  1 <1>  -0.1430 
 20 C        6.8830     1.1390     0.2110 C.ar  1 <1>  -0.1500 
 21 C        7.0680     3.5250     0.2810 C.ar  1 <1>  -0.1500 
 22 C        7.4750     1.0430     1.4590 C.ar  1 <1>   0.0820 
 23 C        7.6730     3.4370     1.5240 C.ar  1 <1>  -0.1500 
 24 O        7.6260    -0.2050     1.9650 O.3   1 <1>  -0.3620 
 25 C        7.8740     2.2030     2.1160 C.ar  1 <1>  -0.1500 
 26 C        8.3400    -0.4230     3.1630 C.3   1 <1>   0.0400 
 27 H        1.7150     1.2660    -2.5840 H     1 <1>   0.0800 
 28 H        2.6140    -0.0820    -3.1930 H     1 <1>   0.0800 
 29 H        1.7570     0.3280     0.8040 H     1 <1>   0.0800 
 30 H        1.2220     1.4670    -0.3920 H     1 <1>   0.0800 
 31 H        1.3370    -2.1340     0.0860 H     1 <1>   0.1500 
 32 H        5.4640    -1.7380     0.9590 H     1 <1>   0.1500 
 33 H        3.5090     2.5150    -3.2900 H     1 <1>   0.0800 
 34 H        4.5060     1.0910    -3.4090 H     1 <1>   0.0800 
 35 H        3.8910     1.4410     1.0550 H     1 <1>   0.0800 
 36 H        2.6290     2.6040     1.2110 H     1 <1>   0.0800 
 37 H        4.6600     1.0780    -1.0450 H     1 <1>   0.4500 
 38 H        4.4200     3.5490    -0.0800 H     1 <1>   0.0800 
 39 H        3.0150     3.3920    -1.1030 H     1 <1>   0.0800 
 40 H       -0.0070    -3.4830     1.4860 H     1 <1>   0.0800 
 41 H        0.4950    -3.4610     3.1610 H     1 <1>   0.0800 
 42 H        0.8530    -4.8470     2.1620 H     1 <1>   0.0800 
 43 H        6.3620    -2.8990     2.7930 H     1 <1>   0.0800 
 44 H        5.5440    -4.3940     3.1810 H     1 <1>   0.0800 
 45 H        5.2550    -2.9670     4.1470 H     1 <1>   0.0800 
 46 H        5.9740     3.4630    -2.0970 H     1 <1>   0.0800 
 47 H        6.4560     1.8060    -2.4200 H     1 <1>   0.0800 
 48 H        6.6030     0.2250    -0.2840 H     1 <1>   0.1500 
 49 H        6.9220     4.4980    -0.1580 H     1 <1>   0.1500 
 50 H        7.9890     4.3310     2.0340 H     1 <1>   0.1500 
 51 H        8.3390     2.1650     3.0830 H     1 <1>   0.1500 
 52 H        8.3920    -1.4830     3.3360 H     1 <1>   0.0800 
 53 H        7.8170     0.0540     3.9740 H     1 <1>   0.0800 
 54 H        9.3330    -0.0230     3.0560 H     1 <1>   0.0800 
@<TRIPOS>BOND
  1   1   2  2   
  2   2   3  am  
  3   2   4  1   
  4   3   5  1   
  5   3   6  1   
  6   4   7  ar  
  7   4   8  ar  
  8   5   9  1   
  9   5  27  1   
 10   5  28  1   
 11   6  10  1   
 12   6  29  1   
 13   6  30  1   
 14   7  11  ar  
 15   7  31  1   
 16   8  12  ar  
 17   8  32  1   
 18   9  13  1   
 19   9  33  1   
 20   9  34  1   
 21  10  14  1   
 22  10  35  1   
 23  10  36  1   
 24  11  15  ar  
 25  11  16  1   
 26  12  15  ar  
 27  12  17  1   
 28  13  14  1   
 29  13  18  1   
 30  13  37  1   
 31  14  38  1   
 32  14  39  1   
 33  16  40  1   
 34  16  41  1   
 35  16  42  1   
 36  17  43  1   
 37  17  44  1   
 38  17  45  1   
 39  18  19  1   
 40  18  46  1   
 41  18  47  1   
 42  19  20  ar  
 43  19  21  ar  
 44  20  22  ar  
 45  20  48  1   
 46  21  23  ar  
 47  21  49  1   
 48  22  24  1   
 49  22  25  ar  
 50  23  25  ar  
 51  23  50  1   
 52  24  26  1   
 53  25  51  1   
 54  26  52  1   
 55  26  53  1   
 56  26  54  1   
@<TRIPOS>SUBSTRUCTURE
  1 ****   2 GROUP 4 **** **** 0

# MOE 2024.06 (io_trps.svl 2023.06)
