@<TRIPOS>MOLECULE
NONAME
48 50 1 0 0 
SMALL
USER_CHARGES


@<TRIPOS>ATOM
  1 CL       0.0350     0.0940    -1.4210 Cl    1 <1>  -0.1770 
  2 C        1.4780     0.9470    -0.9020 C.ar  1 <1>   0.1770 
  3 C        2.5950     0.2450    -0.4320 C.ar  1 <1>   0.1000 
  4 C        1.4580     2.3230    -0.9890 C.ar  1 <1>  -0.1500 
  5 N        2.6230    -1.1500    -0.3350 N.pl3 1 <1>  -0.8380 
  6 C        3.6960     1.0120    -0.0590 C.ar  1 <1>  -0.1500 
  7 C        2.5600     3.0900    -0.6080 C.ar  1 <1>   0.0860 
  8 C        1.6690    -1.8630     0.5470 C.3   1 <1>   0.2090 
  9 C        3.8300    -1.9790    -0.5780 C.3   1 <1>   0.2090 
 10 C        3.6800     2.3920    -0.1470 C.ar  1 <1>  -0.1500 
 11 C        2.5220     4.5370    -0.6930 C.2   1 <1>   0.5440 
 12 C        2.4430    -3.0670     1.0660 C.3   1 <1>  -0.1600 
 13 C        3.4730    -3.3530    -0.0220 C.3   1 <1>  -0.1600 
 14 O        1.7530     5.0980    -1.4490 O.2   1 <1>  -0.5700 
 15 N        3.3350     5.3140     0.0790 N.am  1 <1>  -0.7300 
 16 C        3.4890     6.7700    -0.0600 C.3   1 <1>   0.4000 
 17 C        4.7840     7.1460     0.6490 C.2   1 <1>  -0.3320 
 18 C        2.2700     7.4980     0.5310 C.3   1 <1>   0.1200 
 19 N        5.5220     8.2330     0.3230 N.pl3 1 <1>   0.3140 
 20 C        5.4230     6.5440     1.6810 C.2   1 <1>  -0.1500 
 21 O        2.3600     8.8750     0.2950 O.3   1 <1>  -0.5600 
 22 N        6.6160     8.3320     1.0990 N.2   1 <1>  -0.7070 
 23 C        5.2580     9.2470    -0.7100 C.3   1 <1>   0.0160 
 24 C        6.5480     7.3230     1.9090 C.2   1 <1>   0.1390 
 25 C        1.3010     9.6030     0.8260 C.3   1 <1>   0.0400 
 26 H        0.5760     2.8120    -1.3620 H     1 <1>   0.1500 
 27 H        4.5760     0.5250     0.3130 H     1 <1>   0.1500 
 28 H        0.8270    -2.1890    -0.0400 H     1 <1>   0.0800 
 29 H        1.3280    -1.2290     1.3480 H     1 <1>   0.0800 
 30 H        4.6720    -1.5800    -0.0420 H     1 <1>   0.0800 
 31 H        4.0530    -2.0240    -1.6300 H     1 <1>   0.0800 
 32 H        4.5610     2.9350     0.1420 H     1 <1>   0.1500 
 33 H        1.7970    -3.9060     1.2530 H     1 <1>   0.0800 
 34 H        2.9400    -2.7930     1.9800 H     1 <1>   0.0800 
 35 H        4.3380    -3.8700     0.3530 H     1 <1>   0.0800 
 36 H        3.0250    -3.9370    -0.8060 H     1 <1>   0.0800 
 37 H        4.0400     4.8960     0.6800 H     1 <1>   0.3700 
 38 H        3.5530     6.9950    -1.1110 H     1 <1>   0.0800 
 39 H        2.2300     7.3340     1.5930 H     1 <1>   0.0800 
 40 H        1.3690     7.1380     0.0660 H     1 <1>   0.0800 
 41 H        5.1600     5.6650     2.2390 H     1 <1>   0.1500 
 42 H        4.8210     8.7860    -1.5740 H     1 <1>   0.0800 
 43 H        6.1850     9.7160    -0.9840 H     1 <1>   0.0800 
 44 H        4.5890     9.9850    -0.3110 H     1 <1>   0.0800 
 45 H        7.2860     7.1270     2.6680 H     1 <1>   0.1500 
 46 H        1.4550    10.6410     0.5900 H     1 <1>   0.0800 
 47 H        1.2810     9.4740     1.8940 H     1 <1>   0.0800 
 48 H        0.3790     9.2640     0.3840 H     1 <1>   0.0800 
@<TRIPOS>BOND
  1   1   2  1   
  2   2   3  ar  
  3   2   4  ar  
  4   3   5  1   
  5   3   6  ar  
  6   4   7  ar  
  7   4  26  1   
  8   5   8  1   
  9   5   9  1   
 10   6  10  ar  
 11   6  27  1   
 12   7  10  ar  
 13   7  11  1   
 14   8  12  1   
 15   8  28  1   
 16   8  29  1   
 17   9  13  1   
 18   9  30  1   
 19   9  31  1   
 20  10  32  1   
 21  11  14  2   
 22  11  15  am  
 23  12  13  1   
 24  12  33  1   
 25  12  34  1   
 26  13  35  1   
 27  13  36  1   
 28  15  16  1   
 29  15  37  1   
 30  16  17  1   
 31  16  18  1   
 32  16  38  1   
 33  17  19  1   
 34  17  20  2   
 35  18  21  1   
 36  18  39  1   
 37  18  40  1   
 38  19  22  1   
 39  19  23  1   
 40  20  24  1   
 41  20  41  1   
 42  21  25  1   
 43  22  24  2   
 44  23  42  1   
 45  23  43  1   
 46  23  44  1   
 47  24  45  1   
 48  25  46  1   
 49  25  47  1   
 50  25  48  1   
@<TRIPOS>SUBSTRUCTURE
  1 ****   7 GROUP 4 **** **** 0

# MOE 2024.06 (io_trps.svl 2023.06)
