@<TRIPOS>MOLECULE
NONAME
59 61 1 0 0 
SMALL
USER_CHARGES


@<TRIPOS>ATOM
  1 O        0.0690     0.2210     0.6620 O.2   1 <1>  -0.5700 
  2 C       -0.9180     0.8700     0.9270 C.2   1 <1>   0.5690 
  3 N       -2.1610     0.2770     0.8860 N.am  1 <1>  -0.6600 
  4 C       -0.7150     2.3310     1.3210 C.3   1 <1>   0.1810 
  5 C       -2.2520    -1.1270     0.3820 C.3   1 <1>   0.1400 
  6 C       -3.4490     0.9870     1.1670 C.3   1 <1>   0.1400 
  7 O       -1.3230     3.1990     0.3790 O.3   1 <1>  -0.3620 
  8 C       -3.6800    -1.6830     0.5190 C.3   1 <1>   0.4230 
  9 C       -4.4430     0.7060     0.0330 C.3   1 <1>  -0.1600 
 10 C       -0.8330     4.4590     0.3470 C.ar  1 <1>   0.0820 
 11 N       -3.8200    -3.1750     0.2650 N.4   1 <1>  -0.9590 
 12 C       -4.7290    -0.8090    -0.2250 C.3   1 <1>   0.0000 
 13 C        0.3210     4.7410    -0.3860 C.ar  1 <1>  -0.1440 
 14 C       -1.5000     5.4550     1.0530 C.ar  1 <1>  -0.1440 
 15 C       -5.2450    -3.6170     0.0800 C.3   1 <1>   0.3430 
 16 C       -2.9520    -3.7160    -0.8340 C.3   1 <1>   0.2630 
 17 C       -6.1180    -1.2040     0.3540 C.3   1 <1>  -0.1600 
 18 C       -4.6750    -1.0490    -1.7610 C.3   1 <1>   0.1200 
 19 C        0.8360     6.0340    -0.3630 C.ar  1 <1>  -0.1440 
 20 C        1.0080     3.6450    -1.2030 C.3   1 <1>  -0.0970 
 21 C       -0.9800     6.7360     1.0560 C.ar  1 <1>  -0.1500 
 22 C       -2.7840     5.1630     1.8160 C.3   1 <1>  -0.0970 
 23 C       -6.2170    -2.6800     0.8070 C.3   1 <1>  -0.1600 
 24 O       -5.5450    -0.2080    -2.4370 O.3   1 <1>  -0.6800 
 25 C        0.1790     7.0200     0.3580 C.ar  1 <1>  -0.1500 
 26 C        2.1080     6.4110    -1.1110 C.3   1 <1>  -0.0970 
 27 H        0.3380     2.5440     1.3570 H     1 <1>   0.0800 
 28 H       -1.1440     2.5240     2.2850 H     1 <1>   0.0800 
 29 H       -1.9410    -1.1330    -0.6480 H     1 <1>   0.0800 
 30 H       -1.5710    -1.7360     0.9520 H     1 <1>   0.0800 
 31 H       -3.8490     0.6470     2.1080 H     1 <1>   0.0800 
 32 H       -3.3000     2.0490     1.2430 H     1 <1>   0.0800 
 33 H       -3.9090    -1.5500     1.5630 H     1 <1>   0.0800 
 34 H       -5.3580     1.2380     0.2230 H     1 <1>   0.0800 
 35 H       -4.0200     1.1630    -0.8470 H     1 <1>   0.0800 
 36 H       -3.4980    -3.6220     1.1360 H     1 <1>   0.4500 
 37 H       -5.4930    -3.6200    -0.9680 H     1 <1>   0.0800 
 38 H       -5.3660    -4.6240     0.4470 H     1 <1>   0.0800 
 39 H       -3.2100    -3.2690    -1.7790 H     1 <1>   0.0800 
 40 H       -3.0760    -4.7840    -0.9170 H     1 <1>   0.0800 
 41 H       -1.9120    -3.5130    -0.6310 H     1 <1>   0.0800 
 42 H       -6.3410    -0.5950     1.2140 H     1 <1>   0.0800 
 43 H       -6.8930    -0.9990    -0.3650 H     1 <1>   0.0800 
 44 H       -4.9380    -2.0530    -2.0320 H     1 <1>   0.0800 
 45 H       -3.6890    -0.8390    -2.1390 H     1 <1>   0.0800 
 46 H        1.3660     4.0340    -2.1380 H     1 <1>   0.0800 
 47 H        0.3300     2.8450    -1.4360 H     1 <1>   0.0800 
 48 H        1.8370     3.2420    -0.6510 H     1 <1>   0.0800 
 49 H       -1.4730     7.5230     1.5980 H     1 <1>   0.1500 
 50 H       -3.2460     6.0730     2.1530 H     1 <1>   0.0800 
 51 H       -2.5720     4.5480     2.6700 H     1 <1>   0.0800 
 52 H       -3.4790     4.6500     1.1750 H     1 <1>   0.0800 
 53 H       -7.2230    -3.0300     0.6500 H     1 <1>   0.0800 
 54 H       -6.0290    -2.7480     1.8650 H     1 <1>   0.0800 
 55 H       -6.4780    -0.3550    -2.1880 H     1 <1>   0.4000 
 56 H        0.5660     8.0230     0.3790 H     1 <1>   0.1500 
 57 H        2.4440     7.3920    -0.8290 H     1 <1>   0.0800 
 58 H        1.9230     6.4070    -2.1700 H     1 <1>   0.0800 
 59 H        2.8930     5.7130    -0.8860 H     1 <1>   0.0800 
@<TRIPOS>BOND
  1   1   2  2   
  2   2   3  am  
  3   2   4  1   
  4   3   5  1   
  5   3   6  1   
  6   4   7  1   
  7   4  27  1   
  8   4  28  1   
  9   5   8  1   
 10   5  29  1   
 11   5  30  1   
 12   6   9  1   
 13   6  31  1   
 14   6  32  1   
 15   7  10  1   
 16   8  11  1   
 17   8  12  1   
 18   8  33  1   
 19   9  12  1   
 20   9  34  1   
 21   9  35  1   
 22  10  13  ar  
 23  10  14  ar  
 24  11  15  1   
 25  11  16  1   
 26  11  36  1   
 27  12  17  1   
 28  12  18  1   
 29  13  19  ar  
 30  13  20  1   
 31  14  21  ar  
 32  14  22  1   
 33  15  23  1   
 34  15  37  1   
 35  15  38  1   
 36  16  39  1   
 37  16  40  1   
 38  16  41  1   
 39  17  23  1   
 40  17  42  1   
 41  17  43  1   
 42  18  24  1   
 43  18  44  1   
 44  18  45  1   
 45  19  25  ar  
 46  19  26  1   
 47  20  46  1   
 48  20  47  1   
 49  20  48  1   
 50  21  25  ar  
 51  21  49  1   
 52  22  50  1   
 53  22  51  1   
 54  22  52  1   
 55  23  53  1   
 56  23  54  1   
 57  24  55  1   
 58  25  56  1   
 59  26  57  1   
 60  26  58  1   
 61  26  59  1   
@<TRIPOS>SUBSTRUCTURE
  1 ****   3 GROUP 4 **** **** 0

# MOE 2024.06 (io_trps.svl 2023.06)
