@<TRIPOS>MOLECULE
NONAME
60 62 1 0 0 
SMALL
USER_CHARGES


@<TRIPOS>ATOM
  1 CL      -2.7190    -0.6910     2.5630 Cl    1 <1>  -0.1770 
  2 C       -2.9750     0.5870     1.3990 C.ar  1 <1>   0.1770 
  3 C       -3.2180     0.2640     0.0730 C.ar  1 <1>  -0.1440 
  4 C       -2.9090     1.8990     1.8250 C.ar  1 <1>  -0.1500 
  5 C       -3.3890     1.2930    -0.8430 C.ar  1 <1>  -0.1500 
  6 C       -3.2870    -1.1890    -0.3530 C.3   1 <1>   0.4870 
  7 C       -3.0760     2.9210     0.9080 C.ar  1 <1>   0.0830 
  8 C       -3.3410     2.6170    -0.4350 C.ar  1 <1>   0.0830 
  9 N       -4.6640    -1.7180    -0.1650 N.4   1 <1>  -0.9590 
 10 O       -2.9580     4.1900     1.3600 O.3   1 <1>  -0.3620 
 11 O       -3.5640     3.5490    -1.3960 O.3   1 <1>  -0.3620 
 12 C       -4.7620    -3.2190    -0.3030 C.3   1 <1>   0.3430 
 13 C       -5.7370    -0.9570    -0.8680 C.3   1 <1>   0.3430 
 14 C       -1.7620     4.8540     1.0210 C.3   1 <1>   0.1200 
 15 C       -4.5020     4.5720    -1.1380 C.3   1 <1>   0.1200 
 16 C       -6.2300    -3.7520    -0.4400 C.3   1 <1>   0.4230 
 17 C       -7.1390    -1.4280    -0.4280 C.3   1 <1>  -0.1600 
 18 C       -1.8250     6.2670     1.5920 C.3   1 <1>  -0.2400 
 19 C       -4.9760     5.1270    -2.4780 C.3   1 <1>  -0.2400 
 20 N       -6.4700    -5.1570     0.0480 N.4   1 <1>  -0.9590 
 21 C       -7.1960    -2.8070     0.3010 C.3   1 <1>  -0.1060 
 22 C       -7.8330    -5.6830    -0.2820 C.3   1 <1>   0.3430 
 23 C       -5.4070    -6.1730    -0.2000 C.3   1 <1>   0.2630 
 24 C       -6.6340    -2.7430     1.7280 C.2   1 <1>   0.9060 
 25 C       -8.6580    -3.3440     0.3180 C.3   1 <1>  -0.1600 
 26 C       -8.8350    -4.5630    -0.6000 C.3   1 <1>  -0.1600 
 27 O       -6.0660    -1.7160     2.1020 O.co2 1 <1>  -0.9000 
 28 O       -6.5210    -3.8120     2.3350 O.co2 1 <1>  -0.9000 
 29 H       -2.7230     2.1240     2.8590 H     1 <1>   0.1500 
 30 H       -3.5670     1.0930    -1.8850 H     1 <1>   0.1500 
 31 H       -2.5930    -1.7610     0.2410 H     1 <1>   0.0800 
 32 H       -2.9970    -1.2740    -1.3870 H     1 <1>   0.0800 
 33 H       -4.8970    -1.5300     0.8530 H     1 <1>   0.4500 
 34 H       -4.1980    -3.5410    -1.1620 H     1 <1>   0.0800 
 35 H       -4.3280    -3.6600     0.5800 H     1 <1>   0.0800 
 36 H       -5.6460     0.0950    -0.6480 H     1 <1>   0.0800 
 37 H       -5.6290    -1.0850    -1.9330 H     1 <1>   0.0800 
 38 H       -0.9380     4.3040     1.4430 H     1 <1>   0.0800 
 39 H       -1.6700     4.8770    -0.0520 H     1 <1>   0.0800 
 40 H       -5.3250     4.1580    -0.5810 H     1 <1>   0.0800 
 41 H       -4.0250     5.3440    -0.5610 H     1 <1>   0.0800 
 42 H       -6.4790    -3.7230    -1.4870 H     1 <1>   0.0800 
 43 H       -7.5560    -0.6770     0.2230 H     1 <1>   0.0800 
 44 H       -7.7620    -1.4470    -1.3050 H     1 <1>   0.0800 
 45 H       -1.9270     6.2280     2.6620 H     1 <1>   0.0800 
 46 H       -2.6560     6.8010     1.1700 H     1 <1>   0.0800 
 47 H       -0.9200     6.7960     1.3530 H     1 <1>   0.0800 
 48 H       -5.4440     4.3520    -3.0570 H     1 <1>   0.0800 
 49 H       -4.1430     5.5320    -3.0250 H     1 <1>   0.0800 
 50 H       -5.6910     5.9110    -2.3120 H     1 <1>   0.0800 
 51 H       -6.5050    -4.9970     1.0960 H     1 <1>   0.4500 
 52 H       -7.7790    -6.3510    -1.1260 H     1 <1>   0.0800 
 53 H       -8.1960    -6.2470     0.5630 H     1 <1>   0.0800 
 54 H       -5.2850    -6.3420    -1.2570 H     1 <1>   0.0800 
 55 H       -5.6750    -7.1060     0.2700 H     1 <1>   0.0800 
 56 H       -4.4690    -5.8480     0.2200 H     1 <1>   0.0800 
 57 H       -8.9210    -3.6420     1.3220 H     1 <1>   0.0800 
 58 H       -9.3580    -2.5740     0.0420 H     1 <1>   0.0800 
 59 H       -8.7240    -4.2650    -1.6280 H     1 <1>   0.0800 
 60 H       -9.8340    -4.9510    -0.4940 H     1 <1>   0.0800 
@<TRIPOS>BOND
  1   1   2  1   
  2   2   3  ar  
  3   2   4  ar  
  4   3   5  ar  
  5   3   6  1   
  6   4   7  ar  
  7   4  29  1   
  8   5   8  ar  
  9   5  30  1   
 10   6   9  1   
 11   6  31  1   
 12   6  32  1   
 13   7   8  ar  
 14   7  10  1   
 15   8  11  1   
 16   9  12  1   
 17   9  13  1   
 18   9  33  1   
 19  10  14  1   
 20  11  15  1   
 21  12  16  1   
 22  12  34  1   
 23  12  35  1   
 24  13  17  1   
 25  13  36  1   
 26  13  37  1   
 27  14  18  1   
 28  14  38  1   
 29  14  39  1   
 30  15  19  1   
 31  15  40  1   
 32  15  41  1   
 33  16  20  1   
 34  16  21  1   
 35  16  42  1   
 36  17  21  1   
 37  17  43  1   
 38  17  44  1   
 39  18  45  1   
 40  18  46  1   
 41  18  47  1   
 42  19  48  1   
 43  19  49  1   
 44  19  50  1   
 45  20  22  1   
 46  20  23  1   
 47  20  51  1   
 48  21  24  1   
 49  21  25  1   
 50  22  26  1   
 51  22  52  1   
 52  22  53  1   
 53  23  54  1   
 54  23  55  1   
 55  23  56  1   
 56  24  27  ar  
 57  24  28  ar  
 58  25  26  1   
 59  25  57  1   
 60  25  58  1   
 61  26  59  1   
 62  26  60  1   
@<TRIPOS>SUBSTRUCTURE
  1 ****   9 GROUP 4 **** **** 0

# MOE 2024.06 (io_trps.svl 2023.06)
