@<TRIPOS>MOLECULE
NONAME
47 49 1 0 0 
SMALL
USER_CHARGES


@<TRIPOS>ATOM
  1 O        2.0010     1.8590     1.0920 O.3   1 <1>  -0.0190 
  2 N        2.6290     0.7240     1.1000 N.2   1 <1>  -0.4100 
  3 C        0.9340     1.8230     0.3400 C.2   1 <1>  -0.0400 
  4 C        1.9450    -0.0680     0.3540 C.2   1 <1>   0.1080 
  5 C        0.8320     0.5870    -0.1700 C.2   1 <1>  -0.1500 
  6 C        0.0780     3.0660     0.1820 C.3   1 <1>   0.0200 
  7 C        2.3070    -1.5120     0.0870 C.3   1 <1>  -0.0590 
  8 C        0.8520     4.1730    -0.5600 C.3   1 <1>  -0.0800 
  9 C        0.0700     5.4660    -0.7840 C.3   1 <1>   0.2000 
 10 C        2.1250     4.6190     0.1700 C.3   1 <1>   0.3430 
 11 O       -0.5970     5.7950     0.4020 O.3   1 <1>  -0.5600 
 12 C        1.1890     6.4810    -1.0180 C.3   1 <1>   0.3430 
 13 N        2.2880     6.0840    -0.0800 N.4   1 <1>  -0.9590 
 14 C       -1.7430     6.5750     0.2380 C.3   1 <1>   0.0400 
 15 C        2.1940     6.8340     1.2050 C.3   1 <1>   0.4860 
 16 C        2.3800     8.3110     0.9250 C.ar  1 <1>  -0.1440 
 17 C        3.6190     8.8100     0.5490 C.ar  1 <1>  -0.1500 
 18 C        1.3000     9.1750     1.0380 C.ar  1 <1>  -0.1500 
 19 C        3.7800    10.1570     0.2730 C.ar  1 <1>  -0.1440 
 20 C        1.4570    10.5210     0.7620 C.ar  1 <1>  -0.1500 
 21 C        2.6930    11.0090     0.3770 C.ar  1 <1>  -0.1500 
 22 C        5.1340    10.7060    -0.1400 C.3   1 <1>  -0.0970 
 23 H        0.0940     0.1620    -0.8250 H     1 <1>   0.1500 
 24 H       -0.8100     2.8140    -0.3710 H     1 <1>   0.0800 
 25 H       -0.2270     3.3980     1.1600 H     1 <1>   0.0800 
 26 H        1.5120    -2.1540     0.4170 H     1 <1>   0.0800 
 27 H        3.2050    -1.7700     0.6190 H     1 <1>   0.0800 
 28 H        2.4710    -1.6610    -0.9640 H     1 <1>   0.0800 
 29 H        1.1490     3.7880    -1.5200 H     1 <1>   0.0800 
 30 H       -0.6300     5.3950    -1.6010 H     1 <1>   0.0800 
 31 H        2.9760     4.0610    -0.1870 H     1 <1>   0.0800 
 32 H        2.0130     4.4340     1.2270 H     1 <1>   0.0800 
 33 H        0.8490     7.4900    -0.8550 H     1 <1>   0.0800 
 34 H        1.5370     6.3900    -2.0330 H     1 <1>   0.0800 
 35 H        3.2000     6.3020    -0.4990 H     1 <1>   0.4500 
 36 H       -2.1530     6.7810     1.2120 H     1 <1>   0.0800 
 37 H       -2.4670     6.0290    -0.3430 H     1 <1>   0.0800 
 38 H       -1.4880     7.5010    -0.2500 H     1 <1>   0.0800 
 39 H        1.2320     6.6660     1.6620 H     1 <1>   0.0800 
 40 H        2.9580     6.5000     1.8880 H     1 <1>   0.0800 
 41 H        4.4720     8.1580     0.4720 H     1 <1>   0.1500 
 42 H        0.3330     8.8130     1.3420 H     1 <1>   0.1500 
 43 H        0.6210    11.1940     0.8480 H     1 <1>   0.1500 
 44 H        2.8060    12.0580     0.1640 H     1 <1>   0.1500 
 45 H        5.2620    11.7060     0.2350 H     1 <1>   0.0800 
 46 H        5.2090    10.7280    -1.2130 H     1 <1>   0.0800 
 47 H        5.9290    10.0970     0.2520 H     1 <1>   0.0800 
@<TRIPOS>BOND
  1   1   2  1   
  2   1   3  1   
  3   2   4  2   
  4   3   5  2   
  5   3   6  1   
  6   4   5  1   
  7   4   7  1   
  8   5  23  1   
  9   6   8  1   
 10   6  24  1   
 11   6  25  1   
 12   7  26  1   
 13   7  27  1   
 14   7  28  1   
 15   8   9  1   
 16   8  10  1   
 17   8  29  1   
 18   9  11  1   
 19   9  12  1   
 20   9  30  1   
 21  10  13  1   
 22  10  31  1   
 23  10  32  1   
 24  11  14  1   
 25  12  13  1   
 26  12  33  1   
 27  12  34  1   
 28  13  15  1   
 29  13  35  1   
 30  14  36  1   
 31  14  37  1   
 32  14  38  1   
 33  15  16  1   
 34  15  39  1   
 35  15  40  1   
 36  16  17  ar  
 37  16  18  ar  
 38  17  19  ar  
 39  17  41  1   
 40  18  20  ar  
 41  18  42  1   
 42  19  21  ar  
 43  19  22  1   
 44  20  21  ar  
 45  20  43  1   
 46  21  44  1   
 47  22  45  1   
 48  22  46  1   
 49  22  47  1   
@<TRIPOS>SUBSTRUCTURE
  1 ****  13 GROUP 4 **** **** 0

# MOE 2024.06 (io_trps.svl 2023.06)
