@<TRIPOS>MOLECULE
NONAME
49 51 1 0 0 
SMALL
USER_CHARGES


@<TRIPOS>ATOM
  1 CL      -0.1930    -0.0700    -0.8930 Cl    1 <1>  -0.1230 
  2 C       -1.8760     0.3900    -0.6860 C.2   1 <1>   0.1230 
  3 C       -2.9580    -0.4850    -0.5750 C.2   1 <1>   0.2030 
  4 C       -2.3520     1.6430    -0.5890 C.2   1 <1>  -0.3320 
  5 N       -4.0690     0.2210    -0.4000 N.2   1 <1>  -0.7070 
  6 C       -2.8560    -1.9340    -0.6640 C.2   1 <1>   0.7160 
  7 N       -3.6860     1.5110    -0.4230 N.pl3 1 <1>   0.3140 
  8 C       -1.6030     2.9670    -0.6460 C.3   1 <1>  -0.0600 
  9 O       -2.1290    -2.4460    -1.4970 O.2   1 <1>  -0.5700 
 10 N       -3.6010    -2.7960     0.1340 N.am  1 <1>  -0.6600 
 11 C       -4.6600     2.6050    -0.2880 C.3   1 <1>   0.0160 
 12 C       -4.4740    -2.3630     1.2690 C.3   1 <1>   0.1400 
 13 C       -3.7490    -4.2430    -0.2010 C.3   1 <1>   0.1400 
 14 C       -5.9610    -2.6760     0.9790 C.3   1 <1>   0.4230 
 15 C       -5.2220    -4.5600    -0.5150 C.3   1 <1>   0.3430 
 16 N       -6.1630    -4.1360     0.5960 N.4   1 <1>  -0.9590 
 17 C       -6.5380    -1.7310    -0.1000 C.3   1 <1>   0.1200 
 18 C       -7.6140    -4.3620     0.2660 C.3   1 <1>   0.4230 
 19 O       -7.8820    -2.0370    -0.3480 O.3   1 <1>  -0.5600 
 20 C       -8.1200    -3.3440    -0.7860 C.3   1 <1>   0.1200 
 21 C       -7.8550    -5.8220    -0.1500 C.3   1 <1>  -0.1600 
 22 C       -9.3450    -6.2000    -0.1280 C.3   1 <1>  -0.1600 
 23 C       -9.5370    -7.6810    -0.4650 C.3   1 <1>  -0.2400 
 24 H       -0.5500     2.7950    -0.7820 H     1 <1>   0.0800 
 25 H       -1.7420     3.5150     0.2690 H     1 <1>   0.0800 
 26 H       -1.9570     3.5610    -1.4700 H     1 <1>   0.0800 
 27 H       -4.6020     3.2380    -1.1540 H     1 <1>   0.0800 
 28 H       -4.4350     3.1720     0.5960 H     1 <1>   0.0800 
 29 H       -5.6490     2.1940    -0.2120 H     1 <1>   0.0800 
 30 H       -4.1720    -2.8920     2.1550 H     1 <1>   0.0800 
 31 H       -4.3540    -1.3180     1.4850 H     1 <1>   0.0800 
 32 H       -3.1470    -4.5080    -1.0540 H     1 <1>   0.0800 
 33 H       -3.4090    -4.8400     0.6280 H     1 <1>   0.0800 
 34 H       -6.5110    -2.4760     1.8840 H     1 <1>   0.0800 
 35 H       -5.3160    -5.6180    -0.6930 H     1 <1>   0.0800 
 36 H       -5.4860    -4.0500    -1.4270 H     1 <1>   0.0800 
 37 H       -5.9430    -4.7020     1.4230 H     1 <1>   0.4500 
 38 H       -5.9870    -1.7970    -1.0230 H     1 <1>   0.0800 
 39 H       -6.4980    -0.7120     0.2420 H     1 <1>   0.0800 
 40 H       -8.1900    -4.1890     1.1610 H     1 <1>   0.0800 
 41 H       -9.1820    -3.4420    -0.9220 H     1 <1>   0.0800 
 42 H       -7.6410    -3.4850    -1.7390 H     1 <1>   0.0800 
 43 H       -7.4750    -5.9970    -1.1420 H     1 <1>   0.0800 
 44 H       -7.3400    -6.4730     0.5350 H     1 <1>   0.0800 
 45 H       -9.7610    -6.0090     0.8480 H     1 <1>   0.0800 
 46 H       -9.8950    -5.6140    -0.8450 H     1 <1>   0.0800 
 47 H       -9.0330    -8.3060     0.2520 H     1 <1>   0.0800 
 48 H       -9.1560    -7.9030    -1.4470 H     1 <1>   0.0800 
 49 H      -10.5840    -7.9280    -0.4480 H     1 <1>   0.0800 
@<TRIPOS>BOND
  1   1   2  1   
  2   2   3  1   
  3   2   4  2   
  4   3   5  2   
  5   3   6  1   
  6   4   7  1   
  7   4   8  1   
  8   5   7  1   
  9   6   9  2   
 10   6  10  am  
 11   7  11  1   
 12   8  24  1   
 13   8  25  1   
 14   8  26  1   
 15  10  12  1   
 16  10  13  1   
 17  11  27  1   
 18  11  28  1   
 19  11  29  1   
 20  12  14  1   
 21  12  30  1   
 22  12  31  1   
 23  13  15  1   
 24  13  32  1   
 25  13  33  1   
 26  14  16  1   
 27  14  17  1   
 28  14  34  1   
 29  15  16  1   
 30  15  35  1   
 31  15  36  1   
 32  16  18  1   
 33  16  37  1   
 34  17  19  1   
 35  17  38  1   
 36  17  39  1   
 37  18  20  1   
 38  18  21  1   
 39  18  40  1   
 40  19  20  1   
 41  20  41  1   
 42  20  42  1   
 43  21  22  1   
 44  21  43  1   
 45  21  44  1   
 46  22  23  1   
 47  22  45  1   
 48  22  46  1   
 49  23  47  1   
 50  23  48  1   
 51  23  49  1   
@<TRIPOS>SUBSTRUCTURE
  1 ****  10 GROUP 4 **** **** 0

# MOE 2024.06 (io_trps.svl 2023.06)
