@<TRIPOS>MOLECULE
NONAME
53 56 1 0 0 
SMALL
USER_CHARGES


@<TRIPOS>ATOM
  1 S        0.7590    -2.5670    -3.1200 S.3   1 <1>  -0.0800 
  2 C       -0.1410    -2.1630    -1.6810 C.2   1 <1>   0.1980 
  3 C        2.0890    -1.6310    -2.5080 C.2   1 <1>  -0.1100 
  4 N        0.4870    -1.4240    -0.8560 N.2   1 <1>  -0.5650 
  5 C       -1.5540    -2.7150    -1.5520 C.3   1 <1>   0.5230 
  6 C        1.7700    -1.0990    -1.3080 C.2   1 <1>   0.1730 
  7 N       -2.2510    -2.0500    -0.4050 N.4   1 <1>  -0.9590 
  8 C        2.6170    -0.2480    -0.4920 C.ar  1 <1>   0.0540 
  9 C       -3.3640    -2.8640     0.1540 C.3   1 <1>   0.3430 
 10 C       -2.6490    -0.6530    -0.7500 C.3   1 <1>   0.3430 
 11 C        2.5080    -0.2260     0.8980 C.ar  1 <1>  -0.1500 
 12 C        3.5750     0.5830    -1.0730 C.ar  1 <1>  -0.1500 
 13 C       -3.9560    -2.1650     1.3760 C.3   1 <1>  -0.1600 
 14 C       -3.2200     0.0290     0.4840 C.3   1 <1>  -0.1600 
 15 C        3.3150     0.5850     1.6740 C.ar  1 <1>  -0.1500 
 16 C        4.3860     1.3970    -0.3030 C.ar  1 <1>  -0.1500 
 17 C       -4.4300    -0.7440     1.0450 C.3   1 <1>   0.2800 
 18 C        4.2570     1.4000     1.0730 C.ar  1 <1>  -0.1500 
 19 O       -4.7940    -0.1910     2.2700 O.3   1 <1>  -0.5600 
 20 C       -5.6830    -0.8030     0.1350 C.3   1 <1>  -0.1600 
 21 C       -5.3500     1.0960     2.2650 C.3   1 <1>   0.1200 
 22 C       -6.4640     0.5140     0.0560 C.3   1 <1>   0.2800 
 23 C       -6.6500     1.0990     1.4600 C.3   1 <1>  -0.1600 
 24 O       -5.7240     1.4010    -0.6950 O.3   1 <1>  -0.6800 
 25 C       -7.8200     0.3520    -0.6690 C.3   1 <1>   0.1200 
 26 O       -8.3520     1.6020    -1.0000 O.3   1 <1>  -0.6800 
 27 H        2.9810    -1.5710    -3.1040 H     1 <1>   0.1500 
 28 H       -1.4870    -3.7760    -1.3790 H     1 <1>   0.0800 
 29 H       -2.0970    -2.5490    -2.4680 H     1 <1>   0.0800 
 30 H       -1.5140    -1.9490     0.3130 H     1 <1>   0.4500 
 31 H       -3.0020    -3.8380     0.4440 H     1 <1>   0.0800 
 32 H       -4.1330    -2.9950    -0.5900 H     1 <1>   0.0800 
 33 H       -3.3880    -0.6540    -1.5350 H     1 <1>   0.0800 
 34 H       -1.7890    -0.0980    -1.0940 H     1 <1>   0.0800 
 35 H        1.7830    -0.8570     1.3790 H     1 <1>   0.1500 
 36 H        3.6880     0.6010    -2.1420 H     1 <1>   0.1500 
 37 H       -3.2110    -2.1260     2.1510 H     1 <1>   0.0800 
 38 H       -4.7790    -2.7470     1.7510 H     1 <1>   0.0800 
 39 H       -3.4790     1.0320     0.2090 H     1 <1>   0.0800 
 40 H       -2.4520     0.0960     1.2340 H     1 <1>   0.0800 
 41 H        3.2130     0.5840     2.7460 H     1 <1>   0.1500 
 42 H        5.1180     2.0310    -0.7740 H     1 <1>   0.1500 
 43 H        4.8870     2.0330     1.6750 H     1 <1>   0.1500 
 44 H       -6.3510    -1.5400     0.5430 H     1 <1>   0.0800 
 45 H       -5.4330    -1.1250    -0.8580 H     1 <1>   0.0800 
 46 H       -4.6390     1.7960     1.8640 H     1 <1>   0.0800 
 47 H       -5.5480     1.3670     3.2880 H     1 <1>   0.0800 
 48 H       -7.0390     2.0990     1.3970 H     1 <1>   0.0800 
 49 H       -7.3700     0.5110     2.0000 H     1 <1>   0.0800 
 50 H       -6.3650     2.0860    -0.9970 H     1 <1>   0.4000 
 51 H       -8.5250    -0.1640    -0.0390 H     1 <1>   0.0800 
 52 H       -7.6920    -0.2080    -1.5790 H     1 <1>   0.0800 
 53 H       -9.2300     1.5080    -1.4230 H     1 <1>   0.4000 
@<TRIPOS>BOND
  1   1   2  1   
  2   1   3  1   
  3   2   4  2   
  4   2   5  1   
  5   3   6  2   
  6   3  27  1   
  7   4   6  1   
  8   5   7  1   
  9   5  28  1   
 10   5  29  1   
 11   6   8  1   
 12   7   9  1   
 13   7  10  1   
 14   7  30  1   
 15   8  11  ar  
 16   8  12  ar  
 17   9  13  1   
 18   9  31  1   
 19   9  32  1   
 20  10  14  1   
 21  10  33  1   
 22  10  34  1   
 23  11  15  ar  
 24  11  35  1   
 25  12  16  ar  
 26  12  36  1   
 27  13  17  1   
 28  13  37  1   
 29  13  38  1   
 30  14  17  1   
 31  14  39  1   
 32  14  40  1   
 33  15  18  ar  
 34  15  41  1   
 35  16  18  ar  
 36  16  42  1   
 37  17  19  1   
 38  17  20  1   
 39  18  43  1   
 40  19  21  1   
 41  20  22  1   
 42  20  44  1   
 43  20  45  1   
 44  21  23  1   
 45  21  46  1   
 46  21  47  1   
 47  22  23  1   
 48  22  24  1   
 49  22  25  1   
 50  23  48  1   
 51  23  49  1   
 52  24  50  1   
 53  25  26  1   
 54  25  51  1   
 55  25  52  1   
 56  26  53  1   
@<TRIPOS>SUBSTRUCTURE
  1 ****  10 GROUP 4 **** **** 0

# MOE 2024.06 (io_trps.svl 2023.06)
