@<TRIPOS>MOLECULE
NONAME
49 52 1 0 0 
SMALL
USER_CHARGES


@<TRIPOS>ATOM
  1 S       -1.6790    -0.2570    -0.8680 S.o2  1 <1>   1.2040 
  2 O       -2.2920     0.4020     0.2630 O.2   1 <1>  -0.6500 
  3 O       -2.4110    -0.4080    -2.1050 O.2   1 <1>  -0.6500 
  4 C       -1.0820    -1.8840    -0.3440 C.ar  1 <1>  -0.0090 
  5 C       -0.1670     0.6100    -1.2410 C.3   1 <1>  -0.1350 
  6 C       -0.7910    -2.1490     0.9880 C.ar  1 <1>  -0.1500 
  7 C       -0.8840    -2.9060    -1.2640 C.ar  1 <1>  -0.1500 
  8 C       -0.3340    -3.3920     1.3930 C.ar  1 <1>  -0.1500 
  9 C       -0.4290    -4.1520    -0.8710 C.ar  1 <1>  -0.1500 
 10 C       -0.1590    -4.4060     0.4650 C.ar  1 <1>  -0.1430 
 11 C        0.2970    -5.7850     0.9070 C.3   1 <1>   0.4860 
 12 N       -0.8510    -6.7160     0.7670 N.4   1 <1>  -0.9590 
 13 C       -2.0340    -6.3340     1.5980 C.3   1 <1>   0.3430 
 14 C       -0.4930    -8.1500     0.9000 C.3   1 <1>   0.3430 
 15 C       -3.1740    -7.3490     1.4430 C.3   1 <1>  -0.1600 
 16 C       -1.6440    -9.0270     0.3930 C.3   1 <1>  -0.1600 
 17 C       -2.9780    -8.2790     0.2410 C.3   1 <1>   0.4610 
 18 O       -2.8390    -7.4830    -0.9280 O.3   1 <1>  -0.5600 
 19 C       -4.1360    -9.2620     0.0830 C.2   1 <1>  -0.1810 
 20 C       -4.0100    -7.0200    -1.5700 C.3   1 <1>   0.1200 
 21 C       -4.9480    -9.1980    -0.9800 C.2   1 <1>  -0.1400 
 22 C       -4.4900   -10.3160     0.9920 C.2   1 <1>  -0.1500 
 23 C       -4.8590    -8.1900    -2.0920 C.3   1 <1>   0.0200 
 24 S       -6.1770   -10.4430    -0.9420 S.3   1 <1>  -0.0800 
 25 C       -5.5540   -11.0380     0.5890 C.2   1 <1>  -0.1100 
 26 H       -0.3890     1.6070    -1.5690 H     1 <1>   0.0800 
 27 H        0.3710     0.1070    -2.0200 H     1 <1>   0.0800 
 28 H        0.4550     0.6690    -0.3690 H     1 <1>   0.0800 
 29 H       -0.9320    -1.3700     1.7220 H     1 <1>   0.1500 
 30 H       -1.0990    -2.7240    -2.3060 H     1 <1>   0.1500 
 31 H       -0.1240    -3.5520     2.4380 H     1 <1>   0.1500 
 32 H       -0.2930    -4.9140    -1.6200 H     1 <1>   0.1500 
 33 H        0.6340    -5.7560     1.9300 H     1 <1>   0.0800 
 34 H        1.1150    -6.1060     0.2830 H     1 <1>   0.0800 
 35 H       -1.2010    -6.6210    -0.2060 H     1 <1>   0.4500 
 36 H       -2.3870    -5.3660     1.2790 H     1 <1>   0.0800 
 37 H       -1.7550    -6.2610     2.6360 H     1 <1>   0.0800 
 38 H       -0.2970    -8.3770     1.9360 H     1 <1>   0.0800 
 39 H        0.3960    -8.3700     0.3310 H     1 <1>   0.0800 
 40 H       -4.1140    -6.8350     1.3680 H     1 <1>   0.0800 
 41 H       -3.2250    -7.9450     2.3360 H     1 <1>   0.0800 
 42 H       -1.7600    -9.8400     1.0850 H     1 <1>   0.0800 
 43 H       -1.3830    -9.4680    -0.5530 H     1 <1>   0.0800 
 44 H       -3.7150    -6.3860    -2.3870 H     1 <1>   0.0800 
 45 H       -4.5780    -6.4350    -0.8680 H     1 <1>   0.0800 
 46 H       -3.9430   -10.4930     1.9010 H     1 <1>   0.1500 
 47 H       -4.4010    -8.6330    -2.9580 H     1 <1>   0.0800 
 48 H       -5.8400    -7.8390    -2.3600 H     1 <1>   0.0800 
 49 H       -6.0600   -11.8790     1.0310 H     1 <1>   0.1500 
@<TRIPOS>BOND
  1   1   2  2   
  2   1   3  2   
  3   1   4  1   
  4   1   5  1   
  5   4   6  ar  
  6   4   7  ar  
  7   5  26  1   
  8   5  27  1   
  9   5  28  1   
 10   6   8  ar  
 11   6  29  1   
 12   7   9  ar  
 13   7  30  1   
 14   8  10  ar  
 15   8  31  1   
 16   9  10  ar  
 17   9  32  1   
 18  10  11  1   
 19  11  12  1   
 20  11  33  1   
 21  11  34  1   
 22  12  13  1   
 23  12  14  1   
 24  12  35  1   
 25  13  15  1   
 26  13  36  1   
 27  13  37  1   
 28  14  16  1   
 29  14  38  1   
 30  14  39  1   
 31  15  17  1   
 32  15  40  1   
 33  15  41  1   
 34  16  17  1   
 35  16  42  1   
 36  16  43  1   
 37  17  18  1   
 38  17  19  1   
 39  18  20  1   
 40  19  21  2   
 41  19  22  1   
 42  20  23  1   
 43  20  44  1   
 44  20  45  1   
 45  21  23  1   
 46  21  24  1   
 47  22  25  2   
 48  22  46  1   
 49  23  47  1   
 50  23  48  1   
 51  24  25  1   
 52  25  49  1   
@<TRIPOS>SUBSTRUCTURE
  1 ****  13 GROUP 4 **** **** 0

# MOE 2024.06 (io_trps.svl 2023.06)
