@<TRIPOS>MOLECULE
NONAME
44 46 1 0 0 
SMALL
USER_CHARGES


@<TRIPOS>ATOM
  1 O        6.6580     1.5560     0.1540 O.co2 1 <1>  -0.9000 
  2 C        5.8540     2.2790     0.7310 C.2   1 <1>   0.9060 
  3 O        6.1910     3.3420     1.2670 O.co2 1 <1>  -0.9000 
  4 C        4.3820     2.0160     0.5280 C.3   1 <1>  -0.1860 
  5 C        4.0870     2.7790    -0.7350 C.3   1 <1>   0.3430 
  6 C        3.4640     2.6860     1.5690 C.3   1 <1>  -0.1600 
  7 N        3.9930     4.1570    -0.2210 N.4   1 <1>  -0.9590 
  8 C        3.2510     4.1130     1.0580 C.3   1 <1>   0.3430 
  9 C        3.6710     5.2300    -1.1790 C.3   1 <1>   0.4860 
 10 C        4.0500     6.5510    -0.5430 C.ar  1 <1>  -0.1430 
 11 C        5.3950     6.8630    -0.3780 C.ar  1 <1>   0.0830 
 12 C        3.0760     7.4370    -0.1070 C.ar  1 <1>  -0.1500 
 13 O        6.3150     5.9740    -0.8290 O.3   1 <1>  -0.3630 
 14 C        5.7560     8.0590     0.2330 C.ar  1 <1>  -0.1500 
 15 C        3.4410     8.6260     0.4980 C.ar  1 <1>  -0.1500 
 16 C        7.5160     5.7760    -0.1010 C.3   1 <1>   0.1200 
 17 C        4.7790     8.9360     0.6700 C.ar  1 <1>  -0.1500 
 18 C        8.2790     4.5990    -0.7080 C.3   1 <1>   0.0960 
 19 N        9.5030     4.3570     0.0730 N.pl3 1 <1>   0.0480 
 20 C        9.6750     3.4730     1.0810 C.2   1 <1>   0.0360 
 21 C       10.6870     4.9870    -0.0390 C.2   1 <1>  -0.3020 
 22 N       10.8610     3.5010     1.6060 N.2   1 <1>  -0.5650 
 23 C       11.4980     4.4530     0.9000 C.2   1 <1>   0.0770 
 24 H        4.2170     0.9610     0.4250 H     1 <1>   0.0800 
 25 H        3.1490     2.4640    -1.1620 H     1 <1>   0.0800 
 26 H        4.8860     2.6700    -1.4530 H     1 <1>   0.0800 
 27 H        3.9140     2.6890     2.5480 H     1 <1>   0.0800 
 28 H        2.5180     2.1800     1.6230 H     1 <1>   0.0800 
 29 H        4.9730     4.3480     0.1050 H     1 <1>   0.4500 
 30 H        3.6580     4.8350     1.7490 H     1 <1>   0.0800 
 31 H        2.2030     4.3040     0.9010 H     1 <1>   0.0800 
 32 H        2.6230     5.2130    -1.4260 H     1 <1>   0.0800 
 33 H        4.2470     5.0990    -2.0800 H     1 <1>   0.0800 
 34 H        2.0300     7.2130    -0.2310 H     1 <1>   0.1500 
 35 H        6.7880     8.3230     0.3660 H     1 <1>   0.1500 
 36 H        2.6860     9.3150     0.8380 H     1 <1>   0.1500 
 37 H        7.2610     5.5690     0.9250 H     1 <1>   0.0800 
 38 H        8.1100     6.6690    -0.1660 H     1 <1>   0.0800 
 39 H        5.0600     9.8620     1.1420 H     1 <1>   0.1500 
 40 H        8.5560     4.8180    -1.7220 H     1 <1>   0.0800 
 41 H        7.6830     3.7080    -0.6900 H     1 <1>   0.0800 
 42 H        8.8730     2.8200     1.3930 H     1 <1>   0.1500 
 43 H       10.8850     5.7580    -0.7590 H     1 <1>   0.1500 
 44 H       12.5230     4.7060     1.1100 H     1 <1>   0.1500 
@<TRIPOS>BOND
  1   1   2  ar  
  2   2   3  ar  
  3   2   4  1   
  4   4   5  1   
  5   4   6  1   
  6   4  24  1   
  7   5   7  1   
  8   5  25  1   
  9   5  26  1   
 10   6   8  1   
 11   6  27  1   
 12   6  28  1   
 13   7   8  1   
 14   7   9  1   
 15   7  29  1   
 16   8  30  1   
 17   8  31  1   
 18   9  10  1   
 19   9  32  1   
 20   9  33  1   
 21  10  11  ar  
 22  10  12  ar  
 23  11  13  1   
 24  11  14  ar  
 25  12  15  ar  
 26  12  34  1   
 27  13  16  1   
 28  14  17  ar  
 29  14  35  1   
 30  15  17  ar  
 31  15  36  1   
 32  16  18  1   
 33  16  37  1   
 34  16  38  1   
 35  17  39  1   
 36  18  19  1   
 37  18  40  1   
 38  18  41  1   
 39  19  20  1   
 40  19  21  1   
 41  20  22  2   
 42  20  42  1   
 43  21  23  2   
 44  21  43  1   
 45  22  23  1   
 46  23  44  1   
@<TRIPOS>SUBSTRUCTURE
  1 ****  13 GROUP 4 **** **** 0

# MOE 2024.06 (io_trps.svl 2023.06)
