@<TRIPOS>MOLECULE
NONAME
50 53 1 0 0 
SMALL
USER_CHARGES


@<TRIPOS>ATOM
  1 CL       0.8400    -0.0170    -0.4540 Cl    1 <1>  -0.1770 
  2 C        0.5130    -1.7190    -0.3170 C.ar  1 <1>   0.1770 
  3 C        1.3670    -2.5210     0.3880 C.ar  1 <1>  -0.1500 
  4 C       -0.6100    -2.2440    -0.9460 C.ar  1 <1>  -0.1500 
  5 C        1.1060    -3.8930     0.4960 C.ar  1 <1>   0.3610 
  6 C       -0.8830    -3.5820    -0.8270 C.ar  1 <1>  -0.1500 
  7 N        2.0160    -4.7250     1.1070 N.ar  1 <1>  -0.1790 
  8 C       -0.0730    -4.4460    -0.0570 C.ar  1 <1>   0.0000 
  9 C        1.8200    -6.0530     1.1910 C.ar  1 <1>   0.2110 
 10 C       -0.3500    -5.8420     0.1400 C.ar  1 <1>   0.1000 
 11 C        0.6630    -6.6130     0.7170 C.ar  1 <1>  -0.1500 
 12 N       -1.5460    -6.4190    -0.1620 N.pl3 1 <1>  -0.8380 
 13 C       -1.6920    -7.7720    -0.7950 C.3   1 <1>   0.2090 
 14 C       -2.8580    -5.7570     0.1390 C.3   1 <1>   0.2090 
 15 C       -2.6140    -8.7140     0.0280 C.3   1 <1>   0.4230 
 16 C       -3.7000    -6.6830     1.0190 C.3   1 <1>  -0.1600 
 17 N       -2.7350   -10.1290    -0.5390 N.4   1 <1>  -0.9590 
 18 C       -3.9870    -8.0600     0.3610 C.3   1 <1>   0.0000 
 19 C       -3.9070   -10.9030    -0.0080 C.3   1 <1>   0.3430 
 20 C       -2.7130   -10.2320    -2.0370 C.3   1 <1>   0.2630 
 21 C       -4.7460    -8.9480     1.3890 C.3   1 <1>  -0.1600 
 22 C       -4.8330    -7.8830    -0.9330 C.3   1 <1>   0.1200 
 23 C       -4.2980   -10.4220     1.3880 C.3   1 <1>  -0.1600 
 24 O       -5.9320    -7.0700    -0.7180 O.3   1 <1>  -0.6800 
 25 H        2.2370    -2.0810     0.8420 H     1 <1>   0.1500 
 26 H       -1.2420    -1.5880    -1.5210 H     1 <1>   0.1500 
 27 H       -1.7360    -3.9790    -1.3480 H     1 <1>   0.1500 
 28 H        2.8730    -4.3040     1.4780 H     1 <1>   0.4570 
 29 H        2.5820    -6.6640     1.6510 H     1 <1>   0.1500 
 30 H        0.5210    -7.6710     0.8300 H     1 <1>   0.1500 
 31 H       -2.0990    -7.6240    -1.7790 H     1 <1>   0.0800 
 32 H       -0.7240    -8.2250    -0.9090 H     1 <1>   0.0800 
 33 H       -2.6980    -4.8350     0.6720 H     1 <1>   0.0800 
 34 H       -3.3800    -5.5290    -0.7760 H     1 <1>   0.0800 
 35 H       -2.1230    -8.8150     0.9810 H     1 <1>   0.0800 
 36 H       -3.1730    -6.8160     1.9480 H     1 <1>   0.0800 
 37 H       -4.6220    -6.1810     1.2580 H     1 <1>   0.0800 
 38 H       -1.9020   -10.6300    -0.1960 H     1 <1>   0.4500 
 39 H       -4.7550   -10.7750    -0.6610 H     1 <1>   0.0800 
 40 H       -3.6690   -11.9550     0.0210 H     1 <1>   0.0800 
 41 H       -3.5500    -9.7050    -2.4660 H     1 <1>   0.0800 
 42 H       -2.7700   -11.2650    -2.3410 H     1 <1>   0.0800 
 43 H       -1.8020    -9.8160    -2.4350 H     1 <1>   0.0800 
 44 H       -4.6100    -8.5730     2.3910 H     1 <1>   0.0800 
 45 H       -5.8050    -8.9050     1.2000 H     1 <1>   0.0800 
 46 H       -5.1990    -8.8250    -1.3010 H     1 <1>   0.0800 
 47 H       -4.2620    -7.4150    -1.7140 H     1 <1>   0.0800 
 48 H       -5.1010   -11.0340     1.7610 H     1 <1>   0.0800 
 49 H       -3.4640   -10.5600     2.0550 H     1 <1>   0.0800 
 50 H       -6.5780    -7.4710    -0.1020 H     1 <1>   0.4000 
@<TRIPOS>BOND
  1   1   2  1   
  2   2   3  ar  
  3   2   4  ar  
  4   3   5  ar  
  5   3  25  1   
  6   4   6  ar  
  7   4  26  1   
  8   5   7  ar  
  9   5   8  ar  
 10   6   8  ar  
 11   6  27  1   
 12   7   9  ar  
 13   7  28  1   
 14   8  10  ar  
 15   9  11  ar  
 16   9  29  1   
 17  10  11  ar  
 18  10  12  1   
 19  11  30  1   
 20  12  13  1   
 21  12  14  1   
 22  13  15  1   
 23  13  31  1   
 24  13  32  1   
 25  14  16  1   
 26  14  33  1   
 27  14  34  1   
 28  15  17  1   
 29  15  18  1   
 30  15  35  1   
 31  16  18  1   
 32  16  36  1   
 33  16  37  1   
 34  17  19  1   
 35  17  20  1   
 36  17  38  1   
 37  18  21  1   
 38  18  22  1   
 39  19  23  1   
 40  19  39  1   
 41  19  40  1   
 42  20  41  1   
 43  20  42  1   
 44  20  43  1   
 45  21  23  1   
 46  21  44  1   
 47  21  45  1   
 48  22  24  1   
 49  22  46  1   
 50  22  47  1   
 51  23  48  1   
 52  23  49  1   
 53  24  50  1   
@<TRIPOS>SUBSTRUCTURE
  1 ****  12 GROUP 4 **** **** 0

# MOE 2024.06 (io_trps.svl 2023.06)
