@<TRIPOS>MOLECULE
NONAME
45 47 1 0 0 
SMALL
USER_CHARGES


@<TRIPOS>ATOM
  1 O       -3.7620     1.2380    -2.0600 O.2   1 <1>  -0.5700 
  2 C       -2.9890     1.2680    -1.1100 C.2   1 <1>   0.5690 
  3 N       -2.5030     0.1230    -0.5640 N.am  1 <1>  -0.7300 
  4 C       -2.5550     2.6140    -0.5060 C.3   1 <1>   0.2010 
  5 C       -2.8460    -1.2390    -1.0300 C.3   1 <1>   0.2200 
  6 N       -1.1080     2.6990    -0.2580 N.am  1 <1>  -0.7300 
  7 C       -4.0160    -1.7590    -0.2150 C.3   1 <1>  -0.0800 
  8 C       -1.7410    -2.2170    -0.6500 C.3   1 <1>   0.1200 
  9 C       -0.4660     3.6270     0.4360 C.2   1 <1>   0.5690 
 10 C       -3.3220    -2.3360     1.0240 C.3   1 <1>   0.1200 
 11 C       -4.8140    -2.8260    -0.9900 C.3   1 <1>  -0.0170 
 12 O       -1.9910    -2.5860     0.6730 O.3   1 <1>  -0.5600 
 13 O        0.7440     3.5530     0.5440 O.2   1 <1>  -0.5700 
 14 C       -1.2370     4.7620     1.0880 C.3   1 <1>  -0.1790 
 15 C       -6.0650    -3.2470    -0.2250 C.ar  1 <1>  -0.1440 
 16 C       -7.2190    -2.4290    -0.1570 C.ar  1 <1>   0.0000 
 17 C       -6.1010    -4.4460     0.4250 C.ar  1 <1>  -0.1500 
 18 C       -8.3170    -2.9070     0.5990 C.ar  1 <1>   0.3100 
 19 C       -7.3490    -1.1720    -0.7930 C.ar  1 <1>  -0.1500 
 20 C       -7.2430    -4.8260     1.1400 C.ar  1 <1>   0.1600 
 21 N       -8.3130    -4.1030     1.2400 N.ar  1 <1>  -0.6200 
 22 C       -9.4720    -2.1140     0.6950 C.ar  1 <1>  -0.1500 
 23 C       -8.4910    -0.4260    -0.6810 C.ar  1 <1>  -0.1500 
 24 C       -9.5670    -0.8990     0.0730 C.ar  1 <1>  -0.1500 
 25 H       -1.9060     0.1540     0.2670 H     1 <1>   0.3700 
 26 H       -3.0970     2.7410     0.4310 H     1 <1>   0.0800 
 27 H       -2.8560     3.4050    -1.1950 H     1 <1>   0.0800 
 28 H       -3.0370    -1.2290    -2.0910 H     1 <1>   0.0800 
 29 H       -0.5080     2.0120    -0.6880 H     1 <1>   0.3700 
 30 H       -4.6790    -0.9600     0.0630 H     1 <1>   0.0800 
 31 H       -0.7580    -1.7870    -0.7270 H     1 <1>   0.0800 
 32 H       -1.7970    -3.1060    -1.2520 H     1 <1>   0.0800 
 33 H       -3.7700    -3.2510     1.3710 H     1 <1>   0.0800 
 34 H       -3.3160    -1.6170     1.8240 H     1 <1>   0.0800 
 35 H       -4.1930    -3.6870    -1.1690 H     1 <1>   0.0800 
 36 H       -5.1040    -2.4450    -1.9530 H     1 <1>   0.0800 
 37 H       -1.7920     5.3090     0.3280 H     1 <1>   0.0800 
 38 H       -0.5320     5.4360     1.5730 H     1 <1>   0.0800 
 39 H       -1.9200     4.3580     1.8320 H     1 <1>   0.0800 
 40 H       -5.2660    -5.1220     0.4110 H     1 <1>   0.1500 
 41 H       -6.5380    -0.7860    -1.3820 H     1 <1>   0.1500 
 42 H       -7.2290    -5.7790     1.6400 H     1 <1>   0.1500 
 43 H      -10.2880    -2.5000     1.2780 H     1 <1>   0.1500 
 44 H       -8.5750     0.5290    -1.1710 H     1 <1>   0.1500 
 45 H      -10.4590    -0.3030     0.1540 H     1 <1>   0.1500 
@<TRIPOS>BOND
  1   1   2  2   
  2   2   3  am  
  3   2   4  1   
  4   3   5  1   
  5   3  25  1   
  6   4   6  1   
  7   4  26  1   
  8   4  27  1   
  9   5   7  1   
 10   5   8  1   
 11   5  28  1   
 12   6   9  am  
 13   6  29  1   
 14   7  10  1   
 15   7  11  1   
 16   7  30  1   
 17   8  12  1   
 18   8  31  1   
 19   8  32  1   
 20   9  13  2   
 21   9  14  1   
 22  10  12  1   
 23  10  33  1   
 24  10  34  1   
 25  11  15  1   
 26  11  35  1   
 27  11  36  1   
 28  14  37  1   
 29  14  38  1   
 30  14  39  1   
 31  15  16  ar  
 32  15  17  ar  
 33  16  18  ar  
 34  16  19  ar  
 35  17  20  ar  
 36  17  40  1   
 37  18  21  ar  
 38  18  22  ar  
 39  19  23  ar  
 40  19  41  1   
 41  20  21  ar  
 42  20  42  1   
 43  22  24  ar  
 44  22  43  1   
 45  23  24  ar  
 46  23  44  1   
 47  24  45  1   
@<TRIPOS>SUBSTRUCTURE
  1 ****   7 GROUP 4 **** **** 0

# MOE 2024.06 (io_trps.svl 2023.06)
