@<TRIPOS>MOLECULE
NONAME
42 44 1 0 0 
SMALL
USER_CHARGES


@<TRIPOS>ATOM
  1 O        0.2670    -0.8580    -2.2540 O.co2 1 <1>  -0.9000 
  2 C       -0.1870    -1.8240    -1.6230 C.2   1 <1>   1.0330 
  3 O       -1.2270    -2.3640    -2.0500 O.co2 1 <1>  -0.9000 
  4 C        0.4680    -2.3300    -0.4500 C.2   1 <1>  -0.2330 
  5 C        0.1220    -3.5260     0.1750 C.2   1 <1>   0.3720 
  6 C        1.5190    -1.8880     0.2960 C.2   1 <1>   0.0870 
  7 N        0.8880    -3.7910     1.1690 N.2   1 <1>  -0.4100 
  8 N       -0.9230    -4.3440    -0.2160 N.pl3 1 <1>  -0.8520 
  9 O        1.7260    -2.7920     1.2280 O.3   1 <1>  -0.0190 
 10 C        2.3700    -0.7210     0.2690 C.ar  1 <1>   0.0530 
 11 C       -0.5120    -5.6070    -0.8930 C.3   1 <1>   0.2090 
 12 C        1.9070     0.5340    -0.1260 C.ar  1 <1>  -0.1500 
 13 C        3.7050    -0.8080     0.6680 C.ar  1 <1>  -0.1500 
 14 C       -0.7570    -6.8530    -0.0080 C.3   1 <1>   0.2800 
 15 C        2.7310     1.6440    -0.1260 C.ar  1 <1>  -0.1500 
 16 C        4.5360     0.2970     0.6740 C.ar  1 <1>  -0.1500 
 17 O       -0.0390    -6.6650     1.1580 O.3   1 <1>  -0.6800 
 18 C       -0.2300    -8.1360    -0.6730 C.3   1 <1>  -0.1600 
 19 C       -2.2520    -6.9980     0.3700 C.3   1 <1>  -0.1600 
 20 C        4.0500     1.5290     0.2760 C.ar  1 <1>  -0.1500 
 21 C       -0.4000    -9.4000     0.1980 C.3   1 <1>  -0.1600 
 22 C       -2.7320    -8.4510     0.5740 C.3   1 <1>  -0.1600 
 23 C       -1.6200    -9.3420     1.1350 C.3   1 <1>  -0.1600 
 24 H       -1.4410    -3.7720    -0.9220 H     1 <1>   0.4000 
 25 H        0.5310    -5.5590    -1.1590 H     1 <1>   0.0800 
 26 H       -1.0730    -5.7030    -1.8060 H     1 <1>   0.0800 
 27 H        0.8840     0.6380    -0.4420 H     1 <1>   0.1500 
 28 H        4.0940    -1.7620     0.9770 H     1 <1>   0.1500 
 29 H        2.3410     2.5950    -0.4440 H     1 <1>   0.1500 
 30 H        5.5610     0.1990     0.9860 H     1 <1>   0.1500 
 31 H       -0.0290    -5.6900     1.3220 H     1 <1>   0.4000 
 32 H        0.8060    -8.0140    -0.9340 H     1 <1>   0.0800 
 33 H       -0.7750    -8.2800    -1.5900 H     1 <1>   0.0800 
 34 H       -2.8560    -6.5660    -0.4080 H     1 <1>   0.0800 
 35 H       -2.4410    -6.4220     1.2590 H     1 <1>   0.0800 
 36 H        4.6910     2.3930     0.2750 H     1 <1>   0.1500 
 37 H        0.4810    -9.5300     0.8030 H     1 <1>   0.0800 
 38 H       -0.4790   -10.2580    -0.4470 H     1 <1>   0.0800 
 39 H       -3.0520    -8.8550    -0.3710 H     1 <1>   0.0800 
 40 H       -3.5790    -8.4580     1.2370 H     1 <1>   0.0800 
 41 H       -1.3100    -8.9380     2.0850 H     1 <1>   0.0800 
 42 H       -1.9920   -10.3360     1.3120 H     1 <1>   0.0800 
@<TRIPOS>BOND
  1   1   2  ar  
  2   2   3  ar  
  3   2   4  1   
  4   4   5  1   
  5   4   6  2   
  6   5   7  2   
  7   5   8  1   
  8   6   9  1   
  9   6  10  1   
 10   7   9  1   
 11   8  11  1   
 12   8  24  1   
 13  10  12  ar  
 14  10  13  ar  
 15  11  14  1   
 16  11  25  1   
 17  11  26  1   
 18  12  15  ar  
 19  12  27  1   
 20  13  16  ar  
 21  13  28  1   
 22  14  17  1   
 23  14  18  1   
 24  14  19  1   
 25  15  20  ar  
 26  15  29  1   
 27  16  20  ar  
 28  16  30  1   
 29  17  31  1   
 30  18  21  1   
 31  18  32  1   
 32  18  33  1   
 33  19  22  1   
 34  19  34  1   
 35  19  35  1   
 36  20  36  1   
 37  21  23  1   
 38  21  37  1   
 39  21  38  1   
 40  22  23  1   
 41  22  39  1   
 42  22  40  1   
 43  23  41  1   
 44  23  42  1   
@<TRIPOS>SUBSTRUCTURE
  1 ****   5 GROUP 4 **** **** 0

# MOE 2024.06 (io_trps.svl 2023.06)
