@<TRIPOS>MOLECULE
NONAME
49 52 1 0 0 
SMALL
USER_CHARGES


@<TRIPOS>ATOM
  1 O       -1.9720     0.9600     2.6330 O.2   1 <1>  -0.5700 
  2 C       -2.1140     1.3590     1.4990 C.2   1 <1>   0.6300 
  3 N       -2.4900     0.5050     0.4980 N.am  1 <1>  -0.6600 
  4 C       -1.8640     2.8430     1.1960 C.3   1 <1>   0.0320 
  5 C       -2.5580     0.8290    -0.9480 C.3   1 <1>   0.1400 
  6 C       -2.6780    -0.9500     0.7130 C.3   1 <1>   0.1400 
  7 C       -0.5550     3.0750     0.4490 C.ar  1 <1>  -0.0320 
  8 C       -2.2290     3.8700     2.2330 C.3   1 <1>  -0.2000 
  9 C       -3.0430     3.7580     0.9870 C.3   1 <1>  -0.2000 
 10 C       -3.2180    -0.3950    -1.5780 C.3   1 <1>   0.2000 
 11 C       -2.7440    -1.5550    -0.6950 C.3   1 <1>  -0.0800 
 12 C       -0.5320     3.5750    -0.8450 C.ar  1 <1>  -0.1500 
 13 C        0.6430     2.7690     1.0740 C.ar  1 <1>  -0.1500 
 14 O       -4.5920    -0.2510    -1.4590 O.3   1 <1>  -0.6800 
 15 C       -3.6000    -2.8320    -0.7850 C.3   1 <1>   0.0200 
 16 C        0.6720     3.7630    -1.5020 C.ar  1 <1>  -0.1500 
 17 C        1.8460     2.9560     0.4170 C.ar  1 <1>  -0.1500 
 18 C       -3.0170    -3.9980    -0.0040 C.2   1 <1>  -0.0400 
 19 C        1.8670     3.4520    -0.8750 C.ar  1 <1>  -0.1440 
 20 O       -3.7240    -5.0900     0.1120 O.3   1 <1>  -0.0190 
 21 C       -1.8570    -4.1940     0.6450 C.2   1 <1>  -0.1500 
 22 C        3.1880     3.6600    -1.5940 C.3   1 <1>  -0.0970 
 23 N       -3.1050    -6.0020     0.8040 N.2   1 <1>  -0.4100 
 24 C       -1.9760    -5.4890     1.1400 C.2   1 <1>   0.1080 
 25 C       -0.9280    -6.2060     1.9610 C.3   1 <1>  -0.0590 
 26 H       -3.1200     1.7280    -1.1350 H     1 <1>   0.0800 
 27 H       -1.5570     0.9400    -1.3280 H     1 <1>   0.0800 
 28 H       -1.8620    -1.3550     1.2870 H     1 <1>   0.0800 
 29 H       -3.5990    -1.1080     1.2480 H     1 <1>   0.0800 
 30 H       -2.6450     3.5300     3.1650 H     1 <1>   0.1000 
 31 H       -1.5790     4.7190     2.3580 H     1 <1>   0.1000 
 32 H       -2.9840     4.5670     0.2810 H     1 <1>   0.1000 
 33 H       -4.0350     3.3480     1.0620 H     1 <1>   0.1000 
 34 H       -2.9750    -0.5200    -2.6200 H     1 <1>   0.0800 
 35 H       -1.7400    -1.7970    -0.9940 H     1 <1>   0.0800 
 36 H       -1.4480     3.8210    -1.3480 H     1 <1>   0.1500 
 37 H        0.6360     2.3820     2.0790 H     1 <1>   0.1500 
 38 H       -4.8020     0.0140    -0.5400 H     1 <1>   0.4000 
 39 H       -3.6930    -3.1270    -1.8150 H     1 <1>   0.0800 
 40 H       -4.5910    -2.6380    -0.4130 H     1 <1>   0.0800 
 41 H        0.6750     4.1550    -2.5040 H     1 <1>   0.1500 
 42 H        2.7660     2.7140     0.9200 H     1 <1>   0.1500 
 43 H       -1.0120    -3.5450     0.7790 H     1 <1>   0.1500 
 44 H        3.0610     3.5550    -2.6560 H     1 <1>   0.0800 
 45 H        3.9120     2.9360    -1.2660 H     1 <1>   0.0800 
 46 H        3.5640     4.6460    -1.3850 H     1 <1>   0.0800 
 47 H       -0.7190    -5.6470     2.8540 H     1 <1>   0.0800 
 48 H       -0.0250    -6.3110     1.3870 H     1 <1>   0.0800 
 49 H       -1.2820    -7.1830     2.2360 H     1 <1>   0.0800 
@<TRIPOS>BOND
  1   1   2  2   
  2   2   3  am  
  3   2   4  1   
  4   3   5  1   
  5   3   6  1   
  6   4   7  1   
  7   4   8  1   
  8   4   9  1   
  9   5  10  1   
 10   5  26  1   
 11   5  27  1   
 12   6  11  1   
 13   6  28  1   
 14   6  29  1   
 15   7  12  ar  
 16   7  13  ar  
 17   8   9  1   
 18   8  30  1   
 19   8  31  1   
 20   9  32  1   
 21   9  33  1   
 22  10  11  1   
 23  10  14  1   
 24  10  34  1   
 25  11  15  1   
 26  11  35  1   
 27  12  16  ar  
 28  12  36  1   
 29  13  17  ar  
 30  13  37  1   
 31  14  38  1   
 32  15  18  1   
 33  15  39  1   
 34  15  40  1   
 35  16  19  ar  
 36  16  41  1   
 37  17  19  ar  
 38  17  42  1   
 39  18  20  1   
 40  18  21  2   
 41  19  22  1   
 42  20  23  1   
 43  21  24  1   
 44  21  43  1   
 45  22  44  1   
 46  22  45  1   
 47  22  46  1   
 48  23  24  2   
 49  24  25  1   
 50  25  47  1   
 51  25  48  1   
 52  25  49  1   
@<TRIPOS>SUBSTRUCTURE
  1 ****   3 GROUP 4 **** **** 0

# MOE 2024.06 (io_trps.svl 2023.06)
