@<TRIPOS>MOLECULE
NONAME
47 51 1 0 0 
SMALL
USER_CHARGES


@<TRIPOS>ATOM
  1 S        0.4810     1.2610    -3.0230 S.3   1 <1>  -0.0800 
  2 C        0.3440     2.3210    -1.6360 C.2   1 <1>  -0.1400 
  3 C        2.1840     1.6640    -3.1850 C.2   1 <1>  -0.1100 
  4 C        1.5090     2.9080    -1.3370 C.2   1 <1>  -0.1810 
  5 C       -0.9500     2.5250    -0.8960 C.3   1 <1>   0.0200 
  6 C        2.5680     2.5360    -2.2320 C.2   1 <1>  -0.1500 
  7 C        1.6270     3.8660    -0.1490 C.3   1 <1>   0.4610 
  8 C       -0.8020     3.8110    -0.0680 C.3   1 <1>   0.1200 
  9 O        0.4320     3.8430     0.6110 O.3   1 <1>  -0.5600 
 10 C        1.8860     5.3040    -0.6230 C.3   1 <1>  -0.1600 
 11 C        2.7390     3.4050     0.8010 C.3   1 <1>  -0.1600 
 12 C        2.0810     6.2570     0.5580 C.3   1 <1>   0.1400 
 13 C        2.9380     4.3850     1.9580 C.3   1 <1>   0.1400 
 14 N        3.1920     5.7440     1.4040 N.am  1 <1>  -0.6600 
 15 C        4.4100     6.3760     1.5450 C.2   1 <1>   0.5440 
 16 O        5.3390     5.7790     2.0530 O.2   1 <1>  -0.5700 
 17 C        4.6170     7.7280     1.0670 C.ar  1 <1>   0.0860 
 18 C        5.4410     7.9960    -0.0220 C.ar  1 <1>  -0.1430 
 19 C        3.9910     8.8200     1.6720 C.ar  1 <1>  -0.1500 
 20 C        5.6290     9.2740    -0.5060 C.ar  1 <1>   0.0860 
 21 C        6.2390     6.9890    -0.8330 C.3   1 <1>  -0.0170 
 22 C        4.1710    10.1110     1.2010 C.ar  1 <1>  -0.1500 
 23 C        6.5090     9.2620    -1.6310 C.2   1 <1>   0.4230 
 24 C        4.9890    10.3430     0.1090 C.ar  1 <1>  -0.1500 
 25 C        6.9560     7.8400    -1.9010 C.3   1 <1>  -0.0990 
 26 O        6.8670    10.1920    -2.3040 O.2   1 <1>  -0.5700 
 27 H        2.7250     1.1980    -3.9900 H     1 <1>   0.1500 
 28 H       -1.1410     1.6850    -0.2520 H     1 <1>   0.0800 
 29 H       -1.7670     2.6270    -1.5870 H     1 <1>   0.0800 
 30 H        3.5610     2.9330    -2.1200 H     1 <1>   0.1500 
 31 H       -1.5840     3.8700     0.6690 H     1 <1>   0.0800 
 32 H       -0.8640     4.6750    -0.7050 H     1 <1>   0.0800 
 33 H        1.0770     5.6420    -1.2420 H     1 <1>   0.0800 
 34 H        2.7750     5.3210    -1.2260 H     1 <1>   0.0800 
 35 H        3.6670     3.3230     0.2670 H     1 <1>   0.0800 
 36 H        2.4960     2.4310     1.1820 H     1 <1>   0.0800 
 37 H        1.1810     6.3030     1.1480 H     1 <1>   0.0800 
 38 H        2.2920     7.2450     0.1900 H     1 <1>   0.0800 
 39 H        3.7600     4.0600     2.5740 H     1 <1>   0.0800 
 40 H        2.0550     4.4130     2.5740 H     1 <1>   0.0800 
 41 H        3.3560     8.6440     2.5240 H     1 <1>   0.1500 
 42 H        5.5840     6.2670    -1.2880 H     1 <1>   0.0800 
 43 H        6.9500     6.4810    -0.2030 H     1 <1>   0.0800 
 44 H        3.6760    10.9360     1.6860 H     1 <1>   0.1500 
 45 H        5.1420    11.3390    -0.2720 H     1 <1>   0.1500 
 46 H        6.6650     7.5490    -2.8940 H     1 <1>   0.0800 
 47 H        8.0240     7.7720    -1.8000 H     1 <1>   0.0800 
@<TRIPOS>BOND
  1   1   2  1   
  2   1   3  1   
  3   2   4  2   
  4   2   5  1   
  5   3   6  2   
  6   3  27  1   
  7   4   6  1   
  8   4   7  1   
  9   5   8  1   
 10   5  28  1   
 11   5  29  1   
 12   6  30  1   
 13   7   9  1   
 14   7  10  1   
 15   7  11  1   
 16   8   9  1   
 17   8  31  1   
 18   8  32  1   
 19  10  12  1   
 20  10  33  1   
 21  10  34  1   
 22  11  13  1   
 23  11  35  1   
 24  11  36  1   
 25  12  14  1   
 26  12  37  1   
 27  12  38  1   
 28  13  14  1   
 29  13  39  1   
 30  13  40  1   
 31  14  15  am  
 32  15  16  2   
 33  15  17  1   
 34  17  18  ar  
 35  17  19  ar  
 36  18  20  ar  
 37  18  21  1   
 38  19  22  ar  
 39  19  41  1   
 40  20  23  1   
 41  20  24  ar  
 42  21  25  1   
 43  21  42  1   
 44  21  43  1   
 45  22  24  ar  
 46  22  44  1   
 47  23  25  1   
 48  23  26  2   
 49  24  45  1   
 50  25  46  1   
 51  25  47  1   
@<TRIPOS>SUBSTRUCTURE
  1 ****  10 GROUP 4 **** **** 0

# MOE 2024.06 (io_trps.svl 2023.06)
