@<TRIPOS>MOLECULE
NONAME
49 50 1 0 0 
SMALL
USER_CHARGES


@<TRIPOS>ATOM
  1 S        1.0350    -1.3650     2.6450 S.o2  1 <1>   1.4470 
  2 O        2.1330    -2.2970     2.5160 O.2   1 <1>  -0.6500 
  3 O        0.7240    -0.7860     3.9280 O.2   1 <1>  -0.6500 
  4 N       -0.3490    -2.2060     2.2120 N.am  1 <1>  -0.9140 
  5 C        1.1170    -0.0890     1.3600 C.ar  1 <1>  -0.0090 
  6 C       -0.1580    -3.1700     1.1360 C.3   1 <1>   0.2760 
  7 C       -0.0160     0.6330     1.0040 C.ar  1 <1>  -0.1500 
  8 C        2.3020     0.1920     0.6910 C.ar  1 <1>  -0.1500 
  9 C       -1.4900    -3.4330     0.4510 C.3   1 <1>  -0.0800 
 10 C        0.1250    -4.5510     1.7220 C.3   1 <1>   0.1200 
 11 C        0.0110     1.5860     0.0000 C.ar  1 <1>  -0.1430 
 12 C        2.3520     1.1480    -0.3080 C.ar  1 <1>  -0.1500 
 13 C       -2.1340    -4.5030     1.3440 C.3   1 <1>   0.1200 
 14 C       -2.3570    -2.1770     0.2300 C.3   1 <1>  -0.0550 
 15 O       -1.1170    -5.0040     2.1650 O.3   1 <1>  -0.5600 
 16 C        1.2040     1.8490    -0.6640 C.ar  1 <1>   0.0830 
 17 C       -1.2640     2.3330    -0.3670 C.3   1 <1>  -0.0970 
 18 S       -3.8240    -2.4910    -0.7440 S.o2  1 <1>   1.3330 
 19 O        1.1880     2.7930    -1.6410 O.3   1 <1>  -0.3630 
 20 O       -4.7410    -3.3010     0.0260 O.2   1 <1>  -0.6500 
 21 O       -3.3900    -2.9420    -2.0470 O.2   1 <1>  -0.6500 
 22 N       -4.4990    -0.9420    -0.9090 N.am  1 <1>  -0.8490 
 23 C        2.3560     3.1640    -2.3390 C.3   1 <1>   0.0400 
 24 C       -5.2710    -0.8020    -2.1470 C.3   1 <1>   0.1160 
 25 C       -5.3180    -0.5390     0.2400 C.3   1 <1>   0.1160 
 26 H       -0.5910    -2.7550     3.0400 H     1 <1>   0.4200 
 27 H        0.5970    -2.8460     0.4380 H     1 <1>   0.0800 
 28 H       -0.9360     0.4360     1.5270 H     1 <1>   0.1500 
 29 H        3.1970    -0.3470     0.9540 H     1 <1>   0.1500 
 30 H       -1.2900    -3.8840    -0.5070 H     1 <1>   0.0800 
 31 H        0.8220    -4.5350     2.5410 H     1 <1>   0.0800 
 32 H        0.4730    -5.2260     0.9600 H     1 <1>   0.0800 
 33 H        3.2900     1.3300    -0.7970 H     1 <1>   0.1500 
 34 H       -2.5480    -5.3130     0.7660 H     1 <1>   0.0800 
 35 H       -2.8960    -4.0910     1.9840 H     1 <1>   0.0800 
 36 H       -1.7660    -1.4390    -0.2770 H     1 <1>   0.0800 
 37 H       -2.6480    -1.7670     1.1770 H     1 <1>   0.0800 
 38 H       -2.0990     1.9990     0.2220 H     1 <1>   0.0800 
 39 H       -1.4930     2.1730    -1.4060 H     1 <1>   0.0800 
 40 H       -1.1270     3.3870    -0.2040 H     1 <1>   0.0800 
 41 H        2.0920     3.9340    -3.0420 H     1 <1>   0.0800 
 42 H        2.7370     2.3060    -2.8640 H     1 <1>   0.0800 
 43 H        3.0770     3.5420    -1.6370 H     1 <1>   0.0800 
 44 H       -5.6710     0.1940    -2.2280 H     1 <1>   0.0800 
 45 H       -6.0820    -1.5120    -2.1660 H     1 <1>   0.0800 
 46 H       -4.6370    -0.9790    -2.9990 H     1 <1>   0.0800 
 47 H       -5.6450     0.4800     0.1210 H     1 <1>   0.0800 
 48 H       -4.7440    -0.6070     1.1480 H     1 <1>   0.0800 
 49 H       -6.1820    -1.1770     0.3290 H     1 <1>   0.0800 
@<TRIPOS>BOND
  1   1   2  2   
  2   1   3  2   
  3   1   4  am  
  4   1   5  1   
  5   4   6  1   
  6   4  26  1   
  7   5   7  ar  
  8   5   8  ar  
  9   6   9  1   
 10   6  10  1   
 11   6  27  1   
 12   7  11  ar  
 13   7  28  1   
 14   8  12  ar  
 15   8  29  1   
 16   9  13  1   
 17   9  14  1   
 18   9  30  1   
 19  10  15  1   
 20  10  31  1   
 21  10  32  1   
 22  11  16  ar  
 23  11  17  1   
 24  12  16  ar  
 25  12  33  1   
 26  13  15  1   
 27  13  34  1   
 28  13  35  1   
 29  14  18  1   
 30  14  36  1   
 31  14  37  1   
 32  16  19  1   
 33  17  38  1   
 34  17  39  1   
 35  17  40  1   
 36  18  20  2   
 37  18  21  2   
 38  18  22  am  
 39  19  23  1   
 40  22  24  1   
 41  22  25  1   
 42  23  41  1   
 43  23  42  1   
 44  23  43  1   
 45  24  44  1   
 46  24  45  1   
 47  24  46  1   
 48  25  47  1   
 49  25  48  1   
 50  25  49  1   
@<TRIPOS>SUBSTRUCTURE
  1 ****  14 GROUP 4 **** **** 0

# MOE 2024.06 (io_trps.svl 2023.06)
