@<TRIPOS>MOLECULE
NONAME
54 57 1 0 0 
SMALL
USER_CHARGES


@<TRIPOS>ATOM
  1 S       -0.2000     1.5140     2.6830 S.3   1 <1>  -0.0800 
  2 C       -1.0100     1.5000     1.1240 C.2   1 <1>  -0.1400 
  3 C       -1.3250     0.3180     3.3130 C.2   1 <1>  -0.1100 
  4 C       -2.0470     0.6520     1.1370 C.2   1 <1>  -0.1810 
  5 C       -0.5540     2.3570    -0.0500 C.3   1 <1>   0.4600 
  6 C       -2.2310    -0.0320     2.3800 C.2   1 <1>  -0.1500 
  7 C       -2.8960     0.4960    -0.1040 C.3   1 <1>   0.0210 
  8 O       -1.3160     2.0070    -1.1900 O.3   1 <1>  -0.5600 
  9 C       -0.7480     3.8530     0.2370 C.3   1 <1>  -0.1600 
 10 C        0.9080     2.0640    -0.4070 C.3   1 <1>  -0.1600 
 11 C       -2.6850     1.7220    -1.0150 C.3   1 <1>   0.1200 
 12 C       -0.2350     4.7140    -0.9180 C.3   1 <1>   0.1400 
 13 C        1.4030     2.9590    -1.5450 C.3   1 <1>   0.1400 
 14 N        1.1980     4.3870    -1.1650 N.am  1 <1>  -0.6600 
 15 C        2.2650     5.2460    -1.0320 C.2   1 <1>   0.5690 
 16 O        3.3920     4.8870    -1.2830 O.2   1 <1>  -0.5700 
 17 C        2.0630     6.6810    -0.5500 C.3   1 <1>  -0.0190 
 18 C        3.2830     7.6020    -0.7440 C.3   1 <1>   0.1400 
 19 C        1.7260     6.7810     0.9500 C.3   1 <1>  -0.0990 
 20 N        3.2110     8.5170     0.4100 N.am  1 <1>  -0.6600 
 21 C        2.3440     8.0890     1.3520 C.2   1 <1>   0.5690 
 22 C        4.0260     9.7540     0.4820 C.3   1 <1>   0.1400 
 23 O        2.0670     8.6580     2.3790 O.2   1 <1>  -0.5700 
 24 C        5.2380     9.5880     1.4190 C.3   1 <1>  -0.0800 
 25 C        6.0060    10.9130     1.5160 C.3   1 <1>  -0.2400 
 26 C        6.1930     8.4740     0.9670 C.3   1 <1>  -0.2400 
 27 H       -1.1850    -0.0030     4.3310 H     1 <1>   0.1500 
 28 H       -3.0240    -0.7460     2.5130 H     1 <1>   0.1500 
 29 H       -3.9350     0.4260     0.1640 H     1 <1>   0.0800 
 30 H       -2.6160    -0.4010    -0.6270 H     1 <1>   0.0800 
 31 H       -0.2060     4.1140     1.1280 H     1 <1>   0.0800 
 32 H       -1.7840     4.0610     0.4240 H     1 <1>   0.0800 
 33 H        1.0040     1.0310    -0.6840 H     1 <1>   0.0800 
 34 H        1.5330     2.2300     0.4510 H     1 <1>   0.0800 
 35 H       -3.1620     2.5880    -0.5900 H     1 <1>   0.0800 
 36 H       -3.1090     1.5380    -1.9860 H     1 <1>   0.0800 
 37 H       -0.3730     5.7520    -0.6850 H     1 <1>   0.0800 
 38 H       -0.8000     4.5000    -1.8100 H     1 <1>   0.0800 
 39 H        0.8530     2.7490    -2.4460 H     1 <1>   0.0800 
 40 H        2.4430     2.7540    -1.7370 H     1 <1>   0.0800 
 41 H        1.2660     7.1220    -1.1190 H     1 <1>   0.0800 
 42 H        3.2220     8.1420    -1.6730 H     1 <1>   0.0800 
 43 H        4.2120     7.0590    -0.7010 H     1 <1>   0.0800 
 44 H        2.1970     5.9930     1.5090 H     1 <1>   0.0800 
 45 H        0.6690     6.7870     1.1360 H     1 <1>   0.0800 
 46 H        3.4010    10.5480     0.8550 H     1 <1>   0.0800 
 47 H        4.3570    10.0250    -0.5050 H     1 <1>   0.0800 
 48 H        4.8670     9.3480     2.4020 H     1 <1>   0.0800 
 49 H        6.4000    11.1950     0.5550 H     1 <1>   0.0800 
 50 H        6.8230    10.8200     2.2090 H     1 <1>   0.0800 
 51 H        5.3560    11.6950     1.8670 H     1 <1>   0.0800 
 52 H        6.5240     8.6420    -0.0430 H     1 <1>   0.0800 
 53 H        5.7040     7.5180     1.0180 H     1 <1>   0.0800 
 54 H        7.0540     8.4360     1.6100 H     1 <1>   0.0800 
@<TRIPOS>BOND
  1   1   2  1   
  2   1   3  1   
  3   2   4  2   
  4   2   5  1   
  5   3   6  2   
  6   3  27  1   
  7   4   6  1   
  8   4   7  1   
  9   5   8  1   
 10   5   9  1   
 11   5  10  1   
 12   6  28  1   
 13   7  11  1   
 14   7  29  1   
 15   7  30  1   
 16   8  11  1   
 17   9  12  1   
 18   9  31  1   
 19   9  32  1   
 20  10  13  1   
 21  10  33  1   
 22  10  34  1   
 23  11  35  1   
 24  11  36  1   
 25  12  14  1   
 26  12  37  1   
 27  12  38  1   
 28  13  14  1   
 29  13  39  1   
 30  13  40  1   
 31  14  15  am  
 32  15  16  2   
 33  15  17  1   
 34  17  18  1   
 35  17  19  1   
 36  17  41  1   
 37  18  20  1   
 38  18  42  1   
 39  18  43  1   
 40  19  21  1   
 41  19  44  1   
 42  19  45  1   
 43  20  21  am  
 44  20  22  1   
 45  21  23  2   
 46  22  24  1   
 47  22  46  1   
 48  22  47  1   
 49  24  25  1   
 50  24  26  1   
 51  24  48  1   
 52  25  49  1   
 53  25  50  1   
 54  25  51  1   
 55  26  52  1   
 56  26  53  1   
 57  26  54  1   
@<TRIPOS>SUBSTRUCTURE
  1 ****  14 GROUP 4 **** **** 0

# MOE 2024.06 (io_trps.svl 2023.06)
