@<TRIPOS>MOLECULE
NONAME
53 55 1 0 0 
SMALL
USER_CHARGES


@<TRIPOS>ATOM
  1 O       -2.4670     2.0980    -2.1120 O.2   1 <1>  -0.5700 
  2 C       -2.3920     1.3670    -1.1510 C.2   1 <1>   0.5690 
  3 N       -3.0960     0.1870    -1.1010 N.am  1 <1>  -0.6600 
  4 C       -1.4480     1.8380    -0.0260 C.3   1 <1>   0.4040 
  5 C       -2.9390    -0.8320     0.0040 C.3   1 <1>   0.3640 
  6 C       -4.1200    -0.0820    -2.1650 C.3   1 <1>   0.1400 
  7 N        0.0120     1.4280    -0.1600 N.4   1 <1>  -0.9590 
  8 C       -1.4700    -1.2670     0.0430 C.ar  1 <1>  -0.1440 
  9 C       -3.8540    -2.0970    -0.0710 C.3   1 <1>   0.2000 
 10 C       -4.5340    -1.5510    -2.2440 C.3   1 <1>   0.1200 
 11 C        0.9480     2.1030     0.7920 C.3   1 <1>   0.4230 
 12 C        0.4870     1.5790    -1.5730 C.3   1 <1>   0.2630 
 13 C       -0.8020    -1.3560     1.2560 C.ar  1 <1>  -0.1500 
 14 C       -0.7810    -1.5730    -1.1250 C.ar  1 <1>  -0.1500 
 15 O       -4.9130    -1.9720    -0.9770 O.3   1 <1>  -0.5600 
 16 C       -4.4940    -2.4250     1.2860 C.3   1 <1>   0.1200 
 17 C        0.5790     1.8400     2.2510 C.3   1 <1>  -0.1600 
 18 C        0.9170     3.6320     0.6780 C.3   1 <1>  -0.1600 
 19 C        0.5340    -1.7150     1.3010 C.ar  1 <1>  -0.1500 
 20 C        0.5550    -1.9310    -1.0820 C.ar  1 <1>  -0.1500 
 21 O       -3.5230    -2.5680     2.2730 O.3   1 <1>  -0.6800 
 22 C       -0.3020     3.0030     2.7210 C.3   1 <1>  -0.1600 
 23 C       -0.0350     4.1630     1.7580 C.3   1 <1>  -0.1600 
 24 C        1.2150    -1.9970     0.1310 C.ar  1 <1>  -0.1500 
 25 H       -1.8340     1.4850     0.9130 H     1 <1>   0.0800 
 26 H       -1.5060     2.9110    -0.0160 H     1 <1>   0.0800 
 27 H       -3.1670    -0.3310     0.9290 H     1 <1>   0.0800 
 28 H       -4.9950     0.5120    -1.9630 H     1 <1>   0.0800 
 29 H       -3.7380     0.2210    -3.1250 H     1 <1>   0.0800 
 30 H        0.0450     0.4110     0.0480 H     1 <1>   0.4500 
 31 H       -3.2730    -2.9450    -0.3880 H     1 <1>   0.0800 
 32 H       -3.7320    -2.1710    -2.6060 H     1 <1>   0.0800 
 33 H       -5.3820    -1.6610    -2.8960 H     1 <1>   0.0800 
 34 H        1.9480     1.7430     0.6050 H     1 <1>   0.0800 
 35 H        0.3900     2.6020    -1.8980 H     1 <1>   0.0800 
 36 H       -0.1000     0.9600    -2.2330 H     1 <1>   0.0800 
 37 H        1.5190     1.2810    -1.6560 H     1 <1>   0.0800 
 38 H       -1.3200    -1.1550     2.1820 H     1 <1>   0.1500 
 39 H       -1.2820    -1.5360    -2.0780 H     1 <1>   0.1500 
 40 H       -5.0590    -3.3400     1.2300 H     1 <1>   0.0800 
 41 H       -5.1470    -1.6230     1.5860 H     1 <1>   0.0800 
 42 H        0.1160     0.8870     2.4130 H     1 <1>   0.0800 
 43 H        1.4890     1.8650     2.8250 H     1 <1>   0.0800 
 44 H        1.9060     3.9940     0.9050 H     1 <1>   0.0800 
 45 H        0.6550     3.9910    -0.3010 H     1 <1>   0.0800 
 46 H        1.0420    -1.7910     2.2490 H     1 <1>   0.1500 
 47 H        1.0790    -2.1720    -1.9930 H     1 <1>   0.1500 
 48 H       -3.1660    -3.4810     2.2750 H     1 <1>   0.4000 
 49 H       -1.3430     2.7290     2.6900 H     1 <1>   0.0800 
 50 H       -0.0610     3.2790     3.7350 H     1 <1>   0.0800 
 51 H        0.4170     4.9910     2.2790 H     1 <1>   0.0800 
 52 H       -0.9570     4.5080     1.3230 H     1 <1>   0.0800 
 53 H        2.2530    -2.2860     0.1660 H     1 <1>   0.1500 
@<TRIPOS>BOND
  1   1   2  2   
  2   2   3  am  
  3   2   4  1   
  4   3   5  1   
  5   3   6  1   
  6   4   7  1   
  7   4  25  1   
  8   4  26  1   
  9   5   8  1   
 10   5   9  1   
 11   5  27  1   
 12   6  10  1   
 13   6  28  1   
 14   6  29  1   
 15   7  11  1   
 16   7  12  1   
 17   7  30  1   
 18   8  13  ar  
 19   8  14  ar  
 20   9  15  1   
 21   9  16  1   
 22   9  31  1   
 23  10  15  1   
 24  10  32  1   
 25  10  33  1   
 26  11  17  1   
 27  11  18  1   
 28  11  34  1   
 29  12  35  1   
 30  12  36  1   
 31  12  37  1   
 32  13  19  ar  
 33  13  38  1   
 34  14  20  ar  
 35  14  39  1   
 36  16  21  1   
 37  16  40  1   
 38  16  41  1   
 39  17  22  1   
 40  17  42  1   
 41  17  43  1   
 42  18  23  1   
 43  18  44  1   
 44  18  45  1   
 45  19  24  ar  
 46  19  46  1   
 47  20  24  ar  
 48  20  47  1   
 49  21  48  1   
 50  22  23  1   
 51  22  49  1   
 52  22  50  1   
 53  23  51  1   
 54  23  52  1   
 55  24  53  1   
@<TRIPOS>SUBSTRUCTURE
  1 ****   8 GROUP 4 **** **** 0

# MOE 2024.06 (io_trps.svl 2023.06)
