@<TRIPOS>MOLECULE
NONAME
52 56 1 0 0 
SMALL
USER_CHARGES


@<TRIPOS>ATOM
  1 O       -0.0030     1.2340     0.9180 O.2   1 <1>  -0.5700 
  2 C       -0.7930     1.9610     0.3600 C.2   1 <1>   0.5770 
  3 N       -2.1240     1.9650     0.7210 N.am  1 <1>  -0.6600 
  4 C       -0.2550     2.8320    -0.7750 C.3   1 <1>   0.0530 
  5 C       -3.2120     2.7590     0.0610 C.3   1 <1>   0.1400 
  6 C       -2.6370     0.9950     1.7370 C.3   1 <1>   0.1400 
  7 C       -0.3600     4.3400    -0.5000 C.3   1 <1>   0.2580 
  8 C        1.2490     3.1350    -0.6330 C.3   1 <1>   0.2580 
  9 C       -0.6440     2.3780    -2.2040 C.3   1 <1>  -0.2400 
 10 C       -4.0750     3.5130     1.0920 C.3   1 <1>   0.1440 
 11 C       -3.5060     1.7060     2.7820 C.3   1 <1>  -0.1600 
 12 O        0.9520     4.4720    -1.0220 O.3   1 <1>  -0.5160 
 13 C       -5.1640     4.2540     0.3390 C.ar  1 <1>   0.1660 
 14 C       -4.6370     2.5170     2.1260 C.3   1 <1>  -0.1600 
 15 C       -3.3000     4.6730     1.7740 C.3   1 <1>  -0.1600 
 16 N       -6.2070     3.6990    -0.2300 N.ar  1 <1>  -0.6200 
 17 C       -4.9220     5.5920     0.2940 C.ar  1 <1>  -0.1440 
 18 C       -3.6440     5.9600     1.0050 C.3   1 <1>  -0.0170 
 19 C       -7.0490     4.5340    -0.8530 C.ar  1 <1>   0.6200 
 20 C       -5.8270     6.3820    -0.3670 C.ar  1 <1>   0.1600 
 21 N       -6.8890     5.8640    -0.9400 N.ar  1 <1>  -0.6200 
 22 C       -8.2250     3.9530    -1.4880 C.ar  1 <1>   0.0000 
 23 C       -9.4010     4.6880    -1.6670 C.ar  1 <1>  -0.1500 
 24 C       -8.2340     2.6330    -1.9490 C.ar  1 <1>  -0.1500 
 25 C      -10.5200     4.1410    -2.2690 C.ar  1 <1>  -0.1500 
 26 C       -9.3490     2.0790    -2.5520 C.ar  1 <1>  -0.1500 
 27 C      -10.4960     2.8330    -2.7140 C.ar  1 <1>  -0.1500 
 28 H       -3.8430     2.0800    -0.4860 H     1 <1>   0.0800 
 29 H       -2.8150     3.4640    -0.6430 H     1 <1>   0.0800 
 30 H       -1.8240     0.4960     2.2380 H     1 <1>   0.0800 
 31 H       -3.2210     0.2440     1.2330 H     1 <1>   0.0800 
 32 H       -0.3660     4.6180     0.5400 H     1 <1>   0.0000 
 33 H       -1.0620     4.8750    -1.1140 H     1 <1>   0.0000 
 34 H        1.8850     2.6650    -1.3620 H     1 <1>   0.0000 
 35 H        1.6370     3.1300     0.3720 H     1 <1>   0.0000 
 36 H       -1.7100     2.3810    -2.3340 H     1 <1>   0.0800 
 37 H       -0.2840     1.3790    -2.3750 H     1 <1>   0.0800 
 38 H       -0.2080     3.0290    -2.9420 H     1 <1>   0.0800 
 39 H       -2.8800     2.3500     3.3750 H     1 <1>   0.0800 
 40 H       -3.9300     0.9710     3.4430 H     1 <1>   0.0800 
 41 H       -5.3090     1.8380     1.6280 H     1 <1>   0.0800 
 42 H       -5.2060     3.0380     2.8760 H     1 <1>   0.0800 
 43 H       -2.2420     4.4950     1.8190 H     1 <1>   0.0800 
 44 H       -3.6560     4.7910     2.7830 H     1 <1>   0.0800 
 45 H       -2.8800     6.1920     0.2840 H     1 <1>   0.0800 
 46 H       -3.7830     6.7930     1.6720 H     1 <1>   0.0800 
 47 H       -5.6800     7.4470    -0.4280 H     1 <1>   0.1500 
 48 H       -9.4400     5.7090    -1.3260 H     1 <1>   0.1500 
 49 H       -7.3520     2.0290    -1.8330 H     1 <1>   0.1500 
 50 H      -11.4090     4.7350    -2.3920 H     1 <1>   0.1500 
 51 H       -9.3230     1.0590    -2.8960 H     1 <1>   0.1500 
 52 H      -11.3650     2.4040    -3.1830 H     1 <1>   0.1500 
@<TRIPOS>BOND
  1   1   2  2   
  2   2   3  am  
  3   2   4  1   
  4   3   5  1   
  5   3   6  1   
  6   4   7  1   
  7   4   8  1   
  8   4   9  1   
  9   5  10  1   
 10   5  28  1   
 11   5  29  1   
 12   6  11  1   
 13   6  30  1   
 14   6  31  1   
 15   7  12  1   
 16   7  32  1   
 17   7  33  1   
 18   8  12  1   
 19   8  34  1   
 20   8  35  1   
 21   9  36  1   
 22   9  37  1   
 23   9  38  1   
 24  10  13  1   
 25  10  14  1   
 26  10  15  1   
 27  11  14  1   
 28  11  39  1   
 29  11  40  1   
 30  13  16  ar  
 31  13  17  ar  
 32  14  41  1   
 33  14  42  1   
 34  15  18  1   
 35  15  43  1   
 36  15  44  1   
 37  16  19  ar  
 38  17  18  1   
 39  17  20  ar  
 40  18  45  1   
 41  18  46  1   
 42  19  21  ar  
 43  19  22  1   
 44  20  21  ar  
 45  20  47  1   
 46  22  23  ar  
 47  22  24  ar  
 48  23  25  ar  
 49  23  48  1   
 50  24  26  ar  
 51  24  49  1   
 52  25  27  ar  
 53  25  50  1   
 54  26  27  ar  
 55  26  51  1   
 56  27  52  1   
@<TRIPOS>SUBSTRUCTURE
  1 ****  13 GROUP 4 **** **** 0

# MOE 2024.06 (io_trps.svl 2023.06)
