@<TRIPOS>MOLECULE
NONAME
53 55 1 0 0 
SMALL
USER_CHARGES


@<TRIPOS>ATOM
  1 S       -2.4160    -1.7020     3.0160 S.3   1 <1>  -0.0800 
  2 C       -3.0520    -2.8040     1.8110 C.2   1 <1>  -0.1100 
  3 C       -1.8150    -0.6210     1.7730 C.2   1 <1>  -0.1100 
  4 C       -2.8110    -2.3460     0.5660 C.2   1 <1>  -0.1810 
  5 C       -2.1000    -1.0990     0.5480 C.2   1 <1>  -0.1500 
  6 C       -3.2300    -3.0280    -0.7190 C.3   1 <1>   0.5240 
  7 N       -4.7120    -3.0560    -0.7850 N.4   1 <1>  -0.9590 
  8 C       -5.2530    -3.8910    -1.9060 C.3   1 <1>   0.3430 
  9 C       -5.3540    -1.7180    -0.6830 C.3   1 <1>   0.3430 
 10 C       -6.7650    -4.1720    -1.7380 C.3   1 <1>   0.1400 
 11 C       -6.4200    -1.7660     0.4130 C.3   1 <1>  -0.1600 
 12 N       -7.1660    -4.0620    -0.3080 N.am  1 <1>  -0.6600 
 13 C       -7.6020    -2.7120     0.1480 C.3   1 <1>   0.1400 
 14 C       -6.7690    -5.0080     0.5990 C.2   1 <1>   0.5690 
 15 O       -5.8300    -4.7410     1.3190 O.2   1 <1>  -0.5700 
 16 C       -7.3360    -6.4520     0.5790 C.3   1 <1>   0.2810 
 17 N       -8.7030    -6.6370    -0.0180 N.am  1 <1>  -0.6600 
 18 C       -7.3310    -7.1560     1.9480 C.3   1 <1>  -0.1600 
 19 C       -9.7330    -5.7700     0.2350 C.2   1 <1>   0.7800 
 20 C       -9.0090    -8.0620    -0.3070 C.3   1 <1>   0.1400 
 21 C       -7.6990    -8.6450     1.8070 C.3   1 <1>  -0.1600 
 22 O       -9.6750    -4.8870     1.0690 O.2   1 <1>  -0.5700 
 23 O      -10.8560    -5.9340    -0.4680 O.3   1 <1>  -0.4300 
 24 C       -9.0070    -8.8360     1.0190 C.3   1 <1>  -0.1600 
 25 C      -11.9900    -5.1210    -0.2410 C.3   1 <1>   0.0400 
 26 H       -3.5500    -3.6870     2.1800 H     1 <1>   0.1500 
 27 H       -1.3020     0.2670     2.1000 H     1 <1>   0.1500 
 28 H       -1.8250    -0.6100    -0.3720 H     1 <1>   0.1500 
 29 H       -2.8440    -4.0340    -0.7240 H     1 <1>   0.0800 
 30 H       -2.8270    -2.4990    -1.5660 H     1 <1>   0.0800 
 31 H       -5.0240    -3.5430     0.0840 H     1 <1>   0.4500 
 32 H       -4.7400    -4.8380    -1.9170 H     1 <1>   0.0800 
 33 H       -5.0760    -3.4130    -2.8560 H     1 <1>   0.0800 
 34 H       -5.7970    -1.4370    -1.6240 H     1 <1>   0.0800 
 35 H       -4.6210    -0.9740    -0.4160 H     1 <1>   0.0800 
 36 H       -6.9950    -5.1580    -2.1070 H     1 <1>   0.0800 
 37 H       -7.3320    -3.4710    -2.3260 H     1 <1>   0.0800 
 38 H       -6.8160    -0.7740     0.5420 H     1 <1>   0.0800 
 39 H       -5.9590    -2.0280     1.3490 H     1 <1>   0.0800 
 40 H       -8.2610    -2.2870    -0.5900 H     1 <1>   0.0800 
 41 H       -8.1710    -2.8190     1.0580 H     1 <1>   0.0800 
 42 H       -6.6520    -6.9960    -0.0450 H     1 <1>   0.0800 
 43 H       -8.0270    -6.6600     2.6010 H     1 <1>   0.0800 
 44 H       -6.3550    -7.0770     2.3940 H     1 <1>   0.0800 
 45 H       -8.2640    -8.4630    -0.9720 H     1 <1>   0.0800 
 46 H       -9.9690    -8.1610    -0.7860 H     1 <1>   0.0800 
 47 H       -7.7980    -9.0870     2.7840 H     1 <1>   0.0800 
 48 H       -6.9030    -9.1590     1.2960 H     1 <1>   0.0800 
 49 H       -9.1590    -9.8820     0.8210 H     1 <1>   0.0800 
 50 H       -9.8360    -8.4970     1.6160 H     1 <1>   0.0800 
 51 H      -12.7720    -5.4330    -0.9100 H     1 <1>   0.0800 
 52 H      -11.7270    -4.0950    -0.4310 H     1 <1>   0.0800 
 53 H      -12.3050    -5.2420     0.7810 H     1 <1>   0.0800 
@<TRIPOS>BOND
  1   1   2  1   
  2   1   3  1   
  3   2   4  2   
  4   2  26  1   
  5   3   5  2   
  6   3  27  1   
  7   4   5  1   
  8   4   6  1   
  9   5  28  1   
 10   6   7  1   
 11   6  29  1   
 12   6  30  1   
 13   7   8  1   
 14   7   9  1   
 15   7  31  1   
 16   8  10  1   
 17   8  32  1   
 18   8  33  1   
 19   9  11  1   
 20   9  34  1   
 21   9  35  1   
 22  10  12  1   
 23  10  36  1   
 24  10  37  1   
 25  11  13  1   
 26  11  38  1   
 27  11  39  1   
 28  12  13  1   
 29  12  14  am  
 30  13  40  1   
 31  13  41  1   
 32  14  15  2   
 33  14  16  1   
 34  16  17  1   
 35  16  18  1   
 36  16  42  1   
 37  17  19  am  
 38  17  20  1   
 39  18  21  1   
 40  18  43  1   
 41  18  44  1   
 42  19  22  2   
 43  19  23  1   
 44  20  24  1   
 45  20  45  1   
 46  20  46  1   
 47  21  24  1   
 48  21  47  1   
 49  21  48  1   
 50  23  25  1   
 51  24  49  1   
 52  24  50  1   
 53  25  51  1   
 54  25  52  1   
 55  25  53  1   
@<TRIPOS>SUBSTRUCTURE
  1 ****  14 GROUP 4 **** **** 0

# MOE 2024.06 (io_trps.svl 2023.06)
