@<TRIPOS>MOLECULE
NONAME
48 49 1 0 0 
SMALL
USER_CHARGES


@<TRIPOS>ATOM
  1 CL      -1.2310     0.9410    -0.0950 Cl    1 <1>  -0.1770 
  2 C       -1.3480     2.5360     0.6090 C.ar  1 <1>   0.1770 
  3 C       -1.0580     3.6380    -0.1590 C.ar  1 <1>  -0.1500 
  4 C       -1.7380     2.6440     1.9480 C.ar  1 <1>  -0.1500 
  5 C       -1.1610     4.8950     0.4330 C.ar  1 <1>   0.2270 
  6 C       -1.8410     3.8860     2.5350 C.ar  1 <1>  -0.1500 
  7 N       -0.9320     6.1240    -0.1030 N.2   1 <1>  -0.5650 
  8 C       -1.5460     5.0090     1.7570 C.ar  1 <1>  -0.1520 
  9 C       -1.1690     6.9480     0.8590 C.2   1 <1>   0.0060 
 10 N       -1.5460     6.3410     2.0140 N.pl3 1 <1>   0.0330 
 11 C       -1.0560     8.4620     0.7590 C.3   1 <1>   0.0200 
 12 C       -0.2550     8.8940    -0.4750 C.3   1 <1>   0.1100 
 13 N       -0.0350    10.3540    -0.4890 N.3   1 <1>  -0.8100 
 14 C        1.1050    10.6900    -1.4040 C.3   1 <1>   0.1710 
 15 C       -1.2490    11.0730    -0.9150 C.3   1 <1>   0.0300 
 16 C        1.6670    12.1050    -1.2360 C.2   1 <1>   0.5690 
 17 O        2.2730    12.6090    -2.1520 O.2   1 <1>  -0.5700 
 18 N        1.4560    12.7200    -0.0430 N.am  1 <1>  -0.7300 
 19 C        1.8750    14.0350     0.4470 C.3   1 <1>   0.3000 
 20 C        1.3250    14.2000     1.8790 C.3   1 <1>  -0.1600 
 21 C        3.4040    14.1180     0.4210 C.3   1 <1>  -0.2400 
 22 C        1.2670    15.1150    -0.4510 C.3   1 <1>  -0.2400 
 23 C        1.7690    13.1340     2.8990 C.3   1 <1>  -0.2400 
 24 H       -0.7600     3.5560    -1.1850 H     1 <1>   0.1500 
 25 H       -1.9530     1.7460     2.5010 H     1 <1>   0.1500 
 26 H       -2.1390     3.9950     3.5640 H     1 <1>   0.1500 
 27 H       -1.7830     6.7890     2.9020 H     1 <1>   0.2700 
 28 H       -0.5600     8.8370     1.6360 H     1 <1>   0.0800 
 29 H       -2.0470     8.8710     0.7140 H     1 <1>   0.0800 
 30 H       -0.7570     8.5770    -1.3740 H     1 <1>   0.0800 
 31 H        0.6950     8.3870    -0.4350 H     1 <1>   0.0800 
 32 H        0.8030    10.5580    -2.4280 H     1 <1>   0.0800 
 33 H        1.9210    10.0170    -1.2160 H     1 <1>   0.0800 
 34 H       -2.0500    10.9050    -0.2170 H     1 <1>   0.0800 
 35 H       -1.5610    10.7430    -1.8910 H     1 <1>   0.0800 
 36 H       -1.0630    12.1330    -0.9530 H     1 <1>   0.0800 
 37 H        0.8900    12.1800     0.6160 H     1 <1>   0.3700 
 38 H        0.2500    14.2050     1.8360 H     1 <1>   0.0800 
 39 H        1.6240    15.1650     2.2500 H     1 <1>   0.0800 
 40 H        3.8410    13.2900     0.9470 H     1 <1>   0.0800 
 41 H        3.7330    15.0320     0.8800 H     1 <1>   0.0800 
 42 H        3.7630    14.1070    -0.5920 H     1 <1>   0.0800 
 43 H        0.1970    15.0220    -0.4810 H     1 <1>   0.0800 
 44 H        1.6510    15.0370    -1.4520 H     1 <1>   0.0800 
 45 H        1.5160    16.0910    -0.0770 H     1 <1>   0.0800 
 46 H        1.4830    12.1470     2.5810 H     1 <1>   0.0800 
 47 H        1.3060    13.3270     3.8500 H     1 <1>   0.0800 
 48 H        2.8350    13.1560     3.0370 H     1 <1>   0.0800 
@<TRIPOS>BOND
  1   1   2  1   
  2   2   3  ar  
  3   2   4  ar  
  4   3   5  ar  
  5   3  24  1   
  6   4   6  ar  
  7   4  25  1   
  8   5   7  1   
  9   5   8  ar  
 10   6   8  ar  
 11   6  26  1   
 12   7   9  2   
 13   8  10  1   
 14   9  10  1   
 15   9  11  1   
 16  10  27  1   
 17  11  12  1   
 18  11  28  1   
 19  11  29  1   
 20  12  13  1   
 21  12  30  1   
 22  12  31  1   
 23  13  14  1   
 24  13  15  1   
 25  14  16  1   
 26  14  32  1   
 27  14  33  1   
 28  15  34  1   
 29  15  35  1   
 30  15  36  1   
 31  16  17  2   
 32  16  18  am  
 33  18  19  1   
 34  18  37  1   
 35  19  20  1   
 36  19  21  1   
 37  19  22  1   
 38  20  23  1   
 39  20  38  1   
 40  20  39  1   
 41  21  40  1   
 42  21  41  1   
 43  21  42  1   
 44  22  43  1   
 45  22  44  1   
 46  22  45  1   
 47  23  46  1   
 48  23  47  1   
 49  23  48  1   
@<TRIPOS>SUBSTRUCTURE
  1 ****  12 GROUP 4 **** **** 0

# MOE 2024.06 (io_trps.svl 2023.06)
