@<TRIPOS>MOLECULE
NONAME
45 47 1 0 0 
SMALL
USER_CHARGES


@<TRIPOS>ATOM
  1 CL      -0.4940     0.6900    -1.4660 Cl    1 <1>  -0.1770 
  2 C       -0.4380     2.3310    -0.8740 C.ar  1 <1>   0.1770 
  3 C       -1.4460     2.7900    -0.0510 C.ar  1 <1>  -0.1500 
  4 C        0.6120     3.1470    -1.2400 C.ar  1 <1>  -0.1500 
  5 C       -1.4290     4.0920     0.4400 C.ar  1 <1>  -0.0090 
  6 C        0.6450     4.4460    -0.7720 C.ar  1 <1>  -0.1500 
  7 S       -2.7830     4.6510     1.5160 S.o2  1 <1>   1.4470 
  8 C       -0.3700     4.9200     0.0610 C.ar  1 <1>   0.0830 
  9 O       -3.3700     3.4720     2.1190 O.2   1 <1>  -0.6500 
 10 O       -2.4240     5.7420     2.3970 O.2   1 <1>  -0.6500 
 11 N       -3.9470     5.2550     0.4380 N.am  1 <1>  -0.8490 
 12 O       -0.3640     6.1970     0.5160 O.3   1 <1>  -0.3630 
 13 C       -5.2530     5.3920     1.1040 C.3   1 <1>   0.1960 
 14 C       -3.5390     6.5290    -0.1590 C.3   1 <1>   0.1960 
 15 C        0.8160     6.9700     0.5620 C.3   1 <1>   0.0400 
 16 C       -6.3810     5.8010     0.1240 C.3   1 <1>   0.0000 
 17 C       -4.5630     6.9830    -1.2010 C.3   1 <1>  -0.1600 
 18 C       -7.7000     5.9240     0.9150 C.3   1 <1>   0.2000 
 19 C       -5.9660     7.1060    -0.5930 C.3   1 <1>  -0.1600 
 20 C       -6.6760     4.6520    -0.8630 C.3   1 <1>  -0.1600 
 21 O       -8.6400     6.6260     0.1820 O.3   1 <1>  -0.6800 
 22 C       -8.2180     4.4930     1.0520 C.3   1 <1>  -0.1600 
 23 C       -7.6900     3.7290    -0.1700 C.3   1 <1>  -0.1600 
 24 H       -2.2510     2.1240     0.2110 H     1 <1>   0.1500 
 25 H        1.3860     2.7660    -1.8830 H     1 <1>   0.1500 
 26 H        1.4620     5.0770    -1.0710 H     1 <1>   0.1500 
 27 H       -5.5160     4.4530     1.5620 H     1 <1>   0.0800 
 28 H       -5.1740     6.1250     1.8900 H     1 <1>   0.0800 
 29 H       -3.4360     7.2810     0.6080 H     1 <1>   0.0800 
 30 H       -2.5880     6.4160    -0.6480 H     1 <1>   0.0800 
 31 H        0.6050     7.8640     1.1220 H     1 <1>   0.0800 
 32 H        1.1080     7.2290    -0.4390 H     1 <1>   0.0800 
 33 H        1.5860     6.4050     1.0570 H     1 <1>   0.0800 
 34 H       -4.2620     7.9340    -1.6030 H     1 <1>   0.0800 
 35 H       -4.5730     6.2750    -2.0110 H     1 <1>   0.0800 
 36 H       -7.5820     6.4190     1.8650 H     1 <1>   0.0800 
 37 H       -6.6700     7.3590    -1.3660 H     1 <1>   0.0800 
 38 H       -5.9680     7.9120     0.1210 H     1 <1>   0.0800 
 39 H       -7.1220     5.0470    -1.7580 H     1 <1>   0.0800 
 40 H       -5.7850     4.1160    -1.1440 H     1 <1>   0.0800 
 41 H       -8.7820     6.1650    -0.6660 H     1 <1>   0.4000 
 42 H       -7.8010     4.0570     1.9430 H     1 <1>   0.0800 
 43 H       -9.2910     4.4560     1.1320 H     1 <1>   0.0800 
 44 H       -7.2120     2.8170     0.1450 H     1 <1>   0.0800 
 45 H       -8.4920     3.4840    -0.8450 H     1 <1>   0.0800 
@<TRIPOS>BOND
  1   1   2  1   
  2   2   3  ar  
  3   2   4  ar  
  4   3   5  ar  
  5   3  24  1   
  6   4   6  ar  
  7   4  25  1   
  8   5   7  1   
  9   5   8  ar  
 10   6   8  ar  
 11   6  26  1   
 12   7   9  2   
 13   7  10  2   
 14   7  11  am  
 15   8  12  1   
 16  11  13  1   
 17  11  14  1   
 18  12  15  1   
 19  13  16  1   
 20  13  27  1   
 21  13  28  1   
 22  14  17  1   
 23  14  29  1   
 24  14  30  1   
 25  15  31  1   
 26  15  32  1   
 27  15  33  1   
 28  16  18  1   
 29  16  19  1   
 30  16  20  1   
 31  17  19  1   
 32  17  34  1   
 33  17  35  1   
 34  18  21  1   
 35  18  22  1   
 36  18  36  1   
 37  19  37  1   
 38  19  38  1   
 39  20  23  1   
 40  20  39  1   
 41  20  40  1   
 42  21  41  1   
 43  22  23  1   
 44  22  42  1   
 45  22  43  1   
 46  23  44  1   
 47  23  45  1   
@<TRIPOS>SUBSTRUCTURE
  1 ****  11 GROUP 4 **** **** 0

# MOE 2024.06 (io_trps.svl 2023.06)
