@<TRIPOS>MOLECULE
NONAME
50 52 1 0 0 
SMALL
USER_CHARGES


@<TRIPOS>ATOM
  1 O        1.8380    -1.5630     2.0470 O.co2 1 <1>  -0.9000 
  2 C        2.6440    -1.4350     1.1280 C.2   1 <1>   0.9060 
  3 O        3.1010    -2.3800     0.4730 O.co2 1 <1>  -0.9000 
  4 C        3.1280    -0.0440     0.7870 C.3   1 <1>  -0.1860 
  5 C        4.6600    -0.0090     0.8310 C.3   1 <1>   0.2000 
  6 C        2.5670     0.4600    -0.5700 C.3   1 <1>  -0.1600 
  7 O        5.1450    -0.8690    -0.1430 O.3   1 <1>  -0.6800 
  8 C        5.1790     1.4100     0.5310 C.3   1 <1>   0.3430 
  9 C        3.5820     1.2620    -1.3910 C.3   1 <1>   0.3430 
 10 N        4.3460     2.1620    -0.4870 N.4   1 <1>  -0.9590 
 11 C        5.1490     3.1580    -1.2260 C.3   1 <1>   0.4860 
 12 C        5.6700     4.1780    -0.2320 C.ar  1 <1>  -0.1440 
 13 C        4.7600     5.0310     0.3490 C.ar  1 <1>   0.0820 
 14 C        7.0480     4.2340     0.0930 C.ar  1 <1>   0.0000 
 15 O        3.4500     4.8790     0.0140 O.3   1 <1>  -0.3630 
 16 C        5.2000     6.0000     1.2680 C.ar  1 <1>  -0.1500 
 17 C        7.4720     5.2050     1.0300 C.ar  1 <1>   0.0000 
 18 C        8.0360     3.3740    -0.4480 C.ar  1 <1>  -0.1500 
 19 C        2.4110     5.7280     0.4550 C.3   1 <1>   0.2000 
 20 C        6.5220     6.0780     1.5930 C.ar  1 <1>  -0.1500 
 21 C        8.8330     5.2790     1.3830 C.ar  1 <1>  -0.1500 
 22 C        9.3510     3.4690    -0.0860 C.ar  1 <1>  -0.1500 
 23 C        1.1040     4.9590     0.2720 C.3   1 <1>  -0.2400 
 24 C        2.4240     7.0040    -0.3890 C.3   1 <1>  -0.2400 
 25 C        9.7570     4.4320     0.8400 C.ar  1 <1>  -0.1500 
 26 H        2.7670     0.6030     1.5640 H     1 <1>   0.0800 
 27 H        5.0270    -0.3590     1.7820 H     1 <1>   0.0800 
 28 H        1.6830     1.0470    -0.3950 H     1 <1>   0.0800 
 29 H        2.2670    -0.3860    -1.1660 H     1 <1>   0.0800 
 30 H        4.5710    -1.6950    -0.0810 H     1 <1>   0.4000 
 31 H        6.1960     1.3220     0.1910 H     1 <1>   0.0800 
 32 H        5.1880     1.9740     1.4480 H     1 <1>   0.0800 
 33 H        3.0670     1.8270    -2.1510 H     1 <1>   0.0800 
 34 H        4.2630     0.5770    -1.8720 H     1 <1>   0.0800 
 35 H        3.6560     2.7190     0.0380 H     1 <1>   0.4500 
 36 H        5.9470     2.6750    -1.7600 H     1 <1>   0.0800 
 37 H        4.5230     3.6660    -1.9420 H     1 <1>   0.0800 
 38 H        4.5120     6.6870     1.7230 H     1 <1>   0.1500 
 39 H        7.7720     2.6200    -1.1640 H     1 <1>   0.1500 
 40 H        2.5460     5.9420     1.5010 H     1 <1>   0.0800 
 41 H        6.8640     6.8180     2.2960 H     1 <1>   0.1500 
 42 H        9.1400     6.0240     2.0960 H     1 <1>   0.1500 
 43 H       10.0940     2.8100    -0.5060 H     1 <1>   0.1500 
 44 H        0.9550     4.7050    -0.7620 H     1 <1>   0.0800 
 45 H        0.2770     5.5650     0.5950 H     1 <1>   0.0800 
 46 H        1.1140     4.0630     0.8660 H     1 <1>   0.0800 
 47 H        2.2880     6.7690    -1.4300 H     1 <1>   0.0800 
 48 H        3.3490     7.5350    -0.2650 H     1 <1>   0.0800 
 49 H        1.6240     7.6530    -0.0810 H     1 <1>   0.0800 
 50 H       10.7960     4.4950     1.1140 H     1 <1>   0.1500 
@<TRIPOS>BOND
  1   1   2  ar  
  2   2   3  ar  
  3   2   4  1   
  4   4   5  1   
  5   4   6  1   
  6   4  26  1   
  7   5   7  1   
  8   5   8  1   
  9   5  27  1   
 10   6   9  1   
 11   6  28  1   
 12   6  29  1   
 13   7  30  1   
 14   8  10  1   
 15   8  31  1   
 16   8  32  1   
 17   9  10  1   
 18   9  33  1   
 19   9  34  1   
 20  10  11  1   
 21  10  35  1   
 22  11  12  1   
 23  11  36  1   
 24  11  37  1   
 25  12  13  ar  
 26  12  14  ar  
 27  13  15  1   
 28  13  16  ar  
 29  14  17  ar  
 30  14  18  ar  
 31  15  19  1   
 32  16  20  ar  
 33  16  38  1   
 34  17  20  ar  
 35  17  21  ar  
 36  18  22  ar  
 37  18  39  1   
 38  19  23  1   
 39  19  24  1   
 40  19  40  1   
 41  20  41  1   
 42  21  25  ar  
 43  21  42  1   
 44  22  25  ar  
 45  22  43  1   
 46  23  44  1   
 47  23  45  1   
 48  23  46  1   
 49  24  47  1   
 50  24  48  1   
 51  24  49  1   
 52  25  50  1   
@<TRIPOS>SUBSTRUCTURE
  1 ****  10 GROUP 4 **** **** 0

# MOE 2024.06 (io_trps.svl 2023.06)
