@<TRIPOS>MOLECULE
NONAME
61 63 1 0 0 
SMALL
USER_CHARGES


@<TRIPOS>ATOM
  1 O        0.2930     0.0270    -1.4900 O.3   1 <1>  -0.5600 
  2 C        1.5140    -0.6730    -1.5210 C.3   1 <1>   0.2000 
  3 C        0.3920     1.4110    -1.6460 C.3   1 <1>   0.1200 
  4 C        2.5060    -0.1260    -0.4570 C.3   1 <1>   0.5660 
  5 C        1.2300    -2.1630    -1.2720 C.3   1 <1>   0.1200 
  6 C        1.2300     2.0090    -0.5030 C.3   1 <1>   0.3430 
  7 N        2.5840     1.3700    -0.4160 N.4   1 <1>  -0.9590 
  8 C        3.9190    -0.6460    -0.6880 C.ar  1 <1>  -0.1430 
  9 O        0.9550    -2.3810     0.0760 O.3   1 <1>  -0.6800 
 10 C        3.3400     1.8330     0.7780 C.3   1 <1>   0.4870 
 11 C        4.5450    -1.3570     0.3260 C.ar  1 <1>  -0.1500 
 12 C        4.6030    -0.4150    -1.8770 C.ar  1 <1>  -0.1500 
 13 C        3.6550     3.3040     0.5900 C.ar  1 <1>  -0.1430 
 14 C        5.8400    -1.8190     0.1720 C.ar  1 <1>   0.0830 
 15 C        5.9020    -0.8670    -2.0330 C.ar  1 <1>  -0.1500 
 16 C        4.7260     3.7330    -0.1880 C.ar  1 <1>  -0.1430 
 17 C        2.8370     4.2380     1.2110 C.ar  1 <1>  -0.1500 
 18 O        6.3680    -2.5200     1.2030 O.3   1 <1>  -0.3620 
 19 C        6.5360    -1.5500    -1.0110 C.ar  1 <1>   0.0830 
 20 C        4.9390     5.0920    -0.3540 C.ar  1 <1>  -0.1500 
 21 C        5.6920     2.7680    -0.8690 C.3   1 <1>  -0.0970 
 22 C        3.0520     5.5950     1.0460 C.ar  1 <1>  -0.1430 
 23 C        6.6760    -3.8760     0.9560 C.3   1 <1>   0.0400 
 24 O        7.8210    -1.9240    -1.2210 O.3   1 <1>  -0.3630 
 25 C        4.1080     6.0290     0.2540 C.ar  1 <1>   0.0830 
 26 C        2.1400     6.6010     1.7350 C.3   1 <1>  -0.0970 
 27 C        8.8030    -1.3630    -0.3760 C.3   1 <1>   0.0400 
 28 O        4.2780     7.3700     0.1130 O.3   1 <1>  -0.3630 
 29 C        5.3770     7.9170    -0.5810 C.3   1 <1>   0.0400 
 30 H        1.9180    -0.5610    -2.5110 H     1 <1>   0.0800 
 31 H        0.8250     1.6280    -2.6070 H     1 <1>   0.0800 
 32 H       -0.6060     1.8130    -1.6200 H     1 <1>   0.0800 
 33 H        2.1650    -0.4770     0.5030 H     1 <1>   0.0800 
 34 H        2.0870    -2.7620    -1.5330 H     1 <1>   0.0800 
 35 H        0.3840    -2.4830    -1.8570 H     1 <1>   0.0800 
 36 H        0.6950     1.8610     0.4200 H     1 <1>   0.0800 
 37 H        1.3360     3.0710    -0.6580 H     1 <1>   0.0800 
 38 H        3.1370     1.6700    -1.2230 H     1 <1>   0.4500 
 39 H        0.5440    -3.2630     0.2070 H     1 <1>   0.4000 
 40 H        2.7570     1.6880     1.6720 H     1 <1>   0.0800 
 41 H        4.2610     1.2820     0.8820 H     1 <1>   0.0800 
 42 H        4.0380    -1.5730     1.2520 H     1 <1>   0.1500 
 43 H        4.1470     0.1150    -2.6960 H     1 <1>   0.1500 
 44 H        6.4380    -0.6910    -2.9500 H     1 <1>   0.1500 
 45 H        2.0210     3.9170     1.8340 H     1 <1>   0.1500 
 46 H        5.7620     5.4180    -0.9600 H     1 <1>   0.1500 
 47 H        6.6240     3.2610    -1.0830 H     1 <1>   0.0800 
 48 H        5.2810     2.4220    -1.7980 H     1 <1>   0.0800 
 49 H        5.9170     1.9260    -0.2400 H     1 <1>   0.0800 
 50 H        6.9940    -4.3230     1.8800 H     1 <1>   0.0800 
 51 H        7.4660    -3.9390     0.2300 H     1 <1>   0.0800 
 52 H        5.7940    -4.3730     0.5910 H     1 <1>   0.0800 
 53 H        1.3730     6.1130     2.3080 H     1 <1>   0.0800 
 54 H        1.6720     7.2320     1.0000 H     1 <1>   0.0800 
 55 H        2.7190     7.2210     2.3960 H     1 <1>   0.0800 
 56 H        9.7690    -1.6620    -0.7410 H     1 <1>   0.0800 
 57 H        8.6650    -1.7250     0.6260 H     1 <1>   0.0800 
 58 H        8.7150    -0.2910    -0.4040 H     1 <1>   0.0800 
 59 H        5.3100     8.9880    -0.5180 H     1 <1>   0.0800 
 60 H        5.3290     7.6100    -1.6110 H     1 <1>   0.0800 
 61 H        6.2870     7.5800    -0.1170 H     1 <1>   0.0800 
@<TRIPOS>BOND
  1   1   2  1   
  2   1   3  1   
  3   2   4  1   
  4   2   5  1   
  5   2  30  1   
  6   3   6  1   
  7   3  31  1   
  8   3  32  1   
  9   4   7  1   
 10   4   8  1   
 11   4  33  1   
 12   5   9  1   
 13   5  34  1   
 14   5  35  1   
 15   6   7  1   
 16   6  36  1   
 17   6  37  1   
 18   7  10  1   
 19   7  38  1   
 20   8  11  ar  
 21   8  12  ar  
 22   9  39  1   
 23  10  13  1   
 24  10  40  1   
 25  10  41  1   
 26  11  14  ar  
 27  11  42  1   
 28  12  15  ar  
 29  12  43  1   
 30  13  16  ar  
 31  13  17  ar  
 32  14  18  1   
 33  14  19  ar  
 34  15  19  ar  
 35  15  44  1   
 36  16  20  ar  
 37  16  21  1   
 38  17  22  ar  
 39  17  45  1   
 40  18  23  1   
 41  19  24  1   
 42  20  25  ar  
 43  20  46  1   
 44  21  47  1   
 45  21  48  1   
 46  21  49  1   
 47  22  25  ar  
 48  22  26  1   
 49  23  50  1   
 50  23  51  1   
 51  23  52  1   
 52  24  27  1   
 53  25  28  1   
 54  26  53  1   
 55  26  54  1   
 56  26  55  1   
 57  27  56  1   
 58  27  57  1   
 59  27  58  1   
 60  28  29  1   
 61  29  59  1   
 62  29  60  1   
 63  29  61  1   
@<TRIPOS>SUBSTRUCTURE
  1 ****  10 GROUP 4 **** **** 0

# MOE 2024.06 (io_trps.svl 2023.06)
