@<TRIPOS>MOLECULE
NONAME
50 52 1 0 0 
SMALL
USER_CHARGES


@<TRIPOS>ATOM
  1 N        0.3040    -0.7240    -1.3360 N.ar  1 <1>  -0.6200 
  2 C       -0.0500    -1.9340    -0.9430 C.ar  1 <1>   0.7200 
  3 C        1.1390    -0.0950    -0.5480 C.ar  1 <1>   0.1660 
  4 N        0.3410    -2.5860     0.1470 N.ar  1 <1>  -0.6200 
  5 N       -0.9140    -2.5510    -1.7830 N.pl3 1 <1>  -0.8690 
  6 C        1.6120    -0.6690     0.6100 C.ar  1 <1>  -0.1500 
  7 C        1.5640     1.2970    -0.9660 C.3   1 <1>  -0.0970 
  8 C        1.1780    -1.9370     0.9190 C.ar  1 <1>   0.1670 
  9 C       -1.1090    -4.0100    -1.8330 C.3   1 <1>   0.2090 
 10 C        1.6510    -2.6420     2.1720 C.3   1 <1>  -0.0970 
 11 C       -2.1980    -4.3970    -0.8240 C.3   1 <1>  -0.0800 
 12 C       -2.4590    -5.8990    -0.7730 C.3   1 <1>   0.3430 
 13 C       -3.5590    -3.7570    -1.1040 C.3   1 <1>  -0.1600 
 14 N       -3.9420    -6.0600    -0.7540 N.4   1 <1>  -0.9590 
 15 C       -4.5420    -4.7270    -0.4830 C.3   1 <1>   0.3430 
 16 C       -4.4230    -7.1100     0.1840 C.3   1 <1>   0.4860 
 17 C       -5.9290    -7.2310     0.0420 C.ar  1 <1>  -0.1430 
 18 C       -6.7950    -6.8150     1.0520 C.ar  1 <1>  -0.1430 
 19 C       -6.4480    -7.7670    -1.1300 C.ar  1 <1>  -0.1500 
 20 C       -8.1640    -6.9220     0.8580 C.ar  1 <1>  -0.1500 
 21 C       -6.2950    -6.2560     2.3790 C.3   1 <1>  -0.0970 
 22 C       -7.8150    -7.8700    -1.3110 C.ar  1 <1>  -0.1500 
 23 C       -8.6730    -7.4440    -0.3170 C.ar  1 <1>  -0.1500 
 24 H       -0.9900    -2.0370    -2.6620 H     1 <1>   0.4000 
 25 H        2.2970    -0.1450     1.2490 H     1 <1>   0.1500 
 26 H        2.0460     1.2520    -1.9260 H     1 <1>   0.0800 
 27 H        2.2440     1.7250    -0.2540 H     1 <1>   0.0800 
 28 H        0.6980     1.9280    -1.0450 H     1 <1>   0.0800 
 29 H       -0.1810    -4.5030    -1.5910 H     1 <1>   0.0800 
 30 H       -1.3950    -4.2950    -2.8320 H     1 <1>   0.0800 
 31 H        2.1530    -3.5540     1.9040 H     1 <1>   0.0800 
 32 H        0.8070    -2.8790     2.7930 H     1 <1>   0.0800 
 33 H        2.3300    -2.0240     2.7300 H     1 <1>   0.0800 
 34 H       -1.8690    -4.1020     0.1580 H     1 <1>   0.0800 
 35 H       -2.0110    -6.3120     0.1170 H     1 <1>   0.0800 
 36 H       -2.0430    -6.3900    -1.6380 H     1 <1>   0.0800 
 37 H       -3.7440    -3.6840    -2.1610 H     1 <1>   0.0800 
 38 H       -3.6360    -2.7750    -0.6690 H     1 <1>   0.0800 
 39 H       -4.2600    -6.3280    -1.6920 H     1 <1>   0.4500 
 40 H       -5.5300    -4.6360    -0.9080 H     1 <1>   0.0800 
 41 H       -4.5920    -4.5520     0.5790 H     1 <1>   0.0800 
 42 H       -4.1610    -6.8520     1.1960 H     1 <1>   0.0800 
 43 H       -3.9670    -8.0580    -0.0540 H     1 <1>   0.0800 
 44 H       -5.8020    -8.1160    -1.9170 H     1 <1>   0.1500 
 45 H       -8.8520    -6.6060     1.6240 H     1 <1>   0.1500 
 46 H       -5.7230    -5.3600     2.2280 H     1 <1>   0.0800 
 47 H       -5.6890    -6.9860     2.8860 H     1 <1>   0.0800 
 48 H       -7.1200    -6.0130     3.0250 H     1 <1>   0.0800 
 49 H       -8.2150    -8.2850    -2.2210 H     1 <1>   0.1500 
 50 H       -9.7380    -7.5230    -0.4530 H     1 <1>   0.1500 
@<TRIPOS>BOND
  1   1   2  ar  
  2   1   3  ar  
  3   2   4  ar  
  4   2   5  1   
  5   3   6  ar  
  6   3   7  1   
  7   4   8  ar  
  8   5   9  1   
  9   5  24  1   
 10   6   8  ar  
 11   6  25  1   
 12   7  26  1   
 13   7  27  1   
 14   7  28  1   
 15   8  10  1   
 16   9  11  1   
 17   9  29  1   
 18   9  30  1   
 19  10  31  1   
 20  10  32  1   
 21  10  33  1   
 22  11  12  1   
 23  11  13  1   
 24  11  34  1   
 25  12  14  1   
 26  12  35  1   
 27  12  36  1   
 28  13  15  1   
 29  13  37  1   
 30  13  38  1   
 31  14  15  1   
 32  14  16  1   
 33  14  39  1   
 34  15  40  1   
 35  15  41  1   
 36  16  17  1   
 37  16  42  1   
 38  16  43  1   
 39  17  18  ar  
 40  17  19  ar  
 41  18  20  ar  
 42  18  21  1   
 43  19  22  ar  
 44  19  44  1   
 45  20  23  ar  
 46  20  45  1   
 47  21  46  1   
 48  21  47  1   
 49  21  48  1   
 50  22  23  ar  
 51  22  49  1   
 52  23  50  1   
@<TRIPOS>SUBSTRUCTURE
  1 ****  11 GROUP 4 **** **** 0

# MOE 2024.06 (io_trps.svl 2023.06)
