@<TRIPOS>MOLECULE
NONAME
40 41 1 0 0 
SMALL
USER_CHARGES


@<TRIPOS>ATOM
  1 S        0.5040     0.7820    -1.2940 S.o2  1 <1>   1.3330 
  2 O        0.5700    -0.5030    -1.9570 O.2   1 <1>  -0.6500 
  3 O       -0.4410     1.7590    -1.7890 O.2   1 <1>  -0.6500 
  4 N        0.0920     0.4800     0.3260 N.am  1 <1>  -0.8490 
  5 C        2.1560     1.4820    -1.2560 C.3   1 <1>  -0.0550 
  6 C       -1.1400    -0.2980     0.4310 C.3   1 <1>   0.1160 
  7 C       -0.0190     1.7080     1.1290 C.3   1 <1>   0.1160 
  8 C        3.2670     0.4970    -0.8270 C.3   1 <1>  -0.0800 
  9 C        4.6800     1.0660    -0.8320 C.3   1 <1>   0.2200 
 10 C        3.1650    -0.0220     0.6030 C.3   1 <1>   0.1200 
 11 N        4.6960     2.4300    -0.2680 N.am  1 <1>  -0.7300 
 12 C        5.4070     0.1170     0.1220 C.3   1 <1>   0.1200 
 13 O        4.4340    -0.5190     0.9040 O.3   1 <1>  -0.5600 
 14 C        4.6010     3.5850    -1.0010 C.2   1 <1>   0.5440 
 15 O        5.0310     3.5300    -2.1520 O.2   1 <1>  -0.5700 
 16 C        3.9710     4.7640    -0.4240 C.ar  1 <1>   0.3960 
 17 N        4.1640     5.9700    -1.0100 N.ar  1 <1>  -0.6200 
 18 C        3.1480     4.6410     0.7480 C.ar  1 <1>  -0.1710 
 19 C        3.5860     7.0130    -0.4690 C.ar  1 <1>   0.1600 
 20 O        2.8980     3.5580     1.3430 O.3   1 <1>  -0.8290 
 21 C        2.5600     5.7880     1.2860 C.ar  1 <1>  -0.1500 
 22 C        2.7840     6.9800     0.6680 C.ar  1 <1>  -0.1500 
 23 H        2.3950     1.8390    -2.2390 H     1 <1>   0.0800 
 24 H        2.1500     2.3370    -0.6140 H     1 <1>   0.0800 
 25 H       -1.3580    -0.5090     1.4640 H     1 <1>   0.0800 
 26 H       -1.0280    -1.2330    -0.0910 H     1 <1>   0.0800 
 27 H       -1.9630     0.2460    -0.0030 H     1 <1>   0.0800 
 28 H       -0.2670     1.4650     2.1470 H     1 <1>   0.0800 
 29 H       -0.7750     2.3600     0.7260 H     1 <1>   0.0800 
 30 H        0.9160     2.2360     1.1420 H     1 <1>   0.0800 
 31 H        3.2420    -0.3540    -1.4840 H     1 <1>   0.0800 
 32 H        5.1250     1.0650    -1.8130 H     1 <1>   0.0800 
 33 H        2.4400    -0.8100     0.7100 H     1 <1>   0.0800 
 34 H        2.9490     0.7780     1.2930 H     1 <1>   0.0800 
 35 H        4.1460     2.5440     0.6130 H     1 <1>   0.3700 
 36 H        6.0910     0.6420     0.7660 H     1 <1>   0.0800 
 37 H        5.9290    -0.6450    -0.4270 H     1 <1>   0.0800 
 38 H        3.7480     7.9640    -0.9440 H     1 <1>   0.1500 
 39 H        1.9530     5.6860     2.1660 H     1 <1>   0.1500 
 40 H        2.3520     7.8870     1.0430 H     1 <1>   0.1500 
@<TRIPOS>BOND
  1   1   2  2   
  2   1   3  2   
  3   1   4  am  
  4   1   5  1   
  5   4   6  1   
  6   4   7  1   
  7   5   8  1   
  8   5  23  1   
  9   5  24  1   
 10   6  25  1   
 11   6  26  1   
 12   6  27  1   
 13   7  28  1   
 14   7  29  1   
 15   7  30  1   
 16   8   9  1   
 17   8  10  1   
 18   8  31  1   
 19   9  11  1   
 20   9  12  1   
 21   9  32  1   
 22  10  13  1   
 23  10  33  1   
 24  10  34  1   
 25  11  14  am  
 26  11  35  1   
 27  12  13  1   
 28  12  36  1   
 29  12  37  1   
 30  14  15  2   
 31  14  16  1   
 32  16  17  ar  
 33  16  18  ar  
 34  17  19  ar  
 35  18  20  1   
 36  18  21  ar  
 37  19  22  ar  
 38  19  38  1   
 39  21  22  ar  
 40  21  39  1   
 41  22  40  1   
@<TRIPOS>SUBSTRUCTURE
  1 ****   5 GROUP 4 **** **** 0

# MOE 2024.06 (io_trps.svl 2023.06)
