@<TRIPOS>MOLECULE
NONAME
50 53 1 0 0 
SMALL
USER_CHARGES


@<TRIPOS>ATOM
  1 CL       0.7920     0.2570    -0.6080 Cl    1 <1>  -0.1770 
  2 C        0.4790    -1.4050    -0.1900 C.ar  1 <1>   0.1770 
  3 C        1.3410    -2.3870    -0.6200 C.ar  1 <1>  -0.1500 
  4 C       -0.6400    -1.7080     0.5730 C.ar  1 <1>  -0.1500 
  5 C        1.0910    -3.7150    -0.2860 C.ar  1 <1>   0.1170 
  6 C       -0.8940    -3.0220     0.9080 C.ar  1 <1>  -0.1500 
  7 N        1.9390    -4.7340    -0.7080 N.am  1 <1>  -0.5470 
  8 C       -0.0390    -4.0450     0.4880 C.ar  1 <1>   0.0280 
  9 C        1.7230    -6.0450    -0.4210 C.2   1 <1>   0.6160 
 10 C       -0.2620    -5.4210     0.8180 C.2   1 <1>  -0.1780 
 11 O        2.4680    -6.8880    -0.8910 O.2   1 <1>  -0.5700 
 12 C        0.5910    -6.3830     0.3830 C.2   1 <1>  -0.1240 
 13 C        0.4140    -7.8500     0.7190 C.3   1 <1>   0.4810 
 14 N        0.3270    -8.6630    -0.5270 N.4   1 <1>  -0.9590 
 15 C       -0.8870    -8.3220    -1.3290 C.3   1 <1>   0.3430 
 16 C        0.2300   -10.1150    -0.1960 C.3   1 <1>   0.3430 
 17 C       -1.9550    -9.3190    -0.8820 C.3   1 <1>   0.2000 
 18 C       -1.1400   -10.6000    -0.6890 C.3   1 <1>  -0.0800 
 19 O       -2.4470    -8.8880     0.3570 O.3   1 <1>  -0.5600 
 20 C       -1.7820   -11.6560     0.2330 C.3   1 <1>   0.0200 
 21 C       -3.8380    -8.8990     0.4810 C.3   1 <1>   0.0400 
 22 C       -0.8950   -12.8800     0.3550 C.2   1 <1>  -0.0400 
 23 O        0.2530   -12.7930     0.9720 O.3   1 <1>  -0.0190 
 24 C       -1.0390   -14.1440    -0.0680 C.2   1 <1>  -0.1500 
 25 N        0.8920   -13.9220     0.9700 N.2   1 <1>  -0.4100 
 26 C        0.1350   -14.7600     0.3560 C.2   1 <1>   0.1080 
 27 C        0.4830   -16.2150     0.1310 C.3   1 <1>  -0.0590 
 28 H        2.1990    -2.1220    -1.2080 H     1 <1>   0.1500 
 29 H       -1.2920    -0.9140     0.8920 H     1 <1>   0.1500 
 30 H       -1.7590    -3.2610     1.5010 H     1 <1>   0.1500 
 31 H        2.7680    -4.5270    -1.2690 H     1 <1>   0.3700 
 32 H       -1.1240    -5.6450     1.4240 H     1 <1>   0.1500 
 33 H       -0.4790    -7.9850     1.3090 H     1 <1>   0.0800 
 34 H        1.2580    -8.1770     1.3040 H     1 <1>   0.0800 
 35 H        1.1960    -8.4500    -1.0560 H     1 <1>   0.4500 
 36 H       -1.2120    -7.3060    -1.1780 H     1 <1>   0.0800 
 37 H       -0.6780    -8.4750    -2.3750 H     1 <1>   0.0800 
 38 H        1.0190   -10.6760    -0.6710 H     1 <1>   0.0800 
 39 H        0.3030   -10.2580     0.8700 H     1 <1>   0.0800 
 40 H       -2.7540    -9.4160    -1.6000 H     1 <1>   0.0800 
 41 H       -0.9890   -11.0500    -1.6550 H     1 <1>   0.0800 
 42 H       -2.7340   -11.9530    -0.1690 H     1 <1>   0.0800 
 43 H       -1.9480   -11.2550     1.2180 H     1 <1>   0.0800 
 44 H       -4.0910    -8.5800     1.4770 H     1 <1>   0.0800 
 45 H       -4.2080    -9.8970     0.3190 H     1 <1>   0.0800 
 46 H       -4.2670    -8.2180    -0.2340 H     1 <1>   0.0800 
 47 H       -1.8440   -14.6110    -0.6050 H     1 <1>   0.1500 
 48 H       -0.2570   -16.8430     0.5920 H     1 <1>   0.0800 
 49 H        1.4420   -16.4360     0.5640 H     1 <1>   0.0800 
 50 H        0.5200   -16.4250    -0.9220 H     1 <1>   0.0800 
@<TRIPOS>BOND
  1   1   2  1   
  2   2   3  ar  
  3   2   4  ar  
  4   3   5  ar  
  5   3  28  1   
  6   4   6  ar  
  7   4  29  1   
  8   5   7  1   
  9   5   8  ar  
 10   6   8  ar  
 11   6  30  1   
 12   7   9  am  
 13   7  31  1   
 14   8  10  1   
 15   9  11  2   
 16   9  12  1   
 17  10  12  2   
 18  10  32  1   
 19  12  13  1   
 20  13  14  1   
 21  13  33  1   
 22  13  34  1   
 23  14  15  1   
 24  14  16  1   
 25  14  35  1   
 26  15  17  1   
 27  15  36  1   
 28  15  37  1   
 29  16  18  1   
 30  16  38  1   
 31  16  39  1   
 32  17  18  1   
 33  17  19  1   
 34  17  40  1   
 35  18  20  1   
 36  18  41  1   
 37  19  21  1   
 38  20  22  1   
 39  20  42  1   
 40  20  43  1   
 41  21  44  1   
 42  21  45  1   
 43  21  46  1   
 44  22  23  1   
 45  22  24  2   
 46  23  25  1   
 47  24  26  1   
 48  24  47  1   
 49  25  26  2   
 50  26  27  1   
 51  27  48  1   
 52  27  49  1   
 53  27  50  1   
@<TRIPOS>SUBSTRUCTURE
  1 ****  13 GROUP 4 **** **** 0

# MOE 2024.06 (io_trps.svl 2023.06)
