@<TRIPOS>MOLECULE
NONAME
44 46 1 0 0 
SMALL
USER_CHARGES


@<TRIPOS>ATOM
  1 F       -0.9250    -0.9720     1.8760 F     1 <1>  -0.1900 
  2 C       -0.7870    -2.1770     1.3880 C.ar  1 <1>   0.1900 
  3 C       -0.7850    -2.4100     0.0110 C.ar  1 <1>   0.0830 
  4 C       -0.6340    -3.2070     2.2960 C.ar  1 <1>  -0.1500 
  5 O       -0.9590    -1.4720    -0.9580 O.3   1 <1>  -0.3630 
  6 C       -0.6020    -3.7100    -0.4280 C.ar  1 <1>  -0.1500 
  7 C       -0.4880    -4.5010     1.8250 C.ar  1 <1>  -0.1500 
  8 C       -1.7940    -0.3530    -0.7440 C.3   1 <1>   0.0400 
  9 C       -0.4940    -4.7830     0.4570 C.ar  1 <1>   0.0860 
 10 C       -0.3580    -6.1490    -0.0130 C.2   1 <1>   0.5440 
 11 O        0.7580    -6.5330    -0.3050 O.2   1 <1>  -0.5700 
 12 N       -1.4170    -7.0430    -0.1190 N.am  1 <1>  -0.6600 
 13 C       -2.8610    -6.7110    -0.3400 C.3   1 <1>   0.2200 
 14 C       -1.1280    -8.5000    -0.2770 C.3   1 <1>   0.0600 
 15 C       -3.5230    -6.0110     0.8460 C.3   1 <1>  -0.1600 
 16 C       -3.0860    -5.8510    -1.5810 C.3   1 <1>  -0.1600 
 17 C       -4.4630    -4.9390     0.2750 C.3   1 <1>  -0.0800 
 18 C       -4.2490    -4.9030    -1.2570 C.3   1 <1>  -0.0800 
 19 C       -4.3020    -3.5840     0.9880 C.3   1 <1>   0.1400 
 20 C       -4.0520    -3.4930    -1.8590 C.3   1 <1>  -0.0990 
 21 N       -4.9670    -2.5300     0.2010 N.am  1 <1>  -0.7300 
 22 C       -4.8760    -2.4460    -1.1410 C.2   1 <1>   0.5690 
 23 O       -5.4060    -1.5540    -1.7510 O.2   1 <1>  -0.5700 
 24 H       -0.6260    -2.9970     3.3500 H     1 <1>   0.1500 
 25 H       -0.5430    -3.8930    -1.4850 H     1 <1>   0.1500 
 26 H       -0.3650    -5.3150     2.5200 H     1 <1>   0.1500 
 27 H       -2.0540     0.0590    -1.7020 H     1 <1>   0.0800 
 28 H       -1.2590     0.3790    -0.1670 H     1 <1>   0.0800 
 29 H       -2.6860    -0.6680    -0.2300 H     1 <1>   0.0800 
 30 H       -3.4070    -7.6270    -0.5000 H     1 <1>   0.0800 
 31 H       -1.8220    -9.0790     0.3070 H     1 <1>   0.0800 
 32 H       -0.1320    -8.7320     0.0600 H     1 <1>   0.0800 
 33 H       -1.2150    -8.7760    -1.3130 H     1 <1>   0.0800 
 34 H       -4.0870    -6.7280     1.4160 H     1 <1>   0.0800 
 35 H       -2.7980    -5.5770     1.5010 H     1 <1>   0.0800 
 36 H       -2.2030    -5.3030    -1.8310 H     1 <1>   0.0800 
 37 H       -3.3340    -6.4720    -2.4230 H     1 <1>   0.0800 
 38 H       -5.4750    -5.2620     0.4500 H     1 <1>   0.0800 
 39 H       -5.1410    -5.3150    -1.7000 H     1 <1>   0.0800 
 40 H       -3.2600    -3.3350     1.0790 H     1 <1>   0.0800 
 41 H       -4.7310    -3.6320     1.9740 H     1 <1>   0.0800 
 42 H       -4.3110    -3.4980    -2.9020 H     1 <1>   0.0800 
 43 H       -3.0270    -3.1860    -1.7790 H     1 <1>   0.0800 
 44 H       -5.5050    -1.8090     0.6880 H     1 <1>   0.3700 
@<TRIPOS>BOND
  1   1   2  1   
  2   2   3  ar  
  3   2   4  ar  
  4   3   5  1   
  5   3   6  ar  
  6   4   7  ar  
  7   4  24  1   
  8   5   8  1   
  9   6   9  ar  
 10   6  25  1   
 11   7   9  ar  
 12   7  26  1   
 13   8  27  1   
 14   8  28  1   
 15   8  29  1   
 16   9  10  1   
 17  10  11  2   
 18  10  12  am  
 19  12  13  1   
 20  12  14  1   
 21  13  15  1   
 22  13  16  1   
 23  13  30  1   
 24  14  31  1   
 25  14  32  1   
 26  14  33  1   
 27  15  17  1   
 28  15  34  1   
 29  15  35  1   
 30  16  18  1   
 31  16  36  1   
 32  16  37  1   
 33  17  18  1   
 34  17  19  1   
 35  17  38  1   
 36  18  20  1   
 37  18  39  1   
 38  19  21  1   
 39  19  40  1   
 40  19  41  1   
 41  20  22  1   
 42  20  42  1   
 43  20  43  1   
 44  21  22  am  
 45  21  44  1   
 46  22  23  2   
@<TRIPOS>SUBSTRUCTURE
  1 ****   6 GROUP 4 **** **** 0

# MOE 2024.06 (io_trps.svl 2023.06)
