@<TRIPOS>MOLECULE
NONAME
31 32 1 0 0 
SMALL
USER_CHARGES


@<TRIPOS>ATOM
  1 CL      -0.1050    -0.4550     0.8050 Cl    1 <1>  -0.1230 
  2 C       -0.8660    -1.9480     0.2840 C.2   1 <1>   0.1230 
  3 C       -0.2260    -3.1600     0.0860 C.2   1 <1>   0.1390 
  4 C       -2.1650    -2.1510     0.0000 C.2   1 <1>  -0.3020 
  5 N       -1.0670    -4.0770    -0.2990 N.2   1 <1>  -0.7070 
  6 N       -2.2680    -3.4510    -0.3530 N.pl3 1 <1>   0.3140 
  7 C       -3.5050    -4.1470    -0.7560 C.3   1 <1>   0.0960 
  8 C       -3.6840    -5.4290     0.0620 C.3   1 <1>   0.1100 
  9 N       -4.9850    -6.0540    -0.2430 N.3   1 <1>  -0.8100 
 10 C       -4.9360    -7.5270    -0.0310 C.3   1 <1>   0.2900 
 11 C       -6.0820    -5.4370     0.5250 C.3   1 <1>   0.0300 
 12 C       -6.1730    -8.3050    -0.4920 C.2   1 <1>   0.2980 
 13 O       -6.4060    -9.4660     0.0350 O.3   1 <1>  -0.2800 
 14 N       -7.0610    -7.9900    -1.3610 N.2   1 <1>  -0.3380 
 15 C       -7.4890    -9.8590    -0.5490 C.2   1 <1>   0.2980 
 16 N       -7.9230    -9.0080    -1.3960 N.2   1 <1>  -0.3380 
 17 C       -8.0960   -11.1970    -0.1970 C.3   1 <1>  -0.0600 
 18 H        0.8280    -3.3250     0.2300 H     1 <1>   0.1500 
 19 H       -2.9900    -1.4650     0.0290 H     1 <1>   0.1500 
 20 H       -3.4330    -4.3920    -1.7990 H     1 <1>   0.0800 
 21 H       -4.3340    -3.4850    -0.6030 H     1 <1>   0.0800 
 22 H       -3.6120    -5.2170     1.1150 H     1 <1>   0.0800 
 23 H       -2.8850    -6.1010    -0.2060 H     1 <1>   0.0800 
 24 H       -4.7820    -7.7250     1.0140 H     1 <1>   0.0800 
 25 H       -4.0960    -7.9290    -0.5690 H     1 <1>   0.0800 
 26 H       -6.1180    -4.3780     0.3450 H     1 <1>   0.0800 
 27 H       -5.9500    -5.6090     1.5800 H     1 <1>   0.0800 
 28 H       -7.0290    -5.8510     0.2210 H     1 <1>   0.0800 
 29 H       -7.3920   -11.9800    -0.4100 H     1 <1>   0.0800 
 30 H       -8.9860   -11.3560    -0.7770 H     1 <1>   0.0800 
 31 H       -8.3460   -11.2170     0.8470 H     1 <1>   0.0800 
@<TRIPOS>BOND
  1   1   2  1   
  2   2   3  1   
  3   2   4  2   
  4   3   5  2   
  5   3  18  1   
  6   4   6  1   
  7   4  19  1   
  8   5   6  1   
  9   6   7  1   
 10   7   8  1   
 11   7  20  1   
 12   7  21  1   
 13   8   9  1   
 14   8  22  1   
 15   8  23  1   
 16   9  10  1   
 17   9  11  1   
 18  10  12  1   
 19  10  24  1   
 20  10  25  1   
 21  11  26  1   
 22  11  27  1   
 23  11  28  1   
 24  12  13  1   
 25  12  14  2   
 26  13  15  1   
 27  14  16  1   
 28  15  16  2   
 29  15  17  1   
 30  17  29  1   
 31  17  30  1   
 32  17  31  1   
@<TRIPOS>SUBSTRUCTURE
  1 ****   9 GROUP 4 **** **** 0

# MOE 2024.06 (io_trps.svl 2023.06)
