@<TRIPOS>MOLECULE
NONAME
49 52 1 0 0 
SMALL
USER_CHARGES


@<TRIPOS>ATOM
  1 O       -3.2590     0.1850    -2.7470 O.2   1 <1>  -0.5700 
  2 C       -3.1250    -0.4210    -1.7140 C.2   1 <1>   0.5690 
  3 N       -2.8270     0.2360    -0.5830 N.am  1 <1>  -0.7300 
  4 C       -3.2770    -1.9220    -1.6830 C.3   1 <1>  -0.0190 
  5 C       -2.6000    -0.4280     0.7170 C.3   1 <1>   0.2200 
  6 C       -1.9360    -2.6090    -1.3460 C.3   1 <1>   0.1200 
  7 C       -4.5050    -2.3390    -0.8500 C.3   1 <1>   0.1100 
  8 C       -1.3660    -1.3640     0.6440 C.3   1 <1>   0.1200 
  9 C       -3.9070    -1.0770     1.2400 C.3   1 <1>   0.1100 
 10 O       -1.5770    -2.5940     0.0080 O.3   1 <1>  -0.5600 
 11 N       -4.3150    -2.3590     0.6200 N.3   1 <1>  -0.8100 
 12 C       -5.4910    -2.9240     1.2980 C.3   1 <1>   0.2530 
 13 C       -5.6950    -4.3910     0.9160 C.ar  1 <1>  -0.1430 
 14 C       -6.8380    -4.8410     0.2480 C.ar  1 <1>  -0.0230 
 15 C       -4.6930    -5.2900     1.2430 C.ar  1 <1>  -0.1500 
 16 N       -7.8740    -3.9320    -0.1020 N.pl3 1 <1>   0.5930 
 17 C       -6.9550    -6.1970    -0.0700 C.ar  1 <1>  -0.1440 
 18 C       -4.8100    -6.6320     0.9330 C.ar  1 <1>  -0.1430 
 19 N       -7.8370    -3.1170    -1.1890 N.2   1 <1>  -0.7070 
 20 C       -9.0080    -3.7020     0.6030 C.2   1 <1>  -0.3020 
 21 C       -5.9450    -7.0790     0.2800 C.ar  1 <1>  -0.1500 
 22 C       -8.1750    -6.7310    -0.8100 C.3   1 <1>  -0.0970 
 23 C       -3.6980    -7.5960     1.3030 C.3   1 <1>  -0.0970 
 24 C       -8.9280    -2.4210    -1.1400 C.2   1 <1>   0.1390 
 25 C       -9.7070    -2.7420    -0.0360 C.2   1 <1>  -0.1500 
 26 H       -2.7400     1.2510    -0.6400 H     1 <1>   0.3700 
 27 H       -3.5040    -2.2020    -2.6950 H     1 <1>   0.0800 
 28 H       -2.3480     0.3540     1.4110 H     1 <1>   0.0800 
 29 H       -1.1350    -2.1620    -1.9090 H     1 <1>   0.0800 
 30 H       -2.0030    -3.6460    -1.6240 H     1 <1>   0.0800 
 31 H       -4.7700    -3.3320    -1.1720 H     1 <1>   0.0800 
 32 H       -5.3340    -1.6970    -1.0960 H     1 <1>   0.0800 
 33 H       -1.0600    -1.6000     1.6470 H     1 <1>   0.0800 
 34 H       -0.5480    -0.8660     0.1550 H     1 <1>   0.0800 
 35 H       -4.7080    -0.3640     1.1440 H     1 <1>   0.0800 
 36 H       -3.7630    -1.2600     2.2900 H     1 <1>   0.0800 
 37 H       -5.3370    -2.8840     2.3620 H     1 <1>   0.0800 
 38 H       -6.3540    -2.3230     1.0720 H     1 <1>   0.0800 
 39 H       -3.8070    -4.9280     1.7350 H     1 <1>   0.1500 
 40 H       -9.2330    -4.2390     1.5050 H     1 <1>   0.1500 
 41 H       -6.0360    -8.1230     0.0390 H     1 <1>   0.1500 
 42 H       -8.0520    -7.7700    -1.0600 H     1 <1>   0.0800 
 43 H       -8.3210    -6.1820    -1.7230 H     1 <1>   0.0800 
 44 H       -9.0530    -6.6310    -0.1970 H     1 <1>   0.0800 
 45 H       -3.7120    -8.4560     0.6590 H     1 <1>   0.0800 
 46 H       -3.8220    -7.9190     2.3210 H     1 <1>   0.0800 
 47 H       -2.7420    -7.1130     1.2040 H     1 <1>   0.0800 
 48 H       -9.1920    -1.6790    -1.8760 H     1 <1>   0.1500 
 49 H      -10.6540    -2.3010     0.2230 H     1 <1>   0.1500 
@<TRIPOS>BOND
  1   1   2  2   
  2   2   3  am  
  3   2   4  1   
  4   3   5  1   
  5   3  26  1   
  6   4   6  1   
  7   4   7  1   
  8   4  27  1   
  9   5   8  1   
 10   5   9  1   
 11   5  28  1   
 12   6  10  1   
 13   6  29  1   
 14   6  30  1   
 15   7  11  1   
 16   7  31  1   
 17   7  32  1   
 18   8  10  1   
 19   8  33  1   
 20   8  34  1   
 21   9  11  1   
 22   9  35  1   
 23   9  36  1   
 24  11  12  1   
 25  12  13  1   
 26  12  37  1   
 27  12  38  1   
 28  13  14  ar  
 29  13  15  ar  
 30  14  16  1   
 31  14  17  ar  
 32  15  18  ar  
 33  15  39  1   
 34  16  19  1   
 35  16  20  1   
 36  17  21  ar  
 37  17  22  1   
 38  18  21  ar  
 39  18  23  1   
 40  19  24  2   
 41  20  25  2   
 42  20  40  1   
 43  21  41  1   
 44  22  42  1   
 45  22  43  1   
 46  22  44  1   
 47  23  45  1   
 48  23  46  1   
 49  23  47  1   
 50  24  25  1   
 51  24  48  1   
 52  25  49  1   
@<TRIPOS>SUBSTRUCTURE
  1 ****   7 GROUP 4 **** **** 0

# MOE 2024.06 (io_trps.svl 2023.06)
