@<TRIPOS>MOLECULE
NONAME
47 50 1 0 0 
SMALL
USER_CHARGES


@<TRIPOS>ATOM
  1 S       -0.7730     0.3770     1.3820 S.3   1 <1>  -0.0800 
  2 C       -0.5240     1.9470     0.6460 C.2   1 <1>  -0.1400 
  3 C        0.9470     0.2400     1.7150 C.2   1 <1>  -0.1100 
  4 C        0.7660     2.3050     0.6560 C.2   1 <1>  -0.1810 
  5 C       -1.6500     2.7680     0.0830 C.3   1 <1>   0.0200 
  6 C        1.6130     1.3260     1.2760 C.2   1 <1>  -0.1500 
  7 C        1.2240     3.6330     0.0440 C.3   1 <1>   0.4610 
  8 C       -1.1430     4.2140    -0.0220 C.3   1 <1>   0.1200 
  9 O        0.1390     4.2700    -0.6070 O.3   1 <1>  -0.5600 
 10 C        1.7500     4.5800     1.1350 C.3   1 <1>  -0.1600 
 11 C        2.2660     3.3820    -1.0650 C.3   1 <1>  -0.1600 
 12 C        2.5830     5.7040     0.5220 C.3   1 <1>   0.1400 
 13 C        3.6950     3.7230    -0.6390 C.3   1 <1>   0.1400 
 14 N        3.7790     5.1370    -0.1680 N.am  1 <1>  -0.6600 
 15 C        4.9820     5.7940    -0.2280 C.2   1 <1>   0.6900 
 16 O        6.0090     5.1720    -0.4250 O.2   1 <1>  -0.5700 
 17 N        4.9900     7.1530    -0.0880 N.am  1 <1>  -0.5470 
 18 C        6.0410     8.0730     0.0220 C.ar  1 <1>   0.1170 
 19 C        5.8020     9.4020    -0.3040 C.ar  1 <1>  -0.1500 
 20 C        7.3140     7.7210     0.4650 C.ar  1 <1>  -0.1500 
 21 C        6.8070    10.3430    -0.1930 C.ar  1 <1>   0.1010 
 22 C        8.3210     8.6640     0.5740 C.ar  1 <1>  -0.1500 
 23 S        6.3910    12.0390    -0.6400 S.3   1 <1>  -0.3320 
 24 C        8.0730     9.9860     0.2440 C.ar  1 <1>  -0.1500 
 25 C        7.9260    13.0410    -0.4130 C.3   1 <1>  -0.0100 
 26 H        1.2820    -0.6540     2.2110 H     1 <1>   0.1500 
 27 H       -2.5070     2.7270     0.7320 H     1 <1>   0.0800 
 28 H       -1.9290     2.3960    -0.8860 H     1 <1>   0.0800 
 29 H        2.6740     1.4770     1.3640 H     1 <1>   0.1500 
 30 H       -1.0960     4.6630     0.9530 H     1 <1>   0.0800 
 31 H       -1.8090     4.7960    -0.6360 H     1 <1>   0.0800 
 32 H        2.3720     4.0360     1.8220 H     1 <1>   0.0800 
 33 H        0.9370     4.9870     1.7040 H     1 <1>   0.0800 
 34 H        2.0340     3.9820    -1.9270 H     1 <1>   0.0800 
 35 H        2.2280     2.3540    -1.3750 H     1 <1>   0.0800 
 36 H        2.8960     6.3760     1.3030 H     1 <1>   0.0800 
 37 H        1.9870     6.2500    -0.1900 H     1 <1>   0.0800 
 38 H        4.3610     3.5810    -1.4730 H     1 <1>   0.0800 
 39 H        4.0140     3.0710     0.1560 H     1 <1>   0.0800 
 40 H        4.0690     7.5560    -0.2110 H     1 <1>   0.3700 
 41 H        4.8340     9.7120    -0.6480 H     1 <1>   0.1500 
 42 H        7.5230     6.7000     0.7290 H     1 <1>   0.1500 
 43 H        9.2970     8.3660     0.9150 H     1 <1>   0.1500 
 44 H        8.8610    10.7070     0.3330 H     1 <1>   0.1500 
 45 H        7.6940    14.0550    -0.6840 H     1 <1>   0.0800 
 46 H        8.6840    12.6370    -1.0590 H     1 <1>   0.0800 
 47 H        8.2140    12.9780     0.6210 H     1 <1>   0.0800 
@<TRIPOS>BOND
  1   1   2  1   
  2   1   3  1   
  3   2   4  2   
  4   2   5  1   
  5   3   6  2   
  6   3  26  1   
  7   4   6  1   
  8   4   7  1   
  9   5   8  1   
 10   5  27  1   
 11   5  28  1   
 12   6  29  1   
 13   7   9  1   
 14   7  10  1   
 15   7  11  1   
 16   8   9  1   
 17   8  30  1   
 18   8  31  1   
 19  10  12  1   
 20  10  32  1   
 21  10  33  1   
 22  11  13  1   
 23  11  34  1   
 24  11  35  1   
 25  12  14  1   
 26  12  36  1   
 27  12  37  1   
 28  13  14  1   
 29  13  38  1   
 30  13  39  1   
 31  14  15  am  
 32  15  16  2   
 33  15  17  am  
 34  17  18  1   
 35  17  40  1   
 36  18  19  ar  
 37  18  20  ar  
 38  19  21  ar  
 39  19  41  1   
 40  20  22  ar  
 41  20  42  1   
 42  21  23  1   
 43  21  24  ar  
 44  22  24  ar  
 45  22  43  1   
 46  23  25  1   
 47  24  44  1   
 48  25  45  1   
 49  25  46  1   
 50  25  47  1   
@<TRIPOS>SUBSTRUCTURE
  1 ****  14 GROUP 4 **** **** 0

# MOE 2024.06 (io_trps.svl 2023.06)
