@<TRIPOS>MOLECULE
NONAME
48 50 1 0 0 
SMALL
USER_CHARGES


@<TRIPOS>ATOM
  1 S       -0.4490     0.3300    -1.2460 S.3   1 <1>  -0.4600 
  2 C       -0.6540     2.0950    -0.9270 C.3   1 <1>   0.0700 
  3 C       -1.2630    -0.4390     0.1690 C.3   1 <1>   0.0700 
  4 C       -2.1530     2.3690    -0.7920 C.3   1 <1>  -0.1600 
  5 C       -2.7050     0.0700     0.2050 C.3   1 <1>  -0.1600 
  6 C       -2.7710     1.5930     0.3870 C.3   1 <1>   0.4230 
  7 N       -4.1890     1.9880     0.6320 N.4   1 <1>  -0.9590 
  8 C       -5.0680     1.8860    -0.5750 C.3   1 <1>   0.3430 
  9 C       -4.2880     3.3530     1.2280 C.3   1 <1>   0.3430 
 10 C       -6.5200     2.1250    -0.1780 C.3   1 <1>  -0.1600 
 11 C       -5.7230     3.6200     1.6640 C.3   1 <1>  -0.1600 
 12 C       -6.6970     3.5030     0.4830 C.3   1 <1>   0.2800 
 13 O       -6.2530     4.4400    -0.4710 O.3   1 <1>  -0.5600 
 14 C       -8.1550     3.7720     0.9650 C.3   1 <1>   0.2000 
 15 C       -7.1390     5.4290    -0.9210 C.3   1 <1>   0.1200 
 16 O       -8.6090     2.7340     1.7850 O.3   1 <1>  -0.6800 
 17 C       -9.1570     4.0930    -0.1860 C.3   1 <1>   0.2800 
 18 C       -8.4450     4.7700    -1.3690 C.3   1 <1>  -0.1600 
 19 O      -10.0550     5.0060     0.3280 O.3   1 <1>  -0.6800 
 20 C      -10.0170     2.9170    -0.6730 C.3   1 <1>  -0.2400 
 21 H       -0.1070     2.3310    -0.0310 H     1 <1>   0.0800 
 22 H       -0.2260     2.6180    -1.7660 H     1 <1>   0.0800 
 23 H       -1.2200    -1.5040     0.0170 H     1 <1>   0.0800 
 24 H       -0.7070    -0.1720     1.0510 H     1 <1>   0.0800 
 25 H       -2.2760     3.4260    -0.6480 H     1 <1>   0.0800 
 26 H       -2.6230     2.0940    -1.7190 H     1 <1>   0.0800 
 27 H       -3.1880    -0.2250    -0.7100 H     1 <1>   0.0800 
 28 H       -3.2030    -0.4140     1.0250 H     1 <1>   0.0800 
 29 H       -2.2010     1.8340     1.2710 H     1 <1>   0.0800 
 30 H       -4.5690     1.3360     1.3290 H     1 <1>   0.4500 
 31 H       -4.7770     2.6270    -1.3020 H     1 <1>   0.0800 
 32 H       -4.9770     0.9110    -1.0250 H     1 <1>   0.0800 
 33 H       -3.6320     3.4370     2.0790 H     1 <1>   0.0800 
 34 H       -4.0000     4.0930     0.4980 H     1 <1>   0.0800 
 35 H       -6.8420     1.3440     0.4860 H     1 <1>   0.0800 
 36 H       -7.1280     2.0670    -1.0600 H     1 <1>   0.0800 
 37 H       -5.7870     4.6090     2.0800 H     1 <1>   0.0800 
 38 H       -5.9980     2.9290     2.4420 H     1 <1>   0.0800 
 39 H       -8.1090     4.6420     1.5970 H     1 <1>   0.0800 
 40 H       -7.3080     6.1380    -0.1270 H     1 <1>   0.0800 
 41 H       -6.6710     5.9380    -1.7460 H     1 <1>   0.0800 
 42 H       -9.5120     2.9580     2.0950 H     1 <1>   0.4000 
 43 H       -8.2000     4.0440    -2.1230 H     1 <1>   0.0800 
 44 H       -9.0850     5.5010    -1.8310 H     1 <1>   0.0800 
 45 H      -10.7690     5.1700    -0.3170 H     1 <1>   0.4000 
 46 H       -9.3970     2.1130    -1.0190 H     1 <1>   0.0800 
 47 H      -10.6500     3.2210    -1.4870 H     1 <1>   0.0800 
 48 H      -10.6340     2.5380     0.1220 H     1 <1>   0.0800 
@<TRIPOS>BOND
  1   1   2  1   
  2   1   3  1   
  3   2   4  1   
  4   2  21  1   
  5   2  22  1   
  6   3   5  1   
  7   3  23  1   
  8   3  24  1   
  9   4   6  1   
 10   4  25  1   
 11   4  26  1   
 12   5   6  1   
 13   5  27  1   
 14   5  28  1   
 15   6   7  1   
 16   6  29  1   
 17   7   8  1   
 18   7   9  1   
 19   7  30  1   
 20   8  10  1   
 21   8  31  1   
 22   8  32  1   
 23   9  11  1   
 24   9  33  1   
 25   9  34  1   
 26  10  12  1   
 27  10  35  1   
 28  10  36  1   
 29  11  12  1   
 30  11  37  1   
 31  11  38  1   
 32  12  13  1   
 33  12  14  1   
 34  13  15  1   
 35  14  16  1   
 36  14  17  1   
 37  14  39  1   
 38  15  18  1   
 39  15  40  1   
 40  15  41  1   
 41  16  42  1   
 42  17  18  1   
 43  17  19  1   
 44  17  20  1   
 45  18  43  1   
 46  18  44  1   
 47  19  45  1   
 48  20  46  1   
 49  20  47  1   
 50  20  48  1   
@<TRIPOS>SUBSTRUCTURE
  1 ****   8 GROUP 4 **** **** 0

# MOE 2024.06 (io_trps.svl 2023.06)
