@<TRIPOS>MOLECULE
NONAME
45 46 1 0 0 
SMALL
USER_CHARGES


@<TRIPOS>ATOM
  1 O       -0.9540     1.7750     1.7000 O.3   1 <1>  -0.0190 
  2 N       -1.3300     0.5660     1.9840 N.2   1 <1>  -0.4100 
  3 C       -0.8000     1.7600     0.4000 C.2   1 <1>   0.2980 
  4 C       -1.3790    -0.0840     0.8880 C.2   1 <1>   0.3350 
  5 N       -1.0470     0.6460    -0.1700 N.2   1 <1>  -0.5650 
  6 C       -0.3490     3.0370    -0.3000 C.3   1 <1>   0.2900 
  7 C       -1.7630    -1.5570     0.7300 C.3   1 <1>   0.1010 
  8 N        1.0500     3.4290     0.0180 N.3   1 <1>  -0.8100 
  9 C       -2.6940    -2.0470     1.8510 C.3   1 <1>  -0.2400 
 10 C       -0.5060    -2.4360     0.6700 C.3   1 <1>  -0.2400 
 11 C        2.0030     2.3810    -0.4070 C.3   1 <1>   0.2530 
 12 C        1.3910     4.7430    -0.5550 C.3   1 <1>   0.1100 
 13 C        3.3940     2.6420     0.1490 C.ar  1 <1>  -0.1430 
 14 C        0.8250     5.8660     0.3180 C.3   1 <1>  -0.1600 
 15 C        3.5650     2.9460     1.4920 C.ar  1 <1>   0.1600 
 16 C        4.5080     2.5770    -0.6650 C.ar  1 <1>  -0.1500 
 17 C        1.2880     7.2400    -0.1830 C.3   1 <1>  -0.1600 
 18 N        4.7310     3.1840     2.0750 N.ar  1 <1>  -0.6200 
 19 C        5.7290     2.8230    -0.0750 C.ar  1 <1>  -0.1500 
 20 C        0.7240     8.3640     0.6900 C.3   1 <1>  -0.2400 
 21 C        5.7840     3.1160     1.2770 C.ar  1 <1>   0.1600 
 22 H       -1.0220     3.8190    -0.0020 H     1 <1>   0.0800 
 23 H       -0.4500     2.9000    -1.3630 H     1 <1>   0.0800 
 24 H       -2.2890    -1.6530    -0.2030 H     1 <1>   0.0800 
 25 H       -2.1990    -1.9880     2.8040 H     1 <1>   0.0800 
 26 H       -2.9900    -3.0650     1.6750 H     1 <1>   0.0800 
 27 H       -3.5770    -1.4340     1.8870 H     1 <1>   0.0800 
 28 H        0.0500    -2.3530     1.5870 H     1 <1>   0.0800 
 29 H        0.1240    -2.1200    -0.1420 H     1 <1>   0.0800 
 30 H       -0.7730    -3.4660     0.5160 H     1 <1>   0.0800 
 31 H        2.0330     2.3310    -1.4820 H     1 <1>   0.0800 
 32 H        1.6860     1.4200    -0.0390 H     1 <1>   0.0800 
 33 H        1.0220     4.8230    -1.5640 H     1 <1>   0.0800 
 34 H        2.4610     4.8650    -0.5850 H     1 <1>   0.0800 
 35 H        1.1690     5.7250     1.3290 H     1 <1>   0.0800 
 36 H       -0.2490     5.8380     0.3150 H     1 <1>   0.0800 
 37 H        2.6890     3.0000     2.1170 H     1 <1>   0.1500 
 38 H        4.4340     2.3450    -1.7130 H     1 <1>   0.1500 
 39 H        0.9630     7.3840    -1.2000 H     1 <1>   0.0800 
 40 H        2.3640     7.2860    -0.1660 H     1 <1>   0.0800 
 41 H        6.6340     2.7880    -0.6550 H     1 <1>   0.1500 
 42 H       -0.3510     8.3530     0.6720 H     1 <1>   0.0800 
 43 H        1.0630     9.3180     0.3270 H     1 <1>   0.0800 
 44 H        1.0550     8.2500     1.7080 H     1 <1>   0.0800 
 45 H        6.7430     3.3050     1.7260 H     1 <1>   0.1500 
@<TRIPOS>BOND
  1   1   2  1   
  2   1   3  1   
  3   2   4  2   
  4   3   5  2   
  5   3   6  1   
  6   4   5  1   
  7   4   7  1   
  8   6   8  1   
  9   6  22  1   
 10   6  23  1   
 11   7   9  1   
 12   7  10  1   
 13   7  24  1   
 14   8  11  1   
 15   8  12  1   
 16   9  25  1   
 17   9  26  1   
 18   9  27  1   
 19  10  28  1   
 20  10  29  1   
 21  10  30  1   
 22  11  13  1   
 23  11  31  1   
 24  11  32  1   
 25  12  14  1   
 26  12  33  1   
 27  12  34  1   
 28  13  15  ar  
 29  13  16  ar  
 30  14  17  1   
 31  14  35  1   
 32  14  36  1   
 33  15  18  ar  
 34  15  37  1   
 35  16  19  ar  
 36  16  38  1   
 37  17  20  1   
 38  17  39  1   
 39  17  40  1   
 40  18  21  ar  
 41  19  21  ar  
 42  19  41  1   
 43  20  42  1   
 44  20  43  1   
 45  20  44  1   
 46  21  45  1   
@<TRIPOS>SUBSTRUCTURE
  1 ****   8 GROUP 4 **** **** 0

# MOE 2024.06 (io_trps.svl 2023.06)
