@<TRIPOS>MOLECULE
NONAME
46 47 1 0 0 
SMALL
USER_CHARGES


@<TRIPOS>ATOM
  1 S        0.4260     0.5830     0.3090 S.o2  1 <1>   1.3330 
  2 O        1.1680     0.8950     1.5100 O.2   1 <1>  -0.6500 
  3 O       -0.7160    -0.2980     0.3960 O.2   1 <1>  -0.6500 
  4 N        1.5210    -0.0860    -0.8030 N.am  1 <1>  -0.8490 
  5 C       -0.1110     2.0780    -0.5230 C.3   1 <1>  -0.0550 
  6 C        2.8500     0.5350    -0.7480 C.3   1 <1>   0.1160 
  7 C        1.6450    -1.5380    -0.6450 C.3   1 <1>   0.1160 
  8 C       -1.0340     2.9730     0.3290 C.3   1 <1>  -0.0800 
  9 C       -1.6680     4.0610    -0.5380 C.3   1 <1>   0.2000 
 10 C       -0.2240     3.7970     1.3320 C.3   1 <1>   0.1100 
 11 O       -2.8270     4.4940     0.0880 O.3   1 <1>  -0.6800 
 12 C       -0.6460     5.2040    -0.5320 C.3   1 <1>   0.1100 
 13 N        0.3280     4.8820     0.5250 N.3   1 <1>  -0.8100 
 14 C        0.8350     6.0300     1.3040 C.3   1 <1>   0.2530 
 15 C        1.5690     7.0510     0.4320 C.ar  1 <1>   0.1670 
 16 N        2.8400     6.8400     0.1550 N.ar  1 <1>  -0.6200 
 17 C        0.9140     8.1650    -0.0420 C.ar  1 <1>  -0.1500 
 18 C        3.4300     7.7470    -0.6070 C.ar  1 <1>   0.4770 
 19 C        1.6270     9.0420    -0.8220 C.ar  1 <1>   0.1600 
 20 N        2.8910     8.8440    -1.1170 N.ar  1 <1>  -0.6200 
 21 C        4.8940     7.5030    -0.9320 C.3   1 <1>  -0.0170 
 22 C        5.8340     8.1840     0.0750 C.3   1 <1>  -0.2400 
 23 H        0.7460     2.6460    -0.8290 H     1 <1>   0.0800 
 24 H       -0.6360     1.7860    -1.4110 H     1 <1>   0.0800 
 25 H        3.4760     0.1370    -1.5280 H     1 <1>   0.0800 
 26 H        3.3160     0.3470     0.2060 H     1 <1>   0.0800 
 27 H        2.7720     1.5990    -0.8880 H     1 <1>   0.0800 
 28 H        2.3330    -1.9350    -1.3720 H     1 <1>   0.0800 
 29 H        0.6870    -2.0080    -0.7980 H     1 <1>   0.0800 
 30 H        1.9940    -1.7780     0.3450 H     1 <1>   0.0800 
 31 H       -1.7810     2.3640     0.8090 H     1 <1>   0.0800 
 32 H       -1.9270     3.7350    -1.5310 H     1 <1>   0.0800 
 33 H        0.5640     3.2370     1.8060 H     1 <1>   0.0800 
 34 H       -0.8750     4.1950     2.0910 H     1 <1>   0.0800 
 35 H       -2.6170     4.7910     0.9920 H     1 <1>   0.4000 
 36 H       -1.1320     6.1480    -0.3600 H     1 <1>   0.0800 
 37 H       -0.1260     5.2430    -1.4740 H     1 <1>   0.0800 
 38 H        0.0190     6.5100     1.8140 H     1 <1>   0.0800 
 39 H        1.5250     5.6690     2.0470 H     1 <1>   0.0800 
 40 H       -0.1180     8.3470     0.1850 H     1 <1>   0.1500 
 41 H        1.1510     9.9240    -1.2150 H     1 <1>   0.1500 
 42 H        5.0790     6.4440    -0.9350 H     1 <1>   0.0800 
 43 H        5.0970     7.8740    -1.9200 H     1 <1>   0.0800 
 44 H        5.6470     7.8070     1.0650 H     1 <1>   0.0800 
 45 H        5.6660     9.2470     0.0730 H     1 <1>   0.0800 
 46 H        6.8590     7.9920    -0.1850 H     1 <1>   0.0800 
@<TRIPOS>BOND
  1   1   2  2   
  2   1   3  2   
  3   1   4  am  
  4   1   5  1   
  5   4   6  1   
  6   4   7  1   
  7   5   8  1   
  8   5  23  1   
  9   5  24  1   
 10   6  25  1   
 11   6  26  1   
 12   6  27  1   
 13   7  28  1   
 14   7  29  1   
 15   7  30  1   
 16   8   9  1   
 17   8  10  1   
 18   8  31  1   
 19   9  11  1   
 20   9  12  1   
 21   9  32  1   
 22  10  13  1   
 23  10  33  1   
 24  10  34  1   
 25  11  35  1   
 26  12  13  1   
 27  12  36  1   
 28  12  37  1   
 29  13  14  1   
 30  14  15  1   
 31  14  38  1   
 32  14  39  1   
 33  15  16  ar  
 34  15  17  ar  
 35  16  18  ar  
 36  17  19  ar  
 37  17  40  1   
 38  18  20  ar  
 39  18  21  1   
 40  19  20  ar  
 41  19  41  1   
 42  21  22  1   
 43  21  42  1   
 44  21  43  1   
 45  22  44  1   
 46  22  45  1   
 47  22  46  1   
@<TRIPOS>SUBSTRUCTURE
  1 ****  13 GROUP 4 **** **** 0

# MOE 2024.06 (io_trps.svl 2023.06)
