@<TRIPOS>MOLECULE
NONAME
41 42 1 0 0 
SMALL
USER_CHARGES


@<TRIPOS>ATOM
  1 O        0.8380     2.2630     0.1080 O.3   1 <1>  -0.5600 
  2 C       -0.3080     2.7400    -0.5580 C.3   1 <1>   0.2000 
  3 C        0.5620     1.4620     1.2250 C.3   1 <1>   0.1200 
  4 C       -1.0910     1.5390    -1.1170 C.3   1 <1>  -0.1600 
  5 C        0.1070     3.7040    -1.6900 C.3   1 <1>   0.2090 
  6 C       -0.1610     0.1880     0.7760 C.3   1 <1>  -0.1600 
  7 C       -1.4290     0.5340    -0.0110 C.3   1 <1>  -0.1600 
  8 N        0.8090     4.9420    -1.2260 N.pl3 1 <1>  -0.8690 
  9 C        2.0390     5.1230    -0.7320 C.ar  1 <1>   0.7710 
 10 N        2.4880     6.3580    -0.7170 N.ar  1 <1>  -0.6200 
 11 N        2.7530     4.0820    -0.2890 N.ar  1 <1>  -0.1790 
 12 C        3.7060     6.5640    -0.2470 C.ar  1 <1>   0.4100 
 13 C        4.0140     4.2390     0.1670 C.ar  1 <1>   0.2110 
 14 N        4.1220     7.8560    -0.2080 N.pl3 1 <1>  -0.8380 
 15 C        4.5330     5.4930     0.1890 C.ar  1 <1>  -0.1430 
 16 C        4.5560     8.5220     1.0520 C.3   1 <1>   0.1290 
 17 C        3.8070     8.8050    -1.3140 C.3   1 <1>   0.1290 
 18 C        5.9750     5.7190     0.6400 C.3   1 <1>  -0.0970 
 19 H       -0.9190     3.2730     0.1520 H     1 <1>   0.0800 
 20 H       -0.0430     2.0250     1.9170 H     1 <1>   0.0800 
 21 H        1.4940     1.2110     1.7010 H     1 <1>   0.0800 
 22 H       -0.5040     1.0510    -1.8760 H     1 <1>   0.0800 
 23 H       -2.0030     1.8800    -1.5750 H     1 <1>   0.0800 
 24 H       -0.7820     4.0040    -2.2190 H     1 <1>   0.0800 
 25 H        0.7300     3.1780    -2.3950 H     1 <1>   0.0800 
 26 H       -0.4190    -0.4030     1.6380 H     1 <1>   0.0800 
 27 H        0.5030    -0.3970     0.1650 H     1 <1>   0.0800 
 28 H       -1.8560    -0.3590    -0.4360 H     1 <1>   0.0800 
 29 H       -2.1570     0.9650     0.6560 H     1 <1>   0.0800 
 30 H        0.3460     5.8190    -1.4880 H     1 <1>   0.4000 
 31 H        2.2340     3.1960    -0.2600 H     1 <1>   0.4570 
 32 H        4.5600     3.3680     0.4910 H     1 <1>   0.1500 
 33 H        4.4370     7.8570     1.8890 H     1 <1>   0.0800 
 34 H        3.9550     9.3970     1.2300 H     1 <1>   0.0800 
 35 H        5.5880     8.8150     0.9730 H     1 <1>   0.0800 
 36 H        3.5800     8.2650    -2.2170 H     1 <1>   0.0800 
 37 H        4.6520     9.4450    -1.5000 H     1 <1>   0.0800 
 38 H        2.9560     9.4080    -1.0470 H     1 <1>   0.0800 
 39 H        6.4710     6.3950    -0.0350 H     1 <1>   0.0800 
 40 H        6.5290     4.7970     0.6530 H     1 <1>   0.0800 
 41 H        5.9990     6.1400     1.6290 H     1 <1>   0.0800 
@<TRIPOS>BOND
  1   1   2  1   
  2   1   3  1   
  3   2   4  1   
  4   2   5  1   
  5   2  19  1   
  6   3   6  1   
  7   3  20  1   
  8   3  21  1   
  9   4   7  1   
 10   4  22  1   
 11   4  23  1   
 12   5   8  1   
 13   5  24  1   
 14   5  25  1   
 15   6   7  1   
 16   6  26  1   
 17   6  27  1   
 18   7  28  1   
 19   7  29  1   
 20   8   9  1   
 21   8  30  1   
 22   9  10  ar  
 23   9  11  ar  
 24  10  12  ar  
 25  11  13  ar  
 26  11  31  1   
 27  12  14  1   
 28  12  15  ar  
 29  13  15  ar  
 30  13  32  1   
 31  14  16  1   
 32  14  17  1   
 33  15  18  1   
 34  16  33  1   
 35  16  34  1   
 36  16  35  1   
 37  17  36  1   
 38  17  37  1   
 39  17  38  1   
 40  18  39  1   
 41  18  40  1   
 42  18  41  1   
@<TRIPOS>SUBSTRUCTURE
  1 ****  11 GROUP 4 **** **** 0

# MOE 2024.06 (io_trps.svl 2023.06)
