@<TRIPOS>MOLECULE
NONAME
49 51 1 0 0 
SMALL
USER_CHARGES


@<TRIPOS>ATOM
  1 S        2.7130    -0.2980    -0.5110 S.3   1 <1>  -0.0800 
  2 C        1.1090    -0.9860    -0.4900 C.2   1 <1>   0.1980 
  3 C        2.0050     1.2860    -0.3810 C.2   1 <1>  -0.1400 
  4 N        0.1660    -0.1330    -0.3960 N.2   1 <1>  -0.5650 
  5 C        0.9990    -2.4990    -0.5860 C.3   1 <1>   0.5230 
  6 C        0.6670     1.1580    -0.3350 C.2   1 <1>   0.0460 
  7 C        2.9670     2.4590    -0.3470 C.3   1 <1>  -0.0600 
  8 N       -0.3950    -2.9220    -0.2570 N.4   1 <1>  -0.9590 
  9 C       -0.3580     2.2680    -0.2240 C.3   1 <1>  -0.0590 
 10 C       -0.7840    -4.2250    -0.9400 C.3   1 <1>   0.3430 
 11 C       -0.5610    -2.9570     1.2360 C.3   1 <1>   0.3430 
 12 C       -1.0710    -5.3720     0.0880 C.3   1 <1>  -0.1060 
 13 C       -1.9490    -3.4740     1.5970 C.3   1 <1>  -0.1600 
 14 C       -1.3160    -6.4470     1.1430 C.2   1 <1>   0.9060 
 15 C       -2.3590    -4.5380     0.5830 C.3   1 <1>   0.2000 
 16 C        0.1770    -6.2140    -0.4690 C.3   1 <1>  -0.0170 
 17 O       -2.0730    -7.3900     0.8860 O.co2 1 <1>  -0.9000 
 18 O       -0.7580    -6.3160     2.2370 O.co2 1 <1>  -0.9000 
 19 O       -3.4800    -5.2060     1.0680 O.3   1 <1>  -0.6800 
 20 C        1.5560    -5.5540    -0.3360 C.ar  1 <1>  -0.1440 
 21 C        2.0700    -5.2660     0.9190 C.ar  1 <1>  -0.1500 
 22 C        2.3110    -5.2510    -1.4610 C.ar  1 <1>  -0.1500 
 23 C        3.3010    -4.6470     1.0490 C.ar  1 <1>  -0.1500 
 24 C        3.5420    -4.6310    -1.3330 C.ar  1 <1>  -0.1500 
 25 C        4.0350    -4.3220    -0.0780 C.ar  1 <1>  -0.1500 
 26 H        1.6980    -2.9570     0.0910 H     1 <1>   0.0800 
 27 H        1.2510    -2.7970    -1.5880 H     1 <1>   0.0800 
 28 H        2.4360     3.3890    -0.2660 H     1 <1>   0.0800 
 29 H        3.5550     2.4770    -1.2470 H     1 <1>   0.0800 
 30 H        3.6280     2.3660     0.4970 H     1 <1>   0.0800 
 31 H       -0.9830    -2.1460    -0.5990 H     1 <1>   0.4500 
 32 H        0.1170     3.2300    -0.1830 H     1 <1>   0.0800 
 33 H       -0.9420     2.1340     0.6680 H     1 <1>   0.0800 
 34 H       -1.0130     2.2420    -1.0750 H     1 <1>   0.0800 
 35 H       -1.6550    -4.0630    -1.5530 H     1 <1>   0.0800 
 36 H       -0.0190    -4.4720    -1.6540 H     1 <1>   0.0800 
 37 H        0.1660    -3.6350     1.6570 H     1 <1>   0.0800 
 38 H       -0.4030    -1.9790     1.6630 H     1 <1>   0.0800 
 39 H       -2.6600    -2.6680     1.5970 H     1 <1>   0.0800 
 40 H       -1.9080    -3.8980     2.5860 H     1 <1>   0.0800 
 41 H       -2.8260    -3.9930    -0.2220 H     1 <1>   0.0800 
 42 H        0.3280    -7.2050    -0.0560 H     1 <1>   0.0800 
 43 H       -0.0070    -6.4480    -1.5050 H     1 <1>   0.0800 
 44 H       -3.2500    -6.1770     1.1750 H     1 <1>   0.4000 
 45 H        1.5160    -5.5340     1.8060 H     1 <1>   0.1500 
 46 H        1.9520    -5.5050    -2.4440 H     1 <1>   0.1500 
 47 H        3.6900    -4.4330     2.0300 H     1 <1>   0.1500 
 48 H        4.1250    -4.4000    -2.2090 H     1 <1>   0.1500 
 49 H        4.9960    -3.8460     0.0250 H     1 <1>   0.1500 
@<TRIPOS>BOND
  1   1   2  1   
  2   1   3  1   
  3   2   4  2   
  4   2   5  1   
  5   3   6  2   
  6   3   7  1   
  7   4   6  1   
  8   5   8  1   
  9   5  26  1   
 10   5  27  1   
 11   6   9  1   
 12   7  28  1   
 13   7  29  1   
 14   7  30  1   
 15   8  10  1   
 16   8  11  1   
 17   8  31  1   
 18   9  32  1   
 19   9  33  1   
 20   9  34  1   
 21  10  12  1   
 22  10  35  1   
 23  10  36  1   
 24  11  13  1   
 25  11  37  1   
 26  11  38  1   
 27  12  14  1   
 28  12  15  1   
 29  12  16  1   
 30  13  15  1   
 31  13  39  1   
 32  13  40  1   
 33  14  17  ar  
 34  14  18  ar  
 35  15  19  1   
 36  15  41  1   
 37  16  20  1   
 38  16  42  1   
 39  16  43  1   
 40  19  44  1   
 41  20  21  ar  
 42  20  22  ar  
 43  21  23  ar  
 44  21  45  1   
 45  22  24  ar  
 46  22  46  1   
 47  23  25  ar  
 48  23  47  1   
 49  24  25  ar  
 50  24  48  1   
 51  25  49  1   
@<TRIPOS>SUBSTRUCTURE
  1 ****   8 GROUP 4 **** **** 0

# MOE 2024.06 (io_trps.svl 2023.06)
