@<TRIPOS>MOLECULE
NONAME
42 44 1 0 0 
SMALL
USER_CHARGES


@<TRIPOS>ATOM
  1 O       -2.1720     0.5800    -2.0620 O.2   1 <1>  -0.5700 
  2 C       -1.8750     0.5280    -0.8840 C.2   1 <1>   0.7160 
  3 N       -1.8090    -0.6950    -0.2870 N.am  1 <1>  -0.7300 
  4 C       -1.6270     1.7270    -0.1260 C.2   1 <1>  -0.0860 
  5 C       -2.0970    -1.9910    -0.9410 C.3   1 <1>   0.2200 
  6 C       -1.3140     1.8200     1.2330 C.2   1 <1>   0.1390 
  7 C       -1.6410     3.0300    -0.5220 C.2   1 <1>  -0.3020 
  8 C       -3.4730    -2.5130    -0.5420 C.3   1 <1>  -0.0800 
  9 C       -1.2070    -3.0570    -0.3170 C.3   1 <1>   0.1200 
 10 N       -1.1560     3.0400     1.6370 N.2   1 <1>  -0.7070 
 11 N       -1.3560     3.7940     0.5420 N.pl3 1 <1>   0.3140 
 12 C       -3.2030    -3.2140     0.7950 C.3   1 <1>   0.1200 
 13 C       -4.6040    -1.4680    -0.4940 C.3   1 <1>  -0.0160 
 14 O       -1.8160    -3.3610     0.9010 O.3   1 <1>  -0.5600 
 15 C       -1.2610     5.2670     0.5770 C.3   1 <1>   0.0960 
 16 C       -5.9300    -2.1180    -0.1330 C.ar  1 <1>  -0.1430 
 17 C        0.1140     5.7430     0.0910 C.3   1 <1>  -0.2400 
 18 C       -6.4520    -2.0550     1.1440 C.ar  1 <1>  -0.1500 
 19 C       -6.6800    -2.8060    -1.0650 C.ar  1 <1>  -0.1500 
 20 C       -7.6610    -2.6700     1.4200 C.ar  1 <1>   0.1600 
 21 C       -7.8790    -3.3860    -0.6840 C.ar  1 <1>   0.1600 
 22 N       -8.3860    -3.3370     0.5370 N.ar  1 <1>  -0.6200 
 23 H       -1.5830    -0.7740     0.7050 H     1 <1>   0.3700 
 24 H       -1.9680    -1.9220    -2.0080 H     1 <1>   0.0800 
 25 H       -1.2130     0.9760     1.8930 H     1 <1>   0.1500 
 26 H       -1.8380     3.4230    -1.5030 H     1 <1>   0.1500 
 27 H       -3.7520    -3.2730    -1.2500 H     1 <1>   0.0800 
 28 H       -0.2010    -2.7170    -0.1480 H     1 <1>   0.0800 
 29 H       -1.1990    -3.9500    -0.9170 H     1 <1>   0.0800 
 30 H       -3.6630    -4.1870     0.8340 H     1 <1>   0.0800 
 31 H       -3.5320    -2.6220     1.6310 H     1 <1>   0.0800 
 32 H       -4.6910    -0.9900    -1.4550 H     1 <1>   0.0800 
 33 H       -4.3820    -0.7010     0.2270 H     1 <1>   0.0800 
 34 H       -2.0380     5.6740    -0.0430 H     1 <1>   0.0800 
 35 H       -1.4250     5.5890     1.5890 H     1 <1>   0.0800 
 36 H        0.2800     5.4340    -0.9260 H     1 <1>   0.0800 
 37 H        0.8870     5.3350     0.7190 H     1 <1>   0.0800 
 38 H        0.1660     6.8160     0.1380 H     1 <1>   0.0800 
 39 H       -5.9330    -1.5330     1.9260 H     1 <1>   0.1500 
 40 H       -6.3450    -2.8950    -2.0820 H     1 <1>   0.1500 
 41 H       -8.0530    -2.6100     2.4210 H     1 <1>   0.1500 
 42 H       -8.4520    -3.9190    -1.4240 H     1 <1>   0.1500 
@<TRIPOS>BOND
  1   1   2  2   
  2   2   3  am  
  3   2   4  1   
  4   3   5  1   
  5   3  23  1   
  6   4   6  1   
  7   4   7  2   
  8   5   8  1   
  9   5   9  1   
 10   5  24  1   
 11   6  10  2   
 12   6  25  1   
 13   7  11  1   
 14   7  26  1   
 15   8  12  1   
 16   8  13  1   
 17   8  27  1   
 18   9  14  1   
 19   9  28  1   
 20   9  29  1   
 21  10  11  1   
 22  11  15  1   
 23  12  14  1   
 24  12  30  1   
 25  12  31  1   
 26  13  16  1   
 27  13  32  1   
 28  13  33  1   
 29  15  17  1   
 30  15  34  1   
 31  15  35  1   
 32  16  18  ar  
 33  16  19  ar  
 34  17  36  1   
 35  17  37  1   
 36  17  38  1   
 37  18  20  ar  
 38  18  39  1   
 39  19  21  ar  
 40  19  40  1   
 41  20  22  ar  
 42  20  41  1   
 43  21  22  ar  
 44  21  42  1   
@<TRIPOS>SUBSTRUCTURE
  1 ****   3 GROUP 4 **** **** 0

# MOE 2024.06 (io_trps.svl 2023.06)
