@<TRIPOS>MOLECULE
NONAME
54 56 1 0 0 
SMALL
USER_CHARGES


@<TRIPOS>ATOM
  1 O       -0.9730    -1.9030    -0.3360 O.3   1 <1>  -0.6800 
  2 C        0.2710    -2.0830    -0.9200 C.3   1 <1>   0.1200 
  3 C        1.3580    -2.2980     0.1790 C.3   1 <1>   0.0000 
  4 C        2.7670    -2.5920    -0.4010 C.3   1 <1>   0.4230 
  5 C        1.4930    -0.9980     1.0140 C.3   1 <1>  -0.1600 
  6 C        1.0010    -3.4700     1.1210 C.3   1 <1>  -0.1600 
  7 N        2.9800    -4.0230    -0.8950 N.4   1 <1>  -0.9590 
  8 C        3.2230    -1.4360    -1.3230 C.3   1 <1>   0.2090 
  9 C        2.0130     0.1980     0.2000 C.3   1 <1>   0.2090 
 10 C        1.0030    -4.8370     0.4090 C.3   1 <1>  -0.1600 
 11 C        1.7600    -4.8820    -0.9250 C.3   1 <1>   0.3430 
 12 C        3.7480    -4.1480    -2.1740 C.3   1 <1>   0.2630 
 13 N        3.2580    -0.1690    -0.5370 N.pl3 1 <1>  -0.8380 
 14 C        4.4570     0.1890     0.0460 C.ar  1 <1>   0.4100 
 15 N        5.0990    -0.7810     0.6720 N.ar  1 <1>  -0.6200 
 16 C        4.9620     1.4850    -0.0030 C.ar  1 <1>  -0.1430 
 17 C        6.2250    -0.4360     1.2640 C.ar  1 <1>   0.4770 
 18 C        6.1470     1.7020     0.6530 C.ar  1 <1>   0.1600 
 19 C        4.2650     2.6260    -0.7500 C.3   1 <1>   0.0630 
 20 N        6.7930     0.7510     1.2960 N.ar  1 <1>  -0.6200 
 21 C        6.9530    -1.5380     1.9940 C.3   1 <1>  -0.0970 
 22 C        5.1740     3.2060    -1.8390 C.3   1 <1>  -0.2400 
 23 C        3.8230     3.7240     0.2230 C.3   1 <1>  -0.2400 
 24 H       -1.6620    -1.6980    -1.0020 H     1 <1>   0.4000 
 25 H        0.1870    -2.9190    -1.5860 H     1 <1>   0.0800 
 26 H        0.4740    -1.2090    -1.5130 H     1 <1>   0.0800 
 27 H        3.4270    -2.5020     0.4450 H     1 <1>   0.0800 
 28 H        2.1750    -1.1550     1.8320 H     1 <1>   0.0800 
 29 H        0.5440    -0.7350     1.4490 H     1 <1>   0.0800 
 30 H        1.7250    -3.5050     1.9190 H     1 <1>   0.0800 
 31 H        0.0430    -3.3050     1.5860 H     1 <1>   0.0800 
 32 H        3.5710    -4.4380    -0.1600 H     1 <1>   0.4500 
 33 H        2.5660    -1.3180    -2.1650 H     1 <1>   0.0800 
 34 H        4.2170    -1.6230    -1.6890 H     1 <1>   0.0800 
 35 H        2.2170     1.0160     0.8710 H     1 <1>   0.0800 
 36 H        1.2690     0.5350    -0.5010 H     1 <1>   0.0800 
 37 H       -0.0160    -5.1260     0.2140 H     1 <1>   0.0800 
 38 H        1.4090    -5.5800     1.0740 H     1 <1>   0.0800 
 39 H        1.1100    -4.5510    -1.7160 H     1 <1>   0.0800 
 40 H        2.0310    -5.9030    -1.1410 H     1 <1>   0.0800 
 41 H        3.1950    -3.7090    -2.9890 H     1 <1>   0.0800 
 42 H        3.9290    -5.1860    -2.4020 H     1 <1>   0.0800 
 43 H        4.7000    -3.6490    -2.0900 H     1 <1>   0.0800 
 44 H        6.5910     2.6820     0.6590 H     1 <1>   0.1500 
 45 H        3.3840     2.2540    -1.2440 H     1 <1>   0.0800 
 46 H        7.7560    -1.1320     2.5830 H     1 <1>   0.0800 
 47 H        7.3600    -2.2310     1.2820 H     1 <1>   0.0800 
 48 H        6.2730    -2.0520     2.6460 H     1 <1>   0.0800 
 49 H        6.0470     3.6670    -1.4130 H     1 <1>   0.0800 
 50 H        4.6430     3.9460    -2.4100 H     1 <1>   0.0800 
 51 H        5.4900     2.4240    -2.5070 H     1 <1>   0.0800 
 52 H        4.6720     4.1820     0.6990 H     1 <1>   0.0800 
 53 H        3.1880     3.3090     0.9850 H     1 <1>   0.0800 
 54 H        3.2740     4.4850    -0.3010 H     1 <1>   0.0800 
@<TRIPOS>BOND
  1   1   2  1   
  2   1  24  1   
  3   2   3  1   
  4   2  25  1   
  5   2  26  1   
  6   3   4  1   
  7   3   5  1   
  8   3   6  1   
  9   4   7  1   
 10   4   8  1   
 11   4  27  1   
 12   5   9  1   
 13   5  28  1   
 14   5  29  1   
 15   6  10  1   
 16   6  30  1   
 17   6  31  1   
 18   7  11  1   
 19   7  12  1   
 20   7  32  1   
 21   8  13  1   
 22   8  33  1   
 23   8  34  1   
 24   9  13  1   
 25   9  35  1   
 26   9  36  1   
 27  10  11  1   
 28  10  37  1   
 29  10  38  1   
 30  11  39  1   
 31  11  40  1   
 32  12  41  1   
 33  12  42  1   
 34  12  43  1   
 35  13  14  1   
 36  14  15  ar  
 37  14  16  ar  
 38  15  17  ar  
 39  16  18  ar  
 40  16  19  1   
 41  17  20  ar  
 42  17  21  1   
 43  18  20  ar  
 44  18  44  1   
 45  19  22  1   
 46  19  23  1   
 47  19  45  1   
 48  21  46  1   
 49  21  47  1   
 50  21  48  1   
 51  22  49  1   
 52  22  50  1   
 53  22  51  1   
 54  23  52  1   
 55  23  53  1   
 56  23  54  1   
@<TRIPOS>SUBSTRUCTURE
  1 ****  13 GROUP 4 **** **** 0

# MOE 2024.06 (io_trps.svl 2023.06)
