@<TRIPOS>MOLECULE
F1913-1333
27 28 1 0 0 
SMALL
USER_CHARGES


@<TRIPOS>ATOM
  1 S        0.1440    -0.2910    -1.2500 S.3   1 <1>  -0.0800 
  2 C       -1.0280     0.8120    -0.5760 C.2   1 <1>   0.2170 
  3 C        1.3290     0.9730    -1.1740 C.2   1 <1>  -0.1100 
  4 N       -0.5780     1.9720    -0.3300 N.2   1 <1>  -0.5650 
  5 C       -2.4310     0.3130    -0.3490 C.3   1 <1>   0.1610 
  6 C        0.7870     2.1030    -0.6640 C.2   1 <1>   0.1410 
  7 C       -3.4810     1.3100    -0.8770 C.3   1 <1>   0.4720 
  8 C       -2.9450     0.6840     1.0550 C.3   1 <1>   0.4720 
  9 C        1.5110     3.3510    -0.4650 C.2   1 <1>   0.8060 
 10 N       -4.2220     1.1520     0.4190 N.4   1 <1>  -0.8440 
 11 O        2.6850     3.4790    -0.7480 O.2   1 <1>  -0.5700 
 12 O        0.8500     4.3950     0.0490 O.3   1 <1>  -0.4300 
 13 C        1.4830     5.6360     0.2700 C.3   1 <1>   0.1200 
 14 C        0.4510     6.5930     0.8590 C.3   1 <1>  -0.2400 
 15 H        2.3270     0.7600    -1.5160 H     1 <1>   0.1500 
 16 H       -2.6200    -0.7090    -0.6280 H     1 <1>   0.0000 
 17 H       -4.0490     0.9530    -1.7170 H     1 <1>   0.0000 
 18 H       -3.1040     2.3120    -0.9850 H     1 <1>   0.0000 
 19 H       -2.4140     1.5060     1.5020 H     1 <1>   0.0000 
 20 H       -3.0990    -0.1560     1.7080 H     1 <1>   0.0000 
 21 H       -4.9460     0.4260     0.3850 H     1 <1>   0.4500 
 22 H       -4.5570     2.0440     0.8010 H     1 <1>   0.4500 
 23 H        1.8570     6.0030    -0.6710 H     1 <1>   0.0800 
 24 H        2.3030     5.4860     0.9520 H     1 <1>   0.0800 
 25 H       -0.3650     6.7280     0.1720 H     1 <1>   0.0800 
 26 H        0.9070     7.5500     1.0380 H     1 <1>   0.0800 
 27 H        0.0800     6.2110     1.7930 H     1 <1>   0.0800 
@<TRIPOS>BOND
  1   1   2  1   
  2   1   3  1   
  3   2   4  2   
  4   2   5  1   
  5   3   6  2   
  6   3  15  1   
  7   4   6  1   
  8   5   7  1   
  9   5   8  1   
 10   5  16  1   
 11   6   9  1   
 12   7  10  1   
 13   7  17  1   
 14   7  18  1   
 15   8  10  1   
 16   8  19  1   
 17   8  20  1   
 18   9  11  2   
 19   9  12  1   
 20  10  21  1   
 21  10  22  1   
 22  12  13  1   
 23  13  14  1   
 24  13  23  1   
 25  13  24  1   
 26  14  25  1   
 27  14  26  1   
 28  14  27  1   
@<TRIPOS>SUBSTRUCTURE
  1 ****   4 GROUP 4 **** **** 0

# MOE 2024.06 (io_trps.svl 2023.06)
