@<TRIPOS>MOLECULE
NONAME
50 54 1 0 0 
SMALL
USER_CHARGES


@<TRIPOS>ATOM
  1 O        1.0760    -0.4780     1.0600 O.3   1 <1>  -0.5600 
  2 C        1.9500    -1.0390     0.1040 C.3   1 <1>   0.4600 
  3 C       -0.3080    -0.6680     0.8880 C.3   1 <1>   0.1200 
  4 C        1.4430    -2.4210    -0.2920 C.2   1 <1>  -0.3320 
  5 C        3.3140    -1.1460     0.7900 C.3   1 <1>  -0.1600 
  6 C        2.0340    -0.1060    -1.1080 C.3   1 <1>  -0.1600 
  7 C       -0.6790    -2.1570     0.9870 C.3   1 <1>   0.0210 
  8 N        2.0850    -3.3280    -1.0910 N.pl3 1 <1>   0.0330 
  9 C        0.2630    -2.9370     0.1040 C.2   1 <1>  -0.1810 
 10 C        3.8490     0.2360     1.1570 C.3   1 <1>   0.2090 
 11 C        2.6040     1.2590    -0.7240 C.3   1 <1>   0.2090 
 12 C        1.2900    -4.4440    -1.1900 C.ar  1 <1>  -0.1520 
 13 C        0.1340    -4.2300    -0.4440 C.ar  1 <1>   0.0000 
 14 N        3.9420     1.0680    -0.0810 N.pl3 1 <1>  -0.8380 
 15 C        1.4850    -5.6430    -1.8790 C.ar  1 <1>  -0.1500 
 16 C       -0.8440    -5.2270    -0.3800 C.ar  1 <1>  -0.1500 
 17 C        5.0490     1.7560    -0.4680 C.ar  1 <1>   0.4100 
 18 C        0.5140    -6.6160    -1.8090 C.ar  1 <1>  -0.1500 
 19 C       -0.6500    -6.4080    -1.0590 C.ar  1 <1>  -0.1500 
 20 N        4.8720     2.8810    -1.1380 N.ar  1 <1>  -0.6200 
 21 C        6.3450     1.2890    -0.1650 C.ar  1 <1>  -0.1500 
 22 C        5.9380     3.5700    -1.4750 C.ar  1 <1>   0.7710 
 23 C        7.4250     2.0220    -0.5290 C.ar  1 <1>   0.2180 
 24 N        7.1920     3.1820    -1.1870 N.ar  1 <1>  -0.1790 
 25 N        5.7220     4.7060    -2.1330 N.pl3 1 <1>  -0.9000 
 26 C        8.8600     1.6090    -0.2450 C.3   1 <1>  -0.0970 
 27 H       -0.5920    -0.2760    -0.0720 H     1 <1>   0.0800 
 28 H       -0.8150    -0.1080     1.6540 H     1 <1>   0.0800 
 29 H        4.0170    -1.6300     0.1390 H     1 <1>   0.0800 
 30 H        3.2130    -1.7490     1.6750 H     1 <1>   0.0800 
 31 H        1.0650     0.0100    -1.5530 H     1 <1>   0.0800 
 32 H        2.6740    -0.5440    -1.8510 H     1 <1>   0.0800 
 33 H       -1.6930    -2.3010     0.6650 H     1 <1>   0.0800 
 34 H       -0.5860    -2.4930     2.0040 H     1 <1>   0.0800 
 35 H        2.9960    -3.2140    -1.5440 H     1 <1>   0.2700 
 36 H        4.7990     0.1470     1.6500 H     1 <1>   0.0800 
 37 H        3.1730     0.7130     1.8490 H     1 <1>   0.0800 
 38 H        1.9430     1.7550    -0.0330 H     1 <1>   0.0800 
 39 H        2.6800     1.8660    -1.6090 H     1 <1>   0.0800 
 40 H        2.3820    -5.7960    -2.4520 H     1 <1>   0.1500 
 41 H       -1.7310    -5.0540     0.2000 H     1 <1>   0.1500 
 42 H        0.6410    -7.5490    -2.3310 H     1 <1>   0.1500 
 43 H       -1.3930    -7.1850    -1.0200 H     1 <1>   0.1500 
 44 H        6.4520     0.3490     0.3410 H     1 <1>   0.1500 
 45 H        7.9440     3.7890    -1.4890 H     1 <1>   0.4570 
 46 H        6.3950     5.3880    -2.4840 H     1 <1>   0.4000 
 47 H        4.7440     4.9570    -2.3180 H     1 <1>   0.4000 
 48 H        8.8840     0.6700     0.2800 H     1 <1>   0.0800 
 49 H        9.3500     2.3460     0.3650 H     1 <1>   0.0800 
 50 H        9.4070     1.4920    -1.1640 H     1 <1>   0.0800 
@<TRIPOS>BOND
  1   1   2  1   
  2   1   3  1   
  3   2   4  1   
  4   2   5  1   
  5   2   6  1   
  6   3   7  1   
  7   3  27  1   
  8   3  28  1   
  9   4   8  1   
 10   4   9  2   
 11   5  10  1   
 12   5  29  1   
 13   5  30  1   
 14   6  11  1   
 15   6  31  1   
 16   6  32  1   
 17   7   9  1   
 18   7  33  1   
 19   7  34  1   
 20   8  12  1   
 21   8  35  1   
 22   9  13  1   
 23  10  14  1   
 24  10  36  1   
 25  10  37  1   
 26  11  14  1   
 27  11  38  1   
 28  11  39  1   
 29  12  13  ar  
 30  12  15  ar  
 31  13  16  ar  
 32  14  17  1   
 33  15  18  ar  
 34  15  40  1   
 35  16  19  ar  
 36  16  41  1   
 37  17  20  ar  
 38  17  21  ar  
 39  18  19  ar  
 40  18  42  1   
 41  19  43  1   
 42  20  22  ar  
 43  21  23  ar  
 44  21  44  1   
 45  22  24  ar  
 46  22  25  1   
 47  23  24  ar  
 48  23  26  1   
 49  24  45  1   
 50  25  46  1   
 51  25  47  1   
 52  26  48  1   
 53  26  49  1   
 54  26  50  1   
@<TRIPOS>SUBSTRUCTURE
  1 ****   2 GROUP 4 **** **** 0

# MOE 2024.06 (io_trps.svl 2023.06)
