@<TRIPOS>MOLECULE
NONAME
41 42 1 0 0 
SMALL
USER_CHARGES


@<TRIPOS>ATOM
  1 O        0.2970    -0.3490    -0.0770 O.2   1 <1>  -0.5700 
  2 C        1.5000    -0.4210     0.0840 C.2   1 <1>   0.7800 
  3 O        2.2400     0.6730     0.2840 O.3   1 <1>  -0.4300 
  4 N        2.1590    -1.6160     0.0800 N.am  1 <1>  -0.6600 
  5 C        1.7980     2.0120     0.3130 C.3   1 <1>   0.2800 
  6 C        3.5870    -1.7870     0.4300 C.3   1 <1>   0.2200 
  7 C        1.4700    -2.9220     0.0940 C.3   1 <1>   0.1400 
  8 C        0.8180     2.2220     1.4730 C.3   1 <1>  -0.2400 
  9 C        3.0580     2.8420     0.5610 C.3   1 <1>  -0.2400 
 10 C        1.1960     2.4010    -1.0420 C.3   1 <1>  -0.2400 
 11 C        3.7570    -3.2900     0.7490 C.3   1 <1>   0.2000 
 12 C        4.4920    -1.3230    -0.7200 C.3   1 <1>  -0.1600 
 13 C        2.3400    -3.7950     0.9920 C.3   1 <1>  -0.1600 
 14 O        4.2630    -3.9870    -0.3580 O.3   1 <1>  -0.5600 
 15 C        5.8040    -2.1150    -0.6810 C.3   1 <1>  -0.1600 
 16 C        5.5480    -3.6360    -0.8000 C.3   1 <1>   0.2000 
 17 C        6.5840    -4.4980    -0.0580 C.3   1 <1>   0.1200 
 18 O        7.8700    -4.2260    -0.5180 O.3   1 <1>  -0.6800 
 19 H        3.7950    -1.2190     1.3210 H     1 <1>   0.0800 
 20 H        0.4640    -2.8370     0.4690 H     1 <1>   0.0800 
 21 H        1.4530    -3.3160    -0.9080 H     1 <1>   0.0800 
 22 H        0.5920     3.2670     1.5780 H     1 <1>   0.0800 
 23 H        1.2470     1.8720     2.3940 H     1 <1>   0.0800 
 24 H       -0.1090     1.7070     1.2970 H     1 <1>   0.0800 
 25 H        2.8150     3.8880     0.6000 H     1 <1>   0.0800 
 26 H        3.7670     2.6880    -0.2320 H     1 <1>   0.0800 
 27 H        3.5100     2.5630     1.4960 H     1 <1>   0.0800 
 28 H        0.9900     3.4550    -1.0630 H     1 <1>   0.0800 
 29 H        0.2690     1.8860    -1.2170 H     1 <1>   0.0800 
 30 H        1.8820     2.1700    -1.8360 H     1 <1>   0.0800 
 31 H        4.4050    -3.4620     1.5900 H     1 <1>   0.0800 
 32 H        4.0030    -1.5110    -1.6610 H     1 <1>   0.0800 
 33 H        4.6840    -0.2690    -0.6350 H     1 <1>   0.0800 
 34 H        2.2320    -4.8420     0.7740 H     1 <1>   0.0800 
 35 H        2.0640    -3.6170     2.0150 H     1 <1>   0.0800 
 36 H        6.3200    -1.9070     0.2400 H     1 <1>   0.0800 
 37 H        6.4520    -1.8040    -1.4810 H     1 <1>   0.0800 
 38 H        5.5690    -3.9060    -1.8420 H     1 <1>   0.0800 
 39 H        6.3850    -5.5430    -0.2150 H     1 <1>   0.0800 
 40 H        6.5670    -4.2810     0.9950 H     1 <1>   0.0800 
 41 H        7.9760    -4.5200    -1.4440 H     1 <1>   0.4000 
@<TRIPOS>BOND
  1   1   2  2   
  2   2   3  1   
  3   2   4  am  
  4   3   5  1   
  5   4   6  1   
  6   4   7  1   
  7   5   8  1   
  8   5   9  1   
  9   5  10  1   
 10   6  11  1   
 11   6  12  1   
 12   6  19  1   
 13   7  13  1   
 14   7  20  1   
 15   7  21  1   
 16   8  22  1   
 17   8  23  1   
 18   8  24  1   
 19   9  25  1   
 20   9  26  1   
 21   9  27  1   
 22  10  28  1   
 23  10  29  1   
 24  10  30  1   
 25  11  13  1   
 26  11  14  1   
 27  11  31  1   
 28  12  15  1   
 29  12  32  1   
 30  12  33  1   
 31  13  34  1   
 32  13  35  1   
 33  14  16  1   
 34  15  16  1   
 35  15  36  1   
 36  15  37  1   
 37  16  17  1   
 38  16  38  1   
 39  17  18  1   
 40  17  39  1   
 41  17  40  1   
 42  18  41  1   
@<TRIPOS>SUBSTRUCTURE
  1 ****   6 GROUP 4 **** **** 0

# MOE 2024.06 (io_trps.svl 2023.06)
