@<TRIPOS>MOLECULE
NONAME
45 46 1 0 0 
SMALL
USER_CHARGES


@<TRIPOS>ATOM
  1 CL       0.4740    -7.4770     1.6050 Cl    1 <1>  -0.1770 
  2 C       -0.9470    -6.5280     1.2300 C.ar  1 <1>   0.1770 
  3 C       -1.8570    -6.2290     2.2340 C.ar  1 <1>   0.0830 
  4 C       -1.1490    -6.0970    -0.0670 C.ar  1 <1>  -0.1500 
  5 O       -1.6690    -6.6690     3.4930 O.3   1 <1>  -0.5330 
  6 C       -2.9790    -5.4760     1.9350 C.ar  1 <1>  -0.1500 
  7 C       -2.2810    -5.3500    -0.3710 C.ar  1 <1>  -0.1440 
  8 C       -3.1850    -5.0370     0.6370 C.ar  1 <1>  -0.1500 
  9 C       -2.5560    -4.8920    -1.8000 C.3   1 <1>   0.0440 
 10 C       -3.7140    -5.6700    -2.3970 C.2   1 <1>   0.5690 
 11 O       -4.6910    -5.0780    -2.7830 O.2   1 <1>  -0.5700 
 12 N       -3.6400    -7.0240    -2.4350 N.am  1 <1>  -0.7300 
 13 C       -4.7540    -7.9330    -2.7930 C.3   1 <1>   0.2200 
 14 C       -5.3750    -8.5330    -1.5370 C.3   1 <1>  -0.0800 
 15 C       -4.1780    -9.1800    -3.4460 C.3   1 <1>   0.1200 
 16 C       -4.4650    -9.7340    -1.2440 C.3   1 <1>   0.1200 
 17 C       -5.5360    -7.5420    -0.3630 C.3   1 <1>  -0.0550 
 18 O       -3.6840    -9.9390    -2.3860 O.3   1 <1>  -0.5600 
 19 S       -6.4600    -8.1720     1.0380 S.o2  1 <1>   1.3330 
 20 O       -6.5730    -7.1280     2.0320 O.2   1 <1>  -0.6500 
 21 O       -7.6530    -8.8130     0.5330 O.2   1 <1>  -0.6500 
 22 N       -5.4600    -9.3810     1.6900 N.am  1 <1>  -0.8490 
 23 C       -6.2200   -10.3360     2.5000 C.3   1 <1>   0.1160 
 24 C       -4.3430    -8.8470     2.4800 C.3   1 <1>   0.1160 
 25 H       -0.4270    -6.3490    -0.8230 H     1 <1>   0.1500 
 26 H       -0.8070    -7.1180     3.6040 H     1 <1>   0.4500 
 27 H       -3.6860    -5.2390     2.7120 H     1 <1>   0.1500 
 28 H       -4.0630    -4.4530     0.4140 H     1 <1>   0.1500 
 29 H       -1.6900    -5.0290    -2.4200 H     1 <1>   0.0800 
 30 H       -2.8000    -3.8450    -1.8010 H     1 <1>   0.0800 
 31 H       -2.8230    -7.5110    -2.0580 H     1 <1>   0.3700 
 32 H       -5.4720    -7.4310    -3.4210 H     1 <1>   0.0800 
 33 H       -6.3470    -8.9150    -1.7990 H     1 <1>   0.0800 
 34 H       -3.3860    -8.9620    -4.1410 H     1 <1>   0.0800 
 35 H       -4.9500    -9.7510    -3.9320 H     1 <1>   0.0800 
 36 H       -5.0350   -10.6250    -1.0440 H     1 <1>   0.0800 
 37 H       -3.7940    -9.5420    -0.4260 H     1 <1>   0.0800 
 38 H       -6.0440    -6.6720    -0.7330 H     1 <1>   0.0800 
 39 H       -4.5700    -7.2280    -0.0260 H     1 <1>   0.0800 
 40 H       -5.5680   -11.1010     2.8860 H     1 <1>   0.0800 
 41 H       -6.9750   -10.8130     1.8970 H     1 <1>   0.0800 
 42 H       -6.7010    -9.8310     3.3210 H     1 <1>   0.0800 
 43 H       -3.7170    -9.6500     2.8280 H     1 <1>   0.0800 
 44 H       -4.7060    -8.2930     3.3300 H     1 <1>   0.0800 
 45 H       -3.7420    -8.1940     1.8740 H     1 <1>   0.0800 
@<TRIPOS>BOND
  1   1   2  1   
  2   2   3  ar  
  3   2   4  ar  
  4   3   5  1   
  5   3   6  ar  
  6   4   7  ar  
  7   4  25  1   
  8   5  26  1   
  9   6   8  ar  
 10   6  27  1   
 11   7   8  ar  
 12   7   9  1   
 13   8  28  1   
 14   9  10  1   
 15   9  29  1   
 16   9  30  1   
 17  10  11  2   
 18  10  12  am  
 19  12  13  1   
 20  12  31  1   
 21  13  14  1   
 22  13  15  1   
 23  13  32  1   
 24  14  16  1   
 25  14  17  1   
 26  14  33  1   
 27  15  18  1   
 28  15  34  1   
 29  15  35  1   
 30  16  18  1   
 31  16  36  1   
 32  16  37  1   
 33  17  19  1   
 34  17  38  1   
 35  17  39  1   
 36  19  20  2   
 37  19  21  2   
 38  19  22  am  
 39  22  23  1   
 40  22  24  1   
 41  23  40  1   
 42  23  41  1   
 43  23  42  1   
 44  24  43  1   
 45  24  44  1   
 46  24  45  1   
@<TRIPOS>SUBSTRUCTURE
  1 ****  17 GROUP 4 **** **** 0

# MOE 2024.06 (io_trps.svl 2023.06)
