@<TRIPOS>MOLECULE
NONAME
53 57 1 0 0 
SMALL
USER_CHARGES


@<TRIPOS>ATOM
  1 O       -1.6870     0.1130     1.1580 O.2   1 <1>  -0.5700 
  2 C       -1.8210     0.7210     0.1220 C.2   1 <1>   0.5690 
  3 N       -2.2000     0.0870    -1.0240 N.am  1 <1>  -0.7300 
  4 C       -1.5680     2.2440     0.0730 C.3   1 <1>   0.0610 
  5 C       -2.4860    -1.3620    -1.2080 C.3   1 <1>   0.2200 
  6 C       -1.1450     2.8020     1.4580 C.3   1 <1>  -0.1600 
  7 C       -0.4390     2.5720    -0.9380 C.3   1 <1>  -0.1600 
  8 C       -2.8540     2.9900    -0.3670 C.3   1 <1>  -0.1600 
  9 C       -3.5830    -1.8730    -0.2680 C.3   1 <1>  -0.0800 
 10 C       -1.2810    -2.2570    -0.8970 C.3   1 <1>   0.1200 
 11 C       -0.8960     4.3210     1.3950 C.3   1 <1>  -0.0800 
 12 C       -0.1900     4.0900    -1.0140 C.3   1 <1>  -0.0800 
 13 C       -2.6130     4.5100    -0.4420 C.3   1 <1>  -0.0800 
 14 C       -2.8440    -2.9160     0.5730 C.3   1 <1>   0.1200 
 15 C       -4.7550    -2.4840    -1.0550 C.3   1 <1>  -0.0170 
 16 O       -1.8090    -3.3620    -0.2380 O.3   1 <1>  -0.5600 
 17 C        0.2210     4.6070     0.3760 C.3   1 <1>  -0.1600 
 18 C       -2.1890     5.0250     0.9450 C.3   1 <1>  -0.1600 
 19 C       -1.4870     4.7950    -1.4540 C.3   1 <1>  -0.1600 
 20 C       -5.8490    -3.0020    -0.1330 C.ar  1 <1>  -0.1440 
 21 C       -6.0640    -4.3510     0.0600 C.ar  1 <1>  -0.1500 
 22 C       -6.6830    -2.1470     0.5580 C.ar  1 <1>  -0.1500 
 23 C       -7.0740    -4.7690     0.9120 C.ar  1 <1>   0.1600 
 24 C       -7.6630    -2.6680     1.3870 C.ar  1 <1>   0.1600 
 25 N       -7.8790    -3.9590     1.5800 N.ar  1 <1>  -0.6200 
 26 H       -2.2870     0.6520    -1.8690 H     1 <1>   0.3700 
 27 H       -2.7690    -1.5250    -2.2330 H     1 <1>   0.0800 
 28 H       -1.9130     2.5940     2.1830 H     1 <1>   0.0800 
 29 H       -0.2490     2.3060     1.7900 H     1 <1>   0.0800 
 30 H        0.4660     2.0740    -0.6370 H     1 <1>   0.0800 
 31 H       -0.6970     2.2100    -1.9170 H     1 <1>   0.0800 
 32 H       -3.1790     2.6400    -1.3300 H     1 <1>   0.0800 
 33 H       -3.6440     2.7860     0.3350 H     1 <1>   0.0800 
 34 H       -3.9540    -1.0950     0.3750 H     1 <1>   0.0800 
 35 H       -0.5870    -1.7760    -0.2300 H     1 <1>   0.0800 
 36 H       -0.7790    -2.5920    -1.7870 H     1 <1>   0.0800 
 37 H       -0.6040     4.6820     2.3670 H     1 <1>   0.0800 
 38 H        0.5940     4.2960    -1.7230 H     1 <1>   0.0800 
 39 H       -3.5160     5.0080    -0.7520 H     1 <1>   0.0800 
 40 H       -3.4550    -3.7520     0.8650 H     1 <1>   0.0800 
 41 H       -2.4090    -2.4620     1.4480 H     1 <1>   0.0800 
 42 H       -4.3930    -3.2880    -1.6740 H     1 <1>   0.0800 
 43 H       -5.1780    -1.7370    -1.7040 H     1 <1>   0.0800 
 44 H        1.1320     4.1270     0.6900 H     1 <1>   0.0800 
 45 H        0.4090     5.6660     0.3310 H     1 <1>   0.0800 
 46 H       -2.0290     6.0890     0.9060 H     1 <1>   0.0800 
 47 H       -2.9720     4.8400     1.6590 H     1 <1>   0.0800 
 48 H       -1.7780     4.4510    -2.4310 H     1 <1>   0.0800 
 49 H       -1.3190     5.8560    -1.5200 H     1 <1>   0.0800 
 50 H       -5.4560    -5.0830    -0.4400 H     1 <1>   0.1500 
 51 H       -6.5790    -1.0820     0.4620 H     1 <1>   0.1500 
 52 H       -7.2260    -5.8250     1.0510 H     1 <1>   0.1500 
 53 H       -8.3040    -1.9860     1.9190 H     1 <1>   0.1500 
@<TRIPOS>BOND
  1   1   2  2   
  2   2   3  am  
  3   2   4  1   
  4   3   5  1   
  5   3  26  1   
  6   4   6  1   
  7   4   7  1   
  8   4   8  1   
  9   5   9  1   
 10   5  10  1   
 11   5  27  1   
 12   6  11  1   
 13   6  28  1   
 14   6  29  1   
 15   7  12  1   
 16   7  30  1   
 17   7  31  1   
 18   8  13  1   
 19   8  32  1   
 20   8  33  1   
 21   9  14  1   
 22   9  15  1   
 23   9  34  1   
 24  10  16  1   
 25  10  35  1   
 26  10  36  1   
 27  11  17  1   
 28  11  18  1   
 29  11  37  1   
 30  12  17  1   
 31  12  19  1   
 32  12  38  1   
 33  13  18  1   
 34  13  19  1   
 35  13  39  1   
 36  14  16  1   
 37  14  40  1   
 38  14  41  1   
 39  15  20  1   
 40  15  42  1   
 41  15  43  1   
 42  17  44  1   
 43  17  45  1   
 44  18  46  1   
 45  18  47  1   
 46  19  48  1   
 47  19  49  1   
 48  20  21  ar  
 49  20  22  ar  
 50  21  23  ar  
 51  21  50  1   
 52  22  24  ar  
 53  22  51  1   
 54  23  25  ar  
 55  23  52  1   
 56  24  25  ar  
 57  24  53  1   
@<TRIPOS>SUBSTRUCTURE
  1 ****   2 GROUP 4 **** **** 0

# MOE 2024.06 (io_trps.svl 2023.06)
