@<TRIPOS>MOLECULE
NONAME
54 57 1 0 0 
SMALL
USER_CHARGES


@<TRIPOS>ATOM
  1 O       -1.9420     0.6210     3.1500 O.2   1 <1>  -0.5700 
  2 C       -2.1010     1.2420     2.1260 C.2   1 <1>   0.5690 
  3 N       -2.4830     0.6130     0.9710 N.am  1 <1>  -0.6600 
  4 C       -1.8750     2.7480     2.1490 C.3   1 <1>   0.0820 
  5 C       -2.6670     1.2390    -0.3660 C.3   1 <1>   0.1400 
  6 C       -2.6400    -0.8590     0.8770 C.3   1 <1>   0.1400 
  7 C       -0.6800     3.1840     1.3090 C.2   1 <1>  -0.1810 
  8 C       -3.3570     0.1590    -1.1960 C.3   1 <1>   0.2000 
  9 C       -2.8010    -1.1480    -0.6210 C.3   1 <1>  -0.0800 
 10 C       -0.4320     4.4880     0.8090 C.ar  1 <1>   0.0000 
 11 C        0.3420     2.4160     0.8860 C.2   1 <1>  -0.0100 
 12 O       -4.7200     0.2310    -0.9490 O.3   1 <1>  -0.6800 
 13 C       -3.6390    -2.4030    -0.9290 C.3   1 <1>   0.0200 
 14 C       -1.0500     5.7430     0.8740 C.ar  1 <1>  -0.1430 
 15 C        0.7500     4.3630     0.0920 C.ar  1 <1>   0.1400 
 16 O        1.1980     3.1060     0.1520 O.3   1 <1>  -0.2800 
 17 C       -2.9790    -3.6900    -0.4640 C.2   1 <1>  -0.0400 
 18 C       -0.4690     6.8020     0.2040 C.ar  1 <1>  -0.1500 
 19 C       -2.3310     5.9640     1.6620 C.3   1 <1>  -0.0970 
 20 C        1.3460     5.4270    -0.5820 C.ar  1 <1>  -0.1430 
 21 O       -3.6570    -4.8040    -0.5400 O.3   1 <1>  -0.0190 
 22 C       -1.7700    -3.9840     0.0430 C.2   1 <1>  -0.1500 
 23 C        0.7160     6.6590    -0.5250 C.ar  1 <1>  -0.1430 
 24 C        2.6460     5.2050    -1.3450 C.3   1 <1>  -0.0970 
 25 N       -2.9720    -5.8230    -0.1090 N.2   1 <1>  -0.4100 
 26 C       -1.8300    -5.3590     0.2500 C.2   1 <1>   0.1080 
 27 C        1.2810     7.8800    -1.2380 C.3   1 <1>  -0.0970 
 28 C       -0.7100    -6.2020     0.8180 C.3   1 <1>  -0.0590 
 29 H       -2.7690     3.2140     1.7850 H     1 <1>   0.0800 
 30 H       -1.7250     3.0660     3.1640 H     1 <1>   0.0800 
 31 H       -3.2530     2.1410    -0.3190 H     1 <1>   0.0800 
 32 H       -1.7020     1.4590    -0.7890 H     1 <1>   0.0800 
 33 H       -1.7820    -1.3580     1.2930 H     1 <1>   0.0800 
 34 H       -3.5190    -1.1530     1.4250 H     1 <1>   0.0800 
 35 H       -3.1940     0.2690    -2.2550 H     1 <1>   0.0800 
 36 H       -1.8170    -1.2870    -1.0350 H     1 <1>   0.0800 
 37 H        0.5450     1.3710     1.0520 H     1 <1>   0.1500 
 38 H       -4.8650     0.2710     0.0180 H     1 <1>   0.4000 
 39 H       -3.8050    -2.4710    -1.9900 H     1 <1>   0.0800 
 40 H       -4.6030    -2.3270    -0.4560 H     1 <1>   0.0800 
 41 H       -0.9350     7.7700     0.2420 H     1 <1>   0.1500 
 42 H       -2.5650     7.0120     1.7250 H     1 <1>   0.0800 
 43 H       -2.2180     5.5880     2.6630 H     1 <1>   0.0800 
 44 H       -3.1500     5.4640     1.1800 H     1 <1>   0.0800 
 45 H       -0.9270    -3.3530     0.2550 H     1 <1>   0.1500 
 46 H        3.3300     6.0150    -1.1710 H     1 <1>   0.0800 
 47 H        2.4410     5.1360    -2.3980 H     1 <1>   0.0800 
 48 H        3.1260     4.2970    -1.0310 H     1 <1>   0.0800 
 49 H        0.5580     8.6750    -1.2750 H     1 <1>   0.0800 
 50 H        1.5520     7.6310    -2.2480 H     1 <1>   0.0800 
 51 H        2.1520     8.2350    -0.7180 H     1 <1>   0.0800 
 52 H        0.1540    -6.1360     0.1840 H     1 <1>   0.0800 
 53 H       -1.0200    -7.2290     0.8790 H     1 <1>   0.0800 
 54 H       -0.4570    -5.8560     1.8030 H     1 <1>   0.0800 
@<TRIPOS>BOND
  1   1   2  2   
  2   2   3  am  
  3   2   4  1   
  4   3   5  1   
  5   3   6  1   
  6   4   7  1   
  7   4  29  1   
  8   4  30  1   
  9   5   8  1   
 10   5  31  1   
 11   5  32  1   
 12   6   9  1   
 13   6  33  1   
 14   6  34  1   
 15   7  10  1   
 16   7  11  2   
 17   8   9  1   
 18   8  12  1   
 19   8  35  1   
 20   9  13  1   
 21   9  36  1   
 22  10  14  ar  
 23  10  15  ar  
 24  11  16  1   
 25  11  37  1   
 26  12  38  1   
 27  13  17  1   
 28  13  39  1   
 29  13  40  1   
 30  14  18  ar  
 31  14  19  1   
 32  15  16  1   
 33  15  20  ar  
 34  17  21  1   
 35  17  22  2   
 36  18  23  ar  
 37  18  41  1   
 38  19  42  1   
 39  19  43  1   
 40  19  44  1   
 41  20  23  ar  
 42  20  24  1   
 43  21  25  1   
 44  22  26  1   
 45  22  45  1   
 46  23  27  1   
 47  24  46  1   
 48  24  47  1   
 49  24  48  1   
 50  25  26  2   
 51  26  28  1   
 52  27  49  1   
 53  27  50  1   
 54  27  51  1   
 55  28  52  1   
 56  28  53  1   
 57  28  54  1   
@<TRIPOS>SUBSTRUCTURE
  1 ****   5 GROUP 4 **** **** 0

# MOE 2024.06 (io_trps.svl 2023.06)
