@<TRIPOS>MOLECULE
NONAME
39 41 1 0 0 
SMALL
USER_CHARGES


@<TRIPOS>ATOM
  1 S        0.0300    -0.3380    -0.8280 S.3   1 <1>  -0.0800 
  2 C       -1.3360    -0.9670     0.0380 C.2   1 <1>   0.4420 
  3 C       -0.3750     1.2170    -0.1900 C.2   1 <1>   0.1980 
  4 N       -1.9480    -0.0500     0.6970 N.2   1 <1>  -0.3380 
  5 N       -1.5710    -2.3210    -0.0760 N.am  1 <1>  -0.4940 
  6 N       -1.3960     1.1910     0.5620 N.2   1 <1>  -0.3380 
  7 C        0.4780     2.4070    -0.5680 C.3   1 <1>   0.0200 
  8 C       -2.6370    -3.0650     0.3700 C.2   1 <1>   0.5440 
  9 C       -0.1210     3.6660     0.0720 C.3   1 <1>   0.3430 
 10 O       -3.6320    -2.5130     0.7840 O.2   1 <1>  -0.5700 
 11 C       -2.5750    -4.5120     0.3000 C.ar  1 <1>   0.0860 
 12 N        0.6160     4.9220    -0.2960 N.4   1 <1>  -0.9590 
 13 C       -3.7270    -5.2550     0.0160 C.ar  1 <1>  -0.1500 
 14 C       -1.3730    -5.2120     0.5090 C.ar  1 <1>  -0.1500 
 15 C        1.9870     4.9830     0.3070 C.3   1 <1>   0.2630 
 16 C       -0.1830     6.1120     0.1360 C.3   1 <1>   0.2630 
 17 C       -3.6420    -6.6280    -0.0670 C.ar  1 <1>   0.0820 
 18 C       -1.3030    -6.5950     0.4230 C.ar  1 <1>  -0.1500 
 19 O       -4.6150    -7.5070    -0.3320 O.3   1 <1>  -0.3620 
 20 C       -2.4620    -7.2840     0.1280 C.ar  1 <1>   0.0820 
 21 C       -4.0190    -8.8030    -0.2960 C.3   1 <1>   0.4000 
 22 O       -2.6380    -8.5980    -0.0050 O.3   1 <1>  -0.3630 
 23 H       -0.8770    -2.8390    -0.6060 H     1 <1>   0.3700 
 24 H        0.4840     2.5020    -1.6380 H     1 <1>   0.0800 
 25 H        1.4770     2.2360    -0.2130 H     1 <1>   0.0800 
 26 H       -0.1290     3.5470     1.1440 H     1 <1>   0.0800 
 27 H       -1.1480     3.7470    -0.2490 H     1 <1>   0.0800 
 28 H        0.7030     4.9630    -1.3240 H     1 <1>   0.4500 
 29 H       -4.6720    -4.7630    -0.1360 H     1 <1>   0.1500 
 30 H       -0.4780    -4.6690     0.7570 H     1 <1>   0.1500 
 31 H        1.9260     4.9280     1.3820 H     1 <1>   0.0800 
 32 H        2.4730     5.9060     0.0370 H     1 <1>   0.0800 
 33 H        2.5930     4.1650    -0.0460 H     1 <1>   0.0800 
 34 H       -0.3070     6.1130     1.2070 H     1 <1>   0.0800 
 35 H       -1.1590     6.0950    -0.3220 H     1 <1>   0.0800 
 36 H        0.3150     7.0240    -0.1540 H     1 <1>   0.0800 
 37 H       -0.3840    -7.1310     0.5830 H     1 <1>   0.1500 
 38 H       -4.1210    -9.2750    -1.2560 H     1 <1>   0.0800 
 39 H       -4.4700    -9.3860     0.4870 H     1 <1>   0.0800 
@<TRIPOS>BOND
  1   1   2  1   
  2   1   3  1   
  3   2   4  2   
  4   2   5  1   
  5   3   6  2   
  6   3   7  1   
  7   4   6  1   
  8   5   8  am  
  9   5  23  1   
 10   7   9  1   
 11   7  24  1   
 12   7  25  1   
 13   8  10  2   
 14   8  11  1   
 15   9  12  1   
 16   9  26  1   
 17   9  27  1   
 18  11  13  ar  
 19  11  14  ar  
 20  12  15  1   
 21  12  16  1   
 22  12  28  1   
 23  13  17  ar  
 24  13  29  1   
 25  14  18  ar  
 26  14  30  1   
 27  15  31  1   
 28  15  32  1   
 29  15  33  1   
 30  16  34  1   
 31  16  35  1   
 32  16  36  1   
 33  17  19  1   
 34  17  20  ar  
 35  18  20  ar  
 36  18  37  1   
 37  19  21  1   
 38  20  22  1   
 39  21  22  1   
 40  21  38  1   
 41  21  39  1   
@<TRIPOS>SUBSTRUCTURE
  1 ****   5 GROUP 4 **** **** 0

# MOE 2024.06 (io_trps.svl 2023.06)
