@<TRIPOS>MOLECULE
NONAME
45 46 1 0 0 
SMALL
USER_CHARGES


@<TRIPOS>ATOM
  1 S       -0.0250    -0.8340     0.9070 S.3   1 <1>  -0.0800 
  2 C       -1.7030    -0.6550     0.5120 C.2   1 <1>   0.4420 
  3 C       -0.0710     0.7870     1.5100 C.2   1 <1>   0.1980 
  4 N       -2.1540     0.5040     0.8280 N.2   1 <1>  -0.3380 
  5 N       -2.3180    -1.7380    -0.0720 N.am  1 <1>  -0.4940 
  6 N       -1.2170     1.3210     1.3980 N.2   1 <1>  -0.3380 
  7 C        1.2020     1.3770     2.0750 C.3   1 <1>   0.0200 
  8 C       -3.6040    -1.9270    -0.4790 C.2   1 <1>   0.5690 
  9 C        2.1210     1.8230     0.9420 C.3   1 <1>   0.1200 
 10 O       -4.4810    -1.1070    -0.3790 O.2   1 <1>  -0.5700 
 11 C       -3.9090    -3.2870    -1.1060 C.3   1 <1>   0.1710 
 12 O        3.3180     2.3060     1.5060 O.3   1 <1>  -0.3630 
 13 N       -2.8930    -4.3350    -0.7710 N.3   1 <1>  -0.8100 
 14 C        4.3440     2.7470     0.7300 C.ar  1 <1>   0.0820 
 15 C       -2.9360    -5.4290    -1.7490 C.3   1 <1>   0.0300 
 16 C       -3.1140    -4.8680     0.5830 C.3   1 <1>   0.0300 
 17 C        5.5130     3.1420     1.3730 C.ar  1 <1>  -0.1440 
 18 C        4.2660     2.8150    -0.6610 C.ar  1 <1>  -0.1500 
 19 C        6.5860     3.5940     0.6220 C.ar  1 <1>  -0.1500 
 20 C        5.6250     3.0820     2.8890 C.3   1 <1>  -0.0970 
 21 C        5.3420     3.2690    -1.4050 C.ar  1 <1>  -0.1440 
 22 C        6.5020     3.6560    -0.7570 C.ar  1 <1>  -0.1500 
 23 C        5.2570     3.3410    -2.9190 C.3   1 <1>  -0.0970 
 24 H       -1.7580    -2.5840    -0.2060 H     1 <1>   0.3700 
 25 H        1.6970     0.6430     2.6840 H     1 <1>   0.0800 
 26 H        0.9520     2.2270     2.6850 H     1 <1>   0.0800 
 27 H        1.6630     2.6160     0.3760 H     1 <1>   0.0800 
 28 H        2.3620     0.9950     0.2980 H     1 <1>   0.0800 
 29 H       -3.9320    -3.1390    -2.1710 H     1 <1>   0.0800 
 30 H       -4.8890    -3.6060    -0.7980 H     1 <1>   0.0800 
 31 H       -2.7270    -5.0510    -2.7360 H     1 <1>   0.0800 
 32 H       -3.9060    -5.8980    -1.7520 H     1 <1>   0.0800 
 33 H       -2.1910    -6.1680    -1.5070 H     1 <1>   0.0800 
 34 H       -3.0730    -4.0770     1.3120 H     1 <1>   0.0800 
 35 H       -2.3490    -5.5880     0.8220 H     1 <1>   0.0800 
 36 H       -4.0750    -5.3490     0.6480 H     1 <1>   0.0800 
 37 H        3.3760     2.5190    -1.1800 H     1 <1>   0.1500 
 38 H        7.4960     3.9010     1.1070 H     1 <1>   0.1500 
 39 H        4.8680     3.7030     3.3340 H     1 <1>   0.0800 
 40 H        6.5880     3.4210     3.2230 H     1 <1>   0.0800 
 41 H        5.4820     2.0700     3.2240 H     1 <1>   0.0800 
 42 H        7.3460     4.0080    -1.3240 H     1 <1>   0.1500 
 43 H        4.2360     3.4460    -3.2380 H     1 <1>   0.0800 
 44 H        5.6650     2.4430    -3.3490 H     1 <1>   0.0800 
 45 H        5.8140     4.1850    -3.2850 H     1 <1>   0.0800 
@<TRIPOS>BOND
  1   1   2  1   
  2   1   3  1   
  3   2   4  2   
  4   2   5  1   
  5   3   6  2   
  6   3   7  1   
  7   4   6  1   
  8   5   8  am  
  9   5  24  1   
 10   7   9  1   
 11   7  25  1   
 12   7  26  1   
 13   8  10  2   
 14   8  11  1   
 15   9  12  1   
 16   9  27  1   
 17   9  28  1   
 18  11  13  1   
 19  11  29  1   
 20  11  30  1   
 21  12  14  1   
 22  13  15  1   
 23  13  16  1   
 24  14  17  ar  
 25  14  18  ar  
 26  15  31  1   
 27  15  32  1   
 28  15  33  1   
 29  16  34  1   
 30  16  35  1   
 31  16  36  1   
 32  17  19  ar  
 33  17  20  1   
 34  18  21  ar  
 35  18  37  1   
 36  19  22  ar  
 37  19  38  1   
 38  20  39  1   
 39  20  40  1   
 40  20  41  1   
 41  21  22  ar  
 42  21  23  1   
 43  22  42  1   
 44  23  43  1   
 45  23  44  1   
 46  23  45  1   
@<TRIPOS>SUBSTRUCTURE
  1 ****   3 GROUP 4 **** **** 0

# MOE 2024.06 (io_trps.svl 2023.06)
