@<TRIPOS>MOLECULE
NONAME
54 56 1 0 0 
SMALL
USER_CHARGES


@<TRIPOS>ATOM
  1 O       -3.8750    -8.0810     2.4660 O.co2 1 <1>  -0.9000 
  2 C       -4.0980    -6.9540     2.0050 C.2   1 <1>   0.9060 
  3 O       -4.9520    -6.8960     1.1070 O.co2 1 <1>  -0.9000 
  4 C       -3.3540    -5.7020     2.5060 C.3   1 <1>   0.0140 
  5 O       -2.0400    -5.5060     1.9510 O.3   1 <1>  -0.3630 
  6 C       -1.9030    -5.9210     0.6800 C.ar  1 <1>   0.0830 
  7 C       -2.6360    -5.3150    -0.3260 C.ar  1 <1>  -0.1500 
  8 C       -1.1610    -7.0620     0.4340 C.ar  1 <1>  -0.1500 
  9 C       -2.8010    -5.9750    -1.5260 C.ar  1 <1>  -0.1500 
 10 C       -1.3200    -7.7230    -0.7680 C.ar  1 <1>  -0.1500 
 11 C       -2.2260    -7.2270    -1.6970 C.ar  1 <1>  -0.1440 
 12 C       -2.7830    -8.1410    -2.7600 C.3   1 <1>   0.4870 
 13 N       -4.1510    -8.4920    -2.2460 N.4   1 <1>  -0.9590 
 14 C       -4.1200    -9.0480    -0.8300 C.3   1 <1>   0.3430 
 15 C       -4.9710    -9.3170    -3.1760 C.3   1 <1>   0.3430 
 16 C       -5.5340    -9.3040    -0.2560 C.3   1 <1>   0.4230 
 17 C       -6.3830    -9.4670    -2.5930 C.3   1 <1>  -0.1600 
 18 N       -5.5570    -9.7760     1.1710 N.4   1 <1>  -0.9590 
 19 C       -6.4000   -10.1690    -1.2030 C.3   1 <1>   0.0000 
 20 C       -6.9170   -10.0450     1.7190 C.3   1 <1>   0.3430 
 21 C       -4.5510   -10.7840     1.6200 C.3   1 <1>   0.2630 
 22 C       -7.8600   -10.2260    -0.6620 C.3   1 <1>  -0.1600 
 23 C       -5.8060   -11.6030    -1.2910 C.3   1 <1>   0.1200 
 24 C       -8.0210    -9.6090     0.7460 C.3   1 <1>  -0.1600 
 25 O       -6.2550   -12.2600    -2.4220 O.3   1 <1>  -0.6800 
 26 H       -3.2470    -5.7680     3.5710 H     1 <1>   0.0800 
 27 H       -3.9420    -4.8370     2.2670 H     1 <1>   0.0800 
 28 H       -3.1250    -4.3760    -0.1370 H     1 <1>   0.1500 
 29 H       -0.5260    -7.4520     1.2100 H     1 <1>   0.1500 
 30 H       -3.4330    -5.5310    -2.2760 H     1 <1>   0.1500 
 31 H       -0.7950    -8.6490    -0.9280 H     1 <1>   0.1500 
 32 H       -2.1710    -9.0220    -2.8640 H     1 <1>   0.0800 
 33 H       -2.8430    -7.6270    -3.7050 H     1 <1>   0.0800 
 34 H       -4.6080    -7.5740    -2.1340 H     1 <1>   0.4500 
 35 H       -3.5560    -9.9620    -0.8170 H     1 <1>   0.0800 
 36 H       -3.6390    -8.3430    -0.1710 H     1 <1>   0.0800 
 37 H       -5.0290    -8.8400    -4.1420 H     1 <1>   0.0800 
 38 H       -4.5270   -10.2920    -3.3060 H     1 <1>   0.0800 
 39 H       -6.0020    -8.3330    -0.2420 H     1 <1>   0.0800 
 40 H       -6.8300    -8.4900    -2.5180 H     1 <1>   0.0800 
 41 H       -6.9830   -10.0200    -3.2960 H     1 <1>   0.0800 
 42 H       -5.2140    -8.9010     1.6710 H     1 <1>   0.4500 
 43 H       -7.0230   -11.1010     1.9060 H     1 <1>   0.0800 
 44 H       -7.0330    -9.5270     2.6580 H     1 <1>   0.0800 
 45 H       -4.7220   -11.7390     1.1540 H     1 <1>   0.0800 
 46 H       -4.6100   -10.8990     2.6900 H     1 <1>   0.0800 
 47 H       -3.5560   -10.4380     1.3900 H     1 <1>   0.0800 
 48 H       -8.5340    -9.7110    -1.3260 H     1 <1>   0.0800 
 49 H       -8.2000   -11.2470    -0.6250 H     1 <1>   0.0800 
 50 H       -6.0740   -12.1940    -0.4320 H     1 <1>   0.0800 
 51 H       -4.7340   -11.5820    -1.3630 H     1 <1>   0.0800 
 52 H       -8.9760    -9.8910     1.1530 H     1 <1>   0.0800 
 53 H       -8.0170    -8.5330     0.6830 H     1 <1>   0.0800 
 54 H       -7.1760   -12.5780    -2.3170 H     1 <1>   0.4000 
@<TRIPOS>BOND
  1   1   2  ar  
  2   2   3  ar  
  3   2   4  1   
  4   4   5  1   
  5   4  26  1   
  6   4  27  1   
  7   5   6  1   
  8   6   7  ar  
  9   6   8  ar  
 10   7   9  ar  
 11   7  28  1   
 12   8  10  ar  
 13   8  29  1   
 14   9  11  ar  
 15   9  30  1   
 16  10  11  ar  
 17  10  31  1   
 18  11  12  1   
 19  12  13  1   
 20  12  32  1   
 21  12  33  1   
 22  13  14  1   
 23  13  15  1   
 24  13  34  1   
 25  14  16  1   
 26  14  35  1   
 27  14  36  1   
 28  15  17  1   
 29  15  37  1   
 30  15  38  1   
 31  16  18  1   
 32  16  19  1   
 33  16  39  1   
 34  17  19  1   
 35  17  40  1   
 36  17  41  1   
 37  18  20  1   
 38  18  21  1   
 39  18  42  1   
 40  19  22  1   
 41  19  23  1   
 42  20  24  1   
 43  20  43  1   
 44  20  44  1   
 45  21  45  1   
 46  21  46  1   
 47  21  47  1   
 48  22  24  1   
 49  22  48  1   
 50  22  49  1   
 51  23  25  1   
 52  23  50  1   
 53  23  51  1   
 54  24  52  1   
 55  24  53  1   
 56  25  54  1   
@<TRIPOS>SUBSTRUCTURE
  1 ****  14 GROUP 4 **** **** 0

# MOE 2024.06 (io_trps.svl 2023.06)
