@<TRIPOS>MOLECULE
NONAME
58 61 1 0 0 
SMALL
USER_CHARGES


@<TRIPOS>ATOM
  1 O       -0.1270     0.7830    -1.2610 O.2   1 <1>  -0.5700 
  2 C       -1.2010     1.1470    -0.8150 C.2   1 <1>   0.7150 
  3 N       -2.2510     0.2550    -0.8080 N.am  1 <1>  -0.6600 
  4 C       -1.3450     2.4790    -0.2950 C.2   1 <1>  -0.2370 
  5 C       -2.1560    -1.0200    -1.5790 C.3   1 <1>   0.1400 
  6 C       -3.4270     0.4230     0.0940 C.3   1 <1>   0.1400 
  7 N       -0.3800     3.1330     0.4010 N.pl3 1 <1>   0.3140 
  8 C       -2.3860     3.3550    -0.3650 C.2   1 <1>  -0.1500 
  9 C       -3.5480    -1.5400    -1.9510 C.3   1 <1>  -0.1600 
 10 C       -3.9850    -0.9410     0.4950 C.3   1 <1>  -0.1600 
 11 N       -0.7730     4.3560     0.7890 N.2   1 <1>  -0.7070 
 12 C        0.9620     2.6410     0.7490 C.3   1 <1>   0.0160 
 13 C       -1.9750     4.4830     0.3190 C.2   1 <1>   0.1080 
 14 C       -4.4950    -1.7050    -0.7410 C.3   1 <1>   0.4240 
 15 C       -2.8020     5.7400     0.5130 C.3   1 <1>   0.0210 
 16 O       -5.6950    -1.0840    -1.1410 O.3   1 <1>  -0.5600 
 17 C       -4.7020    -3.2020    -0.4210 C.ar  1 <1>  -0.1440 
 18 C       -2.4560     6.7960    -0.5410 C.3   1 <1>  -0.2400 
 19 C       -6.8800    -1.4830    -0.5220 C.3   1 <1>   0.1200 
 20 C       -5.9570    -3.7910    -0.4840 C.ar  1 <1>  -0.1440 
 21 C       -3.6220    -3.9970    -0.0610 C.ar  1 <1>  -0.1500 
 22 C       -7.1540    -2.9440    -0.8660 C.3   1 <1>  -0.0170 
 23 C       -6.1200    -5.1380    -0.2060 C.ar  1 <1>  -0.1500 
 24 C       -3.7650    -5.3430     0.2330 C.ar  1 <1>   0.0820 
 25 C       -5.0350    -5.9360     0.1470 C.ar  1 <1>   0.0820 
 26 O       -2.6030    -5.9690     0.5820 O.3   1 <1>  -0.3620 
 27 O       -5.1890    -7.2710     0.3900 O.3   1 <1>  -0.3620 
 28 C       -2.5910    -7.1170     1.4000 C.3   1 <1>   0.0400 
 29 C       -6.3830    -7.9570     0.0810 C.3   1 <1>   0.0400 
 30 H       -1.6320    -1.7480    -0.9850 H     1 <1>   0.0800 
 31 H       -1.5860    -0.8570    -2.4790 H     1 <1>   0.0800 
 32 H       -4.1880     0.9870    -0.4180 H     1 <1>   0.0800 
 33 H       -3.1350     0.9630     0.9790 H     1 <1>   0.0800 
 34 H       -3.3340     3.2200    -0.8530 H     1 <1>   0.1500 
 35 H       -3.4420    -2.4800    -2.4610 H     1 <1>   0.0800 
 36 H       -3.9710    -0.8470    -2.6560 H     1 <1>   0.0800 
 37 H       -4.7720    -0.8210     1.2130 H     1 <1>   0.0800 
 38 H       -3.2030    -1.4930     0.9820 H     1 <1>   0.0800 
 39 H        0.8790     1.6800     1.2190 H     1 <1>   0.0800 
 40 H        1.4310     3.3350     1.4210 H     1 <1>   0.0800 
 41 H        1.5470     2.5580    -0.1480 H     1 <1>   0.0800 
 42 H       -2.6070     6.1320     1.4950 H     1 <1>   0.0800 
 43 H       -3.8470     5.4930     0.4520 H     1 <1>   0.0800 
 44 H       -1.4130     7.0490    -0.4720 H     1 <1>   0.0800 
 45 H       -3.0410     7.6840    -0.3840 H     1 <1>   0.0800 
 46 H       -2.6530     6.4150    -1.5270 H     1 <1>   0.0800 
 47 H       -7.6710    -0.8550    -0.8900 H     1 <1>   0.0800 
 48 H       -6.7900    -1.3490     0.5420 H     1 <1>   0.0800 
 49 H       -2.6350    -3.5790     0.0010 H     1 <1>   0.1500 
 50 H       -7.3410    -3.0330    -1.9210 H     1 <1>   0.0800 
 51 H       -8.0300    -3.2730    -0.3360 H     1 <1>   0.0800 
 52 H       -7.1070    -5.5510    -0.2710 H     1 <1>   0.1500 
 53 H       -1.5960    -7.2440     1.7850 H     1 <1>   0.0800 
 54 H       -2.8610    -7.9700     0.8040 H     1 <1>   0.0800 
 55 H       -3.2850    -6.9800     2.2100 H     1 <1>   0.0800 
 56 H       -6.2210    -9.0050     0.2610 H     1 <1>   0.0800 
 57 H       -6.6190    -7.7980    -0.9560 H     1 <1>   0.0800 
 58 H       -7.1690    -7.5960     0.7190 H     1 <1>   0.0800 
@<TRIPOS>BOND
  1   1   2  2   
  2   2   3  am  
  3   2   4  1   
  4   3   5  1   
  5   3   6  1   
  6   4   7  1   
  7   4   8  2   
  8   5   9  1   
  9   5  30  1   
 10   5  31  1   
 11   6  10  1   
 12   6  32  1   
 13   6  33  1   
 14   7  11  1   
 15   7  12  1   
 16   8  13  1   
 17   8  34  1   
 18   9  14  1   
 19   9  35  1   
 20   9  36  1   
 21  10  14  1   
 22  10  37  1   
 23  10  38  1   
 24  11  13  2   
 25  12  39  1   
 26  12  40  1   
 27  12  41  1   
 28  13  15  1   
 29  14  16  1   
 30  14  17  1   
 31  15  18  1   
 32  15  42  1   
 33  15  43  1   
 34  16  19  1   
 35  17  20  ar  
 36  17  21  ar  
 37  18  44  1   
 38  18  45  1   
 39  18  46  1   
 40  19  22  1   
 41  19  47  1   
 42  19  48  1   
 43  20  22  1   
 44  20  23  ar  
 45  21  24  ar  
 46  21  49  1   
 47  22  50  1   
 48  22  51  1   
 49  23  25  ar  
 50  23  52  1   
 51  24  25  ar  
 52  24  26  1   
 53  25  27  1   
 54  26  28  1   
 55  27  29  1   
 56  28  53  1   
 57  28  54  1   
 58  28  55  1   
 59  29  56  1   
 60  29  57  1   
 61  29  58  1   
@<TRIPOS>SUBSTRUCTURE
  1 ****  10 GROUP 4 **** **** 0

# MOE 2024.06 (io_trps.svl 2023.06)
