@<TRIPOS>MOLECULE
NONAME
48 50 1 0 0 
SMALL
USER_CHARGES


@<TRIPOS>ATOM
  1 O        2.4800    -0.8030     2.0610 O.co2 1 <1>  -0.9000 
  2 C        2.8960    -0.4680     0.9540 C.2   1 <1>   0.9060 
  3 O        3.8980    -1.0100     0.4570 O.co2 1 <1>  -0.9000 
  4 C        2.3340     0.8130     0.3090 C.3   1 <1>  -0.1060 
  5 C        3.0410     1.1590    -1.0390 C.3   1 <1>   0.2000 
  6 C        2.6710     1.9740     1.2820 C.3   1 <1>  -0.1600 
  7 C        0.8080     0.6330     0.1200 C.3   1 <1>  -0.0160 
  8 O        3.1760     0.0150    -1.8100 O.3   1 <1>  -0.6800 
  9 C        4.4370     1.8020    -0.8390 C.3   1 <1>   0.3430 
 10 C        4.1760     2.0040     1.6220 C.3   1 <1>   0.3430 
 11 C        0.0880     1.8560    -0.4400 C.ar  1 <1>  -0.1440 
 12 N        5.0040     1.4540     0.5010 N.4   1 <1>  -0.9590 
 13 C       -0.1100     1.9880    -1.8070 C.ar  1 <1>  -0.1500 
 14 C       -0.3930     2.8400     0.4100 C.ar  1 <1>  -0.1500 
 15 C        6.4640     1.6850     0.6090 C.3   1 <1>   0.4860 
 16 C       -0.7620     3.0970    -2.3180 C.ar  1 <1>  -0.1500 
 17 C       -1.0450     3.9500    -0.0980 C.ar  1 <1>  -0.1500 
 18 C        6.7950     3.1650     0.6310 C.ar  1 <1>  -0.1430 
 19 C       -1.2280     4.0800    -1.4640 C.ar  1 <1>  -0.1500 
 20 C        7.0360     3.8420    -0.5650 C.ar  1 <1>   0.4100 
 21 C        6.8680     3.8620     1.8180 C.ar  1 <1>  -0.1500 
 22 N        7.2900     5.1280    -0.6540 N.ar  1 <1>  -0.6200 
 23 N        7.0340     3.2240    -1.7720 N.pl3 1 <1>  -0.9000 
 24 C        7.1520     5.2110     1.7350 C.ar  1 <1>  -0.1500 
 25 C        7.3460     5.7850     0.4920 C.ar  1 <1>   0.1600 
 26 H        2.4570     1.8510    -1.6170 H     1 <1>   0.0800 
 27 H        2.1200     1.8570     2.1990 H     1 <1>   0.0800 
 28 H        2.3860     2.9180     0.8540 H     1 <1>   0.0800 
 29 H        0.6360    -0.2060    -0.5330 H     1 <1>   0.0800 
 30 H        0.3620     0.3740     1.0660 H     1 <1>   0.0800 
 31 H        3.5120    -0.7030    -1.1990 H     1 <1>   0.4000 
 32 H        4.3450     2.8720    -0.9080 H     1 <1>   0.0800 
 33 H        5.0910     1.4700    -1.6280 H     1 <1>   0.0800 
 34 H        4.3420     1.4020     2.5020 H     1 <1>   0.0800 
 35 H        4.4650     3.0180     1.8430 H     1 <1>   0.0800 
 36 H        4.8620     0.4110     0.5500 H     1 <1>   0.4500 
 37 H        0.2460     1.2240    -2.4770 H     1 <1>   0.1500 
 38 H       -0.2640     2.7420     1.4740 H     1 <1>   0.1500 
 39 H        6.8310     1.2240     1.5110 H     1 <1>   0.0800 
 40 H        6.9610     1.2180    -0.2260 H     1 <1>   0.0800 
 41 H       -0.9080     3.1920    -3.3800 H     1 <1>   0.1500 
 42 H       -1.4140     4.7100     0.5680 H     1 <1>   0.1500 
 43 H       -1.7350     4.9420    -1.8600 H     1 <1>   0.1500 
 44 H        6.7140     3.3930     2.7760 H     1 <1>   0.1500 
 45 H        6.9040     3.9370    -2.4980 H     1 <1>   0.4000 
 46 H        7.9230     2.7660    -1.9860 H     1 <1>   0.4000 
 47 H        7.2210     5.8140     2.6240 H     1 <1>   0.1500 
 48 H        7.5610     6.8400     0.4370 H     1 <1>   0.1500 
@<TRIPOS>BOND
  1   1   2  ar  
  2   2   3  ar  
  3   2   4  1   
  4   4   5  1   
  5   4   6  1   
  6   4   7  1   
  7   5   8  1   
  8   5   9  1   
  9   5  26  1   
 10   6  10  1   
 11   6  27  1   
 12   6  28  1   
 13   7  11  1   
 14   7  29  1   
 15   7  30  1   
 16   8  31  1   
 17   9  12  1   
 18   9  32  1   
 19   9  33  1   
 20  10  12  1   
 21  10  34  1   
 22  10  35  1   
 23  11  13  ar  
 24  11  14  ar  
 25  12  15  1   
 26  12  36  1   
 27  13  16  ar  
 28  13  37  1   
 29  14  17  ar  
 30  14  38  1   
 31  15  18  1   
 32  15  39  1   
 33  15  40  1   
 34  16  19  ar  
 35  16  41  1   
 36  17  19  ar  
 37  17  42  1   
 38  18  20  ar  
 39  18  21  ar  
 40  19  43  1   
 41  20  22  ar  
 42  20  23  1   
 43  21  24  ar  
 44  21  44  1   
 45  22  25  ar  
 46  23  45  1   
 47  23  46  1   
 48  24  25  ar  
 49  24  47  1   
 50  25  48  1   
@<TRIPOS>SUBSTRUCTURE
  1 ****   9 GROUP 4 **** **** 0

# MOE 2024.06 (io_trps.svl 2023.06)
