@<TRIPOS>MOLECULE
NONAME
50 54 1 0 0 
SMALL
USER_CHARGES


@<TRIPOS>ATOM
  1 F       -2.1850    -0.9250     1.2290 F     1 <1>  -0.3400 
  2 C       -3.1480    -0.0870     0.8470 C.3   1 <1>   1.2010 
  3 F       -2.9350     0.1510    -0.4460 F     1 <1>  -0.3400 
  4 F       -2.8930     1.0620     1.4710 F     1 <1>  -0.3400 
  5 C       -4.5770    -0.6420     1.1320 C.2   1 <1>   0.3350 
  6 N       -5.4570    -0.0770     1.8760 N.2   1 <1>  -0.4100 
  7 N       -5.0300    -1.7910     0.6080 N.2   1 <1>  -0.5650 
  8 O       -6.5190    -0.8220     1.8730 O.3   1 <1>  -0.0190 
  9 C       -6.2100    -1.8240     1.0900 C.2   1 <1>   0.2980 
 10 C       -7.2490    -2.9200     0.8520 C.3   1 <1>   0.2900 
 11 N       -8.2760    -2.5590    -0.1540 N.3   1 <1>  -0.8100 
 12 C       -9.2280    -1.5300     0.3120 C.3   1 <1>   0.1100 
 13 C       -8.9870    -3.7580    -0.6510 C.3   1 <1>   0.1100 
 14 C      -10.0110    -0.9380    -0.8820 C.3   1 <1>   0.1440 
 15 C      -10.3160    -3.4200    -1.3560 C.3   1 <1>  -0.1600 
 16 C      -11.2670    -0.2830    -0.3310 C.ar  1 <1>   0.1660 
 17 C      -10.3060    -2.0100    -1.9620 C.3   1 <1>  -0.1600 
 18 C       -9.2570     0.2700    -1.4960 C.3   1 <1>  -0.1600 
 19 N      -12.3370    -0.9140     0.0880 N.ar  1 <1>  -0.6200 
 20 C      -11.1500     1.0730    -0.3000 C.ar  1 <1>  -0.1440 
 21 C       -9.8120     1.5350    -0.8200 C.3   1 <1>  -0.0170 
 22 C      -13.3320    -0.1420     0.5440 C.ar  1 <1>   0.6200 
 23 C      -12.2110     1.7940     0.1830 C.ar  1 <1>   0.1600 
 24 N      -13.3030     1.1980     0.6040 N.ar  1 <1>  -0.6200 
 25 C      -14.5380    -0.8120     1.0130 C.ar  1 <1>   0.0000 
 26 C      -14.5030    -2.1130     1.5260 C.ar  1 <1>  -0.1500 
 27 C      -15.7890    -0.1880     0.9710 C.ar  1 <1>  -0.1500 
 28 C      -15.6450    -2.7520     1.9710 C.ar  1 <1>  -0.1500 
 29 C      -16.9360    -0.8210     1.4150 C.ar  1 <1>  -0.1500 
 30 C      -16.8670    -2.1070     1.9170 C.ar  1 <1>  -0.1500 
 31 H       -7.7220    -3.1740     1.7840 H     1 <1>   0.0800 
 32 H       -6.7170    -3.7880     0.5030 H     1 <1>   0.0800 
 33 H       -8.7210    -0.7320     0.8210 H     1 <1>   0.0800 
 34 H       -9.9160    -1.9780     1.0100 H     1 <1>   0.0800 
 35 H       -9.1920    -4.4330     0.1630 H     1 <1>   0.0800 
 36 H       -8.3390    -4.2630    -1.3480 H     1 <1>   0.0800 
 37 H      -11.1190    -3.4880    -0.6420 H     1 <1>   0.0800 
 38 H      -10.5100    -4.1510    -2.1210 H     1 <1>   0.0800 
 39 H       -9.5330    -1.9870    -2.7100 H     1 <1>   0.0800 
 40 H      -11.2440    -1.8020    -2.4470 H     1 <1>   0.0800 
 41 H       -9.4790     0.3340    -2.5470 H     1 <1>   0.0800 
 42 H       -8.1900     0.1810    -1.3800 H     1 <1>   0.0800 
 43 H       -9.9120     2.3470    -1.5200 H     1 <1>   0.0800 
 44 H       -9.1850     1.8330     0.0030 H     1 <1>   0.0800 
 45 H      -12.1640     2.8680     0.2270 H     1 <1>   0.1500 
 46 H      -13.5610    -2.6310     1.5770 H     1 <1>   0.1500 
 47 H      -15.8630     0.8130     0.5830 H     1 <1>   0.1500 
 48 H      -15.5840    -3.7540     2.3610 H     1 <1>   0.1500 
 49 H      -17.8830    -0.3110     1.3690 H     1 <1>   0.1500 
 50 H      -17.7570    -2.6020     2.2630 H     1 <1>   0.1500 
@<TRIPOS>BOND
  1   1   2  1   
  2   2   3  1   
  3   2   4  1   
  4   2   5  1   
  5   5   6  2   
  6   5   7  1   
  7   6   8  1   
  8   7   9  2   
  9   8   9  1   
 10   9  10  1   
 11  10  11  1   
 12  10  31  1   
 13  10  32  1   
 14  11  12  1   
 15  11  13  1   
 16  12  14  1   
 17  12  33  1   
 18  12  34  1   
 19  13  15  1   
 20  13  35  1   
 21  13  36  1   
 22  14  16  1   
 23  14  17  1   
 24  14  18  1   
 25  15  17  1   
 26  15  37  1   
 27  15  38  1   
 28  16  19  ar  
 29  16  20  ar  
 30  17  39  1   
 31  17  40  1   
 32  18  21  1   
 33  18  41  1   
 34  18  42  1   
 35  19  22  ar  
 36  20  21  1   
 37  20  23  ar  
 38  21  43  1   
 39  21  44  1   
 40  22  24  ar  
 41  22  25  1   
 42  23  24  ar  
 43  23  45  1   
 44  25  26  ar  
 45  25  27  ar  
 46  26  28  ar  
 47  26  46  1   
 48  27  29  ar  
 49  27  47  1   
 50  28  30  ar  
 51  28  48  1   
 52  29  30  ar  
 53  29  49  1   
 54  30  50  1   
@<TRIPOS>SUBSTRUCTURE
  1 ****  12 GROUP 4 **** **** 0

# MOE 2024.06 (io_trps.svl 2023.06)
