@<TRIPOS>MOLECULE
NONAME
38 40 1 0 0 
SMALL
USER_CHARGES


@<TRIPOS>ATOM
  1 CL       0.4950     1.6100    -2.9630 Cl    1 <1>  -0.1770 
  2 C       -0.0670     3.0970    -2.2400 C.ar  1 <1>   0.1770 
  3 C        0.5960     3.6050    -1.1390 C.ar  1 <1>  -0.1500 
  4 C       -1.1600     3.7420    -2.7820 C.ar  1 <1>  -0.1500 
  5 C        0.1690     4.7870    -0.5460 C.ar  1 <1>  -0.1440 
  6 C       -1.5960     4.9170    -2.1980 C.ar  1 <1>  -0.1500 
  7 C       -0.9510     5.4370    -1.0840 C.ar  1 <1>   0.0830 
  8 C        0.9780     5.3030     0.6410 C.3   1 <1>   0.2540 
  9 O       -1.4830     6.5810    -0.5880 O.3   1 <1>  -0.3630 
 10 N        1.1040     6.7660     0.5780 N.3   1 <1>  -0.8100 
 11 C       -1.4180     6.8480     0.7940 C.3   1 <1>   0.1200 
 12 C       -0.0590     7.4510     1.1870 C.3   1 <1>   0.1100 
 13 C        2.3940     7.2650     1.1360 C.3   1 <1>   0.1710 
 14 C        2.7580     8.6730     0.6610 C.2   1 <1>   0.5690 
 15 O        3.5010     9.3450     1.3360 O.2   1 <1>  -0.5700 
 16 N        2.2160     9.0890    -0.5140 N.am  1 <1>  -0.4930 
 17 C        2.3430    10.2950    -1.1980 C.2   1 <1>   0.3520 
 18 N        1.6760    10.5410    -2.2710 N.2   1 <1>  -0.4100 
 19 C        3.1580    11.3780    -0.8660 C.2   1 <1>  -0.1500 
 20 O        2.0290    11.7450    -2.6480 O.3   1 <1>  -0.0190 
 21 C        2.9070    12.2690    -1.8340 C.2   1 <1>  -0.0400 
 22 C        3.4450    13.6600    -2.0940 C.3   1 <1>  -0.0600 
 23 H        1.4470     3.0690    -0.7620 H     1 <1>   0.1500 
 24 H       -1.6570     3.3320    -3.6420 H     1 <1>   0.1500 
 25 H       -2.4450     5.4410    -2.6000 H     1 <1>   0.1500 
 26 H        1.9570     4.8590     0.5960 H     1 <1>   0.0800 
 27 H        0.5250     4.9980     1.5690 H     1 <1>   0.0800 
 28 H       -1.6140     5.9350     1.3280 H     1 <1>   0.0800 
 29 H       -2.2020     7.5460     1.0240 H     1 <1>   0.0800 
 30 H       -0.0560     8.4860     0.8900 H     1 <1>   0.0800 
 31 H        0.0230     7.4240     2.2600 H     1 <1>   0.0800 
 32 H        3.1950     6.6200     0.8210 H     1 <1>   0.0800 
 33 H        2.3620     7.2530     2.2110 H     1 <1>   0.0800 
 34 H        1.5570     8.4250    -0.9300 H     1 <1>   0.3700 
 35 H        3.8170    11.4390    -0.0210 H     1 <1>   0.1500 
 36 H        4.1520    13.9330    -1.3320 H     1 <1>   0.0800 
 37 H        2.6360    14.3690    -2.0910 H     1 <1>   0.0800 
 38 H        3.9320    13.6880    -3.0520 H     1 <1>   0.0800 
@<TRIPOS>BOND
  1   1   2  1   
  2   2   3  ar  
  3   2   4  ar  
  4   3   5  ar  
  5   3  23  1   
  6   4   6  ar  
  7   4  24  1   
  8   5   7  ar  
  9   5   8  1   
 10   6   7  ar  
 11   6  25  1   
 12   7   9  1   
 13   8  10  1   
 14   8  26  1   
 15   8  27  1   
 16   9  11  1   
 17  10  12  1   
 18  10  13  1   
 19  11  12  1   
 20  11  28  1   
 21  11  29  1   
 22  12  30  1   
 23  12  31  1   
 24  13  14  1   
 25  13  32  1   
 26  13  33  1   
 27  14  15  2   
 28  14  16  am  
 29  16  17  1   
 30  16  34  1   
 31  17  18  2   
 32  17  19  1   
 33  18  20  1   
 34  19  21  2   
 35  19  35  1   
 36  20  21  1   
 37  21  22  1   
 38  22  36  1   
 39  22  37  1   
 40  22  38  1   
@<TRIPOS>SUBSTRUCTURE
  1 ****  10 GROUP 4 **** **** 0

# MOE 2024.06 (io_trps.svl 2023.06)
