@<TRIPOS>MOLECULE
NONAME
47 50 1 0 0 
SMALL
USER_CHARGES


@<TRIPOS>ATOM
  1 O       -3.2830     0.4070    -2.6170 O.2   1 <1>  -0.5700 
  2 C       -3.1480    -0.2410    -1.6100 C.2   1 <1>   0.5690 
  3 N       -2.9150     0.3730    -0.4400 N.am  1 <1>  -0.7300 
  4 C       -3.2280    -1.7480    -1.6550 C.3   1 <1>  -0.0190 
  5 C       -2.6900    -0.3440     0.8320 C.3   1 <1>   0.2200 
  6 C       -1.8660    -2.3880    -1.3110 C.3   1 <1>   0.1200 
  7 C       -4.4580    -2.2600    -0.8810 C.3   1 <1>   0.1100 
  8 C       -1.4110    -1.2140     0.7500 C.3   1 <1>   0.1200 
  9 C       -3.9770    -1.0800     1.2850 C.3   1 <1>   0.1100 
 10 O       -1.5460    -2.4200     0.0510 O.3   1 <1>  -0.5600 
 11 N       -4.3140    -2.3450     0.5920 N.3   1 <1>  -0.8100 
 12 C       -5.4930    -2.9770     1.2040 C.3   1 <1>   0.2530 
 13 C       -5.6460    -4.4290     0.7510 C.ar  1 <1>  -0.1430 
 14 C       -6.7440    -4.8670     0.0040 C.ar  1 <1>  -0.0230 
 15 C       -4.6560    -5.3330     1.0990 C.ar  1 <1>  -0.1500 
 16 N       -7.7880    -3.9850    -0.3870 N.pl3 1 <1>   0.5930 
 17 C       -6.8180    -6.2060    -0.3660 C.ar  1 <1>  -0.1500 
 18 C       -4.7380    -6.6670     0.7360 C.ar  1 <1>   0.0820 
 19 N       -7.6760    -3.0670    -1.3790 N.2   1 <1>  -0.7070 
 20 C       -9.0250    -3.9190     0.1610 C.2   1 <1>  -0.3020 
 21 C       -5.8310    -7.1040    -0.0040 C.ar  1 <1>  -0.1500 
 22 O       -3.7240    -7.4770     1.1360 O.3   1 <1>  -0.3630 
 23 C       -8.8210    -2.4630    -1.4270 C.2   1 <1>   0.1390 
 24 C       -9.7130    -2.9540    -0.4820 C.2   1 <1>  -0.1500 
 25 C       -3.6860    -8.8380     0.7690 C.3   1 <1>   0.0400 
 26 H       -2.8780     1.3920    -0.4460 H     1 <1>   0.3700 
 27 H       -3.4140    -1.9880    -2.6850 H     1 <1>   0.0800 
 28 H       -2.4950     0.4140     1.5700 H     1 <1>   0.0800 
 29 H       -1.0730    -1.8780    -1.8290 H     1 <1>   0.0800 
 30 H       -1.8770    -3.4120    -1.6390 H     1 <1>   0.0800 
 31 H       -4.6700    -3.2450    -1.2590 H     1 <1>   0.0800 
 32 H       -5.3070    -1.6410    -1.1210 H     1 <1>   0.0800 
 33 H       -1.1190    -1.4840     1.7480 H     1 <1>   0.0800 
 34 H       -0.6050    -0.6550     0.3070 H     1 <1>   0.0800 
 35 H       -4.8070    -0.3990     1.2070 H     1 <1>   0.0800 
 36 H       -3.8480    -1.3110     2.3280 H     1 <1>   0.0800 
 37 H       -5.3730    -2.9810     2.2740 H     1 <1>   0.0800 
 38 H       -6.3680    -2.3930     0.9780 H     1 <1>   0.0800 
 39 H       -3.7970    -4.9980     1.6540 H     1 <1>   0.1500 
 40 H       -7.6570    -6.5480    -0.9470 H     1 <1>   0.1500 
 41 H       -9.3250    -4.5620     0.9670 H     1 <1>   0.1500 
 42 H       -5.9270    -8.1290    -0.3060 H     1 <1>   0.1500 
 43 H       -9.0460    -1.6710    -2.1240 H     1 <1>   0.1500 
 44 H      -10.7220    -2.6160    -0.3260 H     1 <1>   0.1500 
 45 H       -2.7890    -9.2670     1.1770 H     1 <1>   0.0800 
 46 H       -3.6720    -8.9100    -0.3040 H     1 <1>   0.0800 
 47 H       -4.5480    -9.3340     1.1790 H     1 <1>   0.0800 
@<TRIPOS>BOND
  1   1   2  2   
  2   2   3  am  
  3   2   4  1   
  4   3   5  1   
  5   3  26  1   
  6   4   6  1   
  7   4   7  1   
  8   4  27  1   
  9   5   8  1   
 10   5   9  1   
 11   5  28  1   
 12   6  10  1   
 13   6  29  1   
 14   6  30  1   
 15   7  11  1   
 16   7  31  1   
 17   7  32  1   
 18   8  10  1   
 19   8  33  1   
 20   8  34  1   
 21   9  11  1   
 22   9  35  1   
 23   9  36  1   
 24  11  12  1   
 25  12  13  1   
 26  12  37  1   
 27  12  38  1   
 28  13  14  ar  
 29  13  15  ar  
 30  14  16  1   
 31  14  17  ar  
 32  15  18  ar  
 33  15  39  1   
 34  16  19  1   
 35  16  20  1   
 36  17  21  ar  
 37  17  40  1   
 38  18  21  ar  
 39  18  22  1   
 40  19  23  2   
 41  20  24  2   
 42  20  41  1   
 43  21  42  1   
 44  22  25  1   
 45  23  24  1   
 46  23  43  1   
 47  24  44  1   
 48  25  45  1   
 49  25  46  1   
 50  25  47  1   
@<TRIPOS>SUBSTRUCTURE
  1 ****  11 GROUP 4 **** **** 0

# MOE 2024.06 (io_trps.svl 2023.06)
