@<TRIPOS>MOLECULE
NONAME
64 67 1 0 0 
SMALL
USER_CHARGES


@<TRIPOS>ATOM
  1 O        0.3160    -2.6170     1.6200 O.2   1 <1>  -0.5700 
  2 C        1.3810    -2.5570     1.0450 C.2   1 <1>   0.5690 
  3 N        1.4730    -2.1220    -0.2570 N.am  1 <1>  -0.6600 
  4 C        2.6230    -2.9690     1.8400 C.3   1 <1>   0.1810 
  5 C        2.7220    -2.1330    -1.0710 C.3   1 <1>   0.1400 
  6 C        0.2910    -1.5710    -0.9780 C.3   1 <1>   0.1400 
  7 O        3.1750    -4.1990     1.3800 O.3   1 <1>  -0.3630 
  8 C        3.0500    -0.7070    -1.5250 C.3   1 <1>  -0.1600 
  9 C        0.5920    -0.1410    -1.4390 C.3   1 <1>  -0.1600 
 10 C        2.4550    -5.3460     1.4160 C.ar  1 <1>   0.0820 
 11 C        1.8740    -0.0720    -2.2810 C.3   1 <1>  -0.1600 
 12 C        2.8340    -6.3540     0.5460 C.ar  1 <1>  -0.1500 
 13 C        1.3700    -5.5470     2.2640 C.ar  1 <1>  -0.1500 
 14 C        2.1220    -7.5390     0.4930 C.ar  1 <1>  -0.1500 
 15 C        0.6610    -6.7320     2.2140 C.ar  1 <1>  -0.1500 
 16 C        1.0210    -7.7270     1.3160 C.ar  1 <1>  -0.1440 
 17 C        0.2040    -8.9970     1.2170 C.3   1 <1>   0.4860 
 18 N       -0.7130    -8.8450     0.0570 N.4   1 <1>  -0.9590 
 19 C       -1.3500   -10.1510    -0.3080 C.3   1 <1>   0.5660 
 20 C       -1.7360    -7.7680     0.2740 C.3   1 <1>   0.3430 
 21 C       -0.2480   -11.0910    -0.7780 C.ar  1 <1>  -0.1440 
 22 C       -2.4670   -10.0130    -1.3780 C.3   1 <1>   0.2000 
 23 C       -2.7430    -7.7070    -0.8870 C.3   1 <1>   0.1200 
 24 C       -0.0600   -12.2940    -0.1110 C.ar  1 <1>  -0.1500 
 25 C        0.5780   -10.7730    -1.8510 C.ar  1 <1>  -0.1500 
 26 O       -3.3440    -8.9560    -1.0680 O.3   1 <1>  -0.5600 
 27 C       -3.2840   -11.3130    -1.4690 C.3   1 <1>   0.1200 
 28 C        0.9450   -13.1600    -0.5000 C.ar  1 <1>  -0.1500 
 29 C        1.5840   -11.6410    -2.2380 C.ar  1 <1>  -0.1500 
 30 O       -3.6310   -11.7530    -0.1930 O.3   1 <1>  -0.6800 
 31 C        1.7690   -12.8330    -1.5620 C.ar  1 <1>  -0.1500 
 32 H        2.3890    -3.0640     2.8830 H     1 <1>   0.0800 
 33 H        3.3790    -2.2140     1.7350 H     1 <1>   0.0800 
 34 H        3.5520    -2.5340    -0.5180 H     1 <1>   0.0800 
 35 H        2.5690    -2.7600    -1.9320 H     1 <1>   0.0800 
 36 H        0.0780    -2.1940    -1.8290 H     1 <1>   0.0800 
 37 H       -0.5770    -1.5660    -0.3410 H     1 <1>   0.0800 
 38 H        3.2910    -0.1110    -0.6620 H     1 <1>   0.0800 
 39 H        3.9180    -0.7270    -2.1610 H     1 <1>   0.0800 
 40 H       -0.2390     0.2280    -2.0140 H     1 <1>   0.0800 
 41 H        0.6930     0.4870    -0.5710 H     1 <1>   0.0800 
 42 H        1.7200    -0.5980    -3.2080 H     1 <1>   0.0800 
 43 H        2.1010     0.9540    -2.5150 H     1 <1>   0.0800 
 44 H        3.6880    -6.1990    -0.0900 H     1 <1>   0.1500 
 45 H        1.0640    -4.7920     2.9650 H     1 <1>   0.1500 
 46 H        2.4390    -8.3060    -0.1950 H     1 <1>   0.1500 
 47 H       -0.1750    -6.8600     2.8820 H     1 <1>   0.1500 
 48 H       -0.3550    -9.1580     2.1240 H     1 <1>   0.0800 
 49 H        0.8680    -9.8340     1.0670 H     1 <1>   0.0800 
 50 H       -0.1210    -8.5690    -0.7300 H     1 <1>   0.4500 
 51 H       -1.8040   -10.5700     0.5740 H     1 <1>   0.0800 
 52 H       -2.2790    -7.9550     1.1850 H     1 <1>   0.0800 
 53 H       -1.2480    -6.8110     0.3700 H     1 <1>   0.0800 
 54 H       -2.0400    -9.8050    -2.3430 H     1 <1>   0.0800 
 55 H       -2.2670    -7.4090    -1.8050 H     1 <1>   0.0800 
 56 H       -3.5230    -7.0000    -0.6610 H     1 <1>   0.0800 
 57 H       -0.6960   -12.5740     0.7130 H     1 <1>   0.1500 
 58 H        0.4570    -9.8580    -2.4040 H     1 <1>   0.1500 
 59 H       -2.7080   -12.0910    -1.9400 H     1 <1>   0.0800 
 60 H       -4.1840   -11.1460    -2.0380 H     1 <1>   0.0800 
 61 H        1.0880   -14.0930     0.0200 H     1 <1>   0.1500 
 62 H        2.2250   -11.3970    -3.0680 H     1 <1>   0.1500 
 63 H       -4.3430   -12.4260    -0.2440 H     1 <1>   0.4000 
 64 H        2.5510   -13.5100    -1.8640 H     1 <1>   0.1500 
@<TRIPOS>BOND
  1   1   2  2   
  2   2   3  am  
  3   2   4  1   
  4   3   5  1   
  5   3   6  1   
  6   4   7  1   
  7   4  32  1   
  8   4  33  1   
  9   5   8  1   
 10   5  34  1   
 11   5  35  1   
 12   6   9  1   
 13   6  36  1   
 14   6  37  1   
 15   7  10  1   
 16   8  11  1   
 17   8  38  1   
 18   8  39  1   
 19   9  11  1   
 20   9  40  1   
 21   9  41  1   
 22  10  12  ar  
 23  10  13  ar  
 24  11  42  1   
 25  11  43  1   
 26  12  14  ar  
 27  12  44  1   
 28  13  15  ar  
 29  13  45  1   
 30  14  16  ar  
 31  14  46  1   
 32  15  16  ar  
 33  15  47  1   
 34  16  17  1   
 35  17  18  1   
 36  17  48  1   
 37  17  49  1   
 38  18  19  1   
 39  18  20  1   
 40  18  50  1   
 41  19  21  1   
 42  19  22  1   
 43  19  51  1   
 44  20  23  1   
 45  20  52  1   
 46  20  53  1   
 47  21  24  ar  
 48  21  25  ar  
 49  22  26  1   
 50  22  27  1   
 51  22  54  1   
 52  23  26  1   
 53  23  55  1   
 54  23  56  1   
 55  24  28  ar  
 56  24  57  1   
 57  25  29  ar  
 58  25  58  1   
 59  27  30  1   
 60  27  59  1   
 61  27  60  1   
 62  28  31  ar  
 63  28  61  1   
 64  29  31  ar  
 65  29  62  1   
 66  30  63  1   
 67  31  64  1   
@<TRIPOS>SUBSTRUCTURE
  1 ****  16 GROUP 4 **** **** 0

# MOE 2024.06 (io_trps.svl 2023.06)
