@<TRIPOS>MOLECULE
NONAME
50 53 1 0 0 
SMALL
USER_CHARGES


@<TRIPOS>ATOM
  1 O       -0.9070    -1.1400     0.7010 O.2   1 <1>  -0.5700 
  2 C        0.0610    -1.6800     0.2080 C.2   1 <1>   0.6900 
  3 N        0.7560    -2.6880     0.8540 N.am  1 <1>  -0.4690 
  4 N        0.4680    -1.3010    -1.0300 N.am  1 <1>  -0.4900 
  5 C        1.8470    -3.2940     0.2390 C.2   1 <1>  -0.0410 
  6 C        0.3460    -3.1450     2.2240 C.3   1 <1>   0.2010 
  7 C        1.5230    -1.8670    -1.6740 C.2   1 <1>   0.6160 
  8 C        2.2390    -2.9100    -0.9990 C.2   1 <1>  -0.1240 
  9 C       -0.0050    -4.6330     2.2550 C.2   1 <1>   0.5690 
 10 O        1.7970    -1.4630    -2.7850 O.2   1 <1>  -0.5700 
 11 C        3.4270    -3.5540    -1.7020 C.3   1 <1>  -0.1020 
 12 O        0.8500    -5.3880     2.6560 O.2   1 <1>  -0.5700 
 13 N       -1.2190    -5.1020     1.8130 N.am  1 <1>  -0.6600 
 14 C       -1.4750    -6.5660     1.6340 C.3   1 <1>   0.1400 
 15 C       -2.2960    -4.2800     1.1810 C.3   1 <1>   0.1400 
 16 C       -1.7230    -6.8930     0.1470 C.3   1 <1>   0.3430 
 17 C       -2.4780    -4.6960    -0.2910 C.3   1 <1>   0.2950 
 18 O       -2.7360    -6.0690    -0.3750 O.3   1 <1>  -0.5600 
 19 C       -2.1160    -8.3580    -0.0200 C.ar  1 <1>  -0.1430 
 20 C       -3.6540    -3.9630    -0.9410 C.3   1 <1>  -0.1950 
 21 C       -1.1300    -9.3110    -0.2310 C.ar  1 <1>  -0.1500 
 22 C       -3.4420    -8.7650     0.0480 C.ar  1 <1>  -0.1500 
 23 C       -3.7210    -3.7690    -2.4230 C.3   1 <1>  -0.2000 
 24 C       -3.4840    -2.5920    -1.5180 C.3   1 <1>  -0.2000 
 25 C       -1.4620   -10.6480    -0.3710 C.ar  1 <1>  -0.1500 
 26 C       -3.7760   -10.1010    -0.0910 C.ar  1 <1>  -0.1500 
 27 C       -2.7850   -11.0440    -0.3000 C.ar  1 <1>  -0.1500 
 28 H       -0.0260    -0.5480    -1.4930 H     1 <1>   0.3700 
 29 H        2.3550    -4.0730     0.7880 H     1 <1>   0.1500 
 30 H        1.1670    -2.9770     2.8970 H     1 <1>   0.0800 
 31 H       -0.4880    -2.5750     2.5890 H     1 <1>   0.0800 
 32 H        4.1710    -2.8080    -1.9200 H     1 <1>   0.0800 
 33 H        3.1070    -3.9970    -2.6290 H     1 <1>   0.0800 
 34 H        3.8730    -4.3170    -1.0900 H     1 <1>   0.0800 
 35 H       -0.6420    -7.1480     1.9870 H     1 <1>   0.0800 
 36 H       -2.3380    -6.8520     2.2080 H     1 <1>   0.0800 
 37 H       -3.2200    -4.4410     1.7080 H     1 <1>   0.0800 
 38 H       -2.0770    -3.2320     1.2310 H     1 <1>   0.0800 
 39 H       -0.8260    -6.7030    -0.4160 H     1 <1>   0.0800 
 40 H       -1.5770    -4.4870    -0.8410 H     1 <1>   0.0800 
 41 H       -4.5810    -4.1630    -0.4320 H     1 <1>   0.1000 
 42 H       -0.0950    -9.0200    -0.2880 H     1 <1>   0.1500 
 43 H       -4.2210    -8.0400     0.2070 H     1 <1>   0.1500 
 44 H       -2.9100    -4.1350    -3.0290 H     1 <1>   0.1000 
 45 H       -4.6760    -3.8730    -2.9080 H     1 <1>   0.1000 
 46 H       -4.2760    -1.8740    -1.3860 H     1 <1>   0.1000 
 47 H       -2.5110    -2.1330    -1.5190 H     1 <1>   0.1000 
 48 H       -0.6900   -11.3800    -0.5340 H     1 <1>   0.1500 
 49 H       -4.8060   -10.4050    -0.0380 H     1 <1>   0.1500 
 50 H       -3.0440   -12.0830    -0.4080 H     1 <1>   0.1500 
@<TRIPOS>BOND
  1   1   2  2   
  2   2   3  am  
  3   2   4  am  
  4   3   5  1   
  5   3   6  1   
  6   4   7  am  
  7   4  28  1   
  8   5   8  2   
  9   5  29  1   
 10   6   9  1   
 11   6  30  1   
 12   6  31  1   
 13   7   8  1   
 14   7  10  2   
 15   8  11  1   
 16   9  12  2   
 17   9  13  am  
 18  11  32  1   
 19  11  33  1   
 20  11  34  1   
 21  13  14  1   
 22  13  15  1   
 23  14  16  1   
 24  14  35  1   
 25  14  36  1   
 26  15  17  1   
 27  15  37  1   
 28  15  38  1   
 29  16  18  1   
 30  16  19  1   
 31  16  39  1   
 32  17  18  1   
 33  17  20  1   
 34  17  40  1   
 35  19  21  ar  
 36  19  22  ar  
 37  20  23  1   
 38  20  24  1   
 39  20  41  1   
 40  21  25  ar  
 41  21  42  1   
 42  22  26  ar  
 43  22  43  1   
 44  23  24  1   
 45  23  44  1   
 46  23  45  1   
 47  24  46  1   
 48  24  47  1   
 49  25  27  ar  
 50  25  48  1   
 51  26  27  ar  
 52  26  49  1   
 53  27  50  1   
@<TRIPOS>SUBSTRUCTURE
  1 ****  17 GROUP 4 **** **** 0

# MOE 2024.06 (io_trps.svl 2023.06)
