@<TRIPOS>MOLECULE
NONAME
51 53 1 0 0 
SMALL
USER_CHARGES


@<TRIPOS>ATOM
  1 F        1.8450     2.5730     3.4230 F     1 <1>  -0.1900 
  2 C        2.6610     2.7450     2.4190 C.ar  1 <1>   0.1900 
  3 C        2.2280     2.4260     1.1460 C.ar  1 <1>  -0.1500 
  4 C        3.9270     3.2400     2.6650 C.ar  1 <1>  -0.1500 
  5 C        3.0970     2.6110     0.0840 C.ar  1 <1>  -0.1500 
  6 C        4.7860     3.4190     1.5940 C.ar  1 <1>  -0.1500 
  7 C        4.3780     3.1060     0.3030 C.ar  1 <1>  -0.1430 
  8 C        5.3350     3.3040    -0.8670 C.3   1 <1>   0.2540 
  9 N        5.8300     4.6900    -0.9230 N.3   1 <1>  -0.8100 
 10 C        6.9150     4.8170    -1.9400 C.3   1 <1>   0.1710 
 11 C        4.7380     5.6380    -1.2060 C.3   1 <1>   0.0300 
 12 C        7.6090     6.1880    -2.0040 C.2   1 <1>   0.5690 
 13 O        7.5380     6.8140    -3.0360 O.2   1 <1>  -0.5700 
 14 N        8.2970     6.6780    -0.9260 N.am  1 <1>  -0.6600 
 15 C        8.9320     8.0240    -0.9050 C.3   1 <1>   0.1400 
 16 C        8.3160     6.0890     0.4290 C.3   1 <1>   0.1400 
 17 C        8.9720     8.4380     0.5740 C.3   1 <1>   0.4240 
 18 C        9.1330     7.0760     1.2610 C.3   1 <1>  -0.1600 
 19 O        7.7110     8.8880     0.9250 O.3   1 <1>  -0.6800 
 20 C       10.0150     9.5260     0.9310 C.ar  1 <1>  -0.1440 
 21 C       10.1070    10.7460     0.2470 C.ar  1 <1>  -0.1430 
 22 C       10.9090     9.3030     1.9800 C.ar  1 <1>  -0.1500 
 23 C       11.0880    11.6650     0.5940 C.ar  1 <1>  -0.1500 
 24 C        9.1670    11.1640    -0.8790 C.3   1 <1>  -0.0970 
 25 C       11.8780    10.2270     2.3200 C.ar  1 <1>  -0.1500 
 26 C       11.9740    11.4110     1.6210 C.ar  1 <1>  -0.1500 
 27 H        1.2350     2.0440     0.9960 H     1 <1>   0.1500 
 28 H        4.2270     3.4780     3.6690 H     1 <1>   0.1500 
 29 H        2.7720     2.3680    -0.9120 H     1 <1>   0.1500 
 30 H        5.7750     3.8100     1.7590 H     1 <1>   0.1500 
 31 H        4.8470     3.0530    -1.7940 H     1 <1>   0.0800 
 32 H        6.1660     2.6330    -0.7350 H     1 <1>   0.0800 
 33 H        6.5150     4.6030    -2.9160 H     1 <1>   0.0800 
 34 H        7.6760     4.0870    -1.7340 H     1 <1>   0.0800 
 35 H        3.9810     5.5740    -0.4430 H     1 <1>   0.0800 
 36 H        4.2900     5.4260    -2.1620 H     1 <1>   0.0800 
 37 H        5.1120     6.6470    -1.2150 H     1 <1>   0.0800 
 38 H        8.3740     8.7160    -1.5070 H     1 <1>   0.0800 
 39 H        9.9340     7.9440    -1.2880 H     1 <1>   0.0800 
 40 H        8.7650     5.1100     0.4190 H     1 <1>   0.0800 
 41 H        7.3100     6.0210     0.8070 H     1 <1>   0.0800 
 42 H       10.1610     6.7660     1.2090 H     1 <1>   0.0800 
 43 H        8.8260     7.0970     2.2910 H     1 <1>   0.0800 
 44 H        7.0610     8.2780     0.5280 H     1 <1>   0.4000 
 45 H       10.8720     8.4060     2.5670 H     1 <1>   0.1500 
 46 H       11.1690    12.5980     0.0640 H     1 <1>   0.1500 
 47 H        8.1530    10.8900    -0.6560 H     1 <1>   0.0800 
 48 H        9.4700    10.7090    -1.8040 H     1 <1>   0.0800 
 49 H        9.1830    12.2300    -1.0120 H     1 <1>   0.0800 
 50 H       12.5570    10.0250     3.1300 H     1 <1>   0.1500 
 51 H       12.7280    12.1340     1.8780 H     1 <1>   0.1500 
@<TRIPOS>BOND
  1   1   2  1   
  2   2   3  ar  
  3   2   4  ar  
  4   3   5  ar  
  5   3  27  1   
  6   4   6  ar  
  7   4  28  1   
  8   5   7  ar  
  9   5  29  1   
 10   6   7  ar  
 11   6  30  1   
 12   7   8  1   
 13   8   9  1   
 14   8  31  1   
 15   8  32  1   
 16   9  10  1   
 17   9  11  1   
 18  10  12  1   
 19  10  33  1   
 20  10  34  1   
 21  11  35  1   
 22  11  36  1   
 23  11  37  1   
 24  12  13  2   
 25  12  14  am  
 26  14  15  1   
 27  14  16  1   
 28  15  17  1   
 29  15  38  1   
 30  15  39  1   
 31  16  18  1   
 32  16  40  1   
 33  16  41  1   
 34  17  18  1   
 35  17  19  1   
 36  17  20  1   
 37  18  42  1   
 38  18  43  1   
 39  19  44  1   
 40  20  21  ar  
 41  20  22  ar  
 42  21  23  ar  
 43  21  24  1   
 44  22  25  ar  
 45  22  45  1   
 46  23  26  ar  
 47  23  46  1   
 48  24  47  1   
 49  24  48  1   
 50  24  49  1   
 51  25  26  ar  
 52  25  50  1   
 53  26  51  1   
@<TRIPOS>SUBSTRUCTURE
  1 ****  16 GROUP 4 **** **** 0

# MOE 2024.06 (io_trps.svl 2023.06)
