@<TRIPOS>MOLECULE
NONAME
42 44 1 0 0 
SMALL
USER_CHARGES


@<TRIPOS>ATOM
  1 F       -0.0170    -4.1540    -2.5020 F     1 <1>  -0.3400 
  2 C        0.6920    -4.7630    -1.5560 C.3   1 <1>   1.1640 
  3 F        1.9200    -4.2550    -1.6470 F     1 <1>  -0.3400 
  4 F        0.8030    -6.0340    -1.9370 F     1 <1>  -0.3400 
  5 C        0.0650    -4.6070    -0.1420 C.ar  1 <1>   0.1660 
  6 N       -1.1070    -5.2040     0.0990 N.ar  1 <1>  -0.6200 
  7 C        0.7310    -3.8580     0.8270 C.ar  1 <1>  -0.1500 
  8 C       -1.6200    -5.0690     1.3150 C.ar  1 <1>   0.4100 
  9 C        0.1910    -3.7140     2.0890 C.ar  1 <1>  -0.1500 
 10 N       -2.8260    -5.6850     1.5610 N.pl3 1 <1>  -0.8380 
 11 C       -1.0080    -4.3380     2.3240 C.ar  1 <1>  -0.1500 
 12 C       -4.0350    -5.0070     1.0100 C.3   1 <1>   0.2090 
 13 C       -2.9280    -7.1250     1.2140 C.3   1 <1>   0.2090 
 14 C       -4.8580    -6.0750     0.2700 C.3   1 <1>   0.2000 
 15 C       -3.8400    -7.1780    -0.0090 C.3   1 <1>  -0.0800 
 16 O       -5.8650    -6.5910     1.0990 O.3   1 <1>  -0.5600 
 17 C       -4.4320    -8.5720    -0.2750 C.3   1 <1>   0.0200 
 18 C       -7.0420    -5.8480     1.1340 C.3   1 <1>   0.0400 
 19 C       -3.3820    -9.5710    -0.7330 C.2   1 <1>  -0.0400 
 20 O       -3.7100   -10.8310    -0.8460 O.3   1 <1>  -0.0190 
 21 C       -2.0910    -9.4530    -1.0830 C.2   1 <1>  -0.1500 
 22 N       -2.7100   -11.5610    -1.2490 N.2   1 <1>  -0.4100 
 23 C       -1.7200   -10.7560    -1.4000 C.2   1 <1>   0.1080 
 24 C       -0.3420   -11.1740    -1.8610 C.3   1 <1>  -0.0590 
 25 H        1.6720    -3.3800     0.6140 H     1 <1>   0.1500 
 26 H        0.6870    -3.1410     2.8540 H     1 <1>   0.1500 
 27 H       -1.4940    -4.2790     3.2800 H     1 <1>   0.1500 
 28 H       -4.6010    -4.5540     1.8040 H     1 <1>   0.0800 
 29 H       -3.7300    -4.2440     0.3130 H     1 <1>   0.0800 
 30 H       -1.9610    -7.5530     1.0130 H     1 <1>   0.0800 
 31 H       -3.3790    -7.6480     2.0410 H     1 <1>   0.0800 
 32 H       -5.3000    -5.7010    -0.6370 H     1 <1>   0.0800 
 33 H       -3.2610    -6.8750    -0.8640 H     1 <1>   0.0800 
 34 H       -5.1890    -8.5010    -1.0360 H     1 <1>   0.0800 
 35 H       -4.9010    -8.9450     0.6190 H     1 <1>   0.0800 
 36 H       -7.7250    -6.3390     1.8060 H     1 <1>   0.0800 
 37 H       -7.4700    -5.8130     0.1470 H     1 <1>   0.0800 
 38 H       -6.8350    -4.8560     1.4950 H     1 <1>   0.0800 
 39 H       -1.4580    -8.5850    -1.1270 H     1 <1>   0.1500 
 40 H       -0.0480   -10.5860    -2.7110 H     1 <1>   0.0800 
 41 H       -0.3480   -12.2120    -2.1390 H     1 <1>   0.0800 
 42 H        0.3650   -11.0290    -1.0660 H     1 <1>   0.0800 
@<TRIPOS>BOND
  1   1   2  1   
  2   2   3  1   
  3   2   4  1   
  4   2   5  1   
  5   5   6  ar  
  6   5   7  ar  
  7   6   8  ar  
  8   7   9  ar  
  9   7  25  1   
 10   8  10  1   
 11   8  11  ar  
 12   9  11  ar  
 13   9  26  1   
 14  10  12  1   
 15  10  13  1   
 16  11  27  1   
 17  12  14  1   
 18  12  28  1   
 19  12  29  1   
 20  13  15  1   
 21  13  30  1   
 22  13  31  1   
 23  14  15  1   
 24  14  16  1   
 25  14  32  1   
 26  15  17  1   
 27  15  33  1   
 28  16  18  1   
 29  17  19  1   
 30  17  34  1   
 31  17  35  1   
 32  18  36  1   
 33  18  37  1   
 34  18  38  1   
 35  19  20  1   
 36  19  21  2   
 37  20  22  1   
 38  21  23  1   
 39  21  39  1   
 40  22  23  2   
 41  23  24  1   
 42  24  40  1   
 43  24  41  1   
 44  24  42  1   
@<TRIPOS>SUBSTRUCTURE
  1 ****  13 GROUP 4 **** **** 0

# MOE 2024.06 (io_trps.svl 2023.06)
