@<TRIPOS>MOLECULE
NONAME
46 48 1 0 0 
SMALL
USER_CHARGES


@<TRIPOS>ATOM
  1 F       -0.5650    -1.0400    -0.5110 F     1 <1>  -0.1900 
  2 C       -1.7430    -1.3670    -0.0440 C.ar  1 <1>   0.1900 
  3 C       -2.0190    -2.6640     0.4090 C.ar  1 <1>   0.0830 
  4 C       -2.6970    -0.3680    -0.0410 C.ar  1 <1>  -0.1500 
  5 O       -1.1380    -3.7100     0.4400 O.3   1 <1>  -0.3630 
  6 C       -3.3090    -2.9300     0.8640 C.ar  1 <1>  -0.1440 
  7 C       -3.9700    -0.6530     0.4190 C.ar  1 <1>  -0.1500 
  8 C        0.2620    -3.5300     0.3500 C.3   1 <1>   0.0400 
  9 C       -4.2720    -1.9290     0.8670 C.ar  1 <1>  -0.1500 
 10 C       -3.6750    -4.3170     1.3630 C.3   1 <1>   0.4870 
 11 N       -3.5180    -5.2860     0.2510 N.4   1 <1>  -0.9590 
 12 C       -4.4980    -5.0220    -0.8450 C.3   1 <1>   0.3430 
 13 C       -3.7410    -6.6860     0.7220 C.3   1 <1>   0.3430 
 14 C       -5.6240    -6.0380    -0.6340 C.3   1 <1>   0.2000 
 15 C       -4.8860    -7.2710    -0.1210 C.3   1 <1>  -0.0800 
 16 O       -6.4550    -5.5730     0.3810 O.3   1 <1>  -0.6800 
 17 C       -4.3560    -8.1380    -1.2790 C.3   1 <1>   0.0210 
 18 C       -3.6520    -9.3760    -0.7620 C.2   1 <1>   0.1080 
 19 N       -2.4880    -9.3340    -0.1930 N.2   1 <1>  -0.7070 
 20 C       -4.1580   -10.6690    -0.8360 C.2   1 <1>  -0.1500 
 21 N       -2.2100   -10.6220     0.1040 N.pl3 1 <1>   0.3000 
 22 C       -3.2100   -11.4450    -0.2710 C.2   1 <1>  -0.3320 
 23 C       -3.1960   -12.9490    -0.0690 C.3   1 <1>  -0.0600 
 24 H       -2.4460     0.6170    -0.3940 H     1 <1>   0.1500 
 25 H       -4.7230     0.1180     0.4290 H     1 <1>   0.1500 
 26 H        0.7400    -4.4610     0.5940 H     1 <1>   0.0800 
 27 H        0.5670    -2.7710     1.0490 H     1 <1>   0.0800 
 28 H        0.5170    -3.2470    -0.6570 H     1 <1>   0.0800 
 29 H       -5.2710    -2.1290     1.2220 H     1 <1>   0.1500 
 30 H       -4.6920    -4.3280     1.7210 H     1 <1>   0.0800 
 31 H       -3.0180    -4.5810     2.1750 H     1 <1>   0.0800 
 32 H       -2.5500    -5.1550    -0.0870 H     1 <1>   0.4500 
 33 H       -4.8730    -4.0130    -0.8290 H     1 <1>   0.0800 
 34 H       -4.0270    -5.2080    -1.7950 H     1 <1>   0.0800 
 35 H       -2.8390    -7.2650     0.6290 H     1 <1>   0.0800 
 36 H       -4.0370    -6.6820     1.7580 H     1 <1>   0.0800 
 37 H       -6.2120    -6.2030    -1.5220 H     1 <1>   0.0800 
 38 H       -5.5240    -7.8850     0.4900 H     1 <1>   0.0800 
 39 H       -7.2620    -6.1270     0.4580 H     1 <1>   0.4000 
 40 H       -3.6620    -7.5870    -1.8890 H     1 <1>   0.0800 
 41 H       -5.1740    -8.4470    -1.9060 H     1 <1>   0.0800 
 42 H       -5.1010   -10.9660    -1.2600 H     1 <1>   0.1500 
 43 H       -1.3320   -10.9090     0.5560 H     1 <1>   0.2700 
 44 H       -4.1020   -13.3830    -0.4530 H     1 <1>   0.0800 
 45 H       -3.1210   -13.1860     0.9770 H     1 <1>   0.0800 
 46 H       -2.3610   -13.3870    -0.5880 H     1 <1>   0.0800 
@<TRIPOS>BOND
  1   1   2  1   
  2   2   3  ar  
  3   2   4  ar  
  4   3   5  1   
  5   3   6  ar  
  6   4   7  ar  
  7   4  24  1   
  8   5   8  1   
  9   6   9  ar  
 10   6  10  1   
 11   7   9  ar  
 12   7  25  1   
 13   8  26  1   
 14   8  27  1   
 15   8  28  1   
 16   9  29  1   
 17  10  11  1   
 18  10  30  1   
 19  10  31  1   
 20  11  12  1   
 21  11  13  1   
 22  11  32  1   
 23  12  14  1   
 24  12  33  1   
 25  12  34  1   
 26  13  15  1   
 27  13  35  1   
 28  13  36  1   
 29  14  15  1   
 30  14  16  1   
 31  14  37  1   
 32  15  17  1   
 33  15  38  1   
 34  16  39  1   
 35  17  18  1   
 36  17  40  1   
 37  17  41  1   
 38  18  19  2   
 39  18  20  1   
 40  19  21  1   
 41  20  22  2   
 42  20  42  1   
 43  21  22  1   
 44  21  43  1   
 45  22  23  1   
 46  23  44  1   
 47  23  45  1   
 48  23  46  1   
@<TRIPOS>SUBSTRUCTURE
  1 ****  11 GROUP 4 **** **** 0

# MOE 2024.06 (io_trps.svl 2023.06)
