@<TRIPOS>MOLECULE
NONAME
43 44 1 0 0 
SMALL
USER_CHARGES


@<TRIPOS>ATOM
  1 F       -1.7070     0.6770    -0.5290 F     1 <1>  -0.3400 
  2 C       -1.7560    -0.5640    -0.0640 C.3   1 <1>   1.0200 
  3 F       -0.7090    -1.2000    -0.5670 F     1 <1>  -0.3400 
  4 F       -1.5600    -0.4800     1.2440 F     1 <1>  -0.3400 
  5 C       -3.0740    -1.2560    -0.4070 C.3   1 <1>  -0.1600 
  6 C       -4.3200    -0.5360     0.1600 C.3   1 <1>  -0.0990 
  7 C       -5.6370    -1.2090    -0.2100 C.2   1 <1>   0.5690 
  8 O       -5.5970    -2.3290    -0.6630 O.2   1 <1>  -0.5700 
  9 N       -6.8230    -0.5470    -0.0230 N.am  1 <1>  -0.6600 
 10 C       -6.9290     0.7880     0.6410 C.3   1 <1>   0.1400 
 11 C       -8.0990    -1.1550    -0.5080 C.3   1 <1>   0.1400 
 12 C       -8.3340     0.9870     1.2080 C.3   1 <1>  -0.1600 
 13 C       -9.0620    -0.0670    -0.9930 C.3   1 <1>  -0.1600 
 14 C       -9.3930     0.9940     0.0870 C.3   1 <1>   0.2800 
 15 O       -9.3120     2.2300    -0.5840 O.3   1 <1>  -0.5600 
 16 C      -10.8170     0.7880     0.6660 C.3   1 <1>  -0.1600 
 17 C       -9.9730     3.3320    -0.0280 C.3   1 <1>   0.1200 
 18 C      -11.8770     1.6230    -0.0580 C.3   1 <1>   0.2800 
 19 C      -11.4930     3.1050     0.0020 C.3   1 <1>  -0.1600 
 20 O      -11.8720     1.2620    -1.3800 O.3   1 <1>  -0.6800 
 21 C      -13.2880     1.3650     0.4620 C.3   1 <1>  -0.2400 
 22 H       -3.0330    -2.2590    -0.0230 H     1 <1>   0.0800 
 23 H       -3.1530    -1.3170    -1.4780 H     1 <1>   0.0800 
 24 H       -4.3390     0.4720    -0.2140 H     1 <1>   0.0800 
 25 H       -4.2550    -0.5000     1.2320 H     1 <1>   0.0800 
 26 H       -6.7180     1.5600    -0.0800 H     1 <1>   0.0800 
 27 H       -6.2140     0.8580     1.4420 H     1 <1>   0.0800 
 28 H       -8.5470    -1.7160     0.2940 H     1 <1>   0.0800 
 29 H       -7.8980    -1.8360    -1.3180 H     1 <1>   0.0800 
 30 H       -8.3710     1.8970     1.7740 H     1 <1>   0.0800 
 31 H       -8.5330     0.1830     1.8950 H     1 <1>   0.0800 
 32 H       -9.9570    -0.5460    -1.3430 H     1 <1>   0.0800 
 33 H       -8.6040     0.4050    -1.8440 H     1 <1>   0.0800 
 34 H      -10.8220     1.0810     1.7000 H     1 <1>   0.0800 
 35 H      -11.0860    -0.2530     0.6510 H     1 <1>   0.0800 
 36 H       -9.7360     4.1930    -0.6280 H     1 <1>   0.0800 
 37 H       -9.5940     3.4960     0.9650 H     1 <1>   0.0800 
 38 H      -11.9640     3.6410    -0.8030 H     1 <1>   0.0800 
 39 H      -11.8630     3.5340     0.9160 H     1 <1>   0.0800 
 40 H      -10.9880     1.5010    -1.7310 H     1 <1>   0.4000 
 41 H      -13.3550     1.6230     1.5030 H     1 <1>   0.0800 
 42 H      -13.5400     0.3260     0.3510 H     1 <1>   0.0800 
 43 H      -13.9990     1.9590    -0.0840 H     1 <1>   0.0800 
@<TRIPOS>BOND
  1   1   2  1   
  2   2   3  1   
  3   2   4  1   
  4   2   5  1   
  5   5   6  1   
  6   5  22  1   
  7   5  23  1   
  8   6   7  1   
  9   6  24  1   
 10   6  25  1   
 11   7   8  2   
 12   7   9  am  
 13   9  10  1   
 14   9  11  1   
 15  10  12  1   
 16  10  26  1   
 17  10  27  1   
 18  11  13  1   
 19  11  28  1   
 20  11  29  1   
 21  12  14  1   
 22  12  30  1   
 23  12  31  1   
 24  13  14  1   
 25  13  32  1   
 26  13  33  1   
 27  14  15  1   
 28  14  16  1   
 29  15  17  1   
 30  16  18  1   
 31  16  34  1   
 32  16  35  1   
 33  17  19  1   
 34  17  36  1   
 35  17  37  1   
 36  18  19  1   
 37  18  20  1   
 38  18  21  1   
 39  19  38  1   
 40  19  39  1   
 41  20  40  1   
 42  21  41  1   
 43  21  42  1   
 44  21  43  1   
@<TRIPOS>SUBSTRUCTURE
  1 ****  10 GROUP 4 **** **** 0

# MOE 2024.06 (io_trps.svl 2023.06)
