@<TRIPOS>MOLECULE
NONAME
49 50 1 0 0 
SMALL
USER_CHARGES


@<TRIPOS>ATOM
  1 CL       0.5580    -0.4790     0.0990 Cl    1 <1>  -0.1770 
  2 C       -0.0130    -2.1340    -0.0090 C.ar  1 <1>   0.1770 
  3 C        0.5780    -3.1080     0.7850 C.ar  1 <1>  -0.1440 
  4 C       -1.0450    -2.4370    -0.8870 C.ar  1 <1>  -0.1440 
  5 C        0.1190    -4.4130     0.6960 C.ar  1 <1>  -0.1500 
  6 C        1.7130    -2.7600     1.7390 C.3   1 <1>  -0.0960 
  7 C       -1.4880    -3.7470    -0.9610 C.ar  1 <1>  -0.1500 
  8 C       -1.6840    -1.3640    -1.7570 C.3   1 <1>  -0.0960 
  9 C       -0.9190    -4.7360    -0.1750 C.ar  1 <1>   0.0820 
 10 O       -1.4340    -5.9840    -0.3180 O.3   1 <1>  -0.3630 
 11 C       -1.1580    -7.0570     0.5750 C.3   1 <1>   0.2610 
 12 C       -1.5110    -8.4160    -0.0630 C.2   1 <1>   0.5690 
 13 C       -1.8840    -6.8130     1.9090 C.3   1 <1>  -0.2400 
 14 O       -0.6190    -9.2360    -0.0670 O.2   1 <1>  -0.5700 
 15 N       -2.7530    -8.7360    -0.5770 N.am  1 <1>  -0.6600 
 16 C       -2.9820   -10.0950    -1.1430 C.3   1 <1>   0.3200 
 17 C       -3.9160    -7.7990    -0.7050 C.3   1 <1>   0.1400 
 18 C       -3.6620   -10.9690    -0.1070 C.2   1 <1>  -0.3320 
 19 C       -5.0580    -8.1550     0.2550 C.3   1 <1>   0.1200 
 20 N       -4.6260   -11.8670    -0.3830 N.pl3 1 <1>   0.0330 
 21 C       -3.4630   -11.0310     1.2280 C.2   1 <1>   0.0770 
 22 O       -6.0230    -7.1580     0.2020 O.3   1 <1>  -0.6800 
 23 C       -4.9620   -12.4060     0.8090 C.2   1 <1>   0.0060 
 24 N       -4.2870   -11.9280     1.8000 N.2   1 <1>  -0.5650 
 25 C       -6.0300   -13.4680     0.9570 C.3   1 <1>  -0.0600 
 26 H        0.5820    -5.1640     1.3060 H     1 <1>   0.1500 
 27 H        1.3810    -2.0280     2.4530 H     1 <1>   0.0800 
 28 H        2.5420    -2.3540     1.1870 H     1 <1>   0.0800 
 29 H        2.0530    -3.6280     2.2730 H     1 <1>   0.0800 
 30 H       -2.2830    -4.0170    -1.6320 H     1 <1>   0.1500 
 31 H       -0.9420    -0.9250    -2.4010 H     1 <1>   0.0800 
 32 H       -2.1060    -0.5920    -1.1390 H     1 <1>   0.0800 
 33 H       -2.4650    -1.7760    -2.3690 H     1 <1>   0.0800 
 34 H       -0.0970    -7.0740     0.7410 H     1 <1>   0.0800 
 35 H       -2.9410    -6.7130     1.7580 H     1 <1>   0.0800 
 36 H       -1.5130    -5.9270     2.3890 H     1 <1>   0.0800 
 37 H       -1.7120    -7.6470     2.5660 H     1 <1>   0.0800 
 38 H       -2.0520   -10.5490    -1.4420 H     1 <1>   0.0800 
 39 H       -3.5980   -10.0120    -2.0220 H     1 <1>   0.0800 
 40 H       -4.2850    -7.8340    -1.7160 H     1 <1>   0.0800 
 41 H       -3.6120    -6.7900    -0.5100 H     1 <1>   0.0800 
 42 H       -4.7090    -8.2380     1.2700 H     1 <1>   0.0800 
 43 H       -5.5300    -9.0760    -0.0370 H     1 <1>   0.0800 
 44 H       -5.0320   -12.1040    -1.2930 H     1 <1>   0.2700 
 45 H       -2.7560   -10.4660     1.8130 H     1 <1>   0.1500 
 46 H       -5.7110    -6.3460     0.6460 H     1 <1>   0.4000 
 47 H       -5.7640   -14.3410     0.3910 H     1 <1>   0.0800 
 48 H       -6.9760   -13.0920     0.6160 H     1 <1>   0.0800 
 49 H       -6.1230   -13.7450     1.9920 H     1 <1>   0.0800 
@<TRIPOS>BOND
  1   1   2  1   
  2   2   3  ar  
  3   2   4  ar  
  4   3   5  ar  
  5   3   6  1   
  6   4   7  ar  
  7   4   8  1   
  8   5   9  ar  
  9   5  26  1   
 10   6  27  1   
 11   6  28  1   
 12   6  29  1   
 13   7   9  ar  
 14   7  30  1   
 15   8  31  1   
 16   8  32  1   
 17   8  33  1   
 18   9  10  1   
 19  10  11  1   
 20  11  12  1   
 21  11  13  1   
 22  11  34  1   
 23  12  14  2   
 24  12  15  am  
 25  13  35  1   
 26  13  36  1   
 27  13  37  1   
 28  15  16  1   
 29  15  17  1   
 30  16  18  1   
 31  16  38  1   
 32  16  39  1   
 33  17  19  1   
 34  17  40  1   
 35  17  41  1   
 36  18  20  1   
 37  18  21  2   
 38  19  22  1   
 39  19  42  1   
 40  19  43  1   
 41  20  23  1   
 42  20  44  1   
 43  21  24  1   
 44  21  45  1   
 45  22  46  1   
 46  23  24  2   
 47  23  25  1   
 48  25  47  1   
 49  25  48  1   
 50  25  49  1   
@<TRIPOS>SUBSTRUCTURE
  1 ****  11 GROUP 4 **** **** 0

# MOE 2024.06 (io_trps.svl 2023.06)
