@<TRIPOS>MOLECULE
NONAME
29 29 1 0 0 
SMALL
USER_CHARGES


@<TRIPOS>ATOM
  1 O        0.6180    -0.7280    -1.0790 O.3   1 <1>  -0.6800 
  2 C        0.9900    -1.3160     0.1050 C.3   1 <1>   0.2800 
  3 C        1.6650    -2.6430    -0.2640 C.3   1 <1>  -0.1600 
  4 C       -0.2990    -1.5870     0.8870 C.3   1 <1>  -0.1600 
  5 C        1.9300    -0.3510     0.8600 C.3   1 <1>  -0.0220 
  6 C        0.7030    -3.5600    -1.0200 C.3   1 <1>   0.3430 
  7 C       -1.2300    -2.5100     0.1030 C.3   1 <1>   0.3430 
  8 C        3.1100     0.1700     0.0360 C.2   1 <1>  -0.2760 
  9 N       -0.5280    -3.7870    -0.2110 N.4   1 <1>  -0.9060 
 10 C        4.2870    -0.4600    -0.0220 C.2   1 <1>  -0.3000 
 11 C        2.8720     1.4960    -0.6780 C.3   1 <1>  -0.1020 
 12 H        1.3970    -0.2400    -1.4250 H     1 <1>   0.4000 
 13 H        2.0140    -3.1390     0.6240 H     1 <1>   0.0800 
 14 H        2.5250    -2.4550    -0.8820 H     1 <1>   0.0800 
 15 H       -0.8050    -0.6560     1.0760 H     1 <1>   0.0800 
 16 H       -0.0690    -2.0270     1.8410 H     1 <1>   0.0800 
 17 H        2.3200    -0.8690     1.7190 H     1 <1>   0.0800 
 18 H        1.3680     0.4830     1.2440 H     1 <1>   0.0800 
 19 H        1.1880    -4.4990    -1.2340 H     1 <1>   0.0800 
 20 H        0.4390    -3.0930    -1.9560 H     1 <1>   0.0800 
 21 H       -1.5190    -2.0190    -0.8140 H     1 <1>   0.0800 
 22 H       -2.1210    -2.7050     0.6790 H     1 <1>   0.0800 
 23 H       -0.2830    -4.2690     0.6610 H     1 <1>   0.4500 
 24 H       -1.1650    -4.4020    -0.7320 H     1 <1>   0.4500 
 25 H        5.1360    -0.1020    -0.5790 H     1 <1>   0.1500 
 26 H        4.5140    -1.3820     0.4850 H     1 <1>   0.1500 
 27 H        2.0590     1.4370    -1.3780 H     1 <1>   0.0800 
 28 H        3.7530     1.7970    -1.2160 H     1 <1>   0.0800 
 29 H        2.6470     2.2640     0.0410 H     1 <1>   0.0800 
@<TRIPOS>BOND
  1   1   2  1   
  2   1  12  1   
  3   2   3  1   
  4   2   4  1   
  5   2   5  1   
  6   3   6  1   
  7   3  13  1   
  8   3  14  1   
  9   4   7  1   
 10   4  15  1   
 11   4  16  1   
 12   5   8  1   
 13   5  17  1   
 14   5  18  1   
 15   6   9  1   
 16   6  19  1   
 17   6  20  1   
 18   7   9  1   
 19   7  21  1   
 20   7  22  1   
 21   8  10  2   
 22   8  11  1   
 23   9  23  1   
 24   9  24  1   
 25  10  25  1   
 26  10  26  1   
 27  11  27  1   
 28  11  28  1   
 29  11  29  1   
@<TRIPOS>SUBSTRUCTURE
  1 ****   2 GROUP 4 **** **** 0

# MOE 2024.06 (io_trps.svl 2023.06)
