@<TRIPOS>MOLECULE
NONAME
52 54 1 0 0 
SMALL
USER_CHARGES


@<TRIPOS>ATOM
  1 O       -1.9670    -3.3840     0.2060 O.2   1 <1>  -0.5700 
  2 C       -0.7740    -3.5400     0.1030 C.2   1 <1>   0.5690 
  3 N       -0.2060    -4.5940    -0.5580 N.am  1 <1>  -0.6600 
  4 C        0.1580    -2.5300     0.7440 C.3   1 <1>  -0.0990 
  5 C        1.2710    -4.7260    -0.6340 C.3   1 <1>   0.1400 
  6 C       -1.0100    -5.6690    -1.1980 C.3   1 <1>   0.0600 
  7 C        1.2990    -2.1540    -0.2200 C.3   1 <1>  -0.0800 
  8 C        1.9070    -3.3640    -0.9690 C.3   1 <1>  -0.0800 
  9 C        2.4660    -1.4380     0.4740 C.3   1 <1>  -0.1600 
 10 C        3.4140    -3.3280    -0.6860 C.3   1 <1>  -0.1600 
 11 C        3.6990    -1.8780    -0.3140 C.3   1 <1>   0.2200 
 12 N        4.9970    -1.7210     0.4090 N.am  1 <1>  -0.6600 
 13 C        6.1230    -1.3280    -0.2910 C.2   1 <1>   0.5440 
 14 C        5.0720    -2.1470     1.8400 C.3   1 <1>   0.0600 
 15 O        6.1040    -1.3590    -1.5070 O.2   1 <1>  -0.5700 
 16 C        7.3320    -0.8930     0.3860 C.ar  1 <1>   0.0860 
 17 C        8.5690    -1.4520     0.0680 C.ar  1 <1>  -0.1500 
 18 C        7.3040     0.0930     1.3710 C.ar  1 <1>  -0.1500 
 19 C        9.7370    -1.0670     0.7090 C.ar  1 <1>  -0.1440 
 20 C        8.4580     0.4890     2.0200 C.ar  1 <1>  -0.1500 
 21 C        9.6700    -0.0910     1.6920 C.ar  1 <1>  -0.1500 
 22 C       11.0820    -1.6930     0.3470 C.3   1 <1>   0.0630 
 23 C       11.4390    -1.4110    -1.1160 C.3   1 <1>  -0.2400 
 24 C       11.0750    -3.2000     0.6240 C.3   1 <1>  -0.2400 
 25 H       -0.3980    -1.6520     1.0190 H     1 <1>   0.0800 
 26 H        0.5490    -2.9760     1.6390 H     1 <1>   0.0800 
 27 H        1.6270    -5.0790     0.3180 H     1 <1>   0.0800 
 28 H        1.5430    -5.4460    -1.3870 H     1 <1>   0.0800 
 29 H       -0.7620    -6.6190    -0.7600 H     1 <1>   0.0800 
 30 H       -0.8050    -5.6960    -2.2530 H     1 <1>   0.0800 
 31 H       -2.0620    -5.4880    -1.0560 H     1 <1>   0.0800 
 32 H        0.8920    -1.4920    -0.9670 H     1 <1>   0.0800 
 33 H        1.7670    -3.1930    -2.0240 H     1 <1>   0.0800 
 34 H        2.5260    -1.7640     1.4940 H     1 <1>   0.0800 
 35 H        2.3470    -0.3690     0.4440 H     1 <1>   0.0800 
 36 H        3.9890    -3.6220    -1.5470 H     1 <1>   0.0800 
 37 H        3.6530    -3.9710     0.1410 H     1 <1>   0.0800 
 38 H        3.7230    -1.3000    -1.2240 H     1 <1>   0.0800 
 39 H        4.4760    -3.0270     2.0020 H     1 <1>   0.0800 
 40 H        4.7100    -1.3560     2.4720 H     1 <1>   0.0800 
 41 H        6.0860    -2.3790     2.1160 H     1 <1>   0.0800 
 42 H        8.5980    -2.2010    -0.7030 H     1 <1>   0.1500 
 43 H        6.3650     0.5530     1.6220 H     1 <1>   0.1500 
 44 H        8.4170     1.2510     2.7790 H     1 <1>   0.1500 
 45 H       10.5620     0.2260     2.2040 H     1 <1>   0.1500 
 46 H       11.8470    -1.2500     0.9620 H     1 <1>   0.0800 
 47 H       10.7310    -1.8730    -1.7800 H     1 <1>   0.0800 
 48 H       12.4200    -1.7890    -1.3410 H     1 <1>   0.0800 
 49 H       11.4320    -0.3500    -1.2950 H     1 <1>   0.0800 
 50 H       10.3620    -3.7020    -0.0050 H     1 <1>   0.0800 
 51 H       10.8150    -3.3820     1.6510 H     1 <1>   0.0800 
 52 H       12.0490    -3.6170     0.4380 H     1 <1>   0.0800 
@<TRIPOS>BOND
  1   1   2  2   
  2   2   3  am  
  3   2   4  1   
  4   3   5  1   
  5   3   6  1   
  6   4   7  1   
  7   4  25  1   
  8   4  26  1   
  9   5   8  1   
 10   5  27  1   
 11   5  28  1   
 12   6  29  1   
 13   6  30  1   
 14   6  31  1   
 15   7   8  1   
 16   7   9  1   
 17   7  32  1   
 18   8  10  1   
 19   8  33  1   
 20   9  11  1   
 21   9  34  1   
 22   9  35  1   
 23  10  11  1   
 24  10  36  1   
 25  10  37  1   
 26  11  12  1   
 27  11  38  1   
 28  12  13  am  
 29  12  14  1   
 30  13  15  2   
 31  13  16  1   
 32  14  39  1   
 33  14  40  1   
 34  14  41  1   
 35  16  17  ar  
 36  16  18  ar  
 37  17  19  ar  
 38  17  42  1   
 39  18  20  ar  
 40  18  43  1   
 41  19  21  ar  
 42  19  22  1   
 43  20  21  ar  
 44  20  44  1   
 45  21  45  1   
 46  22  23  1   
 47  22  24  1   
 48  22  46  1   
 49  23  47  1   
 50  23  48  1   
 51  23  49  1   
 52  24  50  1   
 53  24  51  1   
 54  24  52  1   
@<TRIPOS>SUBSTRUCTURE
  1 ****  12 GROUP 4 **** **** 0

# MOE 2024.06 (io_trps.svl 2023.06)
