@<TRIPOS>MOLECULE
NONAME
53 56 1 0 0 
SMALL
USER_CHARGES


@<TRIPOS>ATOM
  1 F        0.5470    -1.0950     0.5050 F     1 <1>  -0.1900 
  2 C       -0.2930    -2.0990     0.5510 C.ar  1 <1>   0.1900 
  3 C        0.1140    -3.3920     0.8970 C.ar  1 <1>   0.0820 
  4 C       -1.6080    -1.8140     0.2420 C.ar  1 <1>  -0.1500 
  5 O        1.3770    -3.7960     1.2210 O.3   1 <1>  -0.3630 
  6 C       -0.8530    -4.3850     0.9200 C.ar  1 <1>  -0.1500 
  7 C       -2.5470    -2.8290     0.2760 C.ar  1 <1>  -0.1500 
  8 C        2.4920    -2.9350     1.1840 C.3   1 <1>   0.0400 
  9 C       -2.1930    -4.1380     0.6120 C.ar  1 <1>   0.0530 
 10 C       -3.1650    -5.2060     0.6500 C.2   1 <1>   0.0870 
 11 O       -2.9670    -6.2430     1.4280 O.3   1 <1>  -0.0190 
 12 C       -4.3400    -5.4210     0.0060 C.2   1 <1>  -0.2330 
 13 N       -3.9270    -7.1260     1.3510 N.2   1 <1>  -0.4100 
 14 C       -4.7760    -6.6540     0.5030 C.2   1 <1>   0.3720 
 15 C       -4.9810    -4.6150    -0.9780 C.2   1 <1>   1.0330 
 16 N       -5.9460    -7.3680     0.1910 N.pl3 1 <1>  -0.8210 
 17 O       -4.8650    -4.8690    -2.1880 O.co2 1 <1>  -0.9000 
 18 O       -5.6800    -3.6440    -0.6370 O.co2 1 <1>  -0.9000 
 19 C       -5.7050    -8.6750    -0.4790 C.3   1 <1>   0.2090 
 20 C       -7.0860    -6.6280    -0.4170 C.3   1 <1>   0.2090 
 21 C       -6.9410    -9.5630    -0.2990 C.3   1 <1>  -0.0190 
 22 C       -8.3630    -7.4660    -0.2820 C.3   1 <1>  -0.1600 
 23 C       -6.7200   -10.9390    -0.9210 C.2   1 <1>   0.5690 
 24 C       -8.1900    -8.8720    -0.8820 C.3   1 <1>  -0.1600 
 25 O       -6.1240   -11.0140    -1.9720 O.2   1 <1>  -0.5700 
 26 N       -7.2060   -12.0650    -0.3100 N.am  1 <1>  -0.6600 
 27 C       -7.9900   -12.1270     0.9430 C.3   1 <1>   0.1400 
 28 C       -7.0050   -13.4150    -0.8780 C.3   1 <1>   0.1400 
 29 C       -8.5070   -13.5600     1.0060 C.3   1 <1>  -0.1600 
 30 C       -7.4940   -14.3710     0.2040 C.3   1 <1>  -0.1600 
 31 H       -1.8990    -0.8140    -0.0230 H     1 <1>   0.1500 
 32 H       -0.5530    -5.3830     1.1800 H     1 <1>   0.1500 
 33 H       -3.5710    -2.5970     0.0410 H     1 <1>   0.1500 
 34 H        3.3650    -3.5050     1.4470 H     1 <1>   0.0800 
 35 H        2.3470    -2.1430     1.8980 H     1 <1>   0.0800 
 36 H        2.5990    -2.5430     0.1880 H     1 <1>   0.0800 
 37 H       -4.8450    -9.1580    -0.0460 H     1 <1>   0.0800 
 38 H       -5.5070    -8.5090    -1.5260 H     1 <1>   0.0800 
 39 H       -6.8810    -6.4360    -1.4580 H     1 <1>   0.0800 
 40 H       -7.2180    -5.6840     0.0860 H     1 <1>   0.0800 
 41 H       -7.0690    -9.6790     0.7600 H     1 <1>   0.0800 
 42 H       -9.1690    -6.9540    -0.7750 H     1 <1>   0.0800 
 43 H       -8.6080    -7.5410     0.7630 H     1 <1>   0.0800 
 44 H       -9.0660    -9.4640    -0.6860 H     1 <1>   0.0800 
 45 H       -8.0760    -8.7880    -1.9500 H     1 <1>   0.0800 
 46 H       -8.8000   -11.4170     0.9320 H     1 <1>   0.0800 
 47 H       -7.3380   -11.9280     1.7760 H     1 <1>   0.0800 
 48 H       -5.9680   -13.5780    -1.1190 H     1 <1>   0.0800 
 49 H       -7.6010   -13.5100    -1.7690 H     1 <1>   0.0800 
 50 H       -9.4710   -13.6050     0.5290 H     1 <1>   0.0800 
 51 H       -8.6020   -13.9070     2.0200 H     1 <1>   0.0800 
 52 H       -6.6620   -14.6410     0.8310 H     1 <1>   0.0800 
 53 H       -7.9210   -15.2640    -0.2160 H     1 <1>   0.0800 
@<TRIPOS>BOND
  1   1   2  1   
  2   2   3  ar  
  3   2   4  ar  
  4   3   5  1   
  5   3   6  ar  
  6   4   7  ar  
  7   4  31  1   
  8   5   8  1   
  9   6   9  ar  
 10   6  32  1   
 11   7   9  ar  
 12   7  33  1   
 13   8  34  1   
 14   8  35  1   
 15   8  36  1   
 16   9  10  1   
 17  10  11  1   
 18  10  12  2   
 19  11  13  1   
 20  12  14  1   
 21  12  15  1   
 22  13  14  2   
 23  14  16  1   
 24  15  17  ar  
 25  15  18  ar  
 26  16  19  1   
 27  16  20  1   
 28  19  21  1   
 29  19  37  1   
 30  19  38  1   
 31  20  22  1   
 32  20  39  1   
 33  20  40  1   
 34  21  23  1   
 35  21  24  1   
 36  21  41  1   
 37  22  24  1   
 38  22  42  1   
 39  22  43  1   
 40  23  25  2   
 41  23  26  am  
 42  24  44  1   
 43  24  45  1   
 44  26  27  1   
 45  26  28  1   
 46  27  29  1   
 47  27  46  1   
 48  27  47  1   
 49  28  30  1   
 50  28  48  1   
 51  28  49  1   
 52  29  30  1   
 53  29  50  1   
 54  29  51  1   
 55  30  52  1   
 56  30  53  1   
@<TRIPOS>SUBSTRUCTURE
  1 ****  14 GROUP 4 **** **** 0

# MOE 2024.06 (io_trps.svl 2023.06)
