@<TRIPOS>MOLECULE
NONAME
44 46 1 0 0 
SMALL
USER_CHARGES


@<TRIPOS>ATOM
  1 F       -2.9960     0.0060    -1.8420 F     1 <1>  -0.3400 
  2 C       -2.9430    -1.3170    -1.9560 C.3   1 <1>   1.1640 
  3 F       -1.6540    -1.6350    -1.9670 F     1 <1>  -0.3400 
  4 F       -3.4090    -1.6050    -3.1640 F     1 <1>  -0.3400 
  5 C       -3.7340    -2.0380    -0.8520 C.ar  1 <1>  -0.1440 
  6 C       -4.9220    -1.5020    -0.3670 C.ar  1 <1>  -0.1500 
  7 C       -3.2870    -3.2440    -0.3190 C.ar  1 <1>  -0.1500 
  8 C       -5.6400    -2.1480     0.6250 C.ar  1 <1>  -0.1500 
  9 C       -4.0050    -3.8880     0.6720 C.ar  1 <1>  -0.1500 
 10 C       -5.1870    -3.3470     1.1500 C.ar  1 <1>  -0.1430 
 11 C       -5.9730    -4.0660     2.2440 C.3   1 <1>   0.0440 
 12 C       -6.2060    -5.5420     1.9480 C.2   1 <1>   0.5690 
 13 O       -5.6640    -6.3520     2.6630 O.2   1 <1>  -0.5700 
 14 N       -7.0120    -5.9340     0.9130 N.am  1 <1>  -0.6600 
 15 C       -7.6920    -5.0460    -0.0620 C.3   1 <1>   0.1400 
 16 C       -7.2630    -7.3560     0.5890 C.3   1 <1>   0.1400 
 17 C       -8.4480    -5.9880    -1.0030 C.3   1 <1>   0.2000 
 18 C       -8.5130    -7.3390    -0.2910 C.3   1 <1>  -0.0800 
 19 O       -9.7330    -5.5330    -1.2570 O.3   1 <1>  -0.6800 
 20 C       -8.6110    -8.5190    -1.2740 C.3   1 <1>  -0.0170 
 21 C       -8.7210    -9.8510    -0.5480 C.ar  1 <1>   0.1670 
 22 N       -7.5870   -10.3990    -0.1430 N.ar  1 <1>  -0.6200 
 23 C       -9.9730   -10.4280    -0.3380 C.ar  1 <1>   0.1600 
 24 C       -7.7860   -11.5470     0.4820 C.ar  1 <1>   0.1600 
 25 N      -10.1740   -11.5760     0.2870 N.ar  1 <1>  -0.6200 
 26 C       -9.0360   -12.1160     0.6910 C.ar  1 <1>   0.1600 
 27 H       -5.2970    -0.5710    -0.7600 H     1 <1>   0.1500 
 28 H       -2.3740    -3.6940    -0.6700 H     1 <1>   0.1500 
 29 H       -6.5530    -1.7060     0.9840 H     1 <1>   0.1500 
 30 H       -3.6370    -4.8190     1.0730 H     1 <1>   0.1500 
 31 H       -6.9270    -3.5970     2.3930 H     1 <1>   0.0800 
 32 H       -5.4280    -3.9840     3.1660 H     1 <1>   0.0800 
 33 H       -8.3680    -4.3890     0.4560 H     1 <1>   0.0800 
 34 H       -6.9660    -4.4750    -0.6130 H     1 <1>   0.0800 
 35 H       -6.4170    -7.7490     0.0520 H     1 <1>   0.0800 
 36 H       -7.4140    -7.9390     1.4840 H     1 <1>   0.0800 
 37 H       -7.9220    -6.0610    -1.9400 H     1 <1>   0.0800 
 38 H       -9.3620    -7.3560     0.3700 H     1 <1>   0.0800 
 39 H      -10.2490    -5.4900    -0.4280 H     1 <1>   0.4000 
 40 H       -7.7450    -8.5400    -1.9120 H     1 <1>   0.0800 
 41 H       -9.4720    -8.3820    -1.9040 H     1 <1>   0.0800 
 42 H      -10.8470    -9.9170    -0.7020 H     1 <1>   0.1500 
 43 H       -6.9160   -12.0640     0.8490 H     1 <1>   0.1500 
 44 H       -9.0960   -13.0550     1.2120 H     1 <1>   0.1500 
@<TRIPOS>BOND
  1   1   2  1   
  2   2   3  1   
  3   2   4  1   
  4   2   5  1   
  5   5   6  ar  
  6   5   7  ar  
  7   6   8  ar  
  8   6  27  1   
  9   7   9  ar  
 10   7  28  1   
 11   8  10  ar  
 12   8  29  1   
 13   9  10  ar  
 14   9  30  1   
 15  10  11  1   
 16  11  12  1   
 17  11  31  1   
 18  11  32  1   
 19  12  13  2   
 20  12  14  am  
 21  14  15  1   
 22  14  16  1   
 23  15  17  1   
 24  15  33  1   
 25  15  34  1   
 26  16  18  1   
 27  16  35  1   
 28  16  36  1   
 29  17  18  1   
 30  17  19  1   
 31  17  37  1   
 32  18  20  1   
 33  18  38  1   
 34  19  39  1   
 35  20  21  1   
 36  20  40  1   
 37  20  41  1   
 38  21  22  ar  
 39  21  23  ar  
 40  22  24  ar  
 41  23  25  ar  
 42  23  42  1   
 43  24  26  ar  
 44  24  43  1   
 45  25  26  ar  
 46  26  44  1   
@<TRIPOS>SUBSTRUCTURE
  1 ****  14 GROUP 4 **** **** 0

# MOE 2024.06 (io_trps.svl 2023.06)
