@<TRIPOS>MOLECULE
NONAME
35 37 1 0 0 
SMALL
USER_CHARGES


@<TRIPOS>ATOM
  1 CL       0.0770    -0.7180    -0.4670 Cl    1 <1>  -0.1770 
  2 C       -1.5530    -1.3320    -0.3600 C.ar  1 <1>   0.1770 
  3 C       -1.7630    -2.6960    -0.3040 C.ar  1 <1>  -0.1500 
  4 C       -2.6100    -0.4400    -0.3340 C.ar  1 <1>  -0.1500 
  5 C       -3.0560    -3.1850    -0.2200 C.ar  1 <1>   0.0830 
  6 C       -3.9040    -0.9270    -0.2480 C.ar  1 <1>  -0.1500 
  7 O       -3.1920    -4.5320    -0.1690 O.3   1 <1>  -0.3630 
  8 C       -4.1290    -2.2930    -0.1920 C.ar  1 <1>  -0.1500 
  9 C       -4.4750    -5.1440    -0.1500 C.3   1 <1>   0.1810 
 10 C       -4.4110    -6.6730    -0.1110 C.2   1 <1>   0.5690 
 11 O       -3.4470    -7.2440    -0.5730 O.2   1 <1>  -0.5700 
 12 N       -5.4630    -7.3600     0.4230 N.am  1 <1>  -0.6600 
 13 C       -6.7630    -6.7780     0.8640 C.3   1 <1>   0.2350 
 14 C       -5.5490    -8.8480     0.4570 C.3   1 <1>   0.2350 
 15 C       -7.7900    -7.8700     0.6480 C.3   1 <1>  -0.2420 
 16 C       -7.0370    -9.1600     0.4220 C.3   1 <1>  -0.2420 
 17 C       -9.0830    -7.5170     1.3870 C.2   1 <1>   0.9470 
 18 C       -7.8990    -8.5900    -0.6740 C.3   1 <1>  -0.2000 
 19 C       -7.3130   -10.5720     0.9440 C.2   1 <1>   0.9470 
 20 O      -10.1470    -7.4440     0.7580 O.co2 1 <1>  -0.9000 
 21 O       -9.0070    -7.1160     2.5570 O.co2 1 <1>  -0.9000 
 22 O       -7.8510   -11.4030     0.2000 O.co2 1 <1>  -0.9000 
 23 O       -6.8530   -10.9010     2.0460 O.co2 1 <1>  -0.9000 
 24 H       -0.9320    -3.3760    -0.3270 H     1 <1>   0.1500 
 25 H       -2.4170     0.6170    -0.3790 H     1 <1>   0.1500 
 26 H       -4.7340    -0.2420    -0.2260 H     1 <1>   0.1500 
 27 H       -5.1430    -2.6410    -0.1240 H     1 <1>   0.1500 
 28 H       -4.9870    -4.7890     0.7240 H     1 <1>   0.0800 
 29 H       -5.0020    -4.8440    -1.0360 H     1 <1>   0.0800 
 30 H       -6.7030    -6.5320     1.9110 H     1 <1>   0.0800 
 31 H       -7.0320    -5.9070     0.2950 H     1 <1>   0.0800 
 32 H       -5.0430    -9.2910    -0.3830 H     1 <1>   0.0800 
 33 H       -5.1130    -9.2080     1.3740 H     1 <1>   0.0800 
 34 H       -7.4380    -8.1730    -1.5490 H     1 <1>   0.1000 
 35 H       -8.8220    -9.1010    -0.8970 H     1 <1>   0.1000 
@<TRIPOS>BOND
  1   1   2  1   
  2   2   3  ar  
  3   2   4  ar  
  4   3   5  ar  
  5   3  24  1   
  6   4   6  ar  
  7   4  25  1   
  8   5   7  1   
  9   5   8  ar  
 10   6   8  ar  
 11   6  26  1   
 12   7   9  1   
 13   8  27  1   
 14   9  10  1   
 15   9  28  1   
 16   9  29  1   
 17  10  11  2   
 18  10  12  am  
 19  12  13  1   
 20  12  14  1   
 21  13  15  1   
 22  13  30  1   
 23  13  31  1   
 24  14  16  1   
 25  14  32  1   
 26  14  33  1   
 27  15  16  1   
 28  15  17  1   
 29  15  18  1   
 30  16  18  1   
 31  16  19  1   
 32  17  20  ar  
 33  17  21  ar  
 34  18  34  1   
 35  18  35  1   
 36  19  22  ar  
 37  19  23  ar  
@<TRIPOS>SUBSTRUCTURE
  1 ****  10 GROUP 4 **** **** 0

# MOE 2024.06 (io_trps.svl 2023.06)
