@<TRIPOS>MOLECULE
NONAME
33 35 1 0 0 
SMALL
USER_CHARGES


@<TRIPOS>ATOM
  1 F       -0.6100    -1.0290     0.2420 F     1 <1>  -0.3400 
  2 C       -1.4880    -1.3160    -0.7120 C.3   1 <1>   1.1640 
  3 F       -1.4700    -0.2890    -1.5530 F     1 <1>  -0.3400 
  4 F       -0.9910    -2.3510    -1.3760 F     1 <1>  -0.3400 
  5 C       -2.8870    -1.6150    -0.1480 C.ar  1 <1>  -0.1440 
  6 C       -4.0350    -1.1200    -0.7630 C.ar  1 <1>  -0.1500 
  7 C       -3.0240    -2.4030     0.9960 C.ar  1 <1>  -0.1500 
  8 C       -5.2880    -1.4080    -0.2370 C.ar  1 <1>   0.0860 
  9 C       -4.2730    -2.6910     1.5250 C.ar  1 <1>  -0.1500 
 10 C       -6.6060    -1.0390    -0.6620 C.2   1 <1>   0.5440 
 11 C       -5.3940    -2.1870     0.8990 C.ar  1 <1>  -0.1440 
 12 O       -6.9020    -0.3670    -1.6300 O.2   1 <1>  -0.5700 
 13 N       -7.5280    -1.5790     0.1800 N.am  1 <1>  -0.6600 
 14 C       -6.8610    -2.3440     1.2700 C.3   1 <1>   0.2840 
 15 C       -9.0040    -1.3900     0.0510 C.3   1 <1>   0.2810 
 16 C       -9.7980    -1.3770     1.3810 C.2   1 <1>   0.5690 
 17 C       -9.5310    -2.4760    -0.9050 C.3   1 <1>  -0.1600 
 18 O       -9.3250    -0.9480     2.4020 O.2   1 <1>  -0.5700 
 19 N      -11.0690    -1.8630     1.3900 N.am  1 <1>  -0.4900 
 20 C      -11.0650    -2.4210    -1.0220 C.3   1 <1>  -0.0990 
 21 C      -11.7430    -2.3900     0.3370 C.2   1 <1>   0.5690 
 22 O      -12.8540    -2.8200     0.4700 O.2   1 <1>  -0.5700 
 23 H       -3.9850    -0.5110    -1.6510 H     1 <1>   0.1500 
 24 H       -2.1490    -2.7990     1.4860 H     1 <1>   0.1500 
 25 H       -4.3620    -3.2980     2.4110 H     1 <1>   0.1500 
 26 H       -7.0570    -1.9020     2.2310 H     1 <1>   0.0800 
 27 H       -7.1640    -3.3770     1.2530 H     1 <1>   0.0800 
 28 H       -9.1690    -0.4310    -0.4110 H     1 <1>   0.0800 
 29 H       -9.2460    -3.4440    -0.5300 H     1 <1>   0.0800 
 30 H       -9.0890    -2.3440    -1.8780 H     1 <1>   0.0800 
 31 H      -11.5610    -1.8420     2.2800 H     1 <1>   0.3700 
 32 H      -11.4190    -3.2770    -1.5700 H     1 <1>   0.0800 
 33 H      -11.3580    -1.5400    -1.5640 H     1 <1>   0.0800 
@<TRIPOS>BOND
  1   1   2  1   
  2   2   3  1   
  3   2   4  1   
  4   2   5  1   
  5   5   6  ar  
  6   5   7  ar  
  7   6   8  ar  
  8   6  23  1   
  9   7   9  ar  
 10   7  24  1   
 11   8  10  1   
 12   8  11  ar  
 13   9  11  ar  
 14   9  25  1   
 15  10  12  2   
 16  10  13  am  
 17  11  14  1   
 18  13  14  1   
 19  13  15  1   
 20  14  26  1   
 21  14  27  1   
 22  15  16  1   
 23  15  17  1   
 24  15  28  1   
 25  16  18  2   
 26  16  19  am  
 27  17  20  1   
 28  17  29  1   
 29  17  30  1   
 30  19  21  am  
 31  19  31  1   
 32  20  21  1   
 33  20  32  1   
 34  20  33  1   
 35  21  22  2   
@<TRIPOS>SUBSTRUCTURE
  1 ****  10 GROUP 4 **** **** 0

# MOE 2024.06 (io_trps.svl 2023.06)
