@<TRIPOS>MOLECULE
NONAME
37 39 1 0 0 
SMALL
USER_CHARGES


@<TRIPOS>ATOM
  1 S       -0.4230     0.4080    -0.2170 S.3   1 <1>  -0.0800 
  2 C       -1.3040    -0.7810     0.6840 C.2   1 <1>   0.4420 
  3 C       -0.4860     1.4140     1.1900 C.2   1 <1>   0.1980 
  4 N       -1.5770    -0.3850     1.8730 N.2   1 <1>  -0.3380 
  5 N       -1.5840    -1.9600     0.0300 N.am  1 <1>  -0.4940 
  6 N       -1.1070     0.8690     2.1560 N.2   1 <1>  -0.3380 
  7 C        0.1750     2.7770     1.1320 C.3   1 <1>   0.1640 
  8 C       -2.2760    -3.0510     0.4600 C.2   1 <1>   0.6300 
  9 C        1.6550     2.6580     0.7950 C.ar  1 <1>  -0.1440 
 10 O       -2.7950    -3.1410     1.5430 O.2   1 <1>  -0.5700 
 11 C       -2.3710    -4.2270    -0.5140 C.3   1 <1>  -0.0950 
 12 C        2.1550     3.1580    -0.3990 C.ar  1 <1>  -0.1500 
 13 C        2.5170     2.0390     1.6870 C.ar  1 <1>  -0.1500 
 14 C       -2.8160    -3.9820    -1.9280 C.3   1 <1>  -0.2000 
 15 C       -3.7300    -4.6750    -0.9600 C.3   1 <1>  -0.2000 
 16 C       -1.3090    -5.3000    -0.2470 C.3   1 <1>  -0.1450 
 17 C        3.5020     3.0400    -0.7040 C.ar  1 <1>  -0.1430 
 18 C        3.8630     1.9210     1.3880 C.ar  1 <1>  -0.1500 
 19 C        4.3530     2.4210     0.1950 C.ar  1 <1>  -0.1500 
 20 C        4.0470     3.5880    -2.0110 C.3   1 <1>  -0.0970 
 21 H       -1.2200    -2.0340    -0.9140 H     1 <1>   0.3700 
 22 H        0.0670     3.2600     2.0860 H     1 <1>   0.0800 
 23 H       -0.3310     3.3780     0.3990 H     1 <1>   0.0800 
 24 H        1.4970     3.6410    -1.0990 H     1 <1>   0.1500 
 25 H        2.1440     1.6420     2.6160 H     1 <1>   0.1500 
 26 H       -2.3890    -4.5660    -2.7260 H     1 <1>   0.1000 
 27 H       -3.1000    -2.9950    -2.2490 H     1 <1>   0.1000 
 28 H       -4.5870    -4.1480    -0.5740 H     1 <1>   0.1000 
 29 H       -3.9190    -5.7270    -1.0800 H     1 <1>   0.1000 
 30 H       -0.3230    -4.8850    -0.3520 H     1 <1>   0.0800 
 31 H       -1.4120    -6.1240    -0.9310 H     1 <1>   0.0800 
 32 H       -1.4180    -5.6750     0.7570 H     1 <1>   0.0800 
 33 H        4.5280     1.4400     2.0840 H     1 <1>   0.1500 
 34 H        5.4010     2.3260    -0.0290 H     1 <1>   0.1500 
 35 H        3.2670     3.6600    -2.7480 H     1 <1>   0.0800 
 36 H        4.8160     2.9420    -2.3940 H     1 <1>   0.0800 
 37 H        4.4630     4.5660    -1.8490 H     1 <1>   0.0800 
@<TRIPOS>BOND
  1   1   2  1   
  2   1   3  1   
  3   2   4  2   
  4   2   5  1   
  5   3   6  2   
  6   3   7  1   
  7   4   6  1   
  8   5   8  am  
  9   5  21  1   
 10   7   9  1   
 11   7  22  1   
 12   7  23  1   
 13   8  10  2   
 14   8  11  1   
 15   9  12  ar  
 16   9  13  ar  
 17  11  14  1   
 18  11  15  1   
 19  11  16  1   
 20  12  17  ar  
 21  12  24  1   
 22  13  18  ar  
 23  13  25  1   
 24  14  15  1   
 25  14  26  1   
 26  14  27  1   
 27  15  28  1   
 28  15  29  1   
 29  16  30  1   
 30  16  31  1   
 31  16  32  1   
 32  17  19  ar  
 33  17  20  1   
 34  18  19  ar  
 35  18  33  1   
 36  19  34  1   
 37  20  35  1   
 38  20  36  1   
 39  20  37  1   
@<TRIPOS>SUBSTRUCTURE
  1 ****   1 GROUP 4 **** **** 0

# MOE 2024.06 (io_trps.svl 2023.06)
