@<TRIPOS>MOLECULE
NONAME
54 56 1 0 0 
SMALL
USER_CHARGES


@<TRIPOS>ATOM
  1 O        3.0720    -0.4970     1.8520 O.2   1 <1>  -0.5700 
  2 C        2.5390    -0.7870     0.7940 C.2   1 <1>   0.7160 
  3 N        2.3160     0.2500    -0.0770 N.am  1 <1>  -0.6600 
  4 C        2.3210    -2.1610     0.4160 C.2   1 <1>  -0.0860 
  5 C        3.2740     0.4470    -1.2060 C.3   1 <1>   0.1400 
  6 C        1.5450     1.4550     0.3380 C.3   1 <1>   0.1400 
  7 C        1.4600    -2.6840    -0.5600 C.2   1 <1>   0.1080 
  8 C        2.9160    -3.2760     0.9230 C.2   1 <1>  -0.3020 
  9 C        4.6730     0.8610    -0.6950 C.3   1 <1>   0.3430 
 10 C        2.3750     2.4390     1.1810 C.3   1 <1>  -0.1600 
 11 N        1.5410    -3.9700    -0.6580 N.2   1 <1>  -0.7070 
 12 C        0.4950    -1.9080    -1.4330 C.3   1 <1>  -0.0590 
 13 N        2.4350    -4.3390     0.2670 N.pl3 1 <1>   0.3140 
 14 N        4.6110     1.5690     0.6280 N.4   1 <1>  -0.9590 
 15 C        3.7610     2.7870     0.6300 C.3   1 <1>   0.3430 
 16 C        2.7740    -5.7510     0.4780 C.3   1 <1>   0.0160 
 17 C        5.9630     1.7900     1.2210 C.3   1 <1>   0.5230 
 18 C        6.8410     2.7200     0.3940 C.2   1 <1>  -0.0400 
 19 O        8.0960     2.8210     0.7790 O.3   1 <1>  -0.2800 
 20 C        6.6280     3.5020    -0.6910 C.2   1 <1>  -0.1500 
 21 C        8.7140     3.6550    -0.0320 C.2   1 <1>  -0.0400 
 22 C        7.8560     4.1130    -0.9680 C.2   1 <1>  -0.1500 
 23 C       10.1870     3.9320     0.2190 C.3   1 <1>   0.0200 
 24 C       10.7840     4.9190    -0.7940 C.3   1 <1>  -0.1600 
 25 C       12.2690     5.1800    -0.5170 C.3   1 <1>  -0.2400 
 26 H        2.8970     1.2020    -1.8730 H     1 <1>   0.0800 
 27 H        3.3610    -0.4660    -1.7720 H     1 <1>   0.0800 
 28 H        0.6890     1.1390     0.9120 H     1 <1>   0.0800 
 29 H        1.1720     1.9530    -0.5420 H     1 <1>   0.0800 
 30 H        3.6430    -3.3480     1.7110 H     1 <1>   0.1500 
 31 H        5.1590     1.4760    -1.4340 H     1 <1>   0.0800 
 32 H        5.2650    -0.0330    -0.5830 H     1 <1>   0.0800 
 33 H        2.4750     2.0570     2.1810 H     1 <1>   0.0800 
 34 H        1.8120     3.3510     1.2640 H     1 <1>   0.0800 
 35 H       -0.0230    -1.1700    -0.8500 H     1 <1>   0.0800 
 36 H       -0.2310    -2.5800    -1.8540 H     1 <1>   0.0800 
 37 H        1.0260    -1.4300    -2.2340 H     1 <1>   0.0800 
 38 H        4.1170     0.9000     1.2580 H     1 <1>   0.4500 
 39 H        4.2060     3.5400     1.2610 H     1 <1>   0.0800 
 40 H        3.6780     3.1900    -0.3660 H     1 <1>   0.0800 
 41 H        3.5340    -5.8340     1.2310 H     1 <1>   0.0800 
 42 H        3.1270    -6.1660    -0.4480 H     1 <1>   0.0800 
 43 H        1.8910    -6.2750     0.7910 H     1 <1>   0.0800 
 44 H        6.4690     0.8440     1.3140 H     1 <1>   0.0800 
 45 H        5.8630     2.2020     2.2110 H     1 <1>   0.0800 
 46 H        5.7390     3.6730    -1.2690 H     1 <1>   0.1500 
 47 H        8.0440     4.8040    -1.7720 H     1 <1>   0.1500 
 48 H       10.7240     3.0010     0.1720 H     1 <1>   0.0800 
 49 H       10.2970     4.3280     1.2130 H     1 <1>   0.0800 
 50 H       10.2480     5.8510    -0.7450 H     1 <1>   0.0800 
 51 H       10.6760     4.5210    -1.7880 H     1 <1>   0.0800 
 52 H       12.4020     5.5990     0.4650 H     1 <1>   0.0800 
 53 H       12.6620     5.8730    -1.2400 H     1 <1>   0.0800 
 54 H       12.8320     4.2650    -0.5830 H     1 <1>   0.0800 
@<TRIPOS>BOND
  1   1   2  2   
  2   2   3  am  
  3   2   4  1   
  4   3   5  1   
  5   3   6  1   
  6   4   7  1   
  7   4   8  2   
  8   5   9  1   
  9   5  26  1   
 10   5  27  1   
 11   6  10  1   
 12   6  28  1   
 13   6  29  1   
 14   7  11  2   
 15   7  12  1   
 16   8  13  1   
 17   8  30  1   
 18   9  14  1   
 19   9  31  1   
 20   9  32  1   
 21  10  15  1   
 22  10  33  1   
 23  10  34  1   
 24  11  13  1   
 25  12  35  1   
 26  12  36  1   
 27  12  37  1   
 28  13  16  1   
 29  14  15  1   
 30  14  17  1   
 31  14  38  1   
 32  15  39  1   
 33  15  40  1   
 34  16  41  1   
 35  16  42  1   
 36  16  43  1   
 37  17  18  1   
 38  17  44  1   
 39  17  45  1   
 40  18  19  1   
 41  18  20  2   
 42  19  21  1   
 43  20  22  1   
 44  20  46  1   
 45  21  22  2   
 46  21  23  1   
 47  22  47  1   
 48  23  24  1   
 49  23  48  1   
 50  23  49  1   
 51  24  25  1   
 52  24  50  1   
 53  24  51  1   
 54  25  52  1   
 55  25  53  1   
 56  25  54  1   
@<TRIPOS>SUBSTRUCTURE
  1 ****   9 GROUP 4 **** **** 0

# MOE 2024.06 (io_trps.svl 2023.06)
