@<TRIPOS>MOLECULE
NONAME
54 56 1 0 0 
SMALL
USER_CHARGES


@<TRIPOS>ATOM
  1 N       -1.0890    -1.4200     1.2400 N.ar  1 <1>  -0.6200 
  2 C       -1.8200    -1.8240     0.2160 C.ar  1 <1>   0.4100 
  3 C       -0.3250    -2.3880     1.7290 C.ar  1 <1>   0.1600 
  4 N       -2.6480    -0.8570    -0.3760 N.pl3 1 <1>  -0.8380 
  5 C       -1.7840    -3.1670    -0.2890 C.ar  1 <1>   0.4100 
  6 C       -0.2980    -3.6830     1.2440 C.ar  1 <1>   0.1600 
  7 C       -3.3010     0.1310     0.5270 C.3   1 <1>   0.1290 
  8 C       -2.0930    -0.2370    -1.6090 C.3   1 <1>   0.1290 
  9 N       -1.0330    -4.1250     0.2300 N.ar  1 <1>  -0.6200 
 10 N       -2.5840    -3.5090    -1.3750 N.pl3 1 <1>  -0.8690 
 11 C       -3.0420    -4.8960    -1.6260 C.3   1 <1>   0.2090 
 12 C       -4.0320    -5.3500    -0.5380 C.3   1 <1>   0.1100 
 13 N       -3.9840    -6.8130    -0.3070 N.3   1 <1>  -0.8100 
 14 C       -2.7710    -7.1800     0.4720 C.3   1 <1>   0.1100 
 15 C       -5.1980    -7.2680     0.4140 C.3   1 <1>   0.1100 
 16 C       -2.6740    -8.7040     0.7250 C.3   1 <1>   0.3430 
 17 C       -5.1460    -8.7720     0.7820 C.3   1 <1>   0.3430 
 18 N       -3.9020    -9.4150     0.2400 N.4   1 <1>  -0.9590 
 19 C       -3.8560   -10.8910     0.3940 C.3   1 <1>   0.4860 
 20 C       -5.0870   -11.4910    -0.2570 C.ar  1 <1>  -0.1430 
 21 C       -5.2060   -11.5210    -1.6390 C.ar  1 <1>  -0.1500 
 22 C       -6.1100   -12.0060     0.5280 C.ar  1 <1>  -0.1500 
 23 C       -6.3410   -12.0500    -2.2290 C.ar  1 <1>  -0.1500 
 24 C       -7.2430   -12.5350    -0.0640 C.ar  1 <1>  -0.1500 
 25 C       -7.3600   -12.5550    -1.4420 C.ar  1 <1>  -0.1500 
 26 H        0.3090    -2.1290     2.5580 H     1 <1>   0.1500 
 27 H        0.3610    -4.3930     1.7110 H     1 <1>   0.1500 
 28 H       -3.6440    -0.3620     1.4200 H     1 <1>   0.0800 
 29 H       -4.1440     0.5800     0.0320 H     1 <1>   0.0800 
 30 H       -2.5980     0.8980     0.8040 H     1 <1>   0.0800 
 31 H       -1.5880    -0.9800    -2.2030 H     1 <1>   0.0800 
 32 H       -1.3870     0.5310    -1.3450 H     1 <1>   0.0800 
 33 H       -2.8880     0.1930    -2.1930 H     1 <1>   0.0800 
 34 H       -3.2730    -2.7670    -1.5510 H     1 <1>   0.4000 
 35 H       -2.1800    -5.5370    -1.6540 H     1 <1>   0.0800 
 36 H       -3.5190    -4.9440    -2.5890 H     1 <1>   0.0800 
 37 H       -5.0200    -5.0640    -0.8550 H     1 <1>   0.0800 
 38 H       -3.8180    -4.8380     0.3850 H     1 <1>   0.0800 
 39 H       -2.7770    -6.6650     1.4190 H     1 <1>   0.0800 
 40 H       -1.8830    -6.8650    -0.0470 H     1 <1>   0.0800 
 41 H       -6.0620    -7.0950    -0.2050 H     1 <1>   0.0800 
 42 H       -5.3280    -6.6930     1.3160 H     1 <1>   0.0800 
 43 H       -2.5330    -8.8780     1.7790 H     1 <1>   0.0800 
 44 H       -1.8060    -9.0830     0.2110 H     1 <1>   0.0800 
 45 H       -6.0190    -9.2570     0.3760 H     1 <1>   0.0800 
 46 H       -5.1800    -8.8780     1.8530 H     1 <1>   0.0800 
 47 H       -3.9480    -9.1850    -0.7630 H     1 <1>   0.4500 
 48 H       -3.8310   -11.1550     1.4390 H     1 <1>   0.0800 
 49 H       -2.9740   -11.2870    -0.0810 H     1 <1>   0.0800 
 50 H       -4.4240   -11.1390    -2.2730 H     1 <1>   0.1500 
 51 H       -6.0400   -12.0070     1.6030 H     1 <1>   0.1500 
 52 H       -6.4340   -12.0740    -3.3020 H     1 <1>   0.1500 
 53 H       -8.0370   -12.9350     0.5440 H     1 <1>   0.1500 
 54 H       -8.2420   -12.9670    -1.9030 H     1 <1>   0.1500 
@<TRIPOS>BOND
  1   1   2  ar  
  2   1   3  ar  
  3   2   4  1   
  4   2   5  ar  
  5   3   6  ar  
  6   3  26  1   
  7   4   7  1   
  8   4   8  1   
  9   5   9  ar  
 10   5  10  1   
 11   6   9  ar  
 12   6  27  1   
 13   7  28  1   
 14   7  29  1   
 15   7  30  1   
 16   8  31  1   
 17   8  32  1   
 18   8  33  1   
 19  10  11  1   
 20  10  34  1   
 21  11  12  1   
 22  11  35  1   
 23  11  36  1   
 24  12  13  1   
 25  12  37  1   
 26  12  38  1   
 27  13  14  1   
 28  13  15  1   
 29  14  16  1   
 30  14  39  1   
 31  14  40  1   
 32  15  17  1   
 33  15  41  1   
 34  15  42  1   
 35  16  18  1   
 36  16  43  1   
 37  16  44  1   
 38  17  18  1   
 39  17  45  1   
 40  17  46  1   
 41  18  19  1   
 42  18  47  1   
 43  19  20  1   
 44  19  48  1   
 45  19  49  1   
 46  20  21  ar  
 47  20  22  ar  
 48  21  23  ar  
 49  21  50  1   
 50  22  24  ar  
 51  22  51  1   
 52  23  25  ar  
 53  23  52  1   
 54  24  25  ar  
 55  24  53  1   
 56  25  54  1   
@<TRIPOS>SUBSTRUCTURE
  1 ****  13 GROUP 4 **** **** 0

# MOE 2024.06 (io_trps.svl 2023.06)
