@<TRIPOS>MOLECULE
NONAME
42 43 1 0 0 
SMALL
USER_CHARGES


@<TRIPOS>ATOM
  1 S        0.4010    -0.0610     1.3490 S.o2  1 <1>   1.2040 
  2 O        1.8320     0.0820     1.2000 O.2   1 <1>  -0.6500 
  3 O       -0.2530     0.4320     2.5420 O.2   1 <1>  -0.6500 
  4 C       -0.4230     0.6080    -0.1170 C.ar  1 <1>  -0.0090 
  5 C        0.0270    -1.8090     1.2180 C.3   1 <1>  -0.0550 
  6 C       -1.7020     1.1490    -0.0410 C.ar  1 <1>  -0.1500 
  7 C        0.1870     0.5560    -1.3650 C.ar  1 <1>  -0.1500 
  8 C       -1.4760    -2.1270     1.3390 C.3   1 <1>  -0.0990 
  9 C       -2.3550     1.6110    -1.1710 C.ar  1 <1>  -0.1500 
 10 C       -0.4570     1.0190    -2.5000 C.ar  1 <1>  -0.1500 
 11 C       -1.8000    -3.6020     1.1650 C.2   1 <1>   0.5690 
 12 C       -1.7320     1.5440    -2.4030 C.ar  1 <1>  -0.1500 
 13 O       -0.8940    -4.3700     0.9350 O.2   1 <1>  -0.5700 
 14 N       -3.0960    -4.0330     1.2300 N.am  1 <1>  -0.6600 
 15 C       -3.4060    -5.4870     1.0880 C.3   1 <1>   0.3200 
 16 C       -4.2880    -3.1320     1.2530 C.3   1 <1>   0.1400 
 17 C       -3.4520    -5.8670    -0.3810 C.2   1 <1>   0.0060 
 18 C       -4.7100    -2.7500    -0.1720 C.3   1 <1>   0.1200 
 19 N       -4.5180    -6.2170    -1.0290 N.2   1 <1>  -0.5650 
 20 N       -2.3360    -5.8560    -1.1390 N.pl3 1 <1>   0.0330 
 21 O       -5.6700    -1.7510    -0.1060 O.3   1 <1>  -0.6800 
 22 C       -4.0700    -6.4500    -2.2780 C.2   1 <1>   0.0770 
 23 C       -2.7390    -6.2330    -2.3650 C.2   1 <1>  -0.3020 
 24 H        0.5510    -2.3370     1.9930 H     1 <1>   0.0800 
 25 H        0.3910    -2.1790     0.2780 H     1 <1>   0.0800 
 26 H       -2.1970     1.2130     0.9140 H     1 <1>   0.1500 
 27 H        1.1830     0.1530    -1.4520 H     1 <1>   0.1500 
 28 H       -2.0150    -1.5780     0.5910 H     1 <1>   0.0800 
 29 H       -1.8210    -1.8130     2.3070 H     1 <1>   0.0800 
 30 H       -3.3470     2.0220    -1.0900 H     1 <1>   0.1500 
 31 H        0.0340     0.9710    -3.4570 H     1 <1>   0.1500 
 32 H       -2.2370     1.9030    -3.2830 H     1 <1>   0.1500 
 33 H       -4.3530    -5.7120     1.5460 H     1 <1>   0.0800 
 34 H       -2.6520    -6.0720     1.5850 H     1 <1>   0.0800 
 35 H       -4.0600    -2.2380     1.8050 H     1 <1>   0.0800 
 36 H       -5.1060    -3.6260     1.7480 H     1 <1>   0.0800 
 37 H       -5.1250    -3.5910    -0.7010 H     1 <1>   0.0800 
 38 H       -3.8730    -2.3570    -0.7220 H     1 <1>   0.0800 
 39 H       -1.4010    -5.5830    -0.8080 H     1 <1>   0.2700 
 40 H       -6.5540    -2.1340     0.0650 H     1 <1>   0.4000 
 41 H       -4.7390    -6.7660    -3.0620 H     1 <1>   0.1500 
 42 H       -2.0770    -6.3240    -3.2070 H     1 <1>   0.1500 
@<TRIPOS>BOND
  1   1   2  2   
  2   1   3  2   
  3   1   4  1   
  4   1   5  1   
  5   4   6  ar  
  6   4   7  ar  
  7   5   8  1   
  8   5  24  1   
  9   5  25  1   
 10   6   9  ar  
 11   6  26  1   
 12   7  10  ar  
 13   7  27  1   
 14   8  11  1   
 15   8  28  1   
 16   8  29  1   
 17   9  12  ar  
 18   9  30  1   
 19  10  12  ar  
 20  10  31  1   
 21  11  13  2   
 22  11  14  am  
 23  12  32  1   
 24  14  15  1   
 25  14  16  1   
 26  15  17  1   
 27  15  33  1   
 28  15  34  1   
 29  16  18  1   
 30  16  35  1   
 31  16  36  1   
 32  17  19  2   
 33  17  20  1   
 34  18  21  1   
 35  18  37  1   
 36  18  38  1   
 37  19  22  1   
 38  20  23  1   
 39  20  39  1   
 40  21  40  1   
 41  22  23  2   
 42  22  41  1   
 43  23  42  1   
@<TRIPOS>SUBSTRUCTURE
  1 ****   8 GROUP 4 **** **** 0

# MOE 2024.06 (io_trps.svl 2023.06)
