@<TRIPOS>MOLECULE
NONAME
46 49 1 0 0 
SMALL
USER_CHARGES


@<TRIPOS>ATOM
  1 O       -0.6680    -0.0680     1.8510 O.2   1 <1>  -0.5700 
  2 C       -1.4290     0.7450     1.3600 C.2   1 <1>   0.5440 
  3 N       -2.4640     0.2970     0.5570 N.am  1 <1>  -0.6600 
  4 C       -1.2410     2.1490     1.6570 C.ar  1 <1>   0.0860 
  5 C       -3.5520     1.2110     0.0930 C.3   1 <1>   0.2200 
  6 C       -2.5850    -1.1620     0.2510 C.3   1 <1>   0.0600 
  7 C       -0.7790     3.0570     0.6620 C.ar  1 <1>   0.0000 
  8 C       -1.5450     2.6250     2.9130 C.ar  1 <1>  -0.1500 
  9 C       -4.9570     0.7530     0.4760 C.3   1 <1>  -0.1600 
 10 C       -3.6090     1.3720    -1.4240 C.3   1 <1>  -0.1600 
 11 C       -0.7180     4.4370     0.9660 C.ar  1 <1>   0.0000 
 12 C       -0.3740     2.6490    -0.6280 C.ar  1 <1>  -0.1500 
 13 C       -1.4560     3.9830     3.2210 C.ar  1 <1>  -0.1500 
 14 C       -5.8760     1.5340    -0.4730 C.3   1 <1>  -0.0800 
 15 C       -5.0180     1.9160    -1.6940 C.3   1 <1>  -0.0800 
 16 C       -1.0590     4.8700     2.2610 C.ar  1 <1>  -0.1500 
 17 C       -0.3070     5.3420    -0.0330 C.ar  1 <1>  -0.1500 
 18 C        0.0290     3.5480    -1.5770 C.ar  1 <1>  -0.1500 
 19 C       -6.3890     2.8520     0.1250 C.3   1 <1>  -0.1600 
 20 C       -5.0640     3.4480    -1.7960 C.3   1 <1>  -0.1600 
 21 C        0.0560     4.9130    -1.2780 C.ar  1 <1>  -0.1500 
 22 C       -6.3060     3.8510    -1.0180 C.3   1 <1>   0.2000 
 23 O       -6.1630     5.1270    -0.5230 O.3   1 <1>  -0.6800 
 24 H       -3.4190     2.1920     0.5140 H     1 <1>   0.0800 
 25 H       -3.0930    -1.3230    -0.6810 H     1 <1>   0.0800 
 26 H       -3.1320    -1.6480     1.0400 H     1 <1>   0.0800 
 27 H       -1.6080    -1.6100     0.1850 H     1 <1>   0.0800 
 28 H       -1.8660     1.9370     3.6770 H     1 <1>   0.1500 
 29 H       -5.0820    -0.2950     0.2780 H     1 <1>   0.0800 
 30 H       -5.1710     0.9470     1.5120 H     1 <1>   0.0800 
 31 H       -2.8410     2.0310    -1.7860 H     1 <1>   0.0800 
 32 H       -3.5090     0.4190    -1.9080 H     1 <1>   0.0800 
 33 H       -0.3810     1.5990    -0.8690 H     1 <1>   0.1500 
 34 H       -1.7050     4.3160     4.2140 H     1 <1>   0.1500 
 35 H       -6.7110     0.9260    -0.7810 H     1 <1>   0.0800 
 36 H       -5.4280     1.4800    -2.5900 H     1 <1>   0.0800 
 37 H       -0.9940     5.9200     2.4860 H     1 <1>   0.1500 
 38 H       -0.2790     6.3910     0.2050 H     1 <1>   0.1500 
 39 H        0.3300     3.2200    -2.5560 H     1 <1>   0.1500 
 40 H       -5.7490     3.1690     0.9300 H     1 <1>   0.0800 
 41 H       -7.3980     2.7540     0.4840 H     1 <1>   0.0800 
 42 H       -5.1250     3.7710    -2.8200 H     1 <1>   0.0800 
 43 H       -4.1910     3.8790    -1.3350 H     1 <1>   0.0800 
 44 H        0.3710     5.6090    -2.0360 H     1 <1>   0.1500 
 45 H       -7.1870     3.8070    -1.6380 H     1 <1>   0.0800 
 46 H       -5.3510     5.1850     0.0120 H     1 <1>   0.4000 
@<TRIPOS>BOND
  1   1   2  2   
  2   2   3  am  
  3   2   4  1   
  4   3   5  1   
  5   3   6  1   
  6   4   7  ar  
  7   4   8  ar  
  8   5   9  1   
  9   5  10  1   
 10   5  24  1   
 11   6  25  1   
 12   6  26  1   
 13   6  27  1   
 14   7  11  ar  
 15   7  12  ar  
 16   8  13  ar  
 17   8  28  1   
 18   9  14  1   
 19   9  29  1   
 20   9  30  1   
 21  10  15  1   
 22  10  31  1   
 23  10  32  1   
 24  11  16  ar  
 25  11  17  ar  
 26  12  18  ar  
 27  12  33  1   
 28  13  16  ar  
 29  13  34  1   
 30  14  15  1   
 31  14  19  1   
 32  14  35  1   
 33  15  20  1   
 34  15  36  1   
 35  16  37  1   
 36  17  21  ar  
 37  17  38  1   
 38  18  21  ar  
 39  18  39  1   
 40  19  22  1   
 41  19  40  1   
 42  19  41  1   
 43  20  22  1   
 44  20  42  1   
 45  20  43  1   
 46  21  44  1   
 47  22  23  1   
 48  22  45  1   
 49  23  46  1   
@<TRIPOS>SUBSTRUCTURE
  1 ****   5 GROUP 4 **** **** 0

# MOE 2024.06 (io_trps.svl 2023.06)
