@<TRIPOS>MOLECULE
NONAME
58 60 1 0 0 
SMALL
USER_CHARGES


@<TRIPOS>ATOM
  1 O        0.1340    -1.3040    -1.0040 O.2   1 <1>  -0.5700 
  2 C        0.1670    -1.3590     0.2040 C.2   1 <1>   0.5690 
  3 N        1.3150    -1.1800     0.9200 N.am  1 <1>  -0.7300 
  4 C       -1.1660    -1.6260     0.9230 C.3   1 <1>   0.4040 
  5 C        2.6630    -0.8950     0.3640 C.3   1 <1>   0.2200 
  6 N       -2.3660    -1.2100     0.1090 N.4   1 <1>  -0.9590 
  7 C        2.6290     0.4280    -0.4180 C.3   1 <1>  -0.1600 
  8 C        3.1520    -2.1030    -0.4640 C.3   1 <1>  -0.1600 
  9 C       -3.6380    -1.8040     0.6240 C.3   1 <1>   0.3430 
 10 C       -2.4480     0.2710    -0.0390 C.3   1 <1>   0.3430 
 11 C        3.9580     1.2010    -0.4200 C.3   1 <1>  -0.1600 
 12 C        4.4820    -2.6880     0.0360 C.3   1 <1>  -0.1600 
 13 C       -4.8330    -1.4860    -0.3020 C.3   1 <1>   0.0000 
 14 C       -3.5960     0.6340    -0.9830 C.3   1 <1>  -0.1600 
 15 C        5.1390     0.4660    -1.0720 C.3   1 <1>  -0.1600 
 16 C        5.7350    -1.9870    -0.5120 C.3   1 <1>  -0.1600 
 17 C       -6.1270    -2.0640     0.3000 C.3   1 <1>   0.2000 
 18 C       -4.9350     0.0380    -0.5160 C.3   1 <1>  -0.1600 
 19 C       -4.7140    -2.2600    -1.6260 C.3   1 <1>  -0.1600 
 20 C        5.8830    -0.5050    -0.1330 C.3   1 <1>  -0.1600 
 21 O       -6.0970    -2.0140     1.6830 O.3   1 <1>  -0.6800 
 22 C       -6.2220    -3.5180    -0.1700 C.3   1 <1>  -0.1600 
 23 C       -5.2000    -3.6740    -1.3050 C.3   1 <1>  -0.1600 
 24 H        1.3250    -1.2740     1.9380 H     1 <1>   0.3700 
 25 H       -1.1680    -1.1080     1.8660 H     1 <1>   0.0800 
 26 H       -1.2200    -2.6830     1.1200 H     1 <1>   0.0800 
 27 H        3.3200    -0.7580     1.2060 H     1 <1>   0.0800 
 28 H       -2.1890    -1.5750    -0.8410 H     1 <1>   0.4500 
 29 H        2.3200     0.2460    -1.4320 H     1 <1>   0.0800 
 30 H        1.8960     1.0750     0.0280 H     1 <1>   0.0800 
 31 H        2.4200    -2.8900    -0.4130 H     1 <1>   0.0800 
 32 H        3.2440    -1.8430    -1.5030 H     1 <1>   0.0800 
 33 H       -3.5410    -2.8730     0.7150 H     1 <1>   0.0800 
 34 H       -3.8450    -1.4060     1.6040 H     1 <1>   0.0800 
 35 H       -2.6190     0.7250     0.9240 H     1 <1>   0.0800 
 36 H       -1.5230     0.6540    -0.4400 H     1 <1>   0.0800 
 37 H        3.7950     2.1110    -0.9730 H     1 <1>   0.0800 
 38 H        4.2170     1.4930     0.5840 H     1 <1>   0.0800 
 39 H        4.5060    -2.6960     1.1120 H     1 <1>   0.0800 
 40 H        4.5300    -3.7150    -0.2830 H     1 <1>   0.0800 
 41 H       -3.6830     1.7060    -1.0270 H     1 <1>   0.0800 
 42 H       -3.3620     0.2940    -1.9760 H     1 <1>   0.0800 
 43 H        4.8190    -0.0250    -1.9750 H     1 <1>   0.0800 
 44 H        5.8480     1.2190    -1.3750 H     1 <1>   0.0800 
 45 H        6.5890    -2.5120    -0.1180 H     1 <1>   0.0800 
 46 H        5.7750    -2.0970    -1.5830 H     1 <1>   0.0800 
 47 H       -6.9840    -1.5080    -0.0460 H     1 <1>   0.0800 
 48 H       -5.7030     0.2650    -1.2360 H     1 <1>   0.0800 
 49 H       -5.2190     0.5030     0.4130 H     1 <1>   0.0800 
 50 H       -5.3800    -1.8300    -2.3560 H     1 <1>   0.0800 
 51 H       -3.7210    -2.2650    -2.0410 H     1 <1>   0.0800 
 52 H        5.6100    -0.3510     0.8960 H     1 <1>   0.0800 
 53 H        6.9320    -0.2690    -0.2040 H     1 <1>   0.0800 
 54 H       -6.9450    -2.3420     2.0480 H     1 <1>   0.4000 
 55 H       -6.0000    -4.2130     0.6220 H     1 <1>   0.0800 
 56 H       -7.2130    -3.7120    -0.5420 H     1 <1>   0.0800 
 57 H       -4.3760    -4.2800    -0.9680 H     1 <1>   0.0800 
 58 H       -5.6380    -4.1440    -2.1700 H     1 <1>   0.0800 
@<TRIPOS>BOND
  1   1   2  2   
  2   2   3  am  
  3   2   4  1   
  4   3   5  1   
  5   3  24  1   
  6   4   6  1   
  7   4  25  1   
  8   4  26  1   
  9   5   7  1   
 10   5   8  1   
 11   5  27  1   
 12   6   9  1   
 13   6  10  1   
 14   6  28  1   
 15   7  11  1   
 16   7  29  1   
 17   7  30  1   
 18   8  12  1   
 19   8  31  1   
 20   8  32  1   
 21   9  13  1   
 22   9  33  1   
 23   9  34  1   
 24  10  14  1   
 25  10  35  1   
 26  10  36  1   
 27  11  15  1   
 28  11  37  1   
 29  11  38  1   
 30  12  16  1   
 31  12  39  1   
 32  12  40  1   
 33  13  17  1   
 34  13  18  1   
 35  13  19  1   
 36  14  18  1   
 37  14  41  1   
 38  14  42  1   
 39  15  20  1   
 40  15  43  1   
 41  15  44  1   
 42  16  20  1   
 43  16  45  1   
 44  16  46  1   
 45  17  21  1   
 46  17  22  1   
 47  17  47  1   
 48  18  48  1   
 49  18  49  1   
 50  19  23  1   
 51  19  50  1   
 52  19  51  1   
 53  20  52  1   
 54  20  53  1   
 55  21  54  1   
 56  22  23  1   
 57  22  55  1   
 58  22  56  1   
 59  23  57  1   
 60  23  58  1   
@<TRIPOS>SUBSTRUCTURE
  1 ****   2 GROUP 4 **** **** 0

# MOE 2024.06 (io_trps.svl 2023.06)
