@<TRIPOS>MOLECULE
NONAME
44 45 1 0 0 
SMALL
USER_CHARGES


@<TRIPOS>ATOM
  1 N       -0.1050    -0.0510     0.1570 N.ar  1 <1>  -0.6200 
  2 C       -1.2630     0.5510    -0.0150 C.ar  1 <1>   0.4100 
  3 C        0.9200     0.7290     0.4230 C.ar  1 <1>   0.4760 
  4 N       -2.3460    -0.2460    -0.3020 N.pl3 1 <1>  -0.8690 
  5 C       -1.3870     1.9330     0.0840 C.ar  1 <1>  -0.1430 
  6 N        0.9310     2.0430     0.5380 N.ar  1 <1>  -0.6200 
  7 C        2.2420     0.0290     0.6210 C.3   1 <1>  -0.0970 
  8 C       -2.2700    -1.7050    -0.5150 C.3   1 <1>   0.2090 
  9 C       -0.2360     2.6290     0.3660 C.ar  1 <1>   0.1600 
 10 C       -2.7510     2.6020    -0.1140 C.3   1 <1>  -0.0170 
 11 C       -3.6470    -2.3110    -0.2620 C.3   1 <1>  -0.1600 
 12 C       -2.7800     4.1220     0.1100 C.3   1 <1>  -0.1600 
 13 C       -3.6070    -3.8240    -0.4430 C.3   1 <1>   0.2090 
 14 C       -4.1920     4.6850    -0.0840 C.3   1 <1>  -0.2400 
 15 N       -4.9600    -4.3660    -0.2060 N.pl3 1 <1>  -0.8690 
 16 C       -5.1030    -5.7340     0.0430 C.ar  1 <1>   0.1000 
 17 C       -5.8670    -6.2100     1.1130 C.ar  1 <1>   0.1600 
 18 C       -4.4960    -6.6740    -0.7720 C.ar  1 <1>  -0.1500 
 19 N       -6.0510    -7.4830     1.4290 N.ar  1 <1>  -0.6200 
 20 C       -4.6760    -8.0050    -0.4640 C.ar  1 <1>  -0.1500 
 21 C       -5.4500    -8.3510     0.6320 C.ar  1 <1>   0.1600 
 22 H       -3.1770     0.2090    -0.6790 H     1 <1>   0.4000 
 23 H        2.4420    -0.6050    -0.2230 H     1 <1>   0.0800 
 24 H        2.1970    -0.5690     1.5100 H     1 <1>   0.0800 
 25 H        3.0380     0.7440     0.7170 H     1 <1>   0.0800 
 26 H       -1.5520    -2.1350     0.1650 H     1 <1>   0.0800 
 27 H       -1.9470    -1.9000    -1.5240 H     1 <1>   0.0800 
 28 H       -0.2440     3.7000     0.4580 H     1 <1>   0.1500 
 29 H       -3.4500     2.1460     0.5670 H     1 <1>   0.0800 
 30 H       -3.0860     2.3960    -1.1150 H     1 <1>   0.0800 
 31 H       -4.3520    -1.8920    -0.9570 H     1 <1>   0.0800 
 32 H       -3.9470    -2.0800     0.7440 H     1 <1>   0.0800 
 33 H       -2.1150     4.6040    -0.5870 H     1 <1>   0.0800 
 34 H       -2.4490     4.3460     1.1100 H     1 <1>   0.0800 
 35 H       -2.9130    -4.2670     0.2540 H     1 <1>   0.0800 
 36 H       -3.2970    -4.0680    -1.4450 H     1 <1>   0.0800 
 37 H       -4.5410     4.4970    -1.0840 H     1 <1>   0.0800 
 38 H       -4.1880     5.7490     0.0790 H     1 <1>   0.0800 
 39 H       -4.8770     4.2370     0.6140 H     1 <1>   0.0800 
 40 H       -5.4960    -3.7640     0.4280 H     1 <1>   0.4000 
 41 H       -6.3480    -5.4850     1.7410 H     1 <1>   0.1500 
 42 H       -3.9130    -6.3730    -1.6220 H     1 <1>   0.1500 
 43 H       -4.2250    -8.7710    -1.0670 H     1 <1>   0.1500 
 44 H       -5.5820    -9.3950     0.8620 H     1 <1>   0.1500 
@<TRIPOS>BOND
  1   1   2  ar  
  2   1   3  ar  
  3   2   4  1   
  4   2   5  ar  
  5   3   6  ar  
  6   3   7  1   
  7   4   8  1   
  8   4  22  1   
  9   5   9  ar  
 10   5  10  1   
 11   6   9  ar  
 12   7  23  1   
 13   7  24  1   
 14   7  25  1   
 15   8  11  1   
 16   8  26  1   
 17   8  27  1   
 18   9  28  1   
 19  10  12  1   
 20  10  29  1   
 21  10  30  1   
 22  11  13  1   
 23  11  31  1   
 24  11  32  1   
 25  12  14  1   
 26  12  33  1   
 27  12  34  1   
 28  13  15  1   
 29  13  35  1   
 30  13  36  1   
 31  14  37  1   
 32  14  38  1   
 33  14  39  1   
 34  15  16  1   
 35  15  40  1   
 36  16  17  ar  
 37  16  18  ar  
 38  17  19  ar  
 39  17  41  1   
 40  18  20  ar  
 41  18  42  1   
 42  19  21  ar  
 43  20  21  ar  
 44  20  43  1   
 45  21  44  1   
@<TRIPOS>SUBSTRUCTURE
  1 ****   8 GROUP 4 **** **** 0

# MOE 2024.06 (io_trps.svl 2023.06)
