@<TRIPOS>MOLECULE
NONAME
56 60 1 0 0 
SMALL
USER_CHARGES


@<TRIPOS>ATOM
  1 N       -0.3220     0.2100     0.2080 N.ar  1 <1>  -0.6200 
  2 C       -1.6100     0.5790     0.2890 C.ar  1 <1>   0.6200 
  3 C        0.3760     0.8070    -0.7250 C.ar  1 <1>   0.1660 
  4 N       -2.1980     1.4970    -0.4890 N.ar  1 <1>  -0.6200 
  5 C       -2.4270    -0.0620     1.3080 C.ar  1 <1>   0.0000 
  6 C       -0.1370     1.7490    -1.5600 C.ar  1 <1>  -0.1430 
  7 C        1.8410     0.5540    -0.9920 C.3   1 <1>   0.1440 
  8 C       -1.4610     2.0750    -1.4100 C.ar  1 <1>   0.1600 
  9 C       -2.2370    -1.4010     1.6630 C.ar  1 <1>  -0.1500 
 10 C       -3.4370     0.6330     1.9780 C.ar  1 <1>  -0.1500 
 11 C        0.9030     2.2710    -2.5190 C.3   1 <1>  -0.0160 
 12 C        2.5900     0.5690     0.3530 C.3   1 <1>   0.3430 
 13 C        2.0260    -0.8080    -1.6940 C.3   1 <1>  -0.1600 
 14 C        2.2200     1.7420    -1.9180 C.3   1 <1>  -0.1600 
 15 C       -3.0080    -2.0110     2.6360 C.ar  1 <1>  -0.1500 
 16 C       -4.2120     0.0300     2.9520 C.ar  1 <1>  -0.1500 
 17 N        4.0350     0.1860     0.2020 N.4   1 <1>  -0.9590 
 18 C        3.5070    -1.2210    -1.7680 C.3   1 <1>  -0.1600 
 19 C       -3.9980    -1.2950     3.2840 C.ar  1 <1>  -0.1500 
 20 C        4.1890    -1.1750    -0.3980 C.3   1 <1>   0.3430 
 21 C        4.7580     0.2940     1.4940 C.3   1 <1>   0.5240 
 22 C        6.2340     0.1730     1.2000 C.2   1 <1>  -0.1810 
 23 C        7.0410    -0.9040     1.5480 C.2   1 <1>   0.1390 
 24 C        7.0620     1.0290     0.5590 C.2   1 <1>  -0.3020 
 25 N        8.2600    -0.7430     1.1460 N.2   1 <1>  -0.7070 
 26 N        8.2840     0.4580     0.5430 N.pl3 1 <1>   0.3140 
 27 C        9.5270     1.0190    -0.0310 C.3   1 <1>   0.0960 
 28 C       10.1170     2.1050     0.8780 C.3   1 <1>  -0.2400 
 29 H       -1.9210     2.8130    -2.0460 H     1 <1>   0.1500 
 30 H       -1.4760    -1.9740     1.1650 H     1 <1>   0.1500 
 31 H       -3.6190     1.6640     1.7290 H     1 <1>   0.1500 
 32 H        0.8910     3.3460    -2.5760 H     1 <1>   0.0800 
 33 H        0.7310     1.8530    -3.4970 H     1 <1>   0.0800 
 34 H        2.1020    -0.1270     1.0160 H     1 <1>   0.0800 
 35 H        2.5060     1.5510     0.7880 H     1 <1>   0.0800 
 36 H        1.6000    -0.7770    -2.6830 H     1 <1>   0.0800 
 37 H        1.4860    -1.5600    -1.1420 H     1 <1>   0.0800 
 38 H        2.9150     1.4710    -2.6930 H     1 <1>   0.0800 
 39 H        2.6550     2.5340    -1.3320 H     1 <1>   0.0800 
 40 H       -2.8410    -3.0430     2.8890 H     1 <1>   0.1500 
 41 H       -4.9820     0.5910     3.4510 H     1 <1>   0.1500 
 42 H        4.4980     0.8470    -0.4330 H     1 <1>   0.4500 
 43 H        4.0430    -0.5890    -2.4540 H     1 <1>   0.0800 
 44 H        3.5720    -2.2250    -2.1510 H     1 <1>   0.0800 
 45 H       -4.6000    -1.7670     4.0420 H     1 <1>   0.1500 
 46 H        3.7410    -1.9120     0.2490 H     1 <1>   0.0800 
 47 H        5.2350    -1.4150    -0.5110 H     1 <1>   0.0800 
 48 H        4.4440    -0.4830     2.1720 H     1 <1>   0.0800 
 49 H        4.5660     1.2510     1.9500 H     1 <1>   0.0800 
 50 H        6.7220    -1.7830     2.0850 H     1 <1>   0.1500 
 51 H        6.8780     1.9960     0.1250 H     1 <1>   0.1500 
 52 H        9.3080     1.4220    -1.0020 H     1 <1>   0.0800 
 53 H       10.2350     0.2170    -0.1460 H     1 <1>   0.0800 
 54 H        9.4290     2.9240     0.9870 H     1 <1>   0.0800 
 55 H       11.0300     2.4800     0.4510 H     1 <1>   0.0800 
 56 H       10.3400     1.6930     1.8470 H     1 <1>   0.0800 
@<TRIPOS>BOND
  1   1   2  ar  
  2   1   3  ar  
  3   2   4  ar  
  4   2   5  1   
  5   3   6  ar  
  6   3   7  1   
  7   4   8  ar  
  8   5   9  ar  
  9   5  10  ar  
 10   6   8  ar  
 11   6  11  1   
 12   7  12  1   
 13   7  13  1   
 14   7  14  1   
 15   8  29  1   
 16   9  15  ar  
 17   9  30  1   
 18  10  16  ar  
 19  10  31  1   
 20  11  14  1   
 21  11  32  1   
 22  11  33  1   
 23  12  17  1   
 24  12  34  1   
 25  12  35  1   
 26  13  18  1   
 27  13  36  1   
 28  13  37  1   
 29  14  38  1   
 30  14  39  1   
 31  15  19  ar  
 32  15  40  1   
 33  16  19  ar  
 34  16  41  1   
 35  17  20  1   
 36  17  21  1   
 37  17  42  1   
 38  18  20  1   
 39  18  43  1   
 40  18  44  1   
 41  19  45  1   
 42  20  46  1   
 43  20  47  1   
 44  21  22  1   
 45  21  48  1   
 46  21  49  1   
 47  22  23  1   
 48  22  24  2   
 49  23  25  2   
 50  23  50  1   
 51  24  26  1   
 52  24  51  1   
 53  25  26  1   
 54  26  27  1   
 55  27  28  1   
 56  27  52  1   
 57  27  53  1   
 58  28  54  1   
 59  28  55  1   
 60  28  56  1   
@<TRIPOS>SUBSTRUCTURE
  1 ****  12 GROUP 4 **** **** 0

# MOE 2024.06 (io_trps.svl 2023.06)
