@<TRIPOS>MOLECULE
NONAME
36 37 1 0 0 
SMALL
USER_CHARGES


@<TRIPOS>ATOM
  1 S        0.4620     0.5540    -1.3930 S.3   1 <1>  -0.0800 
  2 C        1.4140    -0.3520    -0.2310 C.2   1 <1>   0.1980 
  3 C       -0.8720    -0.5250    -1.1050 C.2   1 <1>  -0.1100 
  4 N        0.7950    -1.3370     0.2950 N.2   1 <1>  -0.5650 
  5 C        2.8410     0.1220     0.0160 C.3   1 <1>   0.3890 
  6 C       -0.4980    -1.4370    -0.1960 C.2   1 <1>   0.0770 
  7 N        2.8770     1.4650     0.6710 N.pl3 1 <1>  -0.8380 
  8 C        3.9360     2.2900     0.3770 C.ar  1 <1>   0.4100 
  9 C        2.3290     1.4900     2.0520 C.3   1 <1>   0.1290 
 10 N        5.1320     1.7430     0.4360 N.ar  1 <1>  -0.6200 
 11 C        3.7580     3.6270     0.0420 C.ar  1 <1>  -0.1430 
 12 C        6.1440     2.5450     0.1810 C.ar  1 <1>   0.4770 
 13 C        4.9000     4.3510    -0.1990 C.ar  1 <1>   0.1600 
 14 C        2.3460     4.2170    -0.0460 C.3   1 <1>  -0.0160 
 15 N        6.1070     3.8250    -0.1320 N.ar  1 <1>  -0.6200 
 16 C        7.5210     1.9300     0.2530 C.3   1 <1>  -0.0970 
 17 C        2.2510     5.5860    -0.7360 C.3   1 <1>  -0.1600 
 18 C        0.7950     6.0450    -0.8630 C.3   1 <1>  -0.2400 
 19 H       -1.7860    -0.3600    -1.6450 H     1 <1>   0.1500 
 20 H        3.3610     0.1660    -0.9250 H     1 <1>   0.0800 
 21 H        3.3480    -0.5910     0.6420 H     1 <1>   0.0800 
 22 H       -1.1140    -2.2360     0.1810 H     1 <1>   0.1500 
 23 H        1.2560     1.4120     2.0210 H     1 <1>   0.0800 
 24 H        2.5980     2.4100     2.5420 H     1 <1>   0.0800 
 25 H        2.7270     0.6680     2.6220 H     1 <1>   0.0800 
 26 H        4.8490     5.3930    -0.4570 H     1 <1>   0.1500 
 27 H        1.9460     4.2950     0.9490 H     1 <1>   0.0800 
 28 H        1.7260     3.5230    -0.5880 H     1 <1>   0.0800 
 29 H        7.4660     0.9190     0.6110 H     1 <1>   0.0800 
 30 H        8.1350     2.5050     0.9200 H     1 <1>   0.0800 
 31 H        7.9630     1.9340    -0.7260 H     1 <1>   0.0800 
 32 H        2.6860     5.5230    -1.7190 H     1 <1>   0.0800 
 33 H        2.7960     6.3190    -0.1660 H     1 <1>   0.0800 
 34 H        0.2280     5.3420    -1.4490 H     1 <1>   0.0800 
 35 H        0.7520     7.0050    -1.3470 H     1 <1>   0.0800 
 36 H        0.3400     6.1320     0.1090 H     1 <1>   0.0800 
@<TRIPOS>BOND
  1   1   2  1   
  2   1   3  1   
  3   2   4  2   
  4   2   5  1   
  5   3   6  2   
  6   3  19  1   
  7   4   6  1   
  8   5   7  1   
  9   5  20  1   
 10   5  21  1   
 11   6  22  1   
 12   7   8  1   
 13   7   9  1   
 14   8  10  ar  
 15   8  11  ar  
 16   9  23  1   
 17   9  24  1   
 18   9  25  1   
 19  10  12  ar  
 20  11  13  ar  
 21  11  14  1   
 22  12  15  ar  
 23  12  16  1   
 24  13  15  ar  
 25  13  26  1   
 26  14  17  1   
 27  14  27  1   
 28  14  28  1   
 29  16  29  1   
 30  16  30  1   
 31  16  31  1   
 32  17  18  1   
 33  17  32  1   
 34  17  33  1   
 35  18  34  1   
 36  18  35  1   
 37  18  36  1   
@<TRIPOS>SUBSTRUCTURE
  1 ****   7 GROUP 4 **** **** 0

# MOE 2024.06 (io_trps.svl 2023.06)
