@<TRIPOS>MOLECULE
NONAME
46 48 1 0 0 
SMALL
USER_CHARGES


@<TRIPOS>ATOM
  1 S        0.4120     1.7460    -0.3640 S.3   1 <1>  -0.3320 
  2 C       -0.9890     1.7150     0.7780 C.ar  1 <1>   0.1020 
  3 C        0.8340    -0.0100    -0.7710 C.3   1 <1>  -0.0100 
  4 C       -1.4270     2.9220     1.3380 C.ar  1 <1>   0.0860 
  5 C       -1.5940     0.5100     1.0990 C.ar  1 <1>  -0.1500 
  6 C       -0.8510     4.2010     1.0120 C.2   1 <1>   0.4230 
  7 C       -2.4700     2.8580     2.2630 C.ar  1 <1>  -0.1500 
  8 C       -2.6390     0.4830     2.0040 C.ar  1 <1>  -0.1500 
  9 O       -0.3390     4.9240     1.8310 O.2   1 <1>  -0.5700 
 10 C       -0.9030     4.7230    -0.4220 C.3   1 <1>  -0.0190 
 11 C       -3.0730     1.6590     2.5910 C.ar  1 <1>  -0.1500 
 12 C        0.5320     5.0910    -0.8320 C.3   1 <1>   0.3430 
 13 C       -1.8800     5.9220    -0.5450 C.3   1 <1>  -0.1600 
 14 N        0.8700     6.4100    -0.2300 N.4   1 <1>  -0.9590 
 15 C       -1.2740     7.0790    -1.3590 C.3   1 <1>  -0.1600 
 16 C        0.0840     7.5470    -0.8080 C.3   1 <1>   0.3430 
 17 C        2.3360     6.6650    -0.1510 C.3   1 <1>   0.5230 
 18 C        2.6000     8.0100     0.4920 C.2   1 <1>  -0.0400 
 19 O        2.0800     8.2680     1.6620 O.3   1 <1>  -0.0190 
 20 C        3.2900     9.0930     0.0980 C.2   1 <1>  -0.1500 
 21 N        2.3740     9.4670     2.0650 N.2   1 <1>  -0.4100 
 22 C        3.1080     9.9880     1.1490 C.2   1 <1>   0.1080 
 23 C        3.6880    11.3840     1.2170 C.3   1 <1>  -0.0590 
 24 H        1.7030     0.0010    -1.4040 H     1 <1>   0.0800 
 25 H       -0.0030    -0.4460    -1.2860 H     1 <1>   0.0800 
 26 H        1.0430    -0.5260     0.1490 H     1 <1>   0.0800 
 27 H       -1.2730    -0.4170     0.6650 H     1 <1>   0.1500 
 28 H       -2.8100     3.7660     2.7330 H     1 <1>   0.1500 
 29 H       -3.1130    -0.4500     2.2580 H     1 <1>   0.1500 
 30 H       -1.2430     3.9370    -1.0720 H     1 <1>   0.0800 
 31 H       -3.8800     1.6350     3.3040 H     1 <1>   0.1500 
 32 H        0.6050     5.1490    -1.9060 H     1 <1>   0.0800 
 33 H        1.2110     4.3300    -0.4810 H     1 <1>   0.0800 
 34 H       -2.1290     6.2970     0.4350 H     1 <1>   0.0800 
 35 H       -2.8000     5.5960    -1.0010 H     1 <1>   0.0800 
 36 H        0.5550     6.3170     0.7600 H     1 <1>   0.4500 
 37 H       -1.9530     7.9150    -1.3660 H     1 <1>   0.0800 
 38 H       -1.1490     6.7710    -2.3830 H     1 <1>   0.0800 
 39 H        0.6400     8.0200    -1.6010 H     1 <1>   0.0800 
 40 H       -0.0780     8.2830    -0.0350 H     1 <1>   0.0800 
 41 H        2.7670     6.6510    -1.1380 H     1 <1>   0.0800 
 42 H        2.8060     5.8960     0.4400 H     1 <1>   0.0800 
 43 H        3.8590     9.2780    -0.7960 H     1 <1>   0.1500 
 44 H        3.3570    11.9620     0.3740 H     1 <1>   0.0800 
 45 H        4.7610    11.3350     1.2140 H     1 <1>   0.0800 
 46 H        3.3670    11.8720     2.1200 H     1 <1>   0.0800 
@<TRIPOS>BOND
  1   1   2  1   
  2   1   3  1   
  3   2   4  ar  
  4   2   5  ar  
  5   3  24  1   
  6   3  25  1   
  7   3  26  1   
  8   4   6  1   
  9   4   7  ar  
 10   5   8  ar  
 11   5  27  1   
 12   6   9  2   
 13   6  10  1   
 14   7  11  ar  
 15   7  28  1   
 16   8  11  ar  
 17   8  29  1   
 18  10  12  1   
 19  10  13  1   
 20  10  30  1   
 21  11  31  1   
 22  12  14  1   
 23  12  32  1   
 24  12  33  1   
 25  13  15  1   
 26  13  34  1   
 27  13  35  1   
 28  14  16  1   
 29  14  17  1   
 30  14  36  1   
 31  15  16  1   
 32  15  37  1   
 33  15  38  1   
 34  16  39  1   
 35  16  40  1   
 36  17  18  1   
 37  17  41  1   
 38  17  42  1   
 39  18  19  1   
 40  18  20  2   
 41  19  21  1   
 42  20  22  1   
 43  20  43  1   
 44  21  22  2   
 45  22  23  1   
 46  23  44  1   
 47  23  45  1   
 48  23  46  1   
@<TRIPOS>SUBSTRUCTURE
  1 ****   9 GROUP 4 **** **** 0

# MOE 2024.06 (io_trps.svl 2023.06)
