@<TRIPOS>MOLECULE
NONAME
51 52 1 0 0 
SMALL
USER_CHARGES


@<TRIPOS>ATOM
  1 O       -1.0840     1.7890    -1.7020 O.2   1 <1>  -0.5700 
  2 C       -0.7020     1.0540    -0.8220 C.2   1 <1>   0.5690 
  3 N        0.3600     1.3410    -0.0380 N.am  1 <1>  -0.7300 
  4 C       -1.3980    -0.2900    -0.5790 C.3   1 <1>   0.1710 
  5 C        1.4500     2.2360    -0.3940 C.3   1 <1>   0.4010 
  6 N       -0.5090    -1.3130     0.0590 N.3   1 <1>  -0.8100 
  7 C        2.6960     1.3720    -0.5330 C.2   1 <1>  -0.1810 
  8 C        1.6110     3.2900     0.6940 C.3   1 <1>  -0.2400 
  9 C       -1.2780    -2.4380     0.6120 C.3   1 <1>   0.2530 
 10 C        0.5250    -1.7810    -0.8870 C.3   1 <1>   0.0300 
 11 C        3.5320     1.3670    -1.6460 C.2   1 <1>   0.1080 
 12 C        3.2380     0.4500     0.3040 C.2   1 <1>  -0.3320 
 13 C       -0.3880    -3.2800     1.5120 C.ar  1 <1>  -0.1440 
 14 N        4.5070     0.5260    -1.5260 N.2   1 <1>  -0.7070 
 15 C        3.3650     2.2160    -2.8860 C.3   1 <1>  -0.0590 
 16 N        4.3330    -0.0430    -0.3220 N.pl3 1 <1>   0.3140 
 17 C        2.7890    -0.0250     1.6820 C.3   1 <1>  -0.0600 
 18 C        0.2940    -2.6810     2.5600 C.ar  1 <1>   0.1600 
 19 C       -0.2330    -4.6370     1.3080 C.ar  1 <1>  -0.1500 
 20 C        5.2640    -1.0840     0.1640 C.3   1 <1>   0.0960 
 21 N        1.1060    -3.3070     3.4000 N.ar  1 <1>  -0.6200 
 22 C        0.6030    -5.3080     2.1750 C.ar  1 <1>  -0.1500 
 23 C        6.4110    -0.4680     0.9760 C.3   1 <1>  -0.2400 
 24 C        1.2370    -4.6060     3.1870 C.ar  1 <1>   0.1600 
 25 H        0.6810     0.5500     0.5270 H     1 <1>   0.3700 
 26 H       -1.7720    -0.6610    -1.5170 H     1 <1>   0.0800 
 27 H       -2.2380    -0.0940     0.0620 H     1 <1>   0.0800 
 28 H        1.2230     2.7200    -1.3290 H     1 <1>   0.0800 
 29 H        1.8250     2.8330     1.6410 H     1 <1>   0.0800 
 30 H        0.7130     3.8750     0.7700 H     1 <1>   0.0800 
 31 H        2.4260     3.9420     0.4390 H     1 <1>   0.0800 
 32 H       -1.6840    -3.0350    -0.1870 H     1 <1>   0.0800 
 33 H       -2.0960    -2.0620     1.2020 H     1 <1>   0.0800 
 34 H        1.0960    -0.9520    -1.2690 H     1 <1>   0.0800 
 35 H        0.0740    -2.3000    -1.7150 H     1 <1>   0.0800 
 36 H        1.2120    -2.4460    -0.3910 H     1 <1>   0.0800 
 37 H        3.3840     3.2570    -2.6230 H     1 <1>   0.0800 
 38 H        2.4310     1.9820    -3.3640 H     1 <1>   0.0800 
 39 H        4.1660     2.0170    -3.5750 H     1 <1>   0.0800 
 40 H        1.9250     0.5120     2.0220 H     1 <1>   0.0800 
 41 H        3.5760     0.1250     2.4000 H     1 <1>   0.0800 
 42 H        2.5450    -1.0720     1.6510 H     1 <1>   0.0800 
 43 H        0.1670    -1.6220     2.7090 H     1 <1>   0.1500 
 44 H       -0.7370    -5.1540     0.5100 H     1 <1>   0.1500 
 45 H        5.6600    -1.5980    -0.6930 H     1 <1>   0.0800 
 46 H        4.7170    -1.7890     0.7600 H     1 <1>   0.0800 
 47 H        0.7650    -6.3650     2.0710 H     1 <1>   0.1500 
 48 H        6.9580     0.2280     0.3630 H     1 <1>   0.0800 
 49 H        7.0840    -1.2400     1.3030 H     1 <1>   0.0800 
 50 H        6.0280     0.0450     1.8390 H     1 <1>   0.0800 
 51 H        1.8870    -5.1430     3.8580 H     1 <1>   0.1500 
@<TRIPOS>BOND
  1   1   2  2   
  2   2   3  am  
  3   2   4  1   
  4   3   5  1   
  5   3  25  1   
  6   4   6  1   
  7   4  26  1   
  8   4  27  1   
  9   5   7  1   
 10   5   8  1   
 11   5  28  1   
 12   6   9  1   
 13   6  10  1   
 14   7  11  1   
 15   7  12  2   
 16   8  29  1   
 17   8  30  1   
 18   8  31  1   
 19   9  13  1   
 20   9  32  1   
 21   9  33  1   
 22  10  34  1   
 23  10  35  1   
 24  10  36  1   
 25  11  14  2   
 26  11  15  1   
 27  12  16  1   
 28  12  17  1   
 29  13  18  ar  
 30  13  19  ar  
 31  14  16  1   
 32  15  37  1   
 33  15  38  1   
 34  15  39  1   
 35  16  20  1   
 36  17  40  1   
 37  17  41  1   
 38  17  42  1   
 39  18  21  ar  
 40  18  43  1   
 41  19  22  ar  
 42  19  44  1   
 43  20  23  1   
 44  20  45  1   
 45  20  46  1   
 46  21  24  ar  
 47  22  24  ar  
 48  22  47  1   
 49  23  48  1   
 50  23  49  1   
 51  23  50  1   
 52  24  51  1   
@<TRIPOS>SUBSTRUCTURE
  1 ****  17 GROUP 4 **** **** 0

# MOE 2024.06 (io_trps.svl 2023.06)
