@<TRIPOS>MOLECULE
NONAME
55 57 1 0 0 
SMALL
USER_CHARGES


@<TRIPOS>ATOM
  1 S        0.3890     0.0070     1.8040 S.o2  1 <1>   1.4470 
  2 O       -0.1290    -0.9910     2.7190 O.2   1 <1>  -0.6500 
  3 O        0.6690     1.3210     2.3440 O.2   1 <1>  -0.6500 
  4 N       -0.7920     0.1990     0.6020 N.am  1 <1>  -0.8490 
  5 C        1.8070    -0.7260     0.9410 C.ar  1 <1>  -0.0090 
  6 C       -2.1030     0.4920     1.2050 C.3   1 <1>   0.1960 
  7 C       -0.4390     1.2500    -0.3590 C.3   1 <1>   0.1960 
  8 C        2.8000     0.0400     0.3380 C.ar  1 <1>   0.0830 
  9 C        1.9170    -2.1080     0.8460 C.ar  1 <1>  -0.1500 
 10 C       -3.2290     0.4820     0.1540 C.3   1 <1>   0.0000 
 11 C       -1.4650     1.3110    -1.4950 C.3   1 <1>  -0.1600 
 12 O        2.7410     1.3880     0.3560 O.3   1 <1>  -0.3630 
 13 C        3.8630    -0.5530    -0.3270 C.ar  1 <1>  -0.1500 
 14 C        2.9820    -2.7170     0.1880 C.ar  1 <1>   0.0830 
 15 C       -4.5880     0.7510     0.8250 C.3   1 <1>   0.2000 
 16 C       -2.8930     1.5050    -0.9630 C.3   1 <1>  -0.1600 
 17 C       -3.4630    -0.9200    -0.4390 C.3   1 <1>  -0.1600 
 18 C        3.5770     2.0390     1.2870 C.3   1 <1>   0.0400 
 19 C        3.9640    -1.9300    -0.4030 C.ar  1 <1>  -0.1430 
 20 O        3.1130    -4.0680     0.0900 O.3   1 <1>  -0.3630 
 21 O       -4.7940     2.1120     1.0560 O.3   1 <1>  -0.5600 
 22 C       -5.6370     0.1750    -0.1290 C.3   1 <1>  -0.1600 
 23 C       -4.9220    -0.9380    -0.9090 C.3   1 <1>  -0.1600 
 24 C        5.1370    -2.5670    -1.1330 C.3   1 <1>  -0.0970 
 25 C        2.1770    -4.9470     0.6740 C.3   1 <1>   0.0400 
 26 C       -5.8410     2.4100     1.9250 C.3   1 <1>   0.0400 
 27 H       -2.3290    -0.2460     1.9560 H     1 <1>   0.0800 
 28 H       -2.0730     1.4540     1.6900 H     1 <1>   0.0800 
 29 H       -0.3870     2.2050     0.1410 H     1 <1>   0.0800 
 30 H        0.5250     1.0440    -0.7890 H     1 <1>   0.0800 
 31 H        1.1460    -2.7010     1.3020 H     1 <1>   0.1500 
 32 H       -1.2150     2.1270    -2.1490 H     1 <1>   0.0800 
 33 H       -1.3970     0.4060    -2.0720 H     1 <1>   0.0800 
 34 H        4.6040     0.0740    -0.7880 H     1 <1>   0.1500 
 35 H       -4.6270     0.2260     1.7660 H     1 <1>   0.0800 
 36 H       -3.5990     1.4380    -1.7710 H     1 <1>   0.0800 
 37 H       -2.9590     2.5010    -0.5610 H     1 <1>   0.0800 
 38 H       -2.7810    -1.1640    -1.2340 H     1 <1>   0.0800 
 39 H       -3.3410    -1.6580     0.3360 H     1 <1>   0.0800 
 40 H        3.3920     3.0960     1.2220 H     1 <1>   0.0800 
 41 H        4.6040     1.8250     1.0500 H     1 <1>   0.0800 
 42 H        3.3370     1.6880     2.2760 H     1 <1>   0.0800 
 43 H       -6.4780    -0.2150     0.4160 H     1 <1>   0.0800 
 44 H       -5.9680     0.9370    -0.8130 H     1 <1>   0.0800 
 45 H       -5.3700    -1.8990    -0.7260 H     1 <1>   0.0800 
 46 H       -4.9710    -0.7280    -1.9640 H     1 <1>   0.0800 
 47 H        5.8030    -1.8220    -1.5290 H     1 <1>   0.0800 
 48 H        4.7750    -3.1710    -1.9460 H     1 <1>   0.0800 
 49 H        5.6880    -3.1970    -0.4570 H     1 <1>   0.0800 
 50 H        2.4940    -5.9540     0.4730 H     1 <1>   0.0800 
 51 H        1.2110    -4.7740     0.2320 H     1 <1>   0.0800 
 52 H        2.1520    -4.7770     1.7360 H     1 <1>   0.0800 
 53 H       -5.8840     3.4790     2.0390 H     1 <1>   0.0800 
 54 H       -5.6520     1.9530     2.8810 H     1 <1>   0.0800 
 55 H       -6.7670     2.0540     1.5090 H     1 <1>   0.0800 
@<TRIPOS>BOND
  1   1   2  2   
  2   1   3  2   
  3   1   4  am  
  4   1   5  1   
  5   4   6  1   
  6   4   7  1   
  7   5   8  ar  
  8   5   9  ar  
  9   6  10  1   
 10   6  27  1   
 11   6  28  1   
 12   7  11  1   
 13   7  29  1   
 14   7  30  1   
 15   8  12  1   
 16   8  13  ar  
 17   9  14  ar  
 18   9  31  1   
 19  10  15  1   
 20  10  16  1   
 21  10  17  1   
 22  11  16  1   
 23  11  32  1   
 24  11  33  1   
 25  12  18  1   
 26  13  19  ar  
 27  13  34  1   
 28  14  19  ar  
 29  14  20  1   
 30  15  21  1   
 31  15  22  1   
 32  15  35  1   
 33  16  36  1   
 34  16  37  1   
 35  17  23  1   
 36  17  38  1   
 37  17  39  1   
 38  18  40  1   
 39  18  41  1   
 40  18  42  1   
 41  19  24  1   
 42  20  25  1   
 43  21  26  1   
 44  22  23  1   
 45  22  43  1   
 46  22  44  1   
 47  23  45  1   
 48  23  46  1   
 49  24  47  1   
 50  24  48  1   
 51  24  49  1   
 52  25  50  1   
 53  25  51  1   
 54  25  52  1   
 55  26  53  1   
 56  26  54  1   
 57  26  55  1   
@<TRIPOS>SUBSTRUCTURE
  1 ****   4 GROUP 4 **** **** 0

# MOE 2024.06 (io_trps.svl 2023.06)
