@<TRIPOS>MOLECULE
NONAME
52 54 1 0 0 
SMALL
USER_CHARGES


@<TRIPOS>ATOM
  1 S        0.3400    -0.4750     1.2740 S.o2  1 <1>   1.5760 
  2 O        1.4920    -1.3490     1.2640 O.2   1 <1>  -0.6500 
  3 O       -0.3240    -0.1420     2.5130 O.2   1 <1>  -0.6500 
  4 N       -0.8070    -1.0910     0.2050 N.am  1 <1>  -0.8490 
  5 N        0.7410     0.9530     0.4740 N.am  1 <1>  -0.8490 
  6 C       -1.1620    -2.4740     0.5600 C.3   1 <1>   0.1960 
  7 C       -2.0310    -0.2730     0.1860 C.3   1 <1>   0.1960 
  8 C        1.5880     1.8160     1.2710 C.3   1 <1>   0.1960 
  9 C        1.4590     0.7470    -0.7710 C.3   1 <1>   0.1960 
 10 C       -2.2480    -3.0440    -0.3760 C.3   1 <1>   0.3440 
 11 C       -3.0950    -0.8730    -0.7660 C.3   1 <1>   0.2000 
 12 C        2.1670     2.8110     0.2700 C.3   1 <1>  -0.1600 
 13 C        2.0540     2.1130    -1.0870 C.3   1 <1>  -0.1600 
 14 O       -3.3680    -2.1990    -0.3850 O.3   1 <1>  -0.5600 
 15 C       -2.6720    -4.4390     0.0730 C.ar  1 <1>  -0.1430 
 16 C       -4.4340    -0.0750    -0.8320 C.3   1 <1>   0.0000 
 17 C       -3.6220    -4.6140     1.0700 C.ar  1 <1>  -0.1500 
 18 C       -2.0950    -5.5580    -0.5100 C.ar  1 <1>  -0.1500 
 19 C       -4.1880     1.3740    -1.2920 C.3   1 <1>  -0.2400 
 20 C       -5.3740    -0.7350    -1.8580 C.3   1 <1>  -0.2400 
 21 C       -5.1550    -0.0380     0.5280 C.3   1 <1>  -0.2400 
 22 C       -3.9880    -5.8850     1.4790 C.ar  1 <1>  -0.1500 
 23 C       -2.4590    -6.8300    -0.1030 C.ar  1 <1>  -0.1500 
 24 C       -3.4060    -6.9940     0.8930 C.ar  1 <1>  -0.1500 
 25 H       -0.2870    -3.0980     0.4940 H     1 <1>   0.0800 
 26 H       -1.5210    -2.5160     1.5750 H     1 <1>   0.0800 
 27 H       -2.4420    -0.2020     1.1780 H     1 <1>   0.0800 
 28 H       -1.7800     0.7200    -0.1410 H     1 <1>   0.0800 
 29 H        1.0200     2.3040     2.0460 H     1 <1>   0.0800 
 30 H        2.3850     1.2410     1.7160 H     1 <1>   0.0800 
 31 H        2.2540     0.0320    -0.6340 H     1 <1>   0.0800 
 32 H        0.7960     0.4030    -1.5470 H     1 <1>   0.0800 
 33 H       -1.8660    -3.0920    -1.3800 H     1 <1>   0.0800 
 34 H       -2.6770    -0.9020    -1.7570 H     1 <1>   0.0800 
 35 H        1.5820     3.7140     0.2760 H     1 <1>   0.0800 
 36 H        3.1850     3.0500     0.5190 H     1 <1>   0.0800 
 37 H        3.0080     2.0130    -1.5730 H     1 <1>   0.0800 
 38 H        1.3860     2.6570    -1.7300 H     1 <1>   0.0800 
 39 H       -4.0840    -3.7550     1.5280 H     1 <1>   0.1500 
 40 H       -1.3570    -5.4480    -1.2860 H     1 <1>   0.1500 
 41 H       -5.1240     1.8860    -1.4340 H     1 <1>   0.0800 
 42 H       -3.6530     1.3890    -2.2250 H     1 <1>   0.0800 
 43 H       -3.6240     1.9260    -0.5630 H     1 <1>   0.0800 
 44 H       -6.2930    -0.1830    -1.9460 H     1 <1>   0.0800 
 45 H       -5.6160    -1.7390    -1.5580 H     1 <1>   0.0800 
 46 H       -4.9080    -0.7770    -2.8270 H     1 <1>   0.0800 
 47 H       -6.1030     0.4620     0.4380 H     1 <1>   0.0800 
 48 H       -4.5740     0.4840     1.2660 H     1 <1>   0.0800 
 49 H       -5.3370    -1.0370     0.8840 H     1 <1>   0.0800 
 50 H       -4.7260    -6.0080     2.2520 H     1 <1>   0.1500 
 51 H       -2.0070    -7.6930    -0.5600 H     1 <1>   0.1500 
 52 H       -3.6900    -7.9830     1.2100 H     1 <1>   0.1500 
@<TRIPOS>BOND
  1   1   2  2   
  2   1   3  2   
  3   1   4  am  
  4   1   5  am  
  5   4   6  1   
  6   4   7  1   
  7   5   8  1   
  8   5   9  1   
  9   6  10  1   
 10   6  25  1   
 11   6  26  1   
 12   7  11  1   
 13   7  27  1   
 14   7  28  1   
 15   8  12  1   
 16   8  29  1   
 17   8  30  1   
 18   9  13  1   
 19   9  31  1   
 20   9  32  1   
 21  10  14  1   
 22  10  15  1   
 23  10  33  1   
 24  11  14  1   
 25  11  16  1   
 26  11  34  1   
 27  12  13  1   
 28  12  35  1   
 29  12  36  1   
 30  13  37  1   
 31  13  38  1   
 32  15  17  ar  
 33  15  18  ar  
 34  16  19  1   
 35  16  20  1   
 36  16  21  1   
 37  17  22  ar  
 38  17  39  1   
 39  18  23  ar  
 40  18  40  1   
 41  19  41  1   
 42  19  42  1   
 43  19  43  1   
 44  20  44  1   
 45  20  45  1   
 46  20  46  1   
 47  21  47  1   
 48  21  48  1   
 49  21  49  1   
 50  22  24  ar  
 51  22  50  1   
 52  23  24  ar  
 53  23  51  1   
 54  24  52  1   
@<TRIPOS>SUBSTRUCTURE
  1 ****   4 GROUP 4 **** **** 0

# MOE 2024.06 (io_trps.svl 2023.06)
