@<TRIPOS>MOLECULE
NONAME
33 34 1 0 0 
SMALL
USER_CHARGES


@<TRIPOS>ATOM
  1 O      -10.9970     3.4160    -0.9950 O.2   1 <1>  -0.5700 
  2 C      -10.2480     3.5770    -0.0670 C.2   1 <1>   0.5690 
  3 N       -9.4210     2.6090     0.4280 N.am  1 <1>  -0.5470 
  4 C      -10.1990     4.9320     0.5930 C.3   1 <1>  -0.1790 
  5 C       -9.2760     1.2660     0.0490 C.ar  1 <1>   0.1170 
  6 C       -8.0520     0.6390     0.2380 C.ar  1 <1>  -0.1500 
  7 C      -10.3210     0.5290    -0.4960 C.ar  1 <1>  -0.1500 
  8 C       -7.8450    -0.6920    -0.1100 C.ar  1 <1>   0.0280 
  9 C      -10.1420    -0.7980    -0.8390 C.ar  1 <1>  -0.1500 
 10 C       -6.5640    -1.3360     0.0690 C.2   1 <1>  -0.1670 
 11 C       -8.9140    -1.4020    -0.6460 C.ar  1 <1>  -0.1500 
 12 C       -6.3710    -2.4190     0.8420 C.2   1 <1>  -0.2880 
 13 C       -5.4030    -0.7230    -0.7050 C.3   1 <1>  -0.0220 
 14 C       -5.0590    -3.1500     1.0300 C.3   1 <1>   0.4810 
 15 C       -4.0520    -1.2920    -0.2530 C.3   1 <1>   0.3430 
 16 N       -4.1480    -2.7700    -0.0780 N.4   1 <1>  -0.9060 
 17 H       -8.8010     2.9170     1.1730 H     1 <1>   0.3700 
 18 H      -10.4110     4.8370     1.6410 H     1 <1>   0.0800 
 19 H      -10.9350     5.5770     0.1480 H     1 <1>   0.0800 
 20 H       -9.2280     5.3690     0.4560 H     1 <1>   0.0800 
 21 H       -7.2440     1.2000     0.6670 H     1 <1>   0.1500 
 22 H      -11.2800     0.9890    -0.6500 H     1 <1>   0.1500 
 23 H      -10.9620    -1.3550    -1.2580 H     1 <1>   0.1500 
 24 H       -8.7860    -2.4330    -0.9190 H     1 <1>   0.1500 
 25 H       -7.1730    -2.8580     1.4130 H     1 <1>   0.1500 
 26 H       -5.3830     0.3440    -0.5700 H     1 <1>   0.0800 
 27 H       -5.5420    -0.9090    -1.7560 H     1 <1>   0.0800 
 28 H       -5.2300    -4.2150     1.0110 H     1 <1>   0.0800 
 29 H       -4.6290    -2.8880     1.9840 H     1 <1>   0.0800 
 30 H       -3.7760    -0.8380     0.6850 H     1 <1>   0.0800 
 31 H       -3.2970    -1.0470    -0.9830 H     1 <1>   0.0800 
 32 H       -4.5370    -3.1700    -0.9400 H     1 <1>   0.4500 
 33 H       -3.2210    -3.1830     0.0720 H     1 <1>   0.4500 
@<TRIPOS>BOND
  1   1   2  2   
  2   2   3  am  
  3   2   4  1   
  4   3   5  1   
  5   3  17  1   
  6   4  18  1   
  7   4  19  1   
  8   4  20  1   
  9   5   6  ar  
 10   5   7  ar  
 11   6   8  ar  
 12   6  21  1   
 13   7   9  ar  
 14   7  22  1   
 15   8  10  1   
 16   8  11  ar  
 17   9  11  ar  
 18   9  23  1   
 19  10  12  2   
 20  10  13  1   
 21  11  24  1   
 22  12  14  1   
 23  12  25  1   
 24  13  15  1   
 25  13  26  1   
 26  13  27  1   
 27  14  16  1   
 28  14  28  1   
 29  14  29  1   
 30  15  16  1   
 31  15  30  1   
 32  15  31  1   
 33  16  32  1   
 34  16  33  1   
@<TRIPOS>SUBSTRUCTURE
  1 ****   6 GROUP 4 **** **** 0

# MOE 2024.06 (io_trps.svl 2023.06)
