@<TRIPOS>MOLECULE
NONAME
50 52 1 0 0 
SMALL
USER_CHARGES


@<TRIPOS>ATOM
  1 S       -1.8620    -0.5800     1.2760 S.3   1 <1>  -0.0800 
  2 C       -1.4810    -1.5540    -0.1060 C.2   1 <1>   0.4420 
  3 C       -1.2090     0.7670     0.4120 C.2   1 <1>   0.1980 
  4 N       -0.9350    -0.8670    -1.0440 N.2   1 <1>  -0.3380 
  5 N       -1.7990    -2.8900    -0.0280 N.am  1 <1>  -0.4940 
  6 N       -0.7830     0.4560    -0.7420 N.2   1 <1>  -0.3380 
  7 C       -1.2060     2.1250     1.0770 C.3   1 <1>   0.0200 
  8 C       -1.6770    -3.8820    -0.9580 C.2   1 <1>   0.5690 
  9 C       -0.6150     3.1490     0.1020 C.3   1 <1>   0.3430 
 10 O       -1.2450    -3.7110    -2.0700 O.2   1 <1>  -0.5700 
 11 C       -2.1110    -5.2920    -0.5540 C.3   1 <1>   0.2010 
 12 N       -0.6260     4.5510     0.6420 N.4   1 <1>  -0.9590 
 13 N       -3.5210    -5.3670    -0.0520 N.am  1 <1>  -0.6600 
 14 C       -0.2970     5.5120    -0.4580 C.3   1 <1>   0.2630 
 15 C        0.3290     4.7350     1.7820 C.3   1 <1>   0.2630 
 16 C       -3.9780    -4.8760     1.1180 C.2   1 <1>   0.5690 
 17 C       -4.5860    -6.0000    -0.8510 C.3   1 <1>   0.1400 
 18 O       -3.3100    -4.2500     1.9050 O.2   1 <1>  -0.5700 
 19 C       -5.4420    -5.1550     1.3000 C.3   1 <1>  -0.0990 
 20 C       -5.7970    -6.0550     0.1000 C.3   1 <1>   0.0630 
 21 C       -6.0800    -7.4890     0.5460 C.ar  1 <1>  -0.1440 
 22 C       -5.1120    -8.2410     1.1980 C.ar  1 <1>  -0.1500 
 23 C       -7.3210    -8.0590     0.2990 C.ar  1 <1>  -0.1500 
 24 C       -5.3780    -9.5400     1.5940 C.ar  1 <1>  -0.1500 
 25 C       -7.5890    -9.3580     0.6950 C.ar  1 <1>  -0.1500 
 26 C       -6.6180   -10.1000     1.3420 C.ar  1 <1>  -0.1500 
 27 H       -2.2450    -3.1900     0.8490 H     1 <1>   0.3700 
 28 H       -0.6160     2.0630     1.9720 H     1 <1>   0.0800 
 29 H       -2.2180     2.3880     1.3270 H     1 <1>   0.0800 
 30 H       -1.1910     3.1130    -0.8090 H     1 <1>   0.0800 
 31 H        0.3940     2.8590    -0.1450 H     1 <1>   0.0800 
 32 H       -1.4490    -5.6400     0.2190 H     1 <1>   0.0800 
 33 H       -1.9980    -5.9420    -1.4020 H     1 <1>   0.0800 
 34 H       -1.5810     4.7690     0.9700 H     1 <1>   0.4500 
 35 H        0.6930     5.3210    -0.8400 H     1 <1>   0.0800 
 36 H       -0.3370     6.5260    -0.0950 H     1 <1>   0.0800 
 37 H       -1.0020     5.4110    -1.2680 H     1 <1>   0.0800 
 38 H        1.3350     4.5020     1.4700 H     1 <1>   0.0800 
 39 H        0.0660     4.0920     2.6060 H     1 <1>   0.0800 
 40 H        0.3050     5.7560     2.1280 H     1 <1>   0.0800 
 41 H       -4.2910    -6.9850    -1.1720 H     1 <1>   0.0800 
 42 H       -4.8020    -5.3890    -1.7110 H     1 <1>   0.0800 
 43 H       -5.9840    -4.2290     1.2590 H     1 <1>   0.0800 
 44 H       -5.6210    -5.6380     2.2430 H     1 <1>   0.0800 
 45 H       -6.6610    -5.6630    -0.4070 H     1 <1>   0.0800 
 46 H       -4.1420    -7.8220     1.4040 H     1 <1>   0.1500 
 47 H       -8.0910    -7.4990    -0.2030 H     1 <1>   0.1500 
 48 H       -4.6220   -10.1140     2.1000 H     1 <1>   0.1500 
 49 H       -8.5540    -9.7930     0.4990 H     1 <1>   0.1500 
 50 H       -6.8260   -11.1100     1.6510 H     1 <1>   0.1500 
@<TRIPOS>BOND
  1   1   2  1   
  2   1   3  1   
  3   2   4  2   
  4   2   5  1   
  5   3   6  2   
  6   3   7  1   
  7   4   6  1   
  8   5   8  am  
  9   5  27  1   
 10   7   9  1   
 11   7  28  1   
 12   7  29  1   
 13   8  10  2   
 14   8  11  1   
 15   9  12  1   
 16   9  30  1   
 17   9  31  1   
 18  11  13  1   
 19  11  32  1   
 20  11  33  1   
 21  12  14  1   
 22  12  15  1   
 23  12  34  1   
 24  13  16  am  
 25  13  17  1   
 26  14  35  1   
 27  14  36  1   
 28  14  37  1   
 29  15  38  1   
 30  15  39  1   
 31  15  40  1   
 32  16  18  2   
 33  16  19  1   
 34  17  20  1   
 35  17  41  1   
 36  17  42  1   
 37  19  20  1   
 38  19  43  1   
 39  19  44  1   
 40  20  21  1   
 41  20  45  1   
 42  21  22  ar  
 43  21  23  ar  
 44  22  24  ar  
 45  22  46  1   
 46  23  25  ar  
 47  23  47  1   
 48  24  26  ar  
 49  24  48  1   
 50  25  26  ar  
 51  25  49  1   
 52  26  50  1   
@<TRIPOS>SUBSTRUCTURE
  1 ****   5 GROUP 4 **** **** 0

# MOE 2024.06 (io_trps.svl 2023.06)
