@<TRIPOS>MOLECULE
NONAME
57 59 1 0 0 
SMALL
USER_CHARGES


@<TRIPOS>ATOM
  1 F        0.7340    -0.6030    -1.0910 F     1 <1>  -0.1900 
  2 C        1.8650    -1.1600    -0.7500 C.ar  1 <1>   0.1900 
  3 C        2.1710    -2.4070    -1.2550 C.ar  1 <1>  -0.1500 
  4 C        2.7060    -0.4760     0.1080 C.ar  1 <1>  -0.1500 
  5 C        3.3710    -2.9950    -0.8900 C.ar  1 <1>   0.0830 
  6 C        3.9100    -1.0630     0.4710 C.ar  1 <1>  -0.1440 
  7 O        3.6400    -4.2300    -1.3930 O.3   1 <1>  -0.1650 
  8 C        4.2400    -2.3100    -0.0420 C.ar  1 <1>  -0.1500 
  9 C        4.8630    -0.3760     1.4320 C.3   1 <1>   0.2840 
 10 C        4.6240    -5.0370    -0.9200 C.ar  1 <1>   0.0830 
 11 N        5.9370     0.2830     0.6600 N.am  1 <1>  -0.7300 
 12 C        4.7860    -5.3620     0.4330 C.ar  1 <1>   0.0830 
 13 C        5.5050    -5.5690    -1.8470 C.ar  1 <1>  -0.1500 
 14 C        7.1570    -0.2520     0.4360 C.2   1 <1>   0.5690 
 15 O        3.9320    -4.9470     1.3980 O.3   1 <1>  -0.3630 
 16 C        5.8620    -6.1310     0.8320 C.ar  1 <1>  -0.1500 
 17 C        6.5640    -6.3600    -1.4350 C.ar  1 <1>  -0.1500 
 18 O        7.4630    -1.3480     0.8420 O.2   1 <1>  -0.5700 
 19 C        8.1650     0.5490    -0.3750 C.3   1 <1>  -0.0990 
 20 C        2.6260    -5.4770     1.3610 C.3   1 <1>   0.0400 
 21 C        6.7870    -6.6290    -0.0840 C.ar  1 <1>   0.0860 
 22 C        9.6610     0.2840    -0.0660 C.3   1 <1>  -0.1600 
 23 C        7.9310    -7.3890     0.3770 C.2   1 <1>   0.5440 
 24 C       10.2490    -0.9730    -0.7220 C.3   1 <1>   0.3430 
 25 O        7.7890    -8.3500     1.1010 O.2   1 <1>  -0.5700 
 26 N        9.2190    -7.0590     0.0740 N.am  1 <1>  -0.7300 
 27 N        9.8930    -2.1910     0.0400 N.4   1 <1>  -0.9060 
 28 C        9.7430    -5.9200    -0.7030 C.3   1 <1>   0.1400 
 29 C       10.1180    -3.4430    -0.7110 C.3   1 <1>   0.3430 
 30 C        9.6000    -4.6260     0.1020 C.3   1 <1>  -0.1600 
 31 H        1.4910    -2.9100    -1.9160 H     1 <1>   0.1500 
 32 H        2.4130     0.4890     0.4790 H     1 <1>   0.1500 
 33 H        5.1810    -2.7490     0.2360 H     1 <1>   0.1500 
 34 H        5.2830    -1.1030     2.1060 H     1 <1>   0.0800 
 35 H        4.3390     0.3590     2.0200 H     1 <1>   0.0800 
 36 H        5.6580     1.1530     0.2040 H     1 <1>   0.3700 
 37 H        5.3550    -5.3600    -2.8920 H     1 <1>   0.1500 
 38 H        5.9860    -6.3570     1.8770 H     1 <1>   0.1500 
 39 H        7.2270    -6.7820    -2.1700 H     1 <1>   0.1500 
 40 H        7.9720     1.5890    -0.1810 H     1 <1>   0.0800 
 41 H        7.9700     0.3830    -1.4190 H     1 <1>   0.0800 
 42 H        2.0960    -5.1230     2.2270 H     1 <1>   0.0800 
 43 H        2.6860    -6.5510     1.3790 H     1 <1>   0.0800 
 44 H        2.1290    -5.1430     0.4680 H     1 <1>   0.0800 
 45 H        9.8320     0.2770     0.9970 H     1 <1>   0.0800 
 46 H       10.2120     1.1210    -0.4610 H     1 <1>   0.0800 
 47 H       11.3230    -0.8840    -0.7650 H     1 <1>   0.0800 
 48 H        9.8800    -1.0480    -1.7330 H     1 <1>   0.0800 
 49 H        9.9100    -7.6920     0.4880 H     1 <1>   0.3700 
 50 H        8.8870    -2.1210     0.2990 H     1 <1>   0.4500 
 51 H       10.3840    -2.2080     0.9410 H     1 <1>   0.4500 
 52 H        9.2100    -5.8450    -1.6350 H     1 <1>   0.0800 
 53 H       10.7810    -6.1070    -0.9280 H     1 <1>   0.0800 
 54 H       11.1690    -3.5700    -0.9140 H     1 <1>   0.0800 
 55 H        9.5890    -3.4000    -1.6500 H     1 <1>   0.0800 
 56 H       10.1610    -4.7170     1.0160 H     1 <1>   0.0800 
 57 H        8.5620    -4.4680     0.3360 H     1 <1>   0.0800 
@<TRIPOS>BOND
  1   1   2  1   
  2   2   3  ar  
  3   2   4  ar  
  4   3   5  ar  
  5   3  31  1   
  6   4   6  ar  
  7   4  32  1   
  8   5   7  1   
  9   5   8  ar  
 10   6   8  ar  
 11   6   9  1   
 12   7  10  1   
 13   8  33  1   
 14   9  11  1   
 15   9  34  1   
 16   9  35  1   
 17  10  12  ar  
 18  10  13  ar  
 19  11  14  am  
 20  11  36  1   
 21  12  15  1   
 22  12  16  ar  
 23  13  17  ar  
 24  13  37  1   
 25  14  18  2   
 26  14  19  1   
 27  15  20  1   
 28  16  21  ar  
 29  16  38  1   
 30  17  21  ar  
 31  17  39  1   
 32  19  22  1   
 33  19  40  1   
 34  19  41  1   
 35  20  42  1   
 36  20  43  1   
 37  20  44  1   
 38  21  23  1   
 39  22  24  1   
 40  22  45  1   
 41  22  46  1   
 42  23  25  2   
 43  23  26  am  
 44  24  27  1   
 45  24  47  1   
 46  24  48  1   
 47  26  28  1   
 48  26  49  1   
 49  27  29  1   
 50  27  50  1   
 51  27  51  1   
 52  28  30  1   
 53  28  52  1   
 54  28  53  1   
 55  29  30  1   
 56  29  54  1   
 57  29  55  1   
 58  30  56  1   
 59  30  57  1   
@<TRIPOS>SUBSTRUCTURE
  1 ****   8 GROUP 4 **** **** 0

# MOE 2024.06 (io_trps.svl 2023.06)
