@<TRIPOS>MOLECULE
NONAME
51 54 1 0 0 
SMALL
USER_CHARGES


@<TRIPOS>ATOM
  1 O       -2.2360     0.8000     2.1250 O.2   1 <1>  -0.5700 
  2 C       -2.4780     1.1140     0.9860 C.2   1 <1>   0.5690 
  3 N       -2.8730     0.1890     0.0600 N.am  1 <1>  -0.6600 
  4 C       -2.3090     2.5720     0.6120 C.3   1 <1>  -0.0990 
  5 C       -3.1830     0.4160    -1.3760 C.3   1 <1>   0.1400 
  6 C       -3.0270    -1.2490     0.3970 C.3   1 <1>   0.1400 
  7 C       -0.8980     2.8380     0.0800 C.3   1 <1>   0.0200 
  8 C       -3.9510    -0.8350    -1.7970 C.3   1 <1>   0.2000 
  9 C       -3.3420    -1.9470    -0.9330 C.3   1 <1>  -0.0800 
 10 C       -0.7270     4.3050    -0.2770 C.2   1 <1>  -0.3320 
 11 O       -5.2840    -0.6530    -1.4560 O.3   1 <1>  -0.6800 
 12 C       -4.2250    -3.2050    -0.7940 C.3   1 <1>  -0.0170 
 13 N       -0.5580     5.3130     0.6110 N.pl3 1 <1>   0.3140 
 14 C       -0.7080     4.8640    -1.5060 C.2   1 <1>  -0.1500 
 15 C       -3.6070    -4.4100    -0.0730 C.ar  1 <1>  -0.1440 
 16 N       -0.4400     6.4970    -0.0130 N.2   1 <1>  -0.7070 
 17 C       -0.4890     5.2300     2.0770 C.3   1 <1>   0.0160 
 18 C       -0.5280     6.2210    -1.2770 C.2   1 <1>   0.1390 
 19 C       -4.4200    -5.5260     0.2490 C.ar  1 <1>   0.0000 
 20 C       -2.2870    -4.4870     0.2790 C.ar  1 <1>  -0.1500 
 21 C       -3.8190    -6.6160     0.9260 C.ar  1 <1>   0.3100 
 22 C       -5.7960    -5.6280    -0.0670 C.ar  1 <1>  -0.1500 
 23 C       -1.7930    -5.6150     0.9440 C.ar  1 <1>   0.1600 
 24 N       -2.5070    -6.6440     1.2670 N.ar  1 <1>  -0.6200 
 25 C       -4.6060    -7.7280     1.2640 C.ar  1 <1>  -0.1500 
 26 C       -6.5350    -6.7280     0.2740 C.ar  1 <1>  -0.1500 
 27 C       -5.9360    -7.7930     0.9500 C.ar  1 <1>  -0.1500 
 28 H       -3.0400     2.8650    -0.1170 H     1 <1>   0.0800 
 29 H       -2.4800     3.1640     1.4910 H     1 <1>   0.0800 
 30 H       -3.7680     1.3050    -1.5360 H     1 <1>   0.0800 
 31 H       -2.2620     0.4820    -1.9280 H     1 <1>   0.0800 
 32 H       -2.1260    -1.6270     0.8500 H     1 <1>   0.0800 
 33 H       -3.8410    -1.3590     1.0940 H     1 <1>   0.0800 
 34 H       -0.7310     2.2400    -0.7990 H     1 <1>   0.0800 
 35 H       -0.1660     2.5480     0.8140 H     1 <1>   0.0800 
 36 H       -3.8930    -1.0320    -2.8540 H     1 <1>   0.0800 
 37 H       -2.4120    -2.2240    -1.3960 H     1 <1>   0.0800 
 38 H       -5.3320    -0.3370    -0.5310 H     1 <1>   0.4000 
 39 H       -4.5190    -3.5230    -1.7790 H     1 <1>   0.0800 
 40 H       -5.1210    -2.9270    -0.2660 H     1 <1>   0.0800 
 41 H       -0.8060     4.3980    -2.4700 H     1 <1>   0.1500 
 42 H        0.0620     4.3550     2.3630 H     1 <1>   0.0800 
 43 H       -1.4850     5.1860     2.4730 H     1 <1>   0.0800 
 44 H        0.0070     6.1060     2.4530 H     1 <1>   0.0800 
 45 H       -0.4680     6.9690    -2.0500 H     1 <1>   0.1500 
 46 H       -1.5800    -3.7090     0.0680 H     1 <1>   0.1500 
 47 H       -6.2820    -4.8270    -0.5920 H     1 <1>   0.1500 
 48 H       -0.7480    -5.6270     1.2040 H     1 <1>   0.1500 
 49 H       -4.1220    -8.5360     1.7810 H     1 <1>   0.1500 
 50 H       -7.5810    -6.7890     0.0270 H     1 <1>   0.1500 
 51 H       -6.5270    -8.6530     1.2140 H     1 <1>   0.1500 
@<TRIPOS>BOND
  1   1   2  2   
  2   2   3  am  
  3   2   4  1   
  4   3   5  1   
  5   3   6  1   
  6   4   7  1   
  7   4  28  1   
  8   4  29  1   
  9   5   8  1   
 10   5  30  1   
 11   5  31  1   
 12   6   9  1   
 13   6  32  1   
 14   6  33  1   
 15   7  10  1   
 16   7  34  1   
 17   7  35  1   
 18   8   9  1   
 19   8  11  1   
 20   8  36  1   
 21   9  12  1   
 22   9  37  1   
 23  10  13  1   
 24  10  14  2   
 25  11  38  1   
 26  12  15  1   
 27  12  39  1   
 28  12  40  1   
 29  13  16  1   
 30  13  17  1   
 31  14  18  1   
 32  14  41  1   
 33  15  19  ar  
 34  15  20  ar  
 35  16  18  2   
 36  17  42  1   
 37  17  43  1   
 38  17  44  1   
 39  18  45  1   
 40  19  21  ar  
 41  19  22  ar  
 42  20  23  ar  
 43  20  46  1   
 44  21  24  ar  
 45  21  25  ar  
 46  22  26  ar  
 47  22  47  1   
 48  23  24  ar  
 49  23  48  1   
 50  25  27  ar  
 51  25  49  1   
 52  26  27  ar  
 53  26  50  1   
 54  27  51  1   
@<TRIPOS>SUBSTRUCTURE
  1 ****   6 GROUP 4 **** **** 0

# MOE 2024.06 (io_trps.svl 2023.06)
