@<TRIPOS>MOLECULE
NONAME
43 45 1 0 0 
SMALL
USER_CHARGES


@<TRIPOS>ATOM
  1 CL       1.7370     2.1210    -0.7390 Cl    1 <1>  -0.1770 
  2 C        0.2760     2.9510    -0.2520 C.ar  1 <1>   0.1770 
  3 C       -0.5710     3.5050    -1.2070 C.ar  1 <1>  -0.1440 
  4 C        0.0220     3.0650     1.1020 C.ar  1 <1>  -0.1500 
  5 C       -1.7090     4.1730    -0.7750 C.ar  1 <1>  -0.1500 
  6 C       -0.2520     3.4800    -2.7000 C.3   1 <1>   0.0450 
  7 C       -1.0950     3.7620     1.5200 C.ar  1 <1>   0.0830 
  8 C       -1.9740     4.3040     0.5770 C.ar  1 <1>   0.0830 
  9 C        0.4740     4.7630    -3.0540 C.2   1 <1>   0.5690 
 10 O       -1.3030     3.9340     2.8490 O.3   1 <1>  -0.3630 
 11 O       -3.0870     4.9830     0.9570 O.3   1 <1>  -0.3630 
 12 O       -0.0200     5.5320    -3.8430 O.2   1 <1>  -0.5700 
 13 N        1.6220     5.0460    -2.3930 N.am  1 <1>  -0.7300 
 14 C       -2.1590     5.0030     3.2010 C.3   1 <1>   0.1200 
 15 C       -3.4240     4.9650     2.3320 C.3   1 <1>   0.1200 
 16 C        1.9680     6.4150    -1.9920 C.3   1 <1>   0.3200 
 17 C        1.5200     6.5610    -0.5530 C.2   1 <1>  -0.1400 
 18 S        2.5320     5.8650     0.6820 S.3   1 <1>  -0.0800 
 19 C        0.4390     7.1040     0.0330 C.2   1 <1>   0.0460 
 20 C        1.3760     6.3890     1.8850 C.2   1 <1>   0.1980 
 21 N        0.3750     7.0130     1.4160 N.2   1 <1>  -0.5650 
 22 C       -0.7300     7.7720    -0.6700 C.3   1 <1>   0.0210 
 23 C        1.6710     6.0500     3.3260 C.3   1 <1>  -0.0600 
 24 C       -0.7360     9.2850    -0.4320 C.3   1 <1>  -0.2400 
 25 H        0.6920     2.6370     1.8220 H     1 <1>   0.1500 
 26 H       -2.3890     4.6180    -1.4800 H     1 <1>   0.1500 
 27 H       -1.1630     3.4230    -3.2690 H     1 <1>   0.0800 
 28 H        0.3540     2.6360    -2.9680 H     1 <1>   0.0800 
 29 H        1.9620     4.3520    -1.7230 H     1 <1>   0.3700 
 30 H       -1.6270     5.9260     3.0450 H     1 <1>   0.0800 
 31 H       -2.4040     4.9050     4.2420 H     1 <1>   0.0800 
 32 H       -3.9820     4.0660     2.5270 H     1 <1>   0.0800 
 33 H       -4.0470     5.8180     2.5300 H     1 <1>   0.0800 
 34 H        1.4600     7.1290    -2.6180 H     1 <1>   0.0800 
 35 H        3.0290     6.5710    -2.0780 H     1 <1>   0.0800 
 36 H       -1.6450     7.3420    -0.3000 H     1 <1>   0.0800 
 37 H       -0.6820     7.5750    -1.7260 H     1 <1>   0.0800 
 38 H        2.6280     6.4490     3.6080 H     1 <1>   0.0800 
 39 H        1.6760     4.9830     3.4520 H     1 <1>   0.0800 
 40 H        0.9130     6.4720     3.9590 H     1 <1>   0.0800 
 41 H       -0.8170     9.4900     0.6210 H     1 <1>   0.0800 
 42 H       -1.5700     9.7360    -0.9390 H     1 <1>   0.0800 
 43 H        0.1750     9.7210    -0.8000 H     1 <1>   0.0800 
@<TRIPOS>BOND
  1   1   2  1   
  2   2   3  ar  
  3   2   4  ar  
  4   3   5  ar  
  5   3   6  1   
  6   4   7  ar  
  7   4  25  1   
  8   5   8  ar  
  9   5  26  1   
 10   6   9  1   
 11   6  27  1   
 12   6  28  1   
 13   7   8  ar  
 14   7  10  1   
 15   8  11  1   
 16   9  12  2   
 17   9  13  am  
 18  10  14  1   
 19  11  15  1   
 20  13  16  1   
 21  13  29  1   
 22  14  15  1   
 23  14  30  1   
 24  14  31  1   
 25  15  32  1   
 26  15  33  1   
 27  16  17  1   
 28  16  34  1   
 29  16  35  1   
 30  17  18  1   
 31  17  19  2   
 32  18  20  1   
 33  19  21  1   
 34  19  22  1   
 35  20  21  2   
 36  20  23  1   
 37  22  24  1   
 38  22  36  1   
 39  22  37  1   
 40  23  38  1   
 41  23  39  1   
 42  23  40  1   
 43  24  41  1   
 44  24  42  1   
 45  24  43  1   
@<TRIPOS>SUBSTRUCTURE
  1 ****  19 GROUP 4 **** **** 0

# MOE 2024.06 (io_trps.svl 2023.06)
