@<TRIPOS>MOLECULE
NONAME
50 53 1 0 0 
SMALL
USER_CHARGES


@<TRIPOS>ATOM
  1 F       -0.1740    -0.6630    -0.5300 F     1 <1>  -0.1900 
  2 C        0.9570    -0.7630     0.1150 C.ar  1 <1>   0.1900 
  3 C        1.6480    -1.9760     0.1250 C.ar  1 <1>   0.0540 
  4 C        1.4000     0.3670     0.7770 C.ar  1 <1>  -0.1500 
  5 C        1.1920    -3.1580    -0.5780 C.2   1 <1>   0.4620 
  6 C        2.8330    -1.9990     0.8660 C.ar  1 <1>  -0.1500 
  7 C        2.5810     0.3080     1.4950 C.ar  1 <1>  -0.1500 
  8 N        0.5770    -3.1950    -1.7070 N.2   1 <1>  -0.4100 
  9 N        1.4010    -4.3860    -0.0920 N.2   1 <1>  -0.5650 
 10 C        3.2940    -0.8790     1.5380 C.ar  1 <1>  -0.1500 
 11 O        0.3560    -4.4370    -2.0020 O.3   1 <1>  -0.0190 
 12 C        0.8720    -5.0970    -0.9990 C.2   1 <1>   0.2980 
 13 C        0.7870    -6.6100    -1.0010 C.3   1 <1>   0.0200 
 14 C       -0.6570    -7.0820    -0.7680 C.3   1 <1>  -0.0990 
 15 C       -0.7900    -8.5950    -0.7290 C.2   1 <1>   0.5690 
 16 O        0.1410    -9.2750    -1.0910 O.2   1 <1>  -0.5700 
 17 N       -1.9560    -9.1600    -0.2990 N.am  1 <1>  -0.6600 
 18 C       -3.2050    -8.4500     0.0760 C.3   1 <1>   0.1400 
 19 C       -2.1410   -10.6290    -0.2200 C.3   1 <1>   0.1400 
 20 C       -4.2580    -9.5520     0.1870 C.3   1 <1>   0.2000 
 21 C       -3.4790   -10.8290     0.4940 C.3   1 <1>  -0.0800 
 22 O       -5.1680    -9.2910     1.1980 O.3   1 <1>  -0.6800 
 23 C       -4.2210   -12.1040     0.0660 C.3   1 <1>   0.0200 
 24 C       -3.3730   -13.3350     0.3230 C.2   1 <1>  -0.0400 
 25 O       -3.0250   -13.6450     1.5430 O.3   1 <1>  -0.0190 
 26 C       -2.8500   -14.2540    -0.5020 C.2   1 <1>  -0.1500 
 27 N       -2.2920   -14.7200     1.5790 N.2   1 <1>  -0.4100 
 28 C       -2.1710   -15.1100     0.3610 C.2   1 <1>   0.1080 
 29 C       -1.3910   -16.3330    -0.0660 C.3   1 <1>  -0.0590 
 30 H        0.8260     1.2750     0.7310 H     1 <1>   0.1500 
 31 H        3.4020    -2.9120     0.9130 H     1 <1>   0.1500 
 32 H        2.9430     1.1780     2.0170 H     1 <1>   0.1500 
 33 H        4.2120    -0.9300     2.0980 H     1 <1>   0.1500 
 34 H        1.1510    -6.9780    -1.9440 H     1 <1>   0.0800 
 35 H        1.4220    -6.9980    -0.2240 H     1 <1>   0.0800 
 36 H       -1.2860    -6.7070    -1.5540 H     1 <1>   0.0800 
 37 H       -1.0030    -6.6800     0.1670 H     1 <1>   0.0800 
 38 H       -3.0630    -7.9590     1.0230 H     1 <1>   0.0800 
 39 H       -3.4800    -7.7360    -0.6810 H     1 <1>   0.0800 
 40 H       -2.1690   -11.0290    -1.2200 H     1 <1>   0.0800 
 41 H       -1.3310   -11.0890     0.3220 H     1 <1>   0.0800 
 42 H       -4.7970    -9.6330    -0.7420 H     1 <1>   0.0800 
 43 H       -3.2690   -10.8760     1.5480 H     1 <1>   0.0800 
 44 H       -4.7300    -9.3150     2.0710 H     1 <1>   0.4000 
 45 H       -4.4650   -12.0560    -0.9800 H     1 <1>   0.0800 
 46 H       -5.1390   -12.1900     0.6200 H     1 <1>   0.0800 
 47 H       -2.9140   -14.3420    -1.5700 H     1 <1>   0.1500 
 48 H       -2.0380   -17.0150    -0.5880 H     1 <1>   0.0800 
 49 H       -0.9850   -16.8290     0.7970 H     1 <1>   0.0800 
 50 H       -0.5840   -16.0430    -0.7130 H     1 <1>   0.0800 
@<TRIPOS>BOND
  1   1   2  1   
  2   2   3  ar  
  3   2   4  ar  
  4   3   5  1   
  5   3   6  ar  
  6   4   7  ar  
  7   4  30  1   
  8   5   8  2   
  9   5   9  1   
 10   6  10  ar  
 11   6  31  1   
 12   7  10  ar  
 13   7  32  1   
 14   8  11  1   
 15   9  12  2   
 16  10  33  1   
 17  11  12  1   
 18  12  13  1   
 19  13  14  1   
 20  13  34  1   
 21  13  35  1   
 22  14  15  1   
 23  14  36  1   
 24  14  37  1   
 25  15  16  2   
 26  15  17  am  
 27  17  18  1   
 28  17  19  1   
 29  18  20  1   
 30  18  38  1   
 31  18  39  1   
 32  19  21  1   
 33  19  40  1   
 34  19  41  1   
 35  20  21  1   
 36  20  22  1   
 37  20  42  1   
 38  21  23  1   
 39  21  43  1   
 40  22  44  1   
 41  23  24  1   
 42  23  45  1   
 43  23  46  1   
 44  24  25  1   
 45  24  26  2   
 46  25  27  1   
 47  26  28  1   
 48  26  47  1   
 49  27  28  2   
 50  28  29  1   
 51  29  48  1   
 52  29  49  1   
 53  29  50  1   
@<TRIPOS>SUBSTRUCTURE
  1 ****  14 GROUP 4 **** **** 0

# MOE 2024.06 (io_trps.svl 2023.06)
