@<TRIPOS>MOLECULE
NONAME
49 51 1 0 0 
SMALL
USER_CHARGES


@<TRIPOS>ATOM
  1 O        0.5410    -0.1690     0.0740 O.3   1 <1>  -0.5600 
  2 C        1.7630     0.2640    -0.4350 C.3   1 <1>   0.2000 
  3 C        0.2780    -1.5330    -0.0580 C.3   1 <1>   0.2640 
  4 C        2.8610     0.0640     0.6150 C.3   1 <1>  -0.1600 
  5 C        1.6110     1.7460    -0.7750 C.3   1 <1>  -0.1600 
  6 C       -1.0990    -1.8400     0.5100 C.ar  1 <1>  -0.1440 
  7 C        4.1850     0.6550     0.1270 C.3   1 <1>   0.2090 
  8 C        2.9380     2.3250    -1.2650 C.3   1 <1>   0.2090 
  9 C       -1.3060    -2.9940     1.2530 C.ar  1 <1>   0.1600 
 10 C       -2.1690    -0.9940     0.2930 C.ar  1 <1>  -0.1500 
 11 N        3.9960     2.0800    -0.2540 N.pl3 1 <1>  -0.8380 
 12 N       -2.4630    -3.3660     1.7780 N.ar  1 <1>  -0.6200 
 13 C       -3.3820    -1.3620     0.8350 C.ar  1 <1>  -0.1500 
 14 C        5.0940     2.9200    -0.2510 C.ar  1 <1>   0.4100 
 15 C       -3.4720    -2.5390     1.5570 C.ar  1 <1>   0.1600 
 16 N        6.2720     2.3940    -0.5350 N.ar  1 <1>  -0.6200 
 17 C        4.9650     4.2600     0.0260 C.ar  1 <1>  -0.1500 
 18 C        7.2810     3.2420    -0.5340 C.ar  1 <1>   0.4700 
 19 C        6.0880     5.0520    -0.0080 C.ar  1 <1>   0.4100 
 20 N        7.2720     4.5380    -0.2930 N.ar  1 <1>  -0.6200 
 21 N        6.0120     6.4110     0.2410 N.pl3 1 <1>  -0.8380 
 22 C        7.1700     7.1250     0.8410 C.3   1 <1>   0.2090 
 23 C        5.0910     7.2400    -0.5820 C.3   1 <1>   0.1290 
 24 C        6.6790     8.0630     1.9400 C.3   1 <1>  -0.2400 
 25 H        1.9890    -0.2860    -1.3340 H     1 <1>   0.0800 
 26 H        1.0350    -2.0840     0.4710 H     1 <1>   0.0800 
 27 H        0.3050    -1.7890    -1.1030 H     1 <1>   0.0800 
 28 H        3.0060    -0.9800     0.8150 H     1 <1>   0.0800 
 29 H        2.5820     0.5560     1.5290 H     1 <1>   0.0800 
 30 H        1.2980     2.2890     0.0980 H     1 <1>   0.0800 
 31 H        0.8670     1.8660    -1.5400 H     1 <1>   0.0800 
 32 H        4.5490     0.1080    -0.7250 H     1 <1>   0.0800 
 33 H        4.9210     0.5880     0.9110 H     1 <1>   0.0800 
 34 H        2.8300     3.3820    -1.4400 H     1 <1>   0.0800 
 35 H        3.2250     1.8590    -2.1930 H     1 <1>   0.0800 
 36 H       -0.4740    -3.6540     1.4260 H     1 <1>   0.1500 
 37 H       -2.0580    -0.0840    -0.2710 H     1 <1>   0.1500 
 38 H       -4.2490    -0.7420     0.7010 H     1 <1>   0.1500 
 39 H       -4.4250    -2.8160     1.9750 H     1 <1>   0.1500 
 40 H        4.0130     4.6740     0.2770 H     1 <1>   0.1500 
 41 H        8.2440     2.8200    -0.7630 H     1 <1>   0.1500 
 42 H        7.6940     7.6750     0.0770 H     1 <1>   0.0800 
 43 H        7.8560     6.4160     1.2730 H     1 <1>   0.0800 
 44 H        4.5590     6.6250    -1.2880 H     1 <1>   0.0800 
 45 H        5.6490     7.9800    -1.1280 H     1 <1>   0.0800 
 46 H        4.3790     7.7330     0.0570 H     1 <1>   0.0800 
 47 H        6.0550     8.8350     1.5310 H     1 <1>   0.0800 
 48 H        7.5220     8.5250     2.4210 H     1 <1>   0.0800 
 49 H        6.1280     7.5040     2.6750 H     1 <1>   0.0800 
@<TRIPOS>BOND
  1   1   2  1   
  2   1   3  1   
  3   2   4  1   
  4   2   5  1   
  5   2  25  1   
  6   3   6  1   
  7   3  26  1   
  8   3  27  1   
  9   4   7  1   
 10   4  28  1   
 11   4  29  1   
 12   5   8  1   
 13   5  30  1   
 14   5  31  1   
 15   6   9  ar  
 16   6  10  ar  
 17   7  11  1   
 18   7  32  1   
 19   7  33  1   
 20   8  11  1   
 21   8  34  1   
 22   8  35  1   
 23   9  12  ar  
 24   9  36  1   
 25  10  13  ar  
 26  10  37  1   
 27  11  14  1   
 28  12  15  ar  
 29  13  15  ar  
 30  13  38  1   
 31  14  16  ar  
 32  14  17  ar  
 33  15  39  1   
 34  16  18  ar  
 35  17  19  ar  
 36  17  40  1   
 37  18  20  ar  
 38  18  41  1   
 39  19  20  ar  
 40  19  21  1   
 41  21  22  1   
 42  21  23  1   
 43  22  24  1   
 44  22  42  1   
 45  22  43  1   
 46  23  44  1   
 47  23  45  1   
 48  23  46  1   
 49  24  47  1   
 50  24  48  1   
 51  24  49  1   
@<TRIPOS>SUBSTRUCTURE
  1 ****  11 GROUP 4 **** **** 0

# MOE 2024.06 (io_trps.svl 2023.06)
