@<TRIPOS>MOLECULE
NONAME
43 45 1 0 0 
SMALL
USER_CHARGES


@<TRIPOS>ATOM
  1 O       -0.1200    -0.6580     1.5830 O.2   1 <1>  -0.5700 
  2 C       -0.0330    -1.8640     1.4680 C.2   1 <1>   0.5440 
  3 N       -0.9690    -2.5820     2.1260 N.am  1 <1>  -0.8000 
  4 C        1.0210    -2.4840     0.6950 C.ar  1 <1>   0.0860 
  5 C        0.8870    -3.7410     0.0670 C.ar  1 <1>   0.4100 
  6 C        2.2420    -1.8360     0.5670 C.ar  1 <1>  -0.1500 
  7 N        1.8820    -4.3410    -0.5820 N.ar  1 <1>  -0.6200 
  8 N       -0.3120    -4.4420     0.0460 N.pl3 1 <1>  -0.8380 
  9 C        3.2640    -2.4480    -0.1230 C.ar  1 <1>  -0.1430 
 10 C        3.0290    -3.7030    -0.6730 C.ar  1 <1>   0.1670 
 11 C       -0.2680    -5.9370     0.1890 C.3   1 <1>   0.2090 
 12 C       -1.3990    -3.8890    -0.8230 C.3   1 <1>   0.2090 
 13 C        4.6050    -1.7360    -0.2510 C.3   1 <1>  -0.0970 
 14 C        4.1160    -4.4380    -1.4370 C.3   1 <1>  -0.0970 
 15 C       -1.6870    -6.5250     0.1470 C.3   1 <1>   0.1000 
 16 C       -1.8560    -4.9240    -1.8580 C.3   1 <1>  -0.1600 
 17 C       -1.7000    -8.0060     0.5210 C.2   1 <1>  -0.3320 
 18 C       -2.3310    -6.2500    -1.2280 C.3   1 <1>  -0.1600 
 19 N       -1.3430    -8.4440     1.7500 N.pl3 1 <1>   0.3000 
 20 C       -2.0370    -9.1090    -0.1860 C.2   1 <1>  -0.1500 
 21 N       -1.4360    -9.7820     1.8540 N.2   1 <1>  -0.7070 
 22 C       -1.8520   -10.1720     0.6890 C.2   1 <1>   0.1390 
 23 H       -1.7300    -2.1040     2.6060 H     1 <1>   0.3700 
 24 H       -1.0900    -3.5690     1.8760 H     1 <1>   0.3700 
 25 H        2.3750    -0.8660     1.0160 H     1 <1>   0.1500 
 26 H        0.2140    -6.1820     1.1180 H     1 <1>   0.0800 
 27 H        0.3140    -6.3650    -0.6100 H     1 <1>   0.0800 
 28 H       -1.0460    -3.0080    -1.3330 H     1 <1>   0.0800 
 29 H       -2.2350    -3.6030    -0.2070 H     1 <1>   0.0800 
 30 H        4.6180    -0.8320     0.3320 H     1 <1>   0.0800 
 31 H        4.7870    -1.4760    -1.2790 H     1 <1>   0.0800 
 32 H        5.3990    -2.3710     0.0980 H     1 <1>   0.0800 
 33 H        3.7000    -5.2790    -1.9620 H     1 <1>   0.0800 
 34 H        4.8600    -4.7970    -0.7510 H     1 <1>   0.0800 
 35 H        4.5760    -3.7880    -2.1570 H     1 <1>   0.0800 
 36 H       -2.2650    -6.0060     0.8930 H     1 <1>   0.0800 
 37 H       -1.0210    -5.1190    -2.5090 H     1 <1>   0.0800 
 38 H       -2.6420    -4.5070    -2.4630 H     1 <1>   0.0800 
 39 H       -3.4000    -6.2410    -1.1100 H     1 <1>   0.0800 
 40 H       -2.0850    -7.0370    -1.9180 H     1 <1>   0.0800 
 41 H       -1.0340    -7.8630     2.5390 H     1 <1>   0.2700 
 42 H       -2.3790    -9.2000    -1.2010 H     1 <1>   0.1500 
 43 H       -2.0310   -11.2050     0.4410 H     1 <1>   0.1500 
@<TRIPOS>BOND
  1   1   2  2   
  2   2   3  am  
  3   2   4  1   
  4   3  23  1   
  5   3  24  1   
  6   4   5  ar  
  7   4   6  ar  
  8   5   7  ar  
  9   5   8  1   
 10   6   9  ar  
 11   6  25  1   
 12   7  10  ar  
 13   8  11  1   
 14   8  12  1   
 15   9  10  ar  
 16   9  13  1   
 17  10  14  1   
 18  11  15  1   
 19  11  26  1   
 20  11  27  1   
 21  12  16  1   
 22  12  28  1   
 23  12  29  1   
 24  13  30  1   
 25  13  31  1   
 26  13  32  1   
 27  14  33  1   
 28  14  34  1   
 29  14  35  1   
 30  15  17  1   
 31  15  18  1   
 32  15  36  1   
 33  16  18  1   
 34  16  37  1   
 35  16  38  1   
 36  17  19  1   
 37  17  20  2   
 38  18  39  1   
 39  18  40  1   
 40  19  21  1   
 41  19  41  1   
 42  20  22  1   
 43  20  42  1   
 44  21  22  2   
 45  22  43  1   
@<TRIPOS>SUBSTRUCTURE
  1 ****   8 GROUP 4 **** **** 0

# MOE 2024.06 (io_trps.svl 2023.06)
