@<TRIPOS>MOLECULE
NONAME
43 45 1 0 0 
SMALL
USER_CHARGES


@<TRIPOS>ATOM
  1 CL       1.6180     0.8470    -0.2470 Cl    1 <1>  -0.1770 
  2 C        1.3510     2.5260     0.1420 C.ar  1 <1>   0.1770 
  3 C        1.7360     3.4970    -0.7640 C.ar  1 <1>  -0.1500 
  4 C        0.7620     2.8580     1.3460 C.ar  1 <1>  -0.1500 
  5 C        1.5360     4.8370    -0.4600 C.ar  1 <1>  -0.1440 
  6 C        0.5530     4.1930     1.6480 C.ar  1 <1>  -0.1500 
  7 C        0.9360     5.1740     0.7470 C.ar  1 <1>  -0.1500 
  8 C        1.9650     5.9260    -1.4400 C.3   1 <1>   0.0450 
  9 C        2.7740     7.0460    -0.7920 C.2   1 <1>   0.5690 
 10 O        2.4300     8.1830    -1.0140 O.2   1 <1>  -0.5700 
 11 N        3.8800     6.8040    -0.0110 N.am  1 <1>  -0.6600 
 12 C        4.3560     7.8440     0.9610 C.3   1 <1>   0.1400 
 13 C        4.6730     5.5410    -0.0210 C.3   1 <1>   0.1400 
 14 C        5.7760     8.4130     0.6910 C.3   1 <1>   0.4230 
 15 C        6.1030     5.7840    -0.5530 C.3   1 <1>  -0.0800 
 16 N        6.2390     8.3700    -0.7550 N.4   1 <1>  -0.9590 
 17 C        6.8280     7.7980     1.6390 C.3   1 <1>   0.1200 
 18 C        7.1830     5.7230     0.5380 C.3   1 <1>   0.1200 
 19 C        6.2010     7.0320    -1.4480 C.3   1 <1>   0.3430 
 20 C        5.4540     9.3580    -1.5620 C.3   1 <1>   0.2630 
 21 O        6.7790     6.4060     1.6770 O.3   1 <1>  -0.5600 
 22 H        2.1830     3.1920    -1.6920 H     1 <1>   0.1500 
 23 H        0.4710     2.0830     2.0330 H     1 <1>   0.1500 
 24 H        0.0900     4.4680     2.5800 H     1 <1>   0.1500 
 25 H        0.7620     6.2080     0.9960 H     1 <1>   0.1500 
 26 H        1.0790     6.3530    -1.8750 H     1 <1>   0.0800 
 27 H        2.5420     5.5060    -2.2410 H     1 <1>   0.0800 
 28 H        3.6670     8.6710     0.9690 H     1 <1>   0.0800 
 29 H        4.3230     7.4260     1.9530 H     1 <1>   0.0800 
 30 H        4.6960     5.1220     0.9720 H     1 <1>   0.0800 
 31 H        4.1960     4.8150    -0.6540 H     1 <1>   0.0800 
 32 H        5.7330     9.4520     0.9730 H     1 <1>   0.0800 
 33 H        6.3160     4.9520    -1.2010 H     1 <1>   0.0800 
 34 H        7.2190     8.6780    -0.7530 H     1 <1>   0.4500 
 35 H        6.6250     8.1310     2.6420 H     1 <1>   0.0800 
 36 H        7.8260     8.1100     1.3850 H     1 <1>   0.0800 
 37 H        8.1310     6.1090     0.2020 H     1 <1>   0.0800 
 38 H        7.3270     4.6970     0.8370 H     1 <1>   0.0800 
 39 H        5.3530     7.0120    -2.1130 H     1 <1>   0.0800 
 40 H        7.0820     6.9420    -2.0640 H     1 <1>   0.0800 
 41 H        4.4160     9.0730    -1.5970 H     1 <1>   0.0800 
 42 H        5.8300     9.4040    -2.5710 H     1 <1>   0.0800 
 43 H        5.5220    10.3420    -1.1260 H     1 <1>   0.0800 
@<TRIPOS>BOND
  1   1   2  1   
  2   2   3  ar  
  3   2   4  ar  
  4   3   5  ar  
  5   3  22  1   
  6   4   6  ar  
  7   4  23  1   
  8   5   7  ar  
  9   5   8  1   
 10   6   7  ar  
 11   6  24  1   
 12   7  25  1   
 13   8   9  1   
 14   8  26  1   
 15   8  27  1   
 16   9  10  2   
 17   9  11  am  
 18  11  12  1   
 19  11  13  1   
 20  12  14  1   
 21  12  28  1   
 22  12  29  1   
 23  13  15  1   
 24  13  30  1   
 25  13  31  1   
 26  14  16  1   
 27  14  17  1   
 28  14  32  1   
 29  15  18  1   
 30  15  19  1   
 31  15  33  1   
 32  16  19  1   
 33  16  20  1   
 34  16  34  1   
 35  17  21  1   
 36  17  35  1   
 37  17  36  1   
 38  18  21  1   
 39  18  37  1   
 40  18  38  1   
 41  19  39  1   
 42  19  40  1   
 43  20  41  1   
 44  20  42  1   
 45  20  43  1   
@<TRIPOS>SUBSTRUCTURE
  1 ****  11 GROUP 4 **** **** 0

# MOE 2024.06 (io_trps.svl 2023.06)
