@<TRIPOS>MOLECULE
NONAME
50 52 1 0 0 
SMALL
USER_CHARGES


@<TRIPOS>ATOM
  1 F       -1.9490    -4.4350     3.1780 F     1 <1>  -0.1900 
  2 C       -2.7940    -4.2210     2.2050 C.ar  1 <1>   0.1900 
  3 C       -3.5200    -3.0460     2.2000 C.ar  1 <1>  -0.1500 
  4 C       -2.9310    -5.1780     1.2180 C.ar  1 <1>  -0.1500 
  5 C       -4.4150    -2.8230     1.1670 C.ar  1 <1>  -0.1500 
  6 C       -3.8300    -4.9430     0.1910 C.ar  1 <1>  -0.1500 
  7 C       -4.5740    -3.7690     0.1600 C.ar  1 <1>  -0.1430 
  8 C       -5.5560    -3.5250    -0.9790 C.3   1 <1>   0.2540 
  9 N       -6.5590    -4.6020    -1.0540 N.3   1 <1>  -0.8100 
 10 C       -7.4060    -4.4630    -2.2760 C.3   1 <1>   0.1710 
 11 C       -7.3960    -4.6370     0.1580 C.3   1 <1>   0.0300 
 12 C       -8.1170    -5.7540    -2.7000 C.2   1 <1>   0.5690 
 13 O       -9.1390    -5.6920    -3.3390 O.2   1 <1>  -0.5700 
 14 N       -7.5610    -6.9400    -2.3520 N.am  1 <1>  -0.7300 
 15 C       -8.0120    -8.2820    -2.7840 C.3   1 <1>   0.2200 
 16 C       -8.5600    -9.0920    -1.6190 C.3   1 <1>  -0.0800 
 17 C       -6.7960    -9.1180    -3.1600 C.3   1 <1>   0.1200 
 18 C       -7.2960    -9.6880    -0.9910 C.3   1 <1>   0.1200 
 19 C       -9.4570    -8.3260    -0.6310 C.3   1 <1>  -0.0170 
 20 O       -6.2860    -9.6060    -1.9550 O.3   1 <1>  -0.5600 
 21 C      -10.0270    -9.2620     0.4230 C.ar  1 <1>  -0.1430 
 22 C      -11.1500   -10.0280     0.1810 C.ar  1 <1>  -0.1500 
 23 C       -9.4550    -9.3970     1.6720 C.ar  1 <1>  -0.1500 
 24 C      -11.6290   -10.8710     1.1700 C.ar  1 <1>   0.1600 
 25 C      -10.0140   -10.2710     2.5900 C.ar  1 <1>   0.1600 
 26 N      -11.0870   -11.0130     2.3680 N.ar  1 <1>  -0.6200 
 27 H       -3.3840    -2.3260     2.9870 H     1 <1>   0.1500 
 28 H       -2.3500    -6.0810     1.2550 H     1 <1>   0.1500 
 29 H       -4.9880    -1.9120     1.1520 H     1 <1>   0.1500 
 30 H       -3.9590    -5.6770    -0.5870 H     1 <1>   0.1500 
 31 H       -4.9990    -3.4910    -1.8990 H     1 <1>   0.0800 
 32 H       -6.0480    -2.5750    -0.8520 H     1 <1>   0.0800 
 33 H       -8.1430    -3.6930    -2.1290 H     1 <1>   0.0800 
 34 H       -6.7890    -4.1710    -3.1060 H     1 <1>   0.0800 
 35 H       -6.7910    -4.8610     1.0200 H     1 <1>   0.0800 
 36 H       -8.1470    -5.4010     0.0710 H     1 <1>   0.0800 
 37 H       -7.8820    -3.6890     0.3100 H     1 <1>   0.0800 
 38 H       -6.7240    -6.9100    -1.7580 H     1 <1>   0.3700 
 39 H       -8.7140    -8.1980    -3.5970 H     1 <1>   0.0800 
 40 H       -9.1300    -9.9070    -2.0270 H     1 <1>   0.0800 
 41 H       -6.0400    -8.5490    -3.6710 H     1 <1>   0.0800 
 42 H       -7.0870    -9.9640    -3.7590 H     1 <1>   0.0800 
 43 H       -7.4350   -10.7180    -0.7120 H     1 <1>   0.0800 
 44 H       -6.9730    -9.1190    -0.1370 H     1 <1>   0.0800 
 45 H      -10.2630    -7.8570    -1.1690 H     1 <1>   0.0800 
 46 H       -8.8970    -7.5470    -0.1460 H     1 <1>   0.0800 
 47 H      -11.6560    -9.9760    -0.7650 H     1 <1>   0.1500 
 48 H       -8.5810    -8.8330     1.9410 H     1 <1>   0.1500 
 49 H      -12.5060   -11.4610     0.9630 H     1 <1>   0.1500 
 50 H       -9.5540   -10.3640     3.5590 H     1 <1>   0.1500 
@<TRIPOS>BOND
  1   1   2  1   
  2   2   3  ar  
  3   2   4  ar  
  4   3   5  ar  
  5   3  27  1   
  6   4   6  ar  
  7   4  28  1   
  8   5   7  ar  
  9   5  29  1   
 10   6   7  ar  
 11   6  30  1   
 12   7   8  1   
 13   8   9  1   
 14   8  31  1   
 15   8  32  1   
 16   9  10  1   
 17   9  11  1   
 18  10  12  1   
 19  10  33  1   
 20  10  34  1   
 21  11  35  1   
 22  11  36  1   
 23  11  37  1   
 24  12  13  2   
 25  12  14  am  
 26  14  15  1   
 27  14  38  1   
 28  15  16  1   
 29  15  17  1   
 30  15  39  1   
 31  16  18  1   
 32  16  19  1   
 33  16  40  1   
 34  17  20  1   
 35  17  41  1   
 36  17  42  1   
 37  18  20  1   
 38  18  43  1   
 39  18  44  1   
 40  19  21  1   
 41  19  45  1   
 42  19  46  1   
 43  21  22  ar  
 44  21  23  ar  
 45  22  24  ar  
 46  22  47  1   
 47  23  25  ar  
 48  23  48  1   
 49  24  26  ar  
 50  24  49  1   
 51  25  26  ar  
 52  25  50  1   
@<TRIPOS>SUBSTRUCTURE
  1 ****  14 GROUP 4 **** **** 0

# MOE 2024.06 (io_trps.svl 2023.06)
