@<TRIPOS>MOLECULE
NONAME
45 47 1 0 0 
SMALL
USER_CHARGES


@<TRIPOS>ATOM
  1 O       -0.4520     0.2840     0.7900 O.2   1 <1>  -0.5700 
  2 C       -1.4570     0.8620     0.4240 C.2   1 <1>   0.5440 
  3 N       -2.5630     0.1150     0.0890 N.am  1 <1>  -0.6600 
  4 C       -1.4590     2.3070     0.3350 C.ar  1 <1>   0.0860 
  5 C       -3.7490     0.6080    -0.6590 C.3   1 <1>   0.1400 
  6 C       -2.5610    -1.3720     0.1090 C.3   1 <1>   0.1400 
  7 C       -2.3910     3.1040     0.9830 C.ar  1 <1>  -0.1500 
  8 C       -0.5140     2.9960    -0.4080 C.ar  1 <1>  -0.1500 
  9 C       -4.7250    -0.5650    -0.6280 C.3   1 <1>   0.2000 
 10 C       -3.8070    -1.7890    -0.6810 C.3   1 <1>  -0.0800 
 11 C       -2.3530     4.4790     0.8440 C.ar  1 <1>   0.1660 
 12 C       -0.5540     4.3750    -0.4880 C.ar  1 <1>   0.1660 
 13 O       -5.3860    -0.5330     0.5920 O.3   1 <1>  -0.6800 
 14 C       -4.4340    -3.1120    -0.2030 C.3   1 <1>   0.0210 
 15 N       -1.4600     5.1230     0.1170 N.ar  1 <1>  -0.6200 
 16 C       -3.3740     5.3470     1.5490 C.3   1 <1>  -0.0970 
 17 C        0.4790     5.1230    -1.3030 C.3   1 <1>  -0.0970 
 18 C       -3.4350    -4.2470    -0.3050 C.2   1 <1>   0.1080 
 19 N       -2.9370    -4.6460    -1.4350 N.2   1 <1>  -0.7070 
 20 C       -2.9370    -4.9700     0.7730 C.2   1 <1>  -0.1500 
 21 N       -2.0990    -5.6460    -1.1030 N.pl3 1 <1>   0.3000 
 22 C       -2.0800    -5.8600     0.2300 C.2   1 <1>  -0.3320 
 23 C       -1.2310    -6.9160     0.9120 C.3   1 <1>  -0.0600 
 24 H       -4.1800     1.4880    -0.2170 H     1 <1>   0.0800 
 25 H       -3.4590     0.8180    -1.6740 H     1 <1>   0.0800 
 26 H       -1.6650    -1.7640    -0.3450 H     1 <1>   0.0800 
 27 H       -2.6150    -1.7100     1.1290 H     1 <1>   0.0800 
 28 H       -3.1390     2.6400     1.5990 H     1 <1>   0.1500 
 29 H        0.2510     2.4380    -0.9180 H     1 <1>   0.1500 
 30 H       -5.4540    -0.5370    -1.4190 H     1 <1>   0.0800 
 31 H       -3.5010    -1.9220    -1.7040 H     1 <1>   0.0800 
 32 H       -4.7160    -0.4520     1.3000 H     1 <1>   0.4000 
 33 H       -5.2860    -3.3470    -0.8140 H     1 <1>   0.0800 
 34 H       -4.7680    -3.0290     0.8150 H     1 <1>   0.0800 
 35 H       -4.0660     4.7540     2.1180 H     1 <1>   0.0800 
 36 H       -3.9210     5.9190     0.8220 H     1 <1>   0.0800 
 37 H       -2.8690     6.0250     2.2130 H     1 <1>   0.0800 
 38 H        1.1780     4.4470    -1.7590 H     1 <1>   0.0800 
 39 H        1.0150     5.8010    -0.6650 H     1 <1>   0.0800 
 40 H       -0.0130     5.6890    -2.0730 H     1 <1>   0.0800 
 41 H       -3.1950    -4.8270     1.8070 H     1 <1>   0.1500 
 42 H       -1.5560    -6.1590    -1.8070 H     1 <1>   0.2700 
 43 H       -1.3910    -6.8890     1.9750 H     1 <1>   0.0800 
 44 H       -0.1880    -6.7380     0.7180 H     1 <1>   0.0800 
 45 H       -1.4940    -7.8950     0.5510 H     1 <1>   0.0800 
@<TRIPOS>BOND
  1   1   2  2   
  2   2   3  am  
  3   2   4  1   
  4   3   5  1   
  5   3   6  1   
  6   4   7  ar  
  7   4   8  ar  
  8   5   9  1   
  9   5  24  1   
 10   5  25  1   
 11   6  10  1   
 12   6  26  1   
 13   6  27  1   
 14   7  11  ar  
 15   7  28  1   
 16   8  12  ar  
 17   8  29  1   
 18   9  10  1   
 19   9  13  1   
 20   9  30  1   
 21  10  14  1   
 22  10  31  1   
 23  11  15  ar  
 24  11  16  1   
 25  12  15  ar  
 26  12  17  1   
 27  13  32  1   
 28  14  18  1   
 29  14  33  1   
 30  14  34  1   
 31  16  35  1   
 32  16  36  1   
 33  16  37  1   
 34  17  38  1   
 35  17  39  1   
 36  17  40  1   
 37  18  19  2   
 38  18  20  1   
 39  19  21  1   
 40  20  22  2   
 41  20  41  1   
 42  21  22  1   
 43  21  42  1   
 44  22  23  1   
 45  23  43  1   
 46  23  44  1   
 47  23  45  1   
@<TRIPOS>SUBSTRUCTURE
  1 ****   3 GROUP 4 **** **** 0

# MOE 2024.06 (io_trps.svl 2023.06)
