@<TRIPOS>MOLECULE
NONAME
46 49 1 0 0 
SMALL
USER_CHARGES


@<TRIPOS>ATOM
  1 F        1.5390    -4.8590    -0.6130 F     1 <1>  -0.1900 
  2 C        1.3980    -4.2550     0.5390 C.ar  1 <1>   0.1900 
  3 C        0.6380    -3.0950     0.6180 C.ar  1 <1>  -0.0320 
  4 C        2.0160    -4.8170     1.6400 C.ar  1 <1>  -0.1500 
  5 C        0.4970    -2.4990     1.8630 C.ar  1 <1>  -0.1500 
  6 C       -0.0410    -2.4920    -0.6060 C.3   1 <1>   0.0320 
  7 C        1.8700    -4.2020     2.8720 C.ar  1 <1>  -0.1500 
  8 C        1.1100    -3.0470     2.9800 C.ar  1 <1>  -0.1500 
  9 C       -1.3610    -3.1890    -0.9340 C.2   1 <1>   0.6300 
 10 C        0.8240    -2.0110    -1.7390 C.3   1 <1>  -0.2000 
 11 C        0.1160    -1.0200    -0.8740 C.3   1 <1>  -0.2000 
 12 O       -2.4110    -2.6720    -0.6340 O.2   1 <1>  -0.5700 
 13 N       -1.3080    -4.3930    -1.5520 N.am  1 <1>  -0.7300 
 14 C       -2.4740    -5.2370    -1.8850 C.3   1 <1>   0.2200 
 15 C       -2.5180    -6.4190    -0.9310 C.3   1 <1>  -0.0800 
 16 C       -2.2480    -5.9210    -3.2310 C.3   1 <1>   0.1200 
 17 C       -1.5390    -7.3890    -1.5960 C.3   1 <1>   0.1200 
 18 C       -3.9390    -7.0040    -0.8240 C.3   1 <1>  -0.0170 
 19 O       -1.5680    -7.1150    -2.9660 O.3   1 <1>  -0.5600 
 20 C       -3.9870    -8.1900     0.1280 C.ar  1 <1>  -0.1430 
 21 C       -4.0820    -9.4900    -0.3260 C.ar  1 <1>  -0.1500 
 22 C       -3.9400    -8.0240     1.4970 C.ar  1 <1>  -0.1500 
 23 C       -4.1200   -10.5320     0.5850 C.ar  1 <1>   0.1600 
 24 C       -3.9850    -9.1360     2.3230 C.ar  1 <1>   0.1600 
 25 N       -4.0720   -10.3860     1.9000 N.ar  1 <1>  -0.6200 
 26 H        2.5980    -5.7140     1.5340 H     1 <1>   0.1500 
 27 H       -0.0950    -1.6060     1.9640 H     1 <1>   0.1500 
 28 H        2.3430    -4.6200     3.7440 H     1 <1>   0.1500 
 29 H        0.9940    -2.5710     3.9390 H     1 <1>   0.1500 
 30 H        1.8930    -2.1040    -1.6490 H     1 <1>   0.1000 
 31 H        0.4810    -2.1480    -2.7490 H     1 <1>   0.1000 
 32 H       -0.7300    -0.4850    -1.2720 H     1 <1>   0.1000 
 33 H        0.7000    -0.4210    -0.1980 H     1 <1>   0.1000 
 34 H       -0.3930    -4.8160    -1.7370 H     1 <1>   0.3700 
 35 H       -3.3750    -4.6470    -1.8740 H     1 <1>   0.0800 
 36 H       -2.1810    -6.1410     0.0520 H     1 <1>   0.0800 
 37 H       -1.6690    -5.3190    -3.9090 H     1 <1>   0.0800 
 38 H       -3.1870    -6.1790    -3.6860 H     1 <1>   0.0800 
 39 H       -1.7860    -8.4240    -1.4370 H     1 <1>   0.0800 
 40 H       -0.5350    -7.2070    -1.2520 H     1 <1>   0.0800 
 41 H       -4.2910    -7.3080    -1.7940 H     1 <1>   0.0800 
 42 H       -4.6100    -6.2440    -0.4600 H     1 <1>   0.0800 
 43 H       -4.1260    -9.7040    -1.3790 H     1 <1>   0.1500 
 44 H       -3.8690    -7.0430     1.9290 H     1 <1>   0.1500 
 45 H       -4.1930   -11.5400     0.2130 H     1 <1>   0.1500 
 46 H       -3.9460    -8.9870     3.3880 H     1 <1>   0.1500 
@<TRIPOS>BOND
  1   1   2  1   
  2   2   3  ar  
  3   2   4  ar  
  4   3   5  ar  
  5   3   6  1   
  6   4   7  ar  
  7   4  26  1   
  8   5   8  ar  
  9   5  27  1   
 10   6   9  1   
 11   6  10  1   
 12   6  11  1   
 13   7   8  ar  
 14   7  28  1   
 15   8  29  1   
 16   9  12  2   
 17   9  13  am  
 18  10  11  1   
 19  10  30  1   
 20  10  31  1   
 21  11  32  1   
 22  11  33  1   
 23  13  14  1   
 24  13  34  1   
 25  14  15  1   
 26  14  16  1   
 27  14  35  1   
 28  15  17  1   
 29  15  18  1   
 30  15  36  1   
 31  16  19  1   
 32  16  37  1   
 33  16  38  1   
 34  17  19  1   
 35  17  39  1   
 36  17  40  1   
 37  18  20  1   
 38  18  41  1   
 39  18  42  1   
 40  20  21  ar  
 41  20  22  ar  
 42  21  23  ar  
 43  21  43  1   
 44  22  24  ar  
 45  22  44  1   
 46  23  25  ar  
 47  23  45  1   
 48  24  25  ar  
 49  24  46  1   
@<TRIPOS>SUBSTRUCTURE
  1 ****  15 GROUP 4 **** **** 0

# MOE 2024.06 (io_trps.svl 2023.06)
