@<TRIPOS>MOLECULE
NONAME
49 52 1 0 0 
SMALL
USER_CHARGES


@<TRIPOS>ATOM
  1 S        1.8850    -1.4570     0.8530 S.o2  1 <1>   1.5000 
  2 O        2.3560    -2.7290     0.3530 O.2   1 <1>  -0.6500 
  3 O        2.1660    -1.0820     2.2180 O.2   1 <1>  -0.6500 
  4 N        0.2110    -1.5010     0.7540 N.am  1 <1>  -0.9140 
  5 C        2.3400    -0.1200    -0.3010 C.2   1 <1>   0.0780 
  6 C       -0.3870    -2.6660     1.3920 C.3   1 <1>   0.2760 
  7 O        1.9110     1.1200    -0.1030 O.3   1 <1>  -0.2800 
  8 C        3.0860    -0.1500    -1.4290 C.2   1 <1>  -0.1500 
  9 C       -1.8240    -2.8300     0.9100 C.3   1 <1>  -0.0800 
 10 C       -0.6440    -2.3840     2.8720 C.3   1 <1>   0.1200 
 11 C        2.3600     1.9060    -1.0730 C.2   1 <1>   0.1400 
 12 C        3.0990     1.1530    -1.9280 C.2   1 <1>  -0.1500 
 13 C       -2.6060    -1.8720     1.8180 C.3   1 <1>   0.1200 
 14 C       -2.0610    -2.6090    -0.5960 C.3   1 <1>  -0.0160 
 15 O       -1.7540    -1.5410     2.8770 O.3   1 <1>  -0.5600 
 16 C        2.0380     3.3070    -1.1010 C.2   1 <1>   0.1400 
 17 C       -3.5130    -2.8750    -0.9590 C.ar  1 <1>  -0.1430 
 18 O        2.3710     4.0270    -2.1500 O.3   1 <1>  -0.0190 
 19 C        1.4200     4.1540    -0.2410 C.2   1 <1>  -0.1810 
 20 C       -3.9950    -4.1570    -1.1330 C.ar  1 <1>  -0.1500 
 21 C       -4.4240    -1.8520    -1.1310 C.ar  1 <1>  -0.1500 
 22 N        2.0130     5.2720    -2.0460 N.2   1 <1>  -0.4100 
 23 C        1.4370     5.3760    -0.9030 C.2   1 <1>   0.1080 
 24 C        0.8290     3.9000     1.1370 C.3   1 <1>  -0.0590 
 25 C       -5.3280    -4.3490    -1.4550 C.ar  1 <1>   0.1600 
 26 C       -5.7370    -2.1530    -1.4530 C.ar  1 <1>   0.1600 
 27 C        0.8640     6.6750    -0.3780 C.3   1 <1>  -0.0590 
 28 N       -6.2110    -3.3770    -1.6160 N.ar  1 <1>  -0.6200 
 29 H       -0.1020    -0.7130     1.3240 H     1 <1>   0.4200 
 30 H        0.1940    -3.5590     1.2260 H     1 <1>   0.0800 
 31 H        3.5780    -0.9990    -1.8740 H     1 <1>   0.1500 
 32 H       -2.1400    -3.8300     1.1540 H     1 <1>   0.0800 
 33 H        0.1750    -1.9080     3.3790 H     1 <1>   0.0800 
 34 H       -0.9110    -3.2880     3.3920 H     1 <1>   0.0800 
 35 H        3.6030     1.4830    -2.8200 H     1 <1>   0.1500 
 36 H       -3.4960    -2.3330     2.2120 H     1 <1>   0.0800 
 37 H       -2.8630    -0.9590     1.3100 H     1 <1>   0.0800 
 38 H       -1.4260    -3.2700    -1.1600 H     1 <1>   0.0800 
 39 H       -1.8050    -1.6020    -0.8760 H     1 <1>   0.0800 
 40 H       -3.3470    -5.0070    -1.0230 H     1 <1>   0.1500 
 41 H       -4.1280    -0.8260    -1.0190 H     1 <1>   0.1500 
 42 H        1.2410     4.5950     1.8460 H     1 <1>   0.0800 
 43 H        1.0490     2.9050     1.4770 H     1 <1>   0.0800 
 44 H       -0.2380     4.0240     1.1060 H     1 <1>   0.0800 
 45 H       -5.6870    -5.3550    -1.5870 H     1 <1>   0.1500 
 46 H       -6.4350    -1.3440    -1.5830 H     1 <1>   0.1500 
 47 H       -0.1730     6.5460    -0.1320 H     1 <1>   0.0800 
 48 H        0.9500     7.4440    -1.1250 H     1 <1>   0.0800 
 49 H        1.4030     6.9830     0.4990 H     1 <1>   0.0800 
@<TRIPOS>BOND
  1   1   2  2   
  2   1   3  2   
  3   1   4  am  
  4   1   5  1   
  5   4   6  1   
  6   4  29  1   
  7   5   7  1   
  8   5   8  2   
  9   6   9  1   
 10   6  10  1   
 11   6  30  1   
 12   7  11  1   
 13   8  12  1   
 14   8  31  1   
 15   9  13  1   
 16   9  14  1   
 17   9  32  1   
 18  10  15  1   
 19  10  33  1   
 20  10  34  1   
 21  11  12  2   
 22  11  16  1   
 23  12  35  1   
 24  13  15  1   
 25  13  36  1   
 26  13  37  1   
 27  14  17  1   
 28  14  38  1   
 29  14  39  1   
 30  16  18  1   
 31  16  19  2   
 32  17  20  ar  
 33  17  21  ar  
 34  18  22  1   
 35  19  23  1   
 36  19  24  1   
 37  20  25  ar  
 38  20  40  1   
 39  21  26  ar  
 40  21  41  1   
 41  22  23  2   
 42  23  27  1   
 43  24  42  1   
 44  24  43  1   
 45  24  44  1   
 46  25  28  ar  
 47  25  45  1   
 48  26  28  ar  
 49  26  46  1   
 50  27  47  1   
 51  27  48  1   
 52  27  49  1   
@<TRIPOS>SUBSTRUCTURE
  1 ****   4 GROUP 4 **** **** 0

# MOE 2024.06 (io_trps.svl 2023.06)
