@<TRIPOS>MOLECULE
NONAME
56 59 1 0 0 
SMALL
USER_CHARGES


@<TRIPOS>ATOM
  1 O        1.9380     0.2140     0.4060 O.3   1 <1>  -0.5600 
  2 C        2.7200    -0.8990     0.7710 C.3   1 <1>   0.4240 
  3 C        0.5610     0.1490     0.6350 C.3   1 <1>   0.1200 
  4 C        1.9920    -2.2310     0.5140 C.ar  1 <1>  -0.1440 
  5 C        3.1120    -0.7270     2.2530 C.3   1 <1>  -0.1600 
  6 C        3.9770    -0.8050    -0.1000 C.3   1 <1>  -0.1600 
  7 C       -0.0380    -0.9590    -0.2270 C.3   1 <1>  -0.0160 
  8 C        0.6890    -2.2620     0.0390 C.ar  1 <1>  -0.1440 
  9 C        2.6330    -3.4410     0.7490 C.ar  1 <1>  -0.1500 
 10 C        4.2710     0.2510     2.4800 C.3   1 <1>   0.3430 
 11 C        4.6770     0.5510     0.0300 C.3   1 <1>   0.3430 
 12 C        0.0530    -3.4700    -0.1930 C.ar  1 <1>  -0.1500 
 13 C        2.0160    -4.6590     0.5260 C.ar  1 <1>   0.0830 
 14 N        4.3790     1.1950     1.3440 N.4   1 <1>  -0.9590 
 15 C        0.6950    -4.6830     0.0440 C.ar  1 <1>   0.0830 
 16 O        2.8100    -5.7320     0.8160 O.3   1 <1>  -0.3630 
 17 C        5.2060     2.4090     1.6060 C.3   1 <1>   0.4860 
 18 O        0.0590    -5.8710    -0.1810 O.3   1 <1>  -0.3630 
 19 C        2.4290    -7.0690     0.5860 C.3   1 <1>   0.0400 
 20 C        4.7770     3.5280     0.6620 C.ar  1 <1>   0.1670 
 21 C       -1.2620    -5.9460    -0.6720 C.3   1 <1>   0.0400 
 22 N        3.4680     3.6680     0.4830 N.ar  1 <1>  -0.6200 
 23 C        5.7340     4.3180     0.0440 C.ar  1 <1>  -0.1500 
 24 C        3.1040     4.6380    -0.3430 C.ar  1 <1>   0.1600 
 25 C        5.3350     5.3200    -0.8140 C.ar  1 <1>  -0.1500 
 26 C        3.9800     5.4810    -1.0110 C.ar  1 <1>  -0.1430 
 27 C        3.4700     6.5690    -1.9410 C.3   1 <1>  -0.0970 
 28 H        0.1340     1.1010     0.3720 H     1 <1>   0.0800 
 29 H        0.3810    -0.0410     1.6790 H     1 <1>   0.0800 
 30 H        3.4150    -1.6740     2.6600 H     1 <1>   0.0800 
 31 H        2.2580    -0.4180     2.8260 H     1 <1>   0.0800 
 32 H        3.7150    -0.9760    -1.1280 H     1 <1>   0.0800 
 33 H        4.6700    -1.5780     0.1770 H     1 <1>   0.0800 
 34 H        0.0540    -0.6960    -1.2660 H     1 <1>   0.0800 
 35 H       -1.0830    -1.0600     0.0050 H     1 <1>   0.0800 
 36 H        3.6420    -3.4670     1.1150 H     1 <1>   0.1500 
 37 H        5.1920    -0.3020     2.5700 H     1 <1>   0.0800 
 38 H        4.1070     0.7880     3.4010 H     1 <1>   0.0800 
 39 H        4.3230     1.2000    -0.7560 H     1 <1>   0.0800 
 40 H        5.7390     0.4190    -0.0940 H     1 <1>   0.0800 
 41 H       -0.9530    -3.4430    -0.5630 H     1 <1>   0.1500 
 42 H        3.4240     1.5880     1.1900 H     1 <1>   0.4500 
 43 H        6.2520     2.1890     1.4770 H     1 <1>   0.0800 
 44 H        5.0430     2.7450     2.6150 H     1 <1>   0.0800 
 45 H        3.2530    -7.7040     0.8540 H     1 <1>   0.0800 
 46 H        2.1960    -7.1910    -0.4570 H     1 <1>   0.0800 
 47 H        1.5760    -7.2990     1.2010 H     1 <1>   0.0800 
 48 H       -1.5240    -6.9850    -0.7640 H     1 <1>   0.0800 
 49 H       -1.3040    -5.4730    -1.6370 H     1 <1>   0.0800 
 50 H       -1.9230    -5.4650     0.0270 H     1 <1>   0.0800 
 51 H        6.7840     4.1660     0.2230 H     1 <1>   0.1500 
 52 H        2.0460     4.7700    -0.4970 H     1 <1>   0.1500 
 53 H        6.0530     5.9530    -1.3080 H     1 <1>   0.1500 
 54 H        2.4530     6.3780    -2.2350 H     1 <1>   0.0800 
 55 H        4.0750     6.6150    -2.8290 H     1 <1>   0.0800 
 56 H        3.5110     7.5220    -1.4450 H     1 <1>   0.0800 
@<TRIPOS>BOND
  1   1   2  1   
  2   1   3  1   
  3   2   4  1   
  4   2   5  1   
  5   2   6  1   
  6   3   7  1   
  7   3  28  1   
  8   3  29  1   
  9   4   8  ar  
 10   4   9  ar  
 11   5  10  1   
 12   5  30  1   
 13   5  31  1   
 14   6  11  1   
 15   6  32  1   
 16   6  33  1   
 17   7   8  1   
 18   7  34  1   
 19   7  35  1   
 20   8  12  ar  
 21   9  13  ar  
 22   9  36  1   
 23  10  14  1   
 24  10  37  1   
 25  10  38  1   
 26  11  14  1   
 27  11  39  1   
 28  11  40  1   
 29  12  15  ar  
 30  12  41  1   
 31  13  15  ar  
 32  13  16  1   
 33  14  17  1   
 34  14  42  1   
 35  15  18  1   
 36  16  19  1   
 37  17  20  1   
 38  17  43  1   
 39  17  44  1   
 40  18  21  1   
 41  19  45  1   
 42  19  46  1   
 43  19  47  1   
 44  20  22  ar  
 45  20  23  ar  
 46  21  48  1   
 47  21  49  1   
 48  21  50  1   
 49  22  24  ar  
 50  23  25  ar  
 51  23  51  1   
 52  24  26  ar  
 53  24  52  1   
 54  25  26  ar  
 55  25  53  1   
 56  26  27  1   
 57  27  54  1   
 58  27  55  1   
 59  27  56  1   
@<TRIPOS>SUBSTRUCTURE
  1 ****   2 GROUP 4 **** **** 0

# MOE 2024.06 (io_trps.svl 2023.06)
