@<TRIPOS>MOLECULE
NONAME
47 50 1 0 0 
SMALL
USER_CHARGES


@<TRIPOS>ATOM
  1 O       -0.9380    -1.0620     0.9730 O.co2 1 <1>  -0.9000 
  2 C       -0.3110    -1.3490    -0.0650 C.2   1 <1>   0.9790 
  3 O       -0.7870    -1.0010    -1.1610 O.co2 1 <1>  -0.9000 
  4 C        0.9770    -1.9840     0.0100 C.ar  1 <1>  -0.1790 
  5 C        1.1290    -3.3800    -0.0010 C.ar  1 <1>   0.4100 
  6 C        2.1170    -1.1980     0.0750 C.ar  1 <1>  -0.1500 
  7 N        2.3170    -3.9860     0.0150 N.ar  1 <1>  -0.6200 
  8 N        0.0660    -4.2600    -0.0440 N.pl3 1 <1>  -0.8380 
  9 C        3.3390    -1.8270     0.1100 C.ar  1 <1>  -0.1500 
 10 C        3.3770    -3.2070     0.0740 C.ar  1 <1>   0.1600 
 11 C       -1.1050    -4.0990     0.8500 C.3   1 <1>   0.2090 
 12 C       -0.2580    -4.9020    -1.3340 C.3   1 <1>   0.2090 
 13 C       -1.6600    -5.4840     1.1740 C.3   1 <1>  -0.1600 
 14 C       -0.8040    -6.3060    -1.0590 C.3   1 <1>  -0.1600 
 15 C       -2.0130    -6.2730    -0.1050 C.3   1 <1>   0.4240 
 16 O       -2.9730    -5.5270    -0.8210 O.3   1 <1>  -0.5600 
 17 C       -2.5560    -7.6990     0.2160 C.ar  1 <1>  -0.1430 
 18 C       -4.2950    -5.5980    -0.4090 C.3   1 <1>   0.1200 
 19 C       -1.7630    -8.6810     0.8260 C.ar  1 <1>   0.0830 
 20 C       -3.8770    -8.0260    -0.0950 C.ar  1 <1>  -0.1430 
 21 C       -4.7990    -6.9980    -0.7200 C.3   1 <1>  -0.0170 
 22 O       -0.4870    -8.3730     1.1730 O.3   1 <1>  -0.3630 
 23 C       -2.2840    -9.9490     1.0790 C.ar  1 <1>  -0.1500 
 24 C       -4.3830    -9.2900     0.1620 C.ar  1 <1>  -0.1500 
 25 C        0.4010    -9.2960     1.7610 C.3   1 <1>   0.0400 
 26 C       -3.5870   -10.2530     0.7460 C.ar  1 <1>  -0.1500 
 27 H        2.0270    -0.1250     0.0920 H     1 <1>   0.1500 
 28 H        4.2470    -1.2570     0.1600 H     1 <1>   0.1500 
 29 H        4.3330    -3.6970     0.0960 H     1 <1>   0.1500 
 30 H       -1.8560    -3.5010     0.3600 H     1 <1>   0.0800 
 31 H       -0.8060    -3.5930     1.7530 H     1 <1>   0.0800 
 32 H        0.6280    -4.9610    -1.9420 H     1 <1>   0.0800 
 33 H       -0.9880    -4.3020    -1.8520 H     1 <1>   0.0800 
 34 H       -2.5160    -5.3970     1.8130 H     1 <1>   0.0800 
 35 H       -0.9060    -6.0050     1.7290 H     1 <1>   0.0800 
 36 H        0.0000    -6.8770    -0.6430 H     1 <1>   0.0800 
 37 H       -1.0920    -6.7730    -1.9810 H     1 <1>   0.0800 
 38 H       -4.8500    -4.8590    -0.9600 H     1 <1>   0.0800 
 39 H       -4.3580    -5.3770     0.6410 H     1 <1>   0.0800 
 40 H       -4.8260    -7.1370    -1.7860 H     1 <1>   0.0800 
 41 H       -5.7970    -7.1050    -0.3370 H     1 <1>   0.0800 
 42 H       -1.6910   -10.7160     1.5380 H     1 <1>   0.1500 
 43 H       -5.4010    -9.5290    -0.0920 H     1 <1>   0.1500 
 44 H        1.3410    -8.7960     1.9150 H     1 <1>   0.0800 
 45 H        0.5350   -10.1270     1.0920 H     1 <1>   0.0800 
 46 H       -0.0010    -9.6150     2.7050 H     1 <1>   0.0800 
 47 H       -3.9830   -11.2340     0.9420 H     1 <1>   0.1500 
@<TRIPOS>BOND
  1   1   2  ar  
  2   2   3  ar  
  3   2   4  1   
  4   4   5  ar  
  5   4   6  ar  
  6   5   7  ar  
  7   5   8  1   
  8   6   9  ar  
  9   6  27  1   
 10   7  10  ar  
 11   8  11  1   
 12   8  12  1   
 13   9  10  ar  
 14   9  28  1   
 15  10  29  1   
 16  11  13  1   
 17  11  30  1   
 18  11  31  1   
 19  12  14  1   
 20  12  32  1   
 21  12  33  1   
 22  13  15  1   
 23  13  34  1   
 24  13  35  1   
 25  14  15  1   
 26  14  36  1   
 27  14  37  1   
 28  15  16  1   
 29  15  17  1   
 30  16  18  1   
 31  17  19  ar  
 32  17  20  ar  
 33  18  21  1   
 34  18  38  1   
 35  18  39  1   
 36  19  22  1   
 37  19  23  ar  
 38  20  21  1   
 39  20  24  ar  
 40  21  40  1   
 41  21  41  1   
 42  22  25  1   
 43  23  26  ar  
 44  23  42  1   
 45  24  26  ar  
 46  24  43  1   
 47  25  44  1   
 48  25  45  1   
 49  25  46  1   
 50  26  47  1   
@<TRIPOS>SUBSTRUCTURE
  1 ****  13 GROUP 4 **** **** 0

# MOE 2024.06 (io_trps.svl 2023.06)
