@<TRIPOS>MOLECULE
NONAME
53 55 1 0 0 
SMALL
USER_CHARGES


@<TRIPOS>ATOM
  1 O       -0.3470    -0.5190    -0.2470 O.co2 1 <1>  -0.9000 
  2 C        0.1410     0.4410     0.3440 C.2   1 <1>   0.9060 
  3 O       -0.5040     1.4160     0.7560 O.co2 1 <1>  -0.9000 
  4 C        1.6560     0.5320     0.5240 C.3   1 <1>   0.2370 
  5 N        2.0860     1.9810     0.6480 N.4   1 <1>  -0.9590 
  6 C        2.0740     2.6340    -0.6860 C.3   1 <1>   0.3430 
  7 C        3.3070     2.1790     1.4600 C.3   1 <1>   0.3430 
  8 C        2.3380     4.1270    -0.5230 C.3   1 <1>  -0.1600 
  9 C        3.5740     3.6730     1.6210 C.3   1 <1>  -0.1600 
 10 C        3.6240     4.3690     0.2620 C.3   1 <1>   0.2890 
 11 N        3.7610     5.8150     0.4890 N.pl3 1 <1>  -0.8690 
 12 C        4.7360     6.6830     0.1810 C.ar  1 <1>   0.4100 
 13 N        4.4770     7.9210     0.5280 N.ar  1 <1>  -0.6200 
 14 C        5.9380     6.3210    -0.4550 C.ar  1 <1>  -0.1500 
 15 C        5.3810     8.8550     0.2610 C.ar  1 <1>   0.7710 
 16 C        6.8550     7.2850    -0.7150 C.ar  1 <1>   0.2180 
 17 N        6.5450     8.5490    -0.3420 N.ar  1 <1>  -0.1790 
 18 N        5.1320    10.1460     0.6080 N.pl3 1 <1>  -0.8380 
 19 C        8.1940     7.0190    -1.3920 C.3   1 <1>  -0.0170 
 20 C        5.9410    11.3660     0.2530 C.3   1 <1>   0.2090 
 21 C        3.9210    10.5330     1.4260 C.3   1 <1>   0.2090 
 22 C        9.3790     7.3160    -0.4640 C.3   1 <1>  -0.2400 
 23 C        5.0490    12.4700    -0.3500 C.3   1 <1>   0.1200 
 24 C        3.1440    11.6860     0.7670 C.3   1 <1>   0.1200 
 25 O        3.9930    12.7670     0.5110 O.3   1 <1>  -0.5600 
 26 H        2.1300     0.0540    -0.3130 H     1 <1>   0.0800 
 27 H        1.8980    -0.0080     1.4210 H     1 <1>   0.0800 
 28 H        1.2440     2.3700     1.1350 H     1 <1>   0.4500 
 29 H        1.1110     2.4870    -1.1520 H     1 <1>   0.0800 
 30 H        2.8280     2.1910    -1.3150 H     1 <1>   0.0800 
 31 H        4.1440     1.7080     0.9710 H     1 <1>   0.0800 
 32 H        3.1780     1.7260     2.4300 H     1 <1>   0.0800 
 33 H        1.4980     4.5710    -0.0190 H     1 <1>   0.0800 
 34 H        2.4190     4.5740    -1.4980 H     1 <1>   0.0800 
 35 H        4.5120     3.8070     2.1290 H     1 <1>   0.0800 
 36 H        2.7970     4.1000     2.2300 H     1 <1>   0.0800 
 37 H        4.4600     3.9940    -0.3020 H     1 <1>   0.0800 
 38 H        2.9500     6.2370     0.9540 H     1 <1>   0.4000 
 39 H        6.1090     5.2970    -0.7180 H     1 <1>   0.1500 
 40 H        7.1920     9.3140    -0.4710 H     1 <1>   0.4570 
 41 H        8.2750     7.6140    -2.2860 H     1 <1>   0.0800 
 42 H        8.2450     5.9860    -1.6930 H     1 <1>   0.0800 
 43 H        6.7150    11.1380    -0.4560 H     1 <1>   0.0800 
 44 H        6.4070    11.7550     1.1430 H     1 <1>   0.0800 
 45 H        4.2410    10.8510     2.4040 H     1 <1>   0.0800 
 46 H        3.2450     9.7080     1.5660 H     1 <1>   0.0800 
 47 H        9.4210     8.3560    -0.1930 H     1 <1>   0.0800 
 48 H       10.3010     7.0640    -0.9590 H     1 <1>   0.0800 
 49 H        9.3130     6.7250     0.4340 H     1 <1>   0.0800 
 50 H        4.6440    12.1640    -1.2990 H     1 <1>   0.0800 
 51 H        5.6170    13.3730    -0.4910 H     1 <1>   0.0800 
 52 H        2.3640    12.0300     1.4230 H     1 <1>   0.0800 
 53 H        2.6980    11.3660    -0.1590 H     1 <1>   0.0800 
@<TRIPOS>BOND
  1   1   2  ar  
  2   2   3  ar  
  3   2   4  1   
  4   4   5  1   
  5   4  26  1   
  6   4  27  1   
  7   5   6  1   
  8   5   7  1   
  9   5  28  1   
 10   6   8  1   
 11   6  29  1   
 12   6  30  1   
 13   7   9  1   
 14   7  31  1   
 15   7  32  1   
 16   8  10  1   
 17   8  33  1   
 18   8  34  1   
 19   9  10  1   
 20   9  35  1   
 21   9  36  1   
 22  10  11  1   
 23  10  37  1   
 24  11  12  1   
 25  11  38  1   
 26  12  13  ar  
 27  12  14  ar  
 28  13  15  ar  
 29  14  16  ar  
 30  14  39  1   
 31  15  17  ar  
 32  15  18  1   
 33  16  17  ar  
 34  16  19  1   
 35  17  40  1   
 36  18  20  1   
 37  18  21  1   
 38  19  22  1   
 39  19  41  1   
 40  19  42  1   
 41  20  23  1   
 42  20  43  1   
 43  20  44  1   
 44  21  24  1   
 45  21  45  1   
 46  21  46  1   
 47  22  47  1   
 48  22  48  1   
 49  22  49  1   
 50  23  25  1   
 51  23  50  1   
 52  23  51  1   
 53  24  25  1   
 54  24  52  1   
 55  24  53  1   
@<TRIPOS>SUBSTRUCTURE
  1 ****  11 GROUP 4 **** **** 0

# MOE 2024.06 (io_trps.svl 2023.06)
