@<TRIPOS>MOLECULE
NONAME
49 51 1 0 0 
SMALL
USER_CHARGES


@<TRIPOS>ATOM
  1 O       -1.8930     1.1670    -0.2520 O.3   1 <1>  -0.3630 
  2 C       -1.0370     2.1610     0.1140 C.ar  1 <1>   0.0830 
  3 C       -1.4480     0.0650    -1.0170 C.3   1 <1>   0.0400 
  4 C       -1.4930     3.0980     1.0380 C.ar  1 <1>  -0.1440 
  5 C        0.2510     2.2770    -0.4010 C.ar  1 <1>  -0.1500 
  6 C       -0.6610     4.1320     1.4390 C.ar  1 <1>  -0.1500 
  7 C       -2.8940     2.9910     1.6060 C.3   1 <1>   0.4870 
  8 C        1.0770     3.3140    -0.0010 C.ar  1 <1>  -0.1440 
  9 C        0.6170     4.2380     0.9200 C.ar  1 <1>  -0.1500 
 10 N       -3.8540     3.0680     0.4820 N.4   1 <1>  -0.9590 
 11 C        2.4830     3.4380    -0.5620 C.3   1 <1>  -0.0970 
 12 C       -5.2220     2.6220     0.8770 C.3   1 <1>   0.3430 
 13 C       -3.8530     4.3990    -0.1830 C.3   1 <1>   0.3430 
 14 C       -6.1510     2.5190    -0.3530 C.3   1 <1>   0.0000 
 15 C       -4.7390     4.3490    -1.4300 C.3   1 <1>  -0.1600 
 16 C       -7.5630     2.0980     0.0900 C.3   1 <1>   0.2000 
 17 C       -6.1640     3.8660    -1.1070 C.3   1 <1>  -0.1600 
 18 C       -5.7290     1.3450    -1.2540 C.3   1 <1>  -0.1600 
 19 O       -7.8780     2.6340     1.3270 O.3   1 <1>  -0.6800 
 20 C       -7.5620     0.5690     0.1650 C.3   1 <1>  -0.1600 
 21 C       -6.3030     0.0990    -0.5760 C.3   1 <1>  -0.1600 
 22 H       -2.2610    -0.6340    -1.1100 H     1 <1>   0.0800 
 23 H       -0.6230    -0.4040    -0.5100 H     1 <1>   0.0800 
 24 H       -1.1510     0.4090    -1.9920 H     1 <1>   0.0800 
 25 H        0.6290     1.5700    -1.1150 H     1 <1>   0.1500 
 26 H       -0.9910     4.8640     2.1570 H     1 <1>   0.1500 
 27 H       -3.0780     3.7820     2.3140 H     1 <1>   0.0800 
 28 H       -2.9930     2.0430     2.1090 H     1 <1>   0.0800 
 29 H        1.2570     5.0440     1.2390 H     1 <1>   0.1500 
 30 H       -3.4790     2.3860    -0.1970 H     1 <1>   0.4500 
 31 H        2.7580     4.4730    -0.6620 H     1 <1>   0.0800 
 32 H        2.5500     2.9770    -1.5310 H     1 <1>   0.0800 
 33 H        3.1830     2.9570     0.0980 H     1 <1>   0.0800 
 34 H       -5.1750     1.6610     1.3620 H     1 <1>   0.0800 
 35 H       -5.6430     3.3270     1.5740 H     1 <1>   0.0800 
 36 H       -4.2310     5.1450     0.4980 H     1 <1>   0.0800 
 37 H       -2.8490     4.6710    -0.4660 H     1 <1>   0.0800 
 38 H       -4.7890     5.3340    -1.8600 H     1 <1>   0.0800 
 39 H       -4.2850     3.7050    -2.1620 H     1 <1>   0.0800 
 40 H       -8.2970     2.4320    -0.6260 H     1 <1>   0.0800 
 41 H       -6.7330     3.7810    -2.0170 H     1 <1>   0.0800 
 42 H       -6.6510     4.6040    -0.4920 H     1 <1>   0.0800 
 43 H       -6.1920     1.4480    -2.2210 H     1 <1>   0.0800 
 44 H       -4.6660     1.2650    -1.3980 H     1 <1>   0.0800 
 45 H       -8.7950     2.3930     1.5730 H     1 <1>   0.4000 
 46 H       -7.5420     0.2170     1.1830 H     1 <1>   0.0800 
 47 H       -8.4410     0.1840    -0.3240 H     1 <1>   0.0800 
 48 H       -5.5930    -0.2940     0.1320 H     1 <1>   0.0800 
 49 H       -6.5300    -0.6700    -1.2950 H     1 <1>   0.0800 
@<TRIPOS>BOND
  1   1   2  1   
  2   1   3  1   
  3   2   4  ar  
  4   2   5  ar  
  5   3  22  1   
  6   3  23  1   
  7   3  24  1   
  8   4   6  ar  
  9   4   7  1   
 10   5   8  ar  
 11   5  25  1   
 12   6   9  ar  
 13   6  26  1   
 14   7  10  1   
 15   7  27  1   
 16   7  28  1   
 17   8   9  ar  
 18   8  11  1   
 19   9  29  1   
 20  10  12  1   
 21  10  13  1   
 22  10  30  1   
 23  11  31  1   
 24  11  32  1   
 25  11  33  1   
 26  12  14  1   
 27  12  34  1   
 28  12  35  1   
 29  13  15  1   
 30  13  36  1   
 31  13  37  1   
 32  14  16  1   
 33  14  17  1   
 34  14  18  1   
 35  15  17  1   
 36  15  38  1   
 37  15  39  1   
 38  16  19  1   
 39  16  20  1   
 40  16  40  1   
 41  17  41  1   
 42  17  42  1   
 43  18  21  1   
 44  18  43  1   
 45  18  44  1   
 46  19  45  1   
 47  20  21  1   
 48  20  46  1   
 49  20  47  1   
 50  21  48  1   
 51  21  49  1   
@<TRIPOS>SUBSTRUCTURE
  1 ****  10 GROUP 4 **** **** 0

# MOE 2024.06 (io_trps.svl 2023.06)
