@<TRIPOS>MOLECULE
NONAME
43 43 1 0 0 
SMALL
USER_CHARGES


@<TRIPOS>ATOM
  1 O        1.2800    -0.6050    -2.4450 O.2   1 <1>  -0.5700 
  2 C        1.5190    -0.7380    -1.2660 C.2   1 <1>   0.5690 
  3 N        1.8620     0.3460    -0.4870 N.am  1 <1>  -0.6600 
  4 C        1.4690    -2.1680    -0.6910 C.3   1 <1>   0.1710 
  5 C        1.9560     1.7050    -1.0940 C.3   1 <1>   0.3210 
  6 C        2.2450     0.2910     0.9550 C.3   1 <1>   0.0600 
  7 N        0.1260    -2.6760    -0.2720 N.3   1 <1>  -0.8100 
  8 C        3.3500     2.2710    -0.8850 C.2   1 <1>  -0.1810 
  9 C        0.2180    -4.0800     0.1720 C.3   1 <1>   0.1100 
 10 C       -0.5250    -1.8190     0.7290 C.3   1 <1>   0.0300 
 11 C        3.7870     3.3180    -0.1480 C.2   1 <1>  -0.3320 
 12 C        4.4960     1.7470    -1.4690 C.2   1 <1>   0.1390 
 13 C       -1.1340    -4.7890     0.0720 C.3   1 <1>   0.1200 
 14 N        5.1280     3.3740    -0.3170 N.pl3 1 <1>   0.3140 
 15 C        3.0000     4.2860     0.7230 C.3   1 <1>  -0.0600 
 16 N        5.5640     2.4000    -1.1310 N.2   1 <1>  -0.7070 
 17 O       -0.9690    -6.1100     0.4870 O.3   1 <1>  -0.5600 
 18 C        6.0630     4.3420     0.2700 C.3   1 <1>   0.0160 
 19 C       -2.1260    -6.8750     0.3880 C.3   1 <1>   0.0400 
 20 H        2.1580    -2.2520     0.1280 H     1 <1>   0.0800 
 21 H        1.8360    -2.8130    -1.4690 H     1 <1>   0.0800 
 22 H        1.2240     2.3430    -0.6350 H     1 <1>   0.0800 
 23 H        1.7470     1.6770    -2.1490 H     1 <1>   0.0800 
 24 H        1.8880    -0.6040     1.4260 H     1 <1>   0.0800 
 25 H        1.8280     1.1350     1.4740 H     1 <1>   0.0800 
 26 H        3.3180     0.3270     1.0440 H     1 <1>   0.0800 
 27 H        0.5810    -4.1250     1.1850 H     1 <1>   0.0800 
 28 H        0.9060    -4.6120    -0.4630 H     1 <1>   0.0800 
 29 H       -0.5890    -0.8080     0.3670 H     1 <1>   0.0800 
 30 H        0.0250    -1.8330     1.6540 H     1 <1>   0.0800 
 31 H       -1.5270    -2.1620     0.9150 H     1 <1>   0.0800 
 32 H        4.5030     0.8930    -2.1270 H     1 <1>   0.1500 
 33 H       -1.4730    -4.7850    -0.9490 H     1 <1>   0.0800 
 34 H       -1.8610    -4.3220     0.7110 H     1 <1>   0.0800 
 35 H        1.9540     4.0410     0.7180 H     1 <1>   0.0800 
 36 H        3.1140     5.2900     0.3540 H     1 <1>   0.0800 
 37 H        3.3540     4.2440     1.7370 H     1 <1>   0.0800 
 38 H        5.7900     5.3310    -0.0440 H     1 <1>   0.0800 
 39 H        7.0580     4.1190    -0.0680 H     1 <1>   0.0800 
 40 H        6.0220     4.2680     1.3400 H     1 <1>   0.0800 
 41 H       -1.8990    -7.8690     0.7300 H     1 <1>   0.0800 
 42 H       -2.4420    -6.9090    -0.6400 H     1 <1>   0.0800 
 43 H       -2.8920    -6.4430     1.0080 H     1 <1>   0.0800 
@<TRIPOS>BOND
  1   1   2  2   
  2   2   3  am  
  3   2   4  1   
  4   3   5  1   
  5   3   6  1   
  6   4   7  1   
  7   4  20  1   
  8   4  21  1   
  9   5   8  1   
 10   5  22  1   
 11   5  23  1   
 12   6  24  1   
 13   6  25  1   
 14   6  26  1   
 15   7   9  1   
 16   7  10  1   
 17   8  11  2   
 18   8  12  1   
 19   9  13  1   
 20   9  27  1   
 21   9  28  1   
 22  10  29  1   
 23  10  30  1   
 24  10  31  1   
 25  11  14  1   
 26  11  15  1   
 27  12  16  2   
 28  12  32  1   
 29  13  17  1   
 30  13  33  1   
 31  13  34  1   
 32  14  16  1   
 33  14  18  1   
 34  15  35  1   
 35  15  36  1   
 36  15  37  1   
 37  17  19  1   
 38  18  38  1   
 39  18  39  1   
 40  18  40  1   
 41  19  41  1   
 42  19  42  1   
 43  19  43  1   
@<TRIPOS>SUBSTRUCTURE
  1 ****   3 GROUP 4 **** **** 0

# MOE 2024.06 (io_trps.svl 2023.06)
