@<TRIPOS>MOLECULE
NONAME
41 42 1 0 0 
SMALL
USER_CHARGES


@<TRIPOS>ATOM
  1 S        0.0770     0.7400    -0.9820 S.o2  1 <1>   1.3330 
  2 O       -0.1240     1.5900    -2.1340 O.2   1 <1>  -0.6500 
  3 O        0.1210    -0.6920    -1.1690 O.2   1 <1>  -0.6500 
  4 N        1.5440     1.1870    -0.2530 N.am  1 <1>  -0.8490 
  5 C       -1.2080     1.1040     0.2290 C.3   1 <1>  -0.0550 
  6 C        2.0140     0.2240     0.7500 C.3   1 <1>   0.1160 
  7 C        2.6020     1.4020    -1.2450 C.3   1 <1>   0.1160 
  8 C       -1.4080     2.5550     0.7370 C.3   1 <1>  -0.0800 
  9 C       -1.5390     3.6150    -0.3660 C.3   1 <1>   0.2000 
 10 C       -0.2820     3.0630     1.6490 C.3   1 <1>   0.1400 
 11 O       -2.4360     4.5700     0.0850 O.3   1 <1>  -0.6800 
 12 C       -0.1630     4.2750    -0.4620 C.3   1 <1>   0.1400 
 13 N        0.4160     4.1300     0.8960 N.am  1 <1>  -0.6600 
 14 C        1.3370     4.9660     1.4790 C.2   1 <1>   0.5440 
 15 O        1.4760     4.9240     2.6860 O.2   1 <1>  -0.5700 
 16 C        2.1330     5.8930     0.6980 C.ar  1 <1>   0.0860 
 17 C        2.2700     7.2260     1.0910 C.ar  1 <1>  -0.1500 
 18 C        2.7990     5.4880    -0.4610 C.ar  1 <1>  -0.1500 
 19 C        3.0300     8.1010     0.3370 C.ar  1 <1>   0.1900 
 20 C        3.5490     6.3930    -1.1870 C.ar  1 <1>   0.1900 
 21 F        3.1330     9.3420     0.7280 F     1 <1>  -0.1900 
 22 C        3.6840     7.7150    -0.8150 C.ar  1 <1>  -0.1500 
 23 F        4.1530     5.9800    -2.2670 F     1 <1>  -0.1900 
 24 H       -2.1400     0.7960    -0.2050 H     1 <1>   0.0800 
 25 H       -1.0550     0.4730     1.0830 H     1 <1>   0.0800 
 26 H        2.8960     0.6040     1.2390 H     1 <1>   0.0800 
 27 H        2.2500    -0.7200     0.2870 H     1 <1>   0.0800 
 28 H        1.2580     0.0620     1.4980 H     1 <1>   0.0800 
 29 H        3.5120     1.7090    -0.7590 H     1 <1>   0.0800 
 30 H        2.3110     2.1760    -1.9350 H     1 <1>   0.0800 
 31 H        2.7840     0.4970    -1.8000 H     1 <1>   0.0800 
 32 H       -2.3160     2.5320     1.3150 H     1 <1>   0.0800 
 33 H       -1.8990     3.2360    -1.3070 H     1 <1>   0.0800 
 34 H        0.4120     2.2880     1.9190 H     1 <1>   0.0800 
 35 H       -0.6940     3.4850     2.5510 H     1 <1>   0.0800 
 36 H       -2.0560     5.0160     0.8680 H     1 <1>   0.4000 
 37 H       -0.2400     5.3060    -0.7600 H     1 <1>   0.0800 
 38 H        0.4570     3.7500    -1.1650 H     1 <1>   0.0800 
 39 H        1.7850     7.5720     1.9880 H     1 <1>   0.1500 
 40 H        2.7350     4.4660    -0.7870 H     1 <1>   0.1500 
 41 H        4.2700     8.4080    -1.3910 H     1 <1>   0.1500 
@<TRIPOS>BOND
  1   1   2  2   
  2   1   3  2   
  3   1   4  am  
  4   1   5  1   
  5   4   6  1   
  6   4   7  1   
  7   5   8  1   
  8   5  24  1   
  9   5  25  1   
 10   6  26  1   
 11   6  27  1   
 12   6  28  1   
 13   7  29  1   
 14   7  30  1   
 15   7  31  1   
 16   8   9  1   
 17   8  10  1   
 18   8  32  1   
 19   9  11  1   
 20   9  12  1   
 21   9  33  1   
 22  10  13  1   
 23  10  34  1   
 24  10  35  1   
 25  11  36  1   
 26  12  13  1   
 27  12  37  1   
 28  12  38  1   
 29  13  14  am  
 30  14  15  2   
 31  14  16  1   
 32  16  17  ar  
 33  16  18  ar  
 34  17  19  ar  
 35  17  39  1   
 36  18  20  ar  
 37  18  40  1   
 38  19  21  1   
 39  19  22  ar  
 40  20  22  ar  
 41  20  23  1   
 42  22  41  1   
@<TRIPOS>SUBSTRUCTURE
  1 ****  13 GROUP 4 **** **** 0

# MOE 2024.06 (io_trps.svl 2023.06)
