@<TRIPOS>MOLECULE
NONAME
49 51 1 0 0 
SMALL
USER_CHARGES


@<TRIPOS>ATOM
  1 O       -1.4350     1.5480     3.2290 O.2   1 <1>  -0.5700 
  2 C       -2.0340     0.9670     2.3430 C.2   1 <1>   0.7800 
  3 O       -2.0360    -0.3610     2.2160 O.3   1 <1>  -0.2320 
  4 N       -2.7630     1.5520     1.3470 N.am  1 <1>  -0.4770 
  5 C       -2.7670    -0.6450     1.1190 C.ar  1 <1>   0.0830 
  6 C       -3.2300     0.5240     0.5550 C.ar  1 <1>   0.1170 
  7 C       -2.9750     3.0010     1.1720 C.3   1 <1>   0.1400 
  8 C       -3.0520    -1.8820     0.5740 C.ar  1 <1>  -0.1500 
  9 C       -4.0050     0.4870    -0.5940 C.ar  1 <1>  -0.1500 
 10 C       -1.8200     3.5980     0.3710 C.3   1 <1>  -0.0990 
 11 C       -3.8290    -1.9200    -0.5750 C.ar  1 <1>  -0.1500 
 12 C       -4.3040    -0.7450    -1.1580 C.ar  1 <1>  -0.1440 
 13 C       -1.8910     5.1070     0.4310 C.2   1 <1>   0.5690 
 14 C       -5.1510    -0.8310    -2.4160 C.3   1 <1>  -0.0960 
 15 O       -2.4370     5.6670    -0.4890 O.2   1 <1>  -0.5700 
 16 N       -1.3650     5.8010     1.4890 N.am  1 <1>  -0.6600 
 17 C       -1.3530     7.2950     1.4660 C.3   1 <1>   0.3210 
 18 C       -0.6170     5.2030     2.6370 C.3   1 <1>   0.0600 
 19 C        0.0040     7.8070     1.0160 C.2   1 <1>   0.1080 
 20 N        0.8530     8.4050     1.7770 N.2   1 <1>  -0.4100 
 21 C        0.5020     7.6850    -0.2780 C.2   1 <1>  -0.1500 
 22 O        1.8810     8.6740     1.0240 O.3   1 <1>  -0.0190 
 23 C        1.7130     8.2620    -0.2050 C.2   1 <1>  -0.0400 
 24 C        2.8130     8.4890    -1.2320 C.3   1 <1>   0.1000 
 25 C        2.3460     8.1200    -2.6450 C.3   1 <1>  -0.2400 
 26 C        4.0580     7.6760    -0.8610 C.3   1 <1>  -0.2400 
 27 H       -3.0260     3.4610     2.1440 H     1 <1>   0.0800 
 28 H       -3.9090     3.1770     0.6670 H     1 <1>   0.0800 
 29 H       -2.6790    -2.7790     1.0330 H     1 <1>   0.1500 
 30 H       -4.3610     1.4030    -1.0290 H     1 <1>   0.1500 
 31 H       -1.8980     3.2850    -0.6540 H     1 <1>   0.0800 
 32 H       -0.8730     3.2640     0.7500 H     1 <1>   0.0800 
 33 H       -4.0670    -2.8710    -1.0200 H     1 <1>   0.1500 
 34 H       -5.4660     0.1450    -2.7370 H     1 <1>   0.0800 
 35 H       -6.0250    -1.4290    -2.2300 H     1 <1>   0.0800 
 36 H       -4.5830    -1.2850    -3.2090 H     1 <1>   0.0800 
 37 H       -1.5690     7.6710     2.4500 H     1 <1>   0.0800 
 38 H       -2.1090     7.6700     0.8000 H     1 <1>   0.0800 
 39 H       -0.8670     4.1670     2.7800 H     1 <1>   0.0800 
 40 H       -0.8540     5.7300     3.5440 H     1 <1>   0.0800 
 41 H        0.4420     5.2850     2.4580 H     1 <1>   0.0800 
 42 H       -0.0050     7.2250    -1.1070 H     1 <1>   0.1500 
 43 H        3.0670     9.5360    -1.2200 H     1 <1>   0.0800 
 44 H        2.0930     7.0760    -2.6980 H     1 <1>   0.0800 
 45 H        3.1240     8.3230    -3.3590 H     1 <1>   0.0800 
 46 H        1.4810     8.7000    -2.9100 H     1 <1>   0.0800 
 47 H        3.8260     6.6260    -0.8430 H     1 <1>   0.0800 
 48 H        4.4090     7.9640     0.1140 H     1 <1>   0.0800 
 49 H        4.8460     7.8490    -1.5720 H     1 <1>   0.0800 
@<TRIPOS>BOND
  1   1   2  2   
  2   2   3  1   
  3   2   4  am  
  4   3   5  1   
  5   4   6  1   
  6   4   7  1   
  7   5   6  ar  
  8   5   8  ar  
  9   6   9  ar  
 10   7  10  1   
 11   7  27  1   
 12   7  28  1   
 13   8  11  ar  
 14   8  29  1   
 15   9  12  ar  
 16   9  30  1   
 17  10  13  1   
 18  10  31  1   
 19  10  32  1   
 20  11  12  ar  
 21  11  33  1   
 22  12  14  1   
 23  13  15  2   
 24  13  16  am  
 25  14  34  1   
 26  14  35  1   
 27  14  36  1   
 28  16  17  1   
 29  16  18  1   
 30  17  19  1   
 31  17  37  1   
 32  17  38  1   
 33  18  39  1   
 34  18  40  1   
 35  18  41  1   
 36  19  20  2   
 37  19  21  1   
 38  20  22  1   
 39  21  23  2   
 40  21  42  1   
 41  22  23  1   
 42  23  24  1   
 43  24  25  1   
 44  24  26  1   
 45  24  43  1   
 46  25  44  1   
 47  25  45  1   
 48  25  46  1   
 49  26  47  1   
 50  26  48  1   
 51  26  49  1   
@<TRIPOS>SUBSTRUCTURE
  1 ****  10 GROUP 4 **** **** 0

# MOE 2024.06 (io_trps.svl 2023.06)
