@<TRIPOS>MOLECULE
NONAME
50 52 1 0 0 
SMALL
USER_CHARGES


@<TRIPOS>ATOM
  1 N       -0.2410    -0.3280    -0.3660 N.ar  1 <1>  -0.6200 
  2 C        0.9310     0.2690    -0.2150 C.ar  1 <1>   0.7710 
  3 C       -0.2700    -1.6130    -0.6640 C.ar  1 <1>   0.4100 
  4 N        2.0870    -0.3980    -0.3490 N.ar  1 <1>  -0.1790 
  5 N        0.9690     1.5900     0.0840 N.pl3 1 <1>  -0.8380 
  6 N       -1.4930    -2.1890    -0.8450 N.pl3 1 <1>  -0.8380 
  7 C        0.9280    -2.3480    -0.7860 C.ar  1 <1>  -0.1500 
  8 C        2.1190    -1.7210    -0.6290 C.ar  1 <1>   0.2180 
  9 C        2.1530     2.4520     0.3550 C.3   1 <1>   0.2090 
 10 C       -0.2810     2.3920     0.2080 C.3   1 <1>   0.2090 
 11 C       -1.7550    -3.3790    -1.7290 C.3   1 <1>   0.3890 
 12 C       -2.7640    -1.4940    -0.4480 C.3   1 <1>   0.1290 
 13 C        3.4670    -2.4220    -0.7450 C.3   1 <1>  -0.0170 
 14 C        1.5800     3.7390     0.9320 C.3   1 <1>  -0.1600 
 15 C        0.1810     3.8370     0.3360 C.3   1 <1>  -0.1600 
 16 C       -2.6670    -4.4190    -1.0840 C.2   1 <1>   0.0060 
 17 C        4.2430    -2.4090     0.5790 C.3   1 <1>  -0.2400 
 18 N       -3.7590    -4.8230    -1.6570 N.2   1 <1>  -0.5650 
 19 N       -2.4340    -5.0150     0.1160 N.pl3 1 <1>   0.0480 
 20 C       -4.2660    -5.7230    -0.7980 C.2   1 <1>   0.0770 
 21 C       -3.4730    -5.8540     0.2860 C.2   1 <1>  -0.3020 
 22 C       -1.3270    -4.8360     1.0790 C.3   1 <1>   0.0960 
 23 C       -0.1720    -5.7890     0.7570 C.3   1 <1>  -0.2400 
 24 H        2.9260     0.1500    -0.2200 H     1 <1>   0.4570 
 25 H        0.8850    -3.3980    -0.9900 H     1 <1>   0.1500 
 26 H        2.6610     2.6680    -0.5700 H     1 <1>   0.0800 
 27 H        2.8310     1.9950     1.0570 H     1 <1>   0.0800 
 28 H       -0.8120     2.0890     1.0960 H     1 <1>   0.0800 
 29 H       -0.9190     2.2610    -0.6510 H     1 <1>   0.0800 
 30 H       -0.8460    -3.8600    -2.0310 H     1 <1>   0.0800 
 31 H       -2.2350    -3.0300    -2.6280 H     1 <1>   0.0800 
 32 H       -2.5850    -0.7700     0.3280 H     1 <1>   0.0800 
 33 H       -3.4840    -2.2010    -0.0740 H     1 <1>   0.0800 
 34 H       -3.1850    -0.9910    -1.3010 H     1 <1>   0.0800 
 35 H        4.0560    -1.9520    -1.5150 H     1 <1>   0.0800 
 36 H        3.3140    -3.4460    -1.0430 H     1 <1>   0.0800 
 37 H        2.1870     4.5940     0.6900 H     1 <1>   0.0800 
 38 H        1.5150     3.6500     2.0020 H     1 <1>   0.0800 
 39 H       -0.4870     4.4160     0.9490 H     1 <1>   0.0800 
 40 H        0.2270     4.2790    -0.6440 H     1 <1>   0.0800 
 41 H        4.4900    -1.4080     0.8840 H     1 <1>   0.0800 
 42 H        5.1620    -2.9590     0.4680 H     1 <1>   0.0800 
 43 H        3.6670    -2.8780     1.3590 H     1 <1>   0.0800 
 44 H       -5.1880    -6.2380    -1.0080 H     1 <1>   0.1500 
 45 H       -3.5920    -6.4850     1.1470 H     1 <1>   0.1500 
 46 H       -1.7000    -5.0370     2.0670 H     1 <1>   0.0800 
 47 H       -0.9940    -3.8160     1.0550 H     1 <1>   0.0800 
 48 H       -0.5040    -6.8090     0.8410 H     1 <1>   0.0800 
 49 H        0.6320    -5.6370     1.4540 H     1 <1>   0.0800 
 50 H        0.1940    -5.6210    -0.2390 H     1 <1>   0.0800 
@<TRIPOS>BOND
  1   1   2  ar  
  2   1   3  ar  
  3   2   4  ar  
  4   2   5  1   
  5   3   6  1   
  6   3   7  ar  
  7   4   8  ar  
  8   4  24  1   
  9   5   9  1   
 10   5  10  1   
 11   6  11  1   
 12   6  12  1   
 13   7   8  ar  
 14   7  25  1   
 15   8  13  1   
 16   9  14  1   
 17   9  26  1   
 18   9  27  1   
 19  10  15  1   
 20  10  28  1   
 21  10  29  1   
 22  11  16  1   
 23  11  30  1   
 24  11  31  1   
 25  12  32  1   
 26  12  33  1   
 27  12  34  1   
 28  13  17  1   
 29  13  35  1   
 30  13  36  1   
 31  14  15  1   
 32  14  37  1   
 33  14  38  1   
 34  15  39  1   
 35  15  40  1   
 36  16  18  2   
 37  16  19  1   
 38  17  41  1   
 39  17  42  1   
 40  17  43  1   
 41  18  20  1   
 42  19  21  1   
 43  19  22  1   
 44  20  21  2   
 45  20  44  1   
 46  21  45  1   
 47  22  23  1   
 48  22  46  1   
 49  22  47  1   
 50  23  48  1   
 51  23  49  1   
 52  23  50  1   
@<TRIPOS>SUBSTRUCTURE
  1 ****   3 GROUP 4 **** **** 0

# MOE 2024.06 (io_trps.svl 2023.06)
