@<TRIPOS>MOLECULE
NONAME
60 63 1 0 0 
SMALL
USER_CHARGES


@<TRIPOS>ATOM
  1 F       -1.8880     1.8940     0.8960 F     1 <1>  -0.1900 
  2 C       -3.1460     1.6620     0.6350 C.ar  1 <1>   0.1900 
  3 C       -4.0970     2.5560     1.0870 C.ar  1 <1>  -0.1500 
  4 C       -3.4800     0.5300    -0.0840 C.ar  1 <1>  -0.1500 
  5 C       -5.4290     2.3030     0.8050 C.ar  1 <1>  -0.1500 
  6 C       -4.8160     0.2890    -0.3590 C.ar  1 <1>  -0.1500 
  7 C       -5.7940     1.1730     0.0820 C.ar  1 <1>  -0.1430 
  8 C       -7.2620     0.9060    -0.2300 C.3   1 <1>   0.2540 
  9 N       -8.0740     0.9080     1.0020 N.3   1 <1>  -0.8100 
 10 C       -9.5370     0.9820     0.7170 C.3   1 <1>   0.1710 
 11 C       -7.7460    -0.2340     1.8690 C.3   1 <1>   0.0300 
 12 C      -10.2360    -0.1580    -0.0640 C.2   1 <1>   0.5690 
 13 O       -9.5730    -1.0240    -0.5910 O.2   1 <1>  -0.5700 
 14 N      -11.6090    -0.1690    -0.1660 N.am  1 <1>  -0.6600 
 15 C      -12.5250     0.8960     0.3580 C.3   1 <1>   0.1400 
 16 C      -12.3300    -1.2870    -0.8440 C.3   1 <1>   0.1400 
 17 C      -13.3880     1.4910    -0.7710 C.3   1 <1>   0.1440 
 18 C      -13.2000    -0.7410    -1.9830 C.3   1 <1>  -0.1600 
 19 C      -14.3180     2.5210    -0.1610 C.ar  1 <1>   0.1670 
 20 C      -14.1540     0.3610    -1.4920 C.3   1 <1>  -0.1600 
 21 C      -12.5450     2.3420    -1.7610 C.3   1 <1>  -0.1600 
 22 N      -15.3410     2.2500     0.6090 N.ar  1 <1>  -0.6200 
 23 C      -13.9500     3.7900    -0.4890 C.ar  1 <1>  -0.1430 
 24 C      -12.7200     3.8170    -1.3590 C.3   1 <1>  -0.0170 
 25 C      -16.0240     3.3120     1.0450 C.ar  1 <1>   0.7200 
 26 C      -14.7100     4.8210     0.0060 C.ar  1 <1>   0.1600 
 27 N      -15.7500     4.5920     0.7720 N.ar  1 <1>  -0.6200 
 28 N      -17.1140     3.0640     1.8570 N.pl3 1 <1>  -0.8380 
 29 C      -17.3850     1.7210     2.4400 C.3   1 <1>   0.1290 
 30 C      -18.1170     4.1190     2.1730 C.3   1 <1>   0.1290 
 31 H       -3.8020     3.4250     1.6460 H     1 <1>   0.1500 
 32 H       -2.7120    -0.1430    -0.4180 H     1 <1>   0.1500 
 33 H       -6.1920     2.9780     1.1530 H     1 <1>   0.1500 
 34 H       -5.0930    -0.5890    -0.9160 H     1 <1>   0.1500 
 35 H       -7.3590    -0.0380    -0.7380 H     1 <1>   0.0800 
 36 H       -7.6130     1.6780    -0.8920 H     1 <1>   0.0800 
 37 H       -9.7190     1.8940     0.1790 H     1 <1>   0.0800 
 38 H      -10.0370     1.0730     1.6630 H     1 <1>   0.0800 
 39 H       -6.7100    -0.1890     2.1610 H     1 <1>   0.0800 
 40 H       -7.9200    -1.1650     1.3560 H     1 <1>   0.0800 
 41 H       -8.3470    -0.2050     2.7610 H     1 <1>   0.0800 
 42 H      -11.9820     1.6890     0.8370 H     1 <1>   0.0800 
 43 H      -13.1740     0.4580     1.0980 H     1 <1>   0.0800 
 44 H      -12.9500    -1.7890    -0.1200 H     1 <1>   0.0800 
 45 H      -11.6350    -2.0100    -1.2380 H     1 <1>   0.0800 
 46 H      -13.7720    -1.5490    -2.4040 H     1 <1>   0.0800 
 47 H      -12.5570    -0.3610    -2.7570 H     1 <1>   0.0800 
 48 H      -14.7180     0.7610    -2.3160 H     1 <1>   0.0800 
 49 H      -14.8600    -0.0740    -0.8040 H     1 <1>   0.0800 
 50 H      -12.9340     2.2230    -2.7570 H     1 <1>   0.0800 
 51 H      -11.5090     2.0540    -1.7750 H     1 <1>   0.0800 
 52 H      -12.8570     4.4470    -2.2210 H     1 <1>   0.0800 
 53 H      -11.8760     4.1600    -0.7850 H     1 <1>   0.0800 
 54 H      -14.4620     5.8420    -0.2270 H     1 <1>   0.1500 
 55 H      -16.4660     1.1830     2.5950 H     1 <1>   0.0800 
 56 H      -18.0110     1.1590     1.7690 H     1 <1>   0.0800 
 57 H      -17.8810     1.8230     3.3890 H     1 <1>   0.0800 
 58 H      -18.1930     4.8220     1.3610 H     1 <1>   0.0800 
 59 H      -17.8170     4.6440     3.0630 H     1 <1>   0.0800 
 60 H      -19.0850     3.6780     2.3270 H     1 <1>   0.0800 
@<TRIPOS>BOND
  1   1   2  1   
  2   2   3  ar  
  3   2   4  ar  
  4   3   5  ar  
  5   3  31  1   
  6   4   6  ar  
  7   4  32  1   
  8   5   7  ar  
  9   5  33  1   
 10   6   7  ar  
 11   6  34  1   
 12   7   8  1   
 13   8   9  1   
 14   8  35  1   
 15   8  36  1   
 16   9  10  1   
 17   9  11  1   
 18  10  12  1   
 19  10  37  1   
 20  10  38  1   
 21  11  39  1   
 22  11  40  1   
 23  11  41  1   
 24  12  13  2   
 25  12  14  am  
 26  14  15  1   
 27  14  16  1   
 28  15  17  1   
 29  15  42  1   
 30  15  43  1   
 31  16  18  1   
 32  16  44  1   
 33  16  45  1   
 34  17  19  1   
 35  17  20  1   
 36  17  21  1   
 37  18  20  1   
 38  18  46  1   
 39  18  47  1   
 40  19  22  ar  
 41  19  23  ar  
 42  20  48  1   
 43  20  49  1   
 44  21  24  1   
 45  21  50  1   
 46  21  51  1   
 47  22  25  ar  
 48  23  24  1   
 49  23  26  ar  
 50  24  52  1   
 51  24  53  1   
 52  25  27  ar  
 53  25  28  1   
 54  26  27  ar  
 55  26  54  1   
 56  28  29  1   
 57  28  30  1   
 58  29  55  1   
 59  29  56  1   
 60  29  57  1   
 61  30  58  1   
 62  30  59  1   
 63  30  60  1   
@<TRIPOS>SUBSTRUCTURE
  1 ****  10 GROUP 4 **** **** 0

# MOE 2024.06 (io_trps.svl 2023.06)
