@<TRIPOS>MOLECULE
NONAME
49 50 1 0 0 
SMALL
USER_CHARGES


@<TRIPOS>ATOM
  1 S        0.4930     0.2040     0.8470 S.o2  1 <1>   1.3330 
  2 O        1.8160     0.3250     1.4170 O.2   1 <1>  -0.6500 
  3 O       -0.6710     0.4140     1.6770 O.2   1 <1>  -0.6500 
  4 N        0.3740    -1.3370     0.1420 N.am  1 <1>  -0.8490 
  5 C        0.3630     1.2960    -0.5670 C.3   1 <1>  -0.0550 
  6 C       -0.2190    -2.3200     1.0540 C.3   1 <1>   0.1160 
  7 C        1.6490    -1.8430    -0.3760 C.3   1 <1>   0.1160 
  8 C        0.3170     2.7860    -0.1900 C.3   1 <1>  -0.0800 
  9 C        0.1270     3.6810    -1.4130 C.3   1 <1>   0.2000 
 10 C        1.5950     3.3150     0.4660 C.3   1 <1>   0.1400 
 11 O       -1.2180     3.7670    -1.7300 O.3   1 <1>  -0.6800 
 12 C        0.7100     5.0390    -1.0280 C.3   1 <1>   0.1400 
 13 N        1.6590     4.7390     0.0670 N.am  1 <1>  -0.6600 
 14 C        2.3720     5.6940     0.7550 C.2   1 <1>   0.5440 
 15 O        3.0790     5.3390     1.6810 O.2   1 <1>  -0.5700 
 16 C        2.3120     7.0830     0.3680 C.ar  1 <1>   0.0860 
 17 C        1.3570     7.9250     0.9530 C.ar  1 <1>   0.0820 
 18 C        3.1580     7.6270    -0.6140 C.ar  1 <1>   0.0820 
 19 O        0.5280     7.3880     1.8830 O.3   1 <1>  -0.3630 
 20 C        1.2590     9.2610     0.5730 C.ar  1 <1>  -0.1500 
 21 O        4.1100     6.9220    -1.2680 O.3   1 <1>  -0.3630 
 22 C        3.0370     8.9540    -0.9910 C.ar  1 <1>  -0.1500 
 23 C       -0.2860     8.1760     2.7230 C.3   1 <1>   0.0400 
 24 C        2.0970     9.7740    -0.3990 C.ar  1 <1>  -0.1500 
 25 C        5.0410     6.1360    -0.5500 C.3   1 <1>   0.0400 
 26 H        1.1870     1.1220    -1.2300 H     1 <1>   0.0800 
 27 H       -0.5390     1.0560    -1.0980 H     1 <1>   0.0800 
 28 H       -0.2940    -3.2800     0.5720 H     1 <1>   0.0800 
 29 H       -1.2100    -2.0090     1.3380 H     1 <1>   0.0800 
 30 H        0.3820    -2.4150     1.9440 H     1 <1>   0.0800 
 31 H        1.4950    -2.7760    -0.8900 H     1 <1>   0.0800 
 32 H        2.3480    -1.9980     0.4300 H     1 <1>   0.0800 
 33 H        2.0740    -1.1390    -1.0710 H     1 <1>   0.0800 
 34 H       -0.4880     2.9550     0.5050 H     1 <1>   0.0800 
 35 H        0.6530     3.2930    -2.2690 H     1 <1>   0.0800 
 36 H        2.4690     2.8100     0.0920 H     1 <1>   0.0800 
 37 H        1.5630     3.2180     1.5400 H     1 <1>   0.0800 
 38 H       -1.7270     4.0920    -0.9610 H     1 <1>   0.4000 
 39 H       -0.0560     5.7010    -0.6610 H     1 <1>   0.0800 
 40 H        1.2270     5.4870    -1.8590 H     1 <1>   0.0800 
 41 H        0.5330     9.9160     1.0150 H     1 <1>   0.1500 
 42 H        3.6910     9.3430    -1.7520 H     1 <1>   0.1500 
 43 H       -0.7530     7.5240     3.4400 H     1 <1>   0.0800 
 44 H       -1.0380     8.6630     2.1280 H     1 <1>   0.0800 
 45 H        0.3320     8.8940     3.2330 H     1 <1>   0.0800 
 46 H        2.0170    10.8050    -0.6960 H     1 <1>   0.1500 
 47 H        5.9600     6.1120    -1.1080 H     1 <1>   0.0800 
 48 H        4.6530     5.1390    -0.4490 H     1 <1>   0.0800 
 49 H        5.2100     6.5760     0.4180 H     1 <1>   0.0800 
@<TRIPOS>BOND
  1   1   2  2   
  2   1   3  2   
  3   1   4  am  
  4   1   5  1   
  5   4   6  1   
  6   4   7  1   
  7   5   8  1   
  8   5  26  1   
  9   5  27  1   
 10   6  28  1   
 11   6  29  1   
 12   6  30  1   
 13   7  31  1   
 14   7  32  1   
 15   7  33  1   
 16   8   9  1   
 17   8  10  1   
 18   8  34  1   
 19   9  11  1   
 20   9  12  1   
 21   9  35  1   
 22  10  13  1   
 23  10  36  1   
 24  10  37  1   
 25  11  38  1   
 26  12  13  1   
 27  12  39  1   
 28  12  40  1   
 29  13  14  am  
 30  14  15  2   
 31  14  16  1   
 32  16  17  ar  
 33  16  18  ar  
 34  17  19  1   
 35  17  20  ar  
 36  18  21  1   
 37  18  22  ar  
 38  19  23  1   
 39  20  24  ar  
 40  20  41  1   
 41  21  25  1   
 42  22  24  ar  
 43  22  42  1   
 44  23  43  1   
 45  23  44  1   
 46  23  45  1   
 47  24  46  1   
 48  25  47  1   
 49  25  48  1   
 50  25  49  1   
@<TRIPOS>SUBSTRUCTURE
  1 ****  13 GROUP 4 **** **** 0

# MOE 2024.06 (io_trps.svl 2023.06)
