@<TRIPOS>MOLECULE
NONAME
37 38 1 0 0 
SMALL
USER_CHARGES


@<TRIPOS>ATOM
  1 O        0.0720    -1.6510    -1.7100 O.3   1 <1>  -0.5600 
  2 C       -0.4020    -2.4980    -0.7030 C.3   1 <1>   0.2000 
  3 C       -0.4460    -0.3490    -1.6800 C.3   1 <1>   0.1200 
  4 C        0.1920    -2.0330     0.6440 C.3   1 <1>  -0.1600 
  5 C       -0.0350    -3.9470    -1.0650 C.3   1 <1>   0.2090 
  6 C       -0.5510     0.2030    -0.2440 C.3   1 <1>  -0.1600 
  7 C        0.4170    -0.5120     0.7050 C.3   1 <1>  -0.1600 
  8 N       -0.3980    -4.9230     0.0210 N.pl3 1 <1>  -0.8380 
  9 C       -1.7200    -5.0720     0.3960 C.ar  1 <1>   0.4100 
 10 C        0.4780    -6.1150     0.0870 C.3   1 <1>   0.2090 
 11 N       -2.6450    -4.8400    -0.5240 N.ar  1 <1>  -0.6200 
 12 C       -2.0240    -5.4530     1.7000 C.ar  1 <1>  -0.1500 
 13 C        1.6590    -5.8080     1.0020 C.3   1 <1>  -0.2400 
 14 C       -3.9170    -4.9900    -0.1560 C.ar  1 <1>   0.3830 
 15 C       -3.3310    -5.6130     2.0880 C.ar  1 <1>  -0.1500 
 16 C       -4.9480    -4.7410    -1.1310 C.1   1 <1>   0.4840 
 17 C       -4.2910    -5.3730     1.1270 C.ar  1 <1>  -0.1500 
 18 N       -5.8040    -4.5520    -1.8640 N.1   1 <1>  -0.5570 
 19 H       -1.4750    -2.4100    -0.6870 H     1 <1>   0.0800 
 20 H       -1.4120    -0.3590    -2.1560 H     1 <1>   0.0800 
 21 H        0.2200     0.2620    -2.2640 H     1 <1>   0.0800 
 22 H        1.1250    -2.5360     0.8240 H     1 <1>   0.0800 
 23 H       -0.4840    -2.3350     1.4230 H     1 <1>   0.0800 
 24 H        1.0250    -3.9870    -1.2410 H     1 <1>   0.0800 
 25 H       -0.5400    -4.2210    -1.9750 H     1 <1>   0.0800 
 26 H       -1.5580     0.0650     0.1070 H     1 <1>   0.0800 
 27 H       -0.3570     1.2610    -0.2520 H     1 <1>   0.0800 
 28 H        1.4240    -0.2980     0.3880 H     1 <1>   0.0800 
 29 H        0.3000    -0.1550     1.7130 H     1 <1>   0.0800 
 30 H        0.8260    -6.3690    -0.9000 H     1 <1>   0.0800 
 31 H       -0.0720    -6.9580     0.4710 H     1 <1>   0.0800 
 32 H       -1.2200    -5.6120     2.3930 H     1 <1>   0.1500 
 33 H        2.2390    -4.9960     0.6040 H     1 <1>   0.0800 
 34 H        2.2910    -6.6740     1.0800 H     1 <1>   0.0800 
 35 H        1.3080    -5.5470     1.9830 H     1 <1>   0.0800 
 36 H       -3.5930    -5.9080     3.0900 H     1 <1>   0.1500 
 37 H       -5.3320    -5.4820     1.3730 H     1 <1>   0.1500 
@<TRIPOS>BOND
  1   1   2  1   
  2   1   3  1   
  3   2   4  1   
  4   2   5  1   
  5   2  19  1   
  6   3   6  1   
  7   3  20  1   
  8   3  21  1   
  9   4   7  1   
 10   4  22  1   
 11   4  23  1   
 12   5   8  1   
 13   5  24  1   
 14   5  25  1   
 15   6   7  1   
 16   6  26  1   
 17   6  27  1   
 18   7  28  1   
 19   7  29  1   
 20   8   9  1   
 21   8  10  1   
 22   9  11  ar  
 23   9  12  ar  
 24  10  13  1   
 25  10  30  1   
 26  10  31  1   
 27  11  14  ar  
 28  12  15  ar  
 29  12  32  1   
 30  13  33  1   
 31  13  34  1   
 32  13  35  1   
 33  14  16  1   
 34  14  17  ar  
 35  15  17  ar  
 36  15  36  1   
 37  16  18  3   
 38  17  37  1   
@<TRIPOS>SUBSTRUCTURE
  1 ****   9 GROUP 4 **** **** 0

# MOE 2024.06 (io_trps.svl 2023.06)
