@<TRIPOS>MOLECULE
NONAME
52 55 1 0 0 
SMALL
USER_CHARGES


@<TRIPOS>ATOM
  1 O       -0.2200    -1.1310    -0.8200 O.2   1 <1>  -0.5700 
  2 C        0.0430     0.0450    -0.9250 C.2   1 <1>   0.5690 
  3 N       -0.9100     1.0190    -0.7260 N.am  1 <1>  -0.6600 
  4 C        1.4710     0.3850    -1.3220 C.3   1 <1>   0.1570 
  5 C       -2.2900     0.6440    -0.2900 C.3   1 <1>   0.1400 
  6 C       -0.6250     2.4850    -0.8160 C.3   1 <1>   0.1400 
  7 N        2.1590     1.1840    -0.2870 N.pl3 1 <1>   0.0480 
  8 C       -2.8260     1.6720     0.7100 C.3   1 <1>  -0.1600 
  9 C       -1.9140     3.2700    -1.0560 C.3   1 <1>  -0.1600 
 10 C        2.7490     2.4170    -0.4620 C.ar  1 <1>  -0.1520 
 11 C        2.2670     0.8560     1.0360 C.2   1 <1>  -0.3020 
 12 C       -2.9120     3.0970     0.1110 C.3   1 <1>   0.2800 
 13 C        3.2150     2.8570     0.7740 C.ar  1 <1>   0.0000 
 14 C        2.9210     3.2100    -1.6030 C.ar  1 <1>  -0.1500 
 15 C        2.9010     1.8470     1.7050 C.2   1 <1>  -0.1500 
 16 O       -2.4440     3.9610     1.1260 O.3   1 <1>  -0.5600 
 17 C       -4.3800     3.4390    -0.2960 C.3   1 <1>   0.2000 
 18 C        3.8490     4.0990     0.8810 C.ar  1 <1>  -0.1500 
 19 C        3.5460     4.4290    -1.4860 C.ar  1 <1>  -0.1500 
 20 C       -3.2590     5.0000     1.5890 C.3   1 <1>   0.1200 
 21 O       -4.8350     2.6590    -1.3670 O.3   1 <1>  -0.6800 
 22 C       -4.6240     4.9580    -0.5430 C.3   1 <1>   0.2800 
 23 C        4.0100     4.8750    -0.2420 C.ar  1 <1>  -0.1500 
 24 C       -3.7590     5.8160     0.3960 C.3   1 <1>  -0.1600 
 25 O       -5.9480     5.2020    -0.2250 O.3   1 <1>  -0.6800 
 26 C       -4.4720     5.4270    -1.9980 C.3   1 <1>  -0.2400 
 27 H        1.4570     0.9230    -2.2490 H     1 <1>   0.0800 
 28 H        2.0210    -0.5250    -1.4660 H     1 <1>   0.0800 
 29 H       -2.9340     0.6000    -1.1520 H     1 <1>   0.0800 
 30 H       -2.2830    -0.3280     0.1720 H     1 <1>   0.0800 
 31 H       -0.1690     2.8150     0.1040 H     1 <1>   0.0800 
 32 H        0.0580     2.6810    -1.6240 H     1 <1>   0.0800 
 33 H       -2.1690     1.6680     1.5630 H     1 <1>   0.0800 
 34 H       -3.7920     1.3480     1.0470 H     1 <1>   0.0800 
 35 H       -2.3460     2.9220    -1.9760 H     1 <1>   0.0800 
 36 H       -1.6750     4.3090    -1.1820 H     1 <1>   0.0800 
 37 H        1.8770    -0.0690     1.4260 H     1 <1>   0.1500 
 38 H        2.5710     2.8700    -2.5610 H     1 <1>   0.1500 
 39 H        3.1380     1.8970     2.7530 H     1 <1>   0.1500 
 40 H       -4.9940     3.1580     0.5420 H     1 <1>   0.0800 
 41 H        4.2000     4.4250     1.8430 H     1 <1>   0.1500 
 42 H        3.6880     5.0540    -2.3500 H     1 <1>   0.1500 
 43 H       -4.0740     4.5780     2.1530 H     1 <1>   0.0800 
 44 H       -2.6630     5.6110     2.2440 H     1 <1>   0.0800 
 45 H       -5.7640     2.9090    -1.5510 H     1 <1>   0.4000 
 46 H        4.4950     5.8330    -0.1760 H     1 <1>   0.1500 
 47 H       -2.8910     6.1780    -0.1260 H     1 <1>   0.0800 
 48 H       -4.3030     6.6760     0.7430 H     1 <1>   0.0800 
 49 H       -6.1710     6.1270    -0.4410 H     1 <1>   0.4000 
 50 H       -3.4830     5.2200    -2.3580 H     1 <1>   0.0800 
 51 H       -4.6350     6.4870    -2.0750 H     1 <1>   0.0800 
 52 H       -5.1690     4.9190    -2.6410 H     1 <1>   0.0800 
@<TRIPOS>BOND
  1   1   2  2   
  2   2   3  am  
  3   2   4  1   
  4   3   5  1   
  5   3   6  1   
  6   4   7  1   
  7   4  27  1   
  8   4  28  1   
  9   5   8  1   
 10   5  29  1   
 11   5  30  1   
 12   6   9  1   
 13   6  31  1   
 14   6  32  1   
 15   7  10  1   
 16   7  11  1   
 17   8  12  1   
 18   8  33  1   
 19   8  34  1   
 20   9  12  1   
 21   9  35  1   
 22   9  36  1   
 23  10  13  ar  
 24  10  14  ar  
 25  11  15  2   
 26  11  37  1   
 27  12  16  1   
 28  12  17  1   
 29  13  15  1   
 30  13  18  ar  
 31  14  19  ar  
 32  14  38  1   
 33  15  39  1   
 34  16  20  1   
 35  17  21  1   
 36  17  22  1   
 37  17  40  1   
 38  18  23  ar  
 39  18  41  1   
 40  19  23  ar  
 41  19  42  1   
 42  20  24  1   
 43  20  43  1   
 44  20  44  1   
 45  21  45  1   
 46  22  24  1   
 47  22  25  1   
 48  22  26  1   
 49  23  46  1   
 50  24  47  1   
 51  24  48  1   
 52  25  49  1   
 53  26  50  1   
 54  26  51  1   
 55  26  52  1   
@<TRIPOS>SUBSTRUCTURE
  1 ****   6 GROUP 4 **** **** 0

# MOE 2024.06 (io_trps.svl 2023.06)
