@<TRIPOS>MOLECULE
NONAME
42 43 1 0 0 
SMALL
USER_CHARGES


@<TRIPOS>ATOM
  1 S       -0.7870     0.4300     1.7170 S.o2  1 <1>   1.5000 
  2 O       -1.2820     1.6680     2.2830 O.2   1 <1>  -0.6500 
  3 O       -0.6950    -0.7160     2.5920 O.2   1 <1>  -0.6500 
  4 N       -1.8280     0.0750     0.4210 N.am  1 <1>  -0.8490 
  5 C        0.8080     0.7820     0.9340 C.2   1 <1>  -0.0220 
  6 C       -1.3940    -0.8530    -0.6520 C.3   1 <1>   0.1960 
  7 C       -3.2480    -0.0090     0.7630 C.3   1 <1>   0.1960 
  8 S        2.2750     0.2720     1.7660 S.3   1 <1>  -0.0800 
  9 C        1.1460     1.4120    -0.2120 C.2   1 <1>  -0.1500 
 10 C       -1.8380    -2.3300    -0.5100 C.3   1 <1>  -0.1060 
 11 C       -3.6850    -1.4490     1.0300 C.3   1 <1>  -0.1600 
 12 C        3.2980     0.9200     0.4980 C.2   1 <1>  -0.1100 
 13 C        2.5530     1.4850    -0.4680 C.2   1 <1>  -0.1810 
 14 C       -1.6870    -2.9940    -1.8830 C.2   1 <1>   0.9060 
 15 C       -3.3450    -2.3140    -0.1810 C.3   1 <1>   0.2000 
 16 C       -1.0070    -3.1410     0.5350 C.3   1 <1>  -0.1600 
 17 C        3.0750     2.1420    -1.7300 C.3   1 <1>  -0.0590 
 18 O       -0.9860    -2.4590    -2.7510 O.co2 1 <1>  -0.9000 
 19 O       -2.2910    -4.0550    -2.1030 O.co2 1 <1>  -0.9000 
 20 O       -3.8090    -3.5940     0.0420 O.3   1 <1>  -0.6800 
 21 C        0.5160    -3.1110     0.3190 C.3   1 <1>  -0.1600 
 22 C        1.2300    -3.9860     1.3530 C.3   1 <1>  -0.2400 
 23 H       -1.8320    -0.4800    -1.5640 H     1 <1>   0.0800 
 24 H       -0.3330    -0.8010    -0.8060 H     1 <1>   0.0800 
 25 H       -3.4650     0.6050     1.6220 H     1 <1>   0.0800 
 26 H       -3.8180     0.3780    -0.0640 H     1 <1>   0.0800 
 27 H        0.4360     1.8310    -0.9040 H     1 <1>   0.1500 
 28 H       -4.7470    -1.4670     1.1900 H     1 <1>   0.0800 
 29 H       -3.2030    -1.8190     1.9160 H     1 <1>   0.0800 
 30 H        4.3610     0.8040     0.6130 H     1 <1>   0.1500 
 31 H       -3.8810    -1.9400    -1.0390 H     1 <1>   0.0800 
 32 H       -1.2310    -2.8150     1.5290 H     1 <1>   0.0800 
 33 H       -1.3210    -4.1700     0.4810 H     1 <1>   0.0800 
 34 H        2.7650     3.1710    -1.7640 H     1 <1>   0.0800 
 35 H        2.6890     1.6310    -2.5940 H     1 <1>   0.0800 
 36 H        4.1490     2.1030    -1.7560 H     1 <1>   0.0800 
 37 H       -3.4270    -4.1360    -0.7070 H     1 <1>   0.4000 
 38 H        0.7510    -3.4660    -0.6710 H     1 <1>   0.0800 
 39 H        0.8890    -2.1090     0.4120 H     1 <1>   0.0800 
 40 H        0.8980    -5.0060     1.2700 H     1 <1>   0.0800 
 41 H        1.0220    -3.6290     2.3460 H     1 <1>   0.0800 
 42 H        2.2920    -3.9540     1.1890 H     1 <1>   0.0800 
@<TRIPOS>BOND
  1   1   2  2   
  2   1   3  2   
  3   1   4  am  
  4   1   5  1   
  5   4   6  1   
  6   4   7  1   
  7   5   8  1   
  8   5   9  2   
  9   6  10  1   
 10   6  23  1   
 11   6  24  1   
 12   7  11  1   
 13   7  25  1   
 14   7  26  1   
 15   8  12  1   
 16   9  13  1   
 17   9  27  1   
 18  10  14  1   
 19  10  15  1   
 20  10  16  1   
 21  11  15  1   
 22  11  28  1   
 23  11  29  1   
 24  12  13  2   
 25  12  30  1   
 26  13  17  1   
 27  14  18  ar  
 28  14  19  ar  
 29  15  20  1   
 30  15  31  1   
 31  16  21  1   
 32  16  32  1   
 33  16  33  1   
 34  17  34  1   
 35  17  35  1   
 36  17  36  1   
 37  20  37  1   
 38  21  22  1   
 39  21  38  1   
 40  21  39  1   
 41  22  40  1   
 42  22  41  1   
 43  22  42  1   
@<TRIPOS>SUBSTRUCTURE
  1 ****   6 GROUP 4 **** **** 0

# MOE 2024.06 (io_trps.svl 2023.06)
