@<TRIPOS>MOLECULE
NONAME
27 28 1 0 0 
SMALL
USER_CHARGES


@<TRIPOS>ATOM
  1 BR       0.0590    -0.2240     0.0460 Br    1 <1>  -0.1110 
  2 C       -0.0550     1.6990    -0.0960 C.ar  1 <1>   0.1110 
  3 C       -1.2650     2.3520     0.0850 C.ar  1 <1>  -0.1440 
  4 C        1.1240     2.3600    -0.3720 C.ar  1 <1>  -0.1500 
  5 C       -1.3070     3.7570    -0.0070 C.ar  1 <1>   0.0860 
  6 C       -2.5220     1.5350     0.4030 C.3   1 <1>  -0.0170 
  7 C        1.1000     3.7350    -0.4580 C.ar  1 <1>  -0.1500 
  8 C       -0.0910     4.4210    -0.2700 C.ar  1 <1>   0.0830 
  9 C       -2.5700     4.4540     0.1640 C.2   1 <1>   0.4230 
 10 C       -3.8260     2.3090     0.1560 C.3   1 <1>  -0.0190 
 11 O       -0.0290     5.7590    -0.3340 O.3   1 <1>  -0.5330 
 12 O       -2.8230     5.5760    -0.1920 O.2   1 <1>  -0.5700 
 13 C       -3.7180     3.6950     0.7960 C.3   1 <1>  -0.0990 
 14 C       -5.0490     1.5590     0.6750 C.2   1 <1>   0.4480 
 15 O       -4.9950     0.8270     1.6150 O.2   1 <1>  -0.5700 
 16 C       -6.3570     1.7870    -0.0520 C.3   1 <1>  -0.1790 
 17 H        2.0370     1.8070    -0.5110 H     1 <1>   0.1500 
 18 H       -2.4680     1.2350     1.4370 H     1 <1>   0.0800 
 19 H       -2.5500     0.6400    -0.1940 H     1 <1>   0.0800 
 20 H        2.0100     4.2680    -0.6670 H     1 <1>   0.1500 
 21 H       -3.9390     2.4350    -0.9070 H     1 <1>   0.0800 
 22 H        0.8460     6.1240    -0.5520 H     1 <1>   0.4500 
 23 H       -4.6300     4.2450     0.6460 H     1 <1>   0.0800 
 24 H       -3.5480     3.6110     1.8550 H     1 <1>   0.0800 
 25 H       -6.6160     2.8290    -0.0320 H     1 <1>   0.0800 
 26 H       -7.1390     1.2270     0.4290 H     1 <1>   0.0800 
 27 H       -6.2740     1.4590    -1.0710 H     1 <1>   0.0800 
@<TRIPOS>BOND
  1   1   2  1   
  2   2   3  ar  
  3   2   4  ar  
  4   3   5  ar  
  5   3   6  1   
  6   4   7  ar  
  7   4  17  1   
  8   5   8  ar  
  9   5   9  1   
 10   6  10  1   
 11   6  18  1   
 12   6  19  1   
 13   7   8  ar  
 14   7  20  1   
 15   8  11  1   
 16   9  12  2   
 17   9  13  1   
 18  10  13  1   
 19  10  14  1   
 20  10  21  1   
 21  11  22  1   
 22  13  23  1   
 23  13  24  1   
 24  14  15  2   
 25  14  16  1   
 26  16  25  1   
 27  16  26  1   
 28  16  27  1   
@<TRIPOS>SUBSTRUCTURE
  1 ****   3 GROUP 4 **** **** 0

# MOE 2024.06 (io_trps.svl 2023.06)
