@<TRIPOS>MOLECULE
NONAME
41 42 1 0 0 
SMALL
USER_CHARGES


@<TRIPOS>ATOM
  1 S        0.0050     0.2360     0.4450 S.o2  1 <1>   1.3330 
  2 O       -0.4500     1.5430     0.8630 O.2   1 <1>  -0.6500 
  3 O        0.1680    -0.8130     1.4270 O.2   1 <1>  -0.6500 
  4 N       -1.0400    -0.3380    -0.7640 N.am  1 <1>  -0.8490 
  5 C        1.5490     0.4520    -0.4390 C.3   1 <1>  -0.0550 
  6 C       -0.9790    -1.7920    -0.9480 C.3   1 <1>   0.1160 
  7 C       -2.4280     0.0810    -0.5480 C.3   1 <1>   0.1160 
  8 C        2.6440     1.1090     0.4190 C.3   1 <1>  -0.0800 
  9 C        3.9030     1.3950    -0.3940 C.3   1 <1>   0.2200 
 10 C        3.1380     0.2110     1.5640 C.3   1 <1>   0.1200 
 11 N        4.3770     2.7540    -0.0570 N.am  1 <1>  -0.7300 
 12 C        4.8870     0.3600     0.1330 C.3   1 <1>   0.1200 
 13 O        4.5260     0.1780     1.4620 O.3   1 <1>  -0.5600 
 14 C        4.0920     3.8740    -0.7860 C.2   1 <1>   0.6160 
 15 O        3.5410     3.7220    -1.8600 O.2   1 <1>  -0.5700 
 16 C        4.4090     5.1940    -0.2840 C.2   1 <1>   0.0140 
 17 C        5.1830     5.4130     0.8330 C.2   1 <1>  -0.0410 
 18 C        3.9030     6.3540    -0.9540 C.2   1 <1>  -0.1500 
 19 N        5.4460     6.6780     1.2930 N.am  1 <1>  -0.5390 
 20 C        4.1730     7.6040    -0.4900 C.2   1 <1>  -0.1360 
 21 C        4.9680     7.7970     0.6710 C.2   1 <1>   0.6160 
 22 O        5.2430     8.8890     1.1340 O.2   1 <1>  -0.5700 
 23 H        1.8930    -0.4960    -0.8030 H     1 <1>   0.0800 
 24 H        1.3630     1.0830    -1.2880 H     1 <1>   0.0800 
 25 H       -1.5880    -2.0840    -1.7870 H     1 <1>   0.0800 
 26 H       -1.3310    -2.2990    -0.0650 H     1 <1>   0.0800 
 27 H        0.0340    -2.1000    -1.1410 H     1 <1>   0.0800 
 28 H       -3.0570    -0.2860    -1.3400 H     1 <1>   0.0800 
 29 H       -2.4910     1.1570    -0.5420 H     1 <1>   0.0800 
 30 H       -2.7890    -0.2920     0.3960 H     1 <1>   0.0800 
 31 H        2.2420     2.0210     0.8280 H     1 <1>   0.0800 
 32 H        3.7610     1.2990    -1.4580 H     1 <1>   0.0800 
 33 H        2.7780    -0.8010     1.4730 H     1 <1>   0.0800 
 34 H        2.8710     0.6020     2.5310 H     1 <1>   0.0800 
 35 H        4.7250     2.8340     0.8990 H     1 <1>   0.3700 
 36 H        5.9110     0.6850     0.0730 H     1 <1>   0.0800 
 37 H        4.7670    -0.5810    -0.3760 H     1 <1>   0.0800 
 38 H        5.6130     4.5980     1.3900 H     1 <1>   0.1500 
 39 H        3.2990     6.2080    -1.8350 H     1 <1>   0.1500 
 40 H        6.0160     6.8710     2.1190 H     1 <1>   0.3700 
 41 H        3.8060     8.4910    -0.9700 H     1 <1>   0.1500 
@<TRIPOS>BOND
  1   1   2  2   
  2   1   3  2   
  3   1   4  am  
  4   1   5  1   
  5   4   6  1   
  6   4   7  1   
  7   5   8  1   
  8   5  23  1   
  9   5  24  1   
 10   6  25  1   
 11   6  26  1   
 12   6  27  1   
 13   7  28  1   
 14   7  29  1   
 15   7  30  1   
 16   8   9  1   
 17   8  10  1   
 18   8  31  1   
 19   9  11  1   
 20   9  12  1   
 21   9  32  1   
 22  10  13  1   
 23  10  33  1   
 24  10  34  1   
 25  11  14  am  
 26  11  35  1   
 27  12  13  1   
 28  12  36  1   
 29  12  37  1   
 30  14  15  2   
 31  14  16  1   
 32  16  17  2   
 33  16  18  1   
 34  17  19  1   
 35  17  38  1   
 36  18  20  2   
 37  18  39  1   
 38  19  21  am  
 39  19  40  1   
 40  20  21  1   
 41  20  41  1   
 42  21  22  2   
@<TRIPOS>SUBSTRUCTURE
  1 ****  11 GROUP 4 **** **** 0

# MOE 2024.06 (io_trps.svl 2023.06)
