@<TRIPOS>MOLECULE
NONAME
50 51 1 0 0 
SMALL
USER_CHARGES


@<TRIPOS>ATOM
  1 S        0.4590     0.1050    -0.1730 S.o2  1 <1>   1.3330 
  2 O        0.4960    -0.2560     1.2270 O.2   1 <1>  -0.6500 
  3 O        0.3580    -0.9360    -1.1710 O.2   1 <1>  -0.6500 
  4 N       -0.8360     1.1810    -0.3930 N.am  1 <1>  -0.8490 
  5 C        1.8950     1.1010    -0.5620 C.3   1 <1>  -0.0550 
  6 C       -2.0840     0.4840    -0.7150 C.3   1 <1>   0.1160 
  7 C       -1.0440     2.0830     0.7440 C.3   1 <1>   0.1160 
  8 C        3.2120     0.2990    -0.5310 C.3   1 <1>  -0.0800 
  9 C        4.4470     1.0770    -0.9580 C.3   1 <1>   0.2200 
 10 C        3.6050    -0.2360     0.8530 C.3   1 <1>   0.1200 
 11 N        4.4370     2.4410    -0.3790 N.am  1 <1>  -0.7300 
 12 C        5.5370     0.2650    -0.2750 C.3   1 <1>   0.1200 
 13 O        4.9940    -0.0980     0.9580 O.3   1 <1>  -0.5600 
 14 C        4.1280     3.5880    -1.0470 C.2   1 <1>   0.5440 
 15 O        3.7470     3.4950    -2.1970 O.2   1 <1>  -0.5700 
 16 C        4.1910     4.8750    -0.3780 C.ar  1 <1>   0.0860 
 17 C        5.3060     5.3250     0.3420 C.ar  1 <1>  -0.1440 
 18 C        3.0810     5.7150    -0.4390 C.ar  1 <1>  -0.1500 
 19 C        5.2660     6.5500     0.9880 C.ar  1 <1>  -0.1500 
 20 C        6.5930     4.5120     0.4270 C.3   1 <1>  -0.0970 
 21 C        3.0410     6.9410     0.2010 C.ar  1 <1>  -0.1440 
 22 C        4.1450     7.3620     0.9290 C.ar  1 <1>  -0.1440 
 23 C        1.7880     7.7990     0.0860 C.3   1 <1>  -0.0970 
 24 C        4.1570     8.6980     1.6580 C.3   1 <1>  -0.0970 
 25 H        1.7730     1.5160    -1.5440 H     1 <1>   0.0800 
 26 H        1.9540     1.9170     0.1300 H     1 <1>   0.0800 
 27 H       -2.8790     1.1930    -0.8680 H     1 <1>   0.0800 
 28 H       -2.3540    -0.1880     0.0820 H     1 <1>   0.0800 
 29 H       -1.9650    -0.0850    -1.6220 H     1 <1>   0.0800 
 30 H       -1.8200     2.7930     0.5150 H     1 <1>   0.0800 
 31 H       -0.1410     2.6270     0.9580 H     1 <1>   0.0800 
 32 H       -1.3280     1.5240     1.6210 H     1 <1>   0.0800 
 33 H        3.1080    -0.5470    -1.1890 H     1 <1>   0.0800 
 34 H        4.5710     1.1160    -2.0280 H     1 <1>   0.0800 
 35 H        3.3460    -1.2750     0.9700 H     1 <1>   0.0800 
 36 H        3.1600     0.3380     1.6480 H     1 <1>   0.0800 
 37 H        4.6760     2.4790     0.6150 H     1 <1>   0.3700 
 38 H        6.4440     0.8230    -0.1250 H     1 <1>   0.0800 
 39 H        5.7440    -0.6370    -0.8240 H     1 <1>   0.0800 
 40 H        2.2320     5.3840    -1.0110 H     1 <1>   0.1500 
 41 H        6.1250     6.8830     1.5440 H     1 <1>   0.1500 
 42 H        7.4240     5.1380     0.6990 H     1 <1>   0.0800 
 43 H        6.8190     4.0630    -0.5240 H     1 <1>   0.0800 
 44 H        6.4950     3.7380     1.1670 H     1 <1>   0.0800 
 45 H        1.0480     7.3220    -0.5310 H     1 <1>   0.0800 
 46 H        2.0320     8.7480    -0.3550 H     1 <1>   0.0800 
 47 H        1.3630     7.9630     1.0590 H     1 <1>   0.0800 
 48 H        5.0820     8.8440     2.1840 H     1 <1>   0.0800 
 49 H        3.3540     8.7360     2.3730 H     1 <1>   0.0800 
 50 H        4.0390     9.5020     0.9540 H     1 <1>   0.0800 
@<TRIPOS>BOND
  1   1   2  2   
  2   1   3  2   
  3   1   4  am  
  4   1   5  1   
  5   4   6  1   
  6   4   7  1   
  7   5   8  1   
  8   5  25  1   
  9   5  26  1   
 10   6  27  1   
 11   6  28  1   
 12   6  29  1   
 13   7  30  1   
 14   7  31  1   
 15   7  32  1   
 16   8   9  1   
 17   8  10  1   
 18   8  33  1   
 19   9  11  1   
 20   9  12  1   
 21   9  34  1   
 22  10  13  1   
 23  10  35  1   
 24  10  36  1   
 25  11  14  am  
 26  11  37  1   
 27  12  13  1   
 28  12  38  1   
 29  12  39  1   
 30  14  15  2   
 31  14  16  1   
 32  16  17  ar  
 33  16  18  ar  
 34  17  19  ar  
 35  17  20  1   
 36  18  21  ar  
 37  18  40  1   
 38  19  22  ar  
 39  19  41  1   
 40  20  42  1   
 41  20  43  1   
 42  20  44  1   
 43  21  22  ar  
 44  21  23  1   
 45  22  24  1   
 46  23  45  1   
 47  23  46  1   
 48  23  47  1   
 49  24  48  1   
 50  24  49  1   
 51  24  50  1   
@<TRIPOS>SUBSTRUCTURE
  1 ****  11 GROUP 4 **** **** 0

# MOE 2024.06 (io_trps.svl 2023.06)
