@<TRIPOS>MOLECULE
NONAME
45 47 1 0 0 
SMALL
USER_CHARGES


@<TRIPOS>ATOM
  1 O       -0.0600     0.0150    -0.4330 O.2   1 <1>  -0.5700 
  2 C        1.0290     0.5650    -0.5060 C.2   1 <1>   0.5440 
  3 N        1.1310     1.8670    -0.0700 N.am  1 <1>  -0.6600 
  4 C        2.1690    -0.1490    -1.0310 C.ar  1 <1>   0.0860 
  5 C        2.3970     2.5220     0.3310 C.3   1 <1>   0.1400 
  6 C       -0.0360     2.6230     0.4390 C.3   1 <1>   0.1400 
  7 C        2.4910    -1.4380    -0.5670 C.ar  1 <1>   0.4100 
  8 C        2.9810     0.4050    -2.0130 C.ar  1 <1>  -0.1500 
  9 C        1.9850     3.5660     1.3610 C.3   1 <1>  -0.1600 
 10 C        0.5460     3.9180     0.9960 C.3   1 <1>  -0.1600 
 11 N        3.5380    -2.1420    -0.9910 N.ar  1 <1>  -0.6200 
 12 N        1.7100    -2.0480     0.3830 N.pl3 1 <1>  -0.8690 
 13 C        4.0600    -0.3270    -2.4560 C.ar  1 <1>  -0.1500 
 14 C        4.2910    -1.5790    -1.9150 C.ar  1 <1>   0.1600 
 15 C        1.5550    -3.5300     0.4460 C.3   1 <1>   0.2890 
 16 C        0.1820    -3.9430     0.9650 C.3   1 <1>   0.2000 
 17 C        2.5170    -4.1730     1.4490 C.3   1 <1>   0.1200 
 18 O       -0.7370    -4.2110    -0.0590 O.3   1 <1>  -0.5600 
 19 C        0.4910    -5.2160     1.7370 C.3   1 <1>   0.1200 
 20 O        1.7730    -5.0430     2.2600 O.3   1 <1>  -0.5600 
 21 C       -1.1990    -3.0870    -0.7390 C.3   1 <1>   0.1200 
 22 C       -2.2810    -3.5490    -1.7060 C.3   1 <1>  -0.2400 
 23 H        3.0920     1.8110     0.7480 H     1 <1>   0.0800 
 24 H        2.8350     3.0010    -0.5270 H     1 <1>   0.0800 
 25 H       -0.7430     2.8090    -0.3520 H     1 <1>   0.0800 
 26 H       -0.5110     2.0540     1.2200 H     1 <1>   0.0800 
 27 H        2.7640     1.3790    -2.4150 H     1 <1>   0.1500 
 28 H        2.0150     3.1210     2.3410 H     1 <1>   0.0800 
 29 H        2.6350     4.4240     1.3460 H     1 <1>   0.0800 
 30 H        0.5350     4.6660     0.2240 H     1 <1>   0.0800 
 31 H       -0.0170     4.2770     1.8400 H     1 <1>   0.0800 
 32 H        0.8190    -1.5550     0.5410 H     1 <1>   0.4000 
 33 H        4.7160     0.0630    -3.2130 H     1 <1>   0.1500 
 34 H        5.1380    -2.1440    -2.2640 H     1 <1>   0.1500 
 35 H        1.7220    -3.9680    -0.5230 H     1 <1>   0.0800 
 36 H       -0.2270    -3.2110     1.6390 H     1 <1>   0.0800 
 37 H        2.9730    -3.4320     2.0810 H     1 <1>   0.0800 
 38 H        3.2740    -4.7410     0.9390 H     1 <1>   0.0800 
 39 H        0.5140    -6.0670     1.0790 H     1 <1>   0.0800 
 40 H       -0.1980    -5.3790     2.5460 H     1 <1>   0.0800 
 41 H       -1.6000    -2.3820    -0.0300 H     1 <1>   0.0800 
 42 H       -0.3820    -2.6370    -1.2780 H     1 <1>   0.0800 
 43 H       -3.0900    -4.0030    -1.1640 H     1 <1>   0.0800 
 44 H       -1.8720    -4.2560    -2.4050 H     1 <1>   0.0800 
 45 H       -2.6610    -2.7050    -2.2520 H     1 <1>   0.0800 
@<TRIPOS>BOND
  1   1   2  2   
  2   2   3  am  
  3   2   4  1   
  4   3   5  1   
  5   3   6  1   
  6   4   7  ar  
  7   4   8  ar  
  8   5   9  1   
  9   5  23  1   
 10   5  24  1   
 11   6  10  1   
 12   6  25  1   
 13   6  26  1   
 14   7  11  ar  
 15   7  12  1   
 16   8  13  ar  
 17   8  27  1   
 18   9  10  1   
 19   9  28  1   
 20   9  29  1   
 21  10  30  1   
 22  10  31  1   
 23  11  14  ar  
 24  12  15  1   
 25  12  32  1   
 26  13  14  ar  
 27  13  33  1   
 28  14  34  1   
 29  15  16  1   
 30  15  17  1   
 31  15  35  1   
 32  16  18  1   
 33  16  19  1   
 34  16  36  1   
 35  17  20  1   
 36  17  37  1   
 37  17  38  1   
 38  18  21  1   
 39  19  20  1   
 40  19  39  1   
 41  19  40  1   
 42  21  22  1   
 43  21  41  1   
 44  21  42  1   
 45  22  43  1   
 46  22  44  1   
 47  22  45  1   
@<TRIPOS>SUBSTRUCTURE
  1 ****  12 GROUP 4 **** **** 0

# MOE 2024.06 (io_trps.svl 2023.06)
