@<TRIPOS>MOLECULE
NONAME
55 57 1 0 0 
SMALL
USER_CHARGES


@<TRIPOS>ATOM
  1 O       -2.8150    -3.3690     1.9000 O.2   1 <1>  -0.5700 
  2 C       -1.8350    -3.9050     1.4040 C.2   1 <1>   0.7670 
  3 N       -1.1700    -4.8230     2.1710 N.2   1 <1>  -0.6610 
  4 C       -1.3870    -3.5750     0.0860 C.2   1 <1>  -0.1240 
  5 C       -0.1300    -5.3710     1.6700 C.2   1 <1>   0.4390 
  6 C       -0.2770    -4.1940    -0.3970 C.2   1 <1>  -0.0380 
  7 C       -2.2060    -2.5490    -0.7050 C.3   1 <1>   0.0390 
  8 N        0.3440    -5.0900     0.4270 N.pl3 1 <1>  -0.5500 
  9 C        0.6380    -6.3910     2.4720 C.3   1 <1>  -0.1790 
 10 C        0.3560    -4.0240    -1.7690 C.3   1 <1>  -0.1020 
 11 C       -3.2610    -3.2250    -1.5740 C.2   1 <1>   0.5690 
 12 O       -2.8560    -4.0570    -2.3550 O.2   1 <1>  -0.5700 
 13 N       -4.6010    -2.9120    -1.5230 N.am  1 <1>  -0.6600 
 14 C       -5.5710    -3.7610    -2.2760 C.3   1 <1>   0.1400 
 15 C       -5.2420    -1.8310    -0.7250 C.3   1 <1>   0.1400 
 16 C       -5.9560    -5.0090    -1.4670 C.3   1 <1>   0.1400 
 17 C       -5.9720    -2.3760     0.5090 C.3   1 <1>  -0.1600 
 18 N       -6.4570    -4.7350    -0.0770 N.am  1 <1>  -0.6600 
 19 C       -7.0680    -3.4050     0.2020 C.3   1 <1>   0.1400 
 20 C       -6.2820    -5.6470     0.9470 C.2   1 <1>   0.5440 
 21 O       -6.9100    -5.5050     1.9820 O.2   1 <1>  -0.5700 
 22 C       -5.3760    -6.7660     0.8280 C.ar  1 <1>   0.0860 
 23 C       -5.6420    -7.9160     0.0650 C.ar  1 <1>   0.0830 
 24 C       -4.1450    -6.6910     1.4790 C.ar  1 <1>  -0.1500 
 25 O       -6.8080    -8.1380    -0.5860 O.3   1 <1>  -0.3630 
 26 C       -4.6800    -8.9070    -0.0640 C.ar  1 <1>  -0.1500 
 27 C       -3.1970    -7.6880     1.3600 C.ar  1 <1>  -0.1500 
 28 C       -8.0430    -7.8930     0.0550 C.3   1 <1>   0.0400 
 29 C       -3.4610    -8.7990     0.5790 C.ar  1 <1>  -0.1500 
 30 H       -1.5630    -1.9820    -1.3490 H     1 <1>   0.0800 
 31 H       -2.6410    -1.8450    -0.0260 H     1 <1>   0.0800 
 32 H        1.1730    -5.5910     0.1010 H     1 <1>   0.4000 
 33 H        0.6540    -7.3300     1.9510 H     1 <1>   0.0800 
 34 H        0.1680    -6.5360     3.4290 H     1 <1>   0.0800 
 35 H        1.6430    -6.0500     2.6310 H     1 <1>   0.0800 
 36 H        1.3430    -3.6100    -1.6710 H     1 <1>   0.0800 
 37 H       -0.2210    -3.3830    -2.4070 H     1 <1>   0.0800 
 38 H        0.4250    -4.9810    -2.2550 H     1 <1>   0.0800 
 39 H       -5.1310    -4.0760    -3.2060 H     1 <1>   0.0800 
 40 H       -6.4510    -3.1960    -2.5230 H     1 <1>   0.0800 
 41 H       -5.9490    -1.3160    -1.3520 H     1 <1>   0.0800 
 42 H       -4.5190    -1.0990    -0.4180 H     1 <1>   0.0800 
 43 H       -5.0840    -5.6390    -1.4230 H     1 <1>   0.0800 
 44 H       -6.7150    -5.5510    -2.0030 H     1 <1>   0.0800 
 45 H       -6.4330    -1.5430     1.0060 H     1 <1>   0.0800 
 46 H       -5.2660    -2.7980     1.2010 H     1 <1>   0.0800 
 47 H       -7.6750    -3.0900    -0.6280 H     1 <1>   0.0800 
 48 H       -7.7170    -3.4810     1.0570 H     1 <1>   0.0800 
 49 H       -3.9340    -5.8250     2.0860 H     1 <1>   0.1500 
 50 H       -4.8970    -9.7680    -0.6690 H     1 <1>   0.1500 
 51 H       -2.2560    -7.5930     1.8730 H     1 <1>   0.1500 
 52 H       -8.7780    -8.5520    -0.3690 H     1 <1>   0.0800 
 53 H       -8.3320    -6.8710    -0.1160 H     1 <1>   0.0800 
 54 H       -7.9430    -8.0840     1.1100 H     1 <1>   0.0800 
 55 H       -2.7230    -9.5750     0.4760 H     1 <1>   0.1500 
@<TRIPOS>BOND
  1   1   2  2   
  2   2   3  1   
  3   2   4  1   
  4   3   5  2   
  5   4   6  2   
  6   4   7  1   
  7   5   8  1   
  8   5   9  1   
  9   6   8  1   
 10   6  10  1   
 11   7  11  1   
 12   7  30  1   
 13   7  31  1   
 14   8  32  1   
 15   9  33  1   
 16   9  34  1   
 17   9  35  1   
 18  10  36  1   
 19  10  37  1   
 20  10  38  1   
 21  11  12  2   
 22  11  13  am  
 23  13  14  1   
 24  13  15  1   
 25  14  16  1   
 26  14  39  1   
 27  14  40  1   
 28  15  17  1   
 29  15  41  1   
 30  15  42  1   
 31  16  18  1   
 32  16  43  1   
 33  16  44  1   
 34  17  19  1   
 35  17  45  1   
 36  17  46  1   
 37  18  19  1   
 38  18  20  am  
 39  19  47  1   
 40  19  48  1   
 41  20  21  2   
 42  20  22  1   
 43  22  23  ar  
 44  22  24  ar  
 45  23  25  1   
 46  23  26  ar  
 47  24  27  ar  
 48  24  49  1   
 49  25  28  1   
 50  26  29  ar  
 51  26  50  1   
 52  27  29  ar  
 53  27  51  1   
 54  28  52  1   
 55  28  53  1   
 56  28  54  1   
 57  29  55  1   
@<TRIPOS>SUBSTRUCTURE
  1 ****  24 GROUP 4 **** **** 0

# MOE 2024.06 (io_trps.svl 2023.06)
