@<TRIPOS>MOLECULE
NONAME
49 51 1 0 0 
SMALL
USER_CHARGES


@<TRIPOS>ATOM
  1 F       -1.9420    -1.2740    -2.2370 F     1 <1>  -0.1900 
  2 C       -3.0330    -1.0460    -1.5580 C.ar  1 <1>   0.1900 
  3 C       -3.2720    -1.7790    -0.4120 C.ar  1 <1>  -0.1500 
  4 C       -3.9090    -0.0780    -2.0090 C.ar  1 <1>  -0.1500 
  5 C       -4.4320    -1.5340     0.3020 C.ar  1 <1>  -0.1500 
  6 C       -5.0660     0.1580    -1.2860 C.ar  1 <1>  -0.1500 
  7 C       -5.3390    -0.5700    -0.1320 C.ar  1 <1>  -0.1430 
  8 C       -6.6320    -0.3020     0.6390 C.3   1 <1>   0.4050 
  9 O       -6.3240     0.5390     1.7060 O.3   1 <1>  -0.6800 
 10 C       -7.3220    -1.6000     1.1250 C.2   1 <1>   0.5690 
 11 O       -7.1380    -1.9440     2.2750 O.2   1 <1>  -0.5700 
 12 N       -8.1150    -2.3490     0.2850 N.am  1 <1>  -0.6600 
 13 C       -8.7750    -3.6090     0.7550 C.3   1 <1>   0.1400 
 14 C       -8.3720    -2.0290    -1.1480 C.3   1 <1>   0.1400 
 15 C      -10.2820    -3.4250     0.9910 C.3   1 <1>   0.1400 
 16 C       -9.5810    -1.0980    -1.3150 C.3   1 <1>  -0.1600 
 17 N      -10.9770    -2.8530    -0.2090 N.am  1 <1>  -0.6600 
 18 C      -10.7730    -1.3910    -0.3920 C.3   1 <1>   0.1400 
 19 C      -11.6300    -3.6070    -1.1620 C.2   1 <1>   0.5440 
 20 O      -11.9590    -3.0810    -2.2080 O.2   1 <1>  -0.5700 
 21 C      -11.9070    -5.0090    -0.9610 C.ar  1 <1>   0.0860 
 22 C      -12.7840    -5.4270     0.0350 C.ar  1 <1>   0.1600 
 23 C      -11.3140    -5.9930    -1.7380 C.ar  1 <1>  -0.1500 
 24 N      -13.0770    -6.6830     0.3310 N.ar  1 <1>  -0.6200 
 25 C      -11.6150    -7.3080    -1.4530 C.ar  1 <1>  -0.1500 
 26 C      -12.4900    -7.6010    -0.4180 C.ar  1 <1>   0.1670 
 27 C      -12.8300    -9.0390    -0.0890 C.3   1 <1>  -0.0970 
 28 H       -2.5640    -2.5200    -0.0890 H     1 <1>   0.1500 
 29 H       -3.6850     0.4760    -2.9020 H     1 <1>   0.1500 
 30 H       -4.6220    -2.0990     1.2010 H     1 <1>   0.1500 
 31 H       -5.7510     0.9170    -1.6240 H     1 <1>   0.1500 
 32 H       -7.3160     0.2430     0.0170 H     1 <1>   0.0800 
 33 H       -6.0960    -0.0350     2.4680 H     1 <1>   0.4000 
 34 H       -8.3220    -3.9440     1.6720 H     1 <1>   0.0800 
 35 H       -8.6220    -4.3870     0.0280 H     1 <1>   0.0800 
 36 H       -8.5680    -2.9450    -1.6810 H     1 <1>   0.0800 
 37 H       -7.5000    -1.5870    -1.5990 H     1 <1>   0.0800 
 38 H      -10.4250    -2.7700     1.8330 H     1 <1>   0.0800 
 39 H      -10.7040    -4.3760     1.2580 H     1 <1>   0.0800 
 40 H       -9.9190    -1.1710    -2.3340 H     1 <1>   0.0800 
 41 H       -9.2780    -0.0780    -1.1670 H     1 <1>   0.0800 
 42 H      -11.6650    -0.9520    -0.8070 H     1 <1>   0.0800 
 43 H      -10.6020    -0.9330     0.5680 H     1 <1>   0.0800 
 44 H      -13.2660    -4.6660     0.6250 H     1 <1>   0.1500 
 45 H      -10.6450    -5.7270    -2.5370 H     1 <1>   0.1500 
 46 H      -11.1740    -8.0980    -2.0330 H     1 <1>   0.1500 
 47 H      -12.5540    -9.2480     0.9290 H     1 <1>   0.0800 
 48 H      -12.3120    -9.7200    -0.7380 H     1 <1>   0.0800 
 49 H      -13.8880    -9.1900    -0.1970 H     1 <1>   0.0800 
@<TRIPOS>BOND
  1   1   2  1   
  2   2   3  ar  
  3   2   4  ar  
  4   3   5  ar  
  5   3  28  1   
  6   4   6  ar  
  7   4  29  1   
  8   5   7  ar  
  9   5  30  1   
 10   6   7  ar  
 11   6  31  1   
 12   7   8  1   
 13   8   9  1   
 14   8  10  1   
 15   8  32  1   
 16   9  33  1   
 17  10  11  2   
 18  10  12  am  
 19  12  13  1   
 20  12  14  1   
 21  13  15  1   
 22  13  34  1   
 23  13  35  1   
 24  14  16  1   
 25  14  36  1   
 26  14  37  1   
 27  15  17  1   
 28  15  38  1   
 29  15  39  1   
 30  16  18  1   
 31  16  40  1   
 32  16  41  1   
 33  17  18  1   
 34  17  19  am  
 35  18  42  1   
 36  18  43  1   
 37  19  20  2   
 38  19  21  1   
 39  21  22  ar  
 40  21  23  ar  
 41  22  24  ar  
 42  22  44  1   
 43  23  25  ar  
 44  23  45  1   
 45  24  26  ar  
 46  25  26  ar  
 47  25  46  1   
 48  26  27  1   
 49  27  47  1   
 50  27  48  1   
 51  27  49  1   
@<TRIPOS>SUBSTRUCTURE
  1 ****  12 GROUP 4 **** **** 0

# MOE 2024.06 (io_trps.svl 2023.06)
