@<TRIPOS>MOLECULE
NONAME
54 57 1 0 0 
SMALL
USER_CHARGES


@<TRIPOS>ATOM
  1 O        0.5220    -0.1730     2.2670 O.2   1 <1>  -0.5700 
  2 C        1.2410    -0.6390     1.4150 C.2   1 <1>   0.5690 
  3 N        2.0860     0.1100     0.6600 N.am  1 <1>  -0.4930 
  4 C        1.1820    -2.1370     1.1600 C.3   1 <1>  -0.0990 
  5 C        2.2500     1.5210     0.6360 C.2   1 <1>   0.0630 
  6 C       -0.2540    -2.7040     1.2030 C.3   1 <1>  -0.0800 
  7 C        3.1670     2.1810    -0.1120 C.2   1 <1>  -0.0680 
  8 C        1.5350     2.5220     1.2990 C.2   1 <1>   0.1390 
  9 C       -0.2550    -4.2290     1.0110 C.3   1 <1>  -0.1600 
 10 C       -1.1660    -2.0500     0.1500 C.3   1 <1>  -0.1600 
 11 N        2.9410     3.5030     0.1040 N.pl3 1 <1>   0.3140 
 12 N        4.1800     1.6830    -0.9690 N.pl3 1 <1>  -0.8530 
 13 N        1.9400     3.7190     0.9880 N.2   1 <1>  -0.7070 
 14 C       -1.6760    -4.7960     1.0230 C.3   1 <1>   0.3430 
 15 C       -2.5730    -2.6430     0.1830 C.3   1 <1>   0.3430 
 16 C        3.7170     4.5720    -0.5420 C.3   1 <1>   0.0960 
 17 C        5.1370     2.6880    -1.5120 C.3   1 <1>   0.2090 
 18 N       -2.5010    -4.1170    -0.0210 N.4   1 <1>  -0.9590 
 19 C        4.4270     4.0220    -1.7930 C.3   1 <1>  -0.1600 
 20 C       -3.8570    -4.7210    -0.1220 C.3   1 <1>   0.4860 
 21 C       -3.7100    -6.1570    -0.5840 C.ar  1 <1>  -0.1440 
 22 C       -3.8980    -7.2020     0.3100 C.ar  1 <1>  -0.1500 
 23 C       -3.3780    -6.4380    -1.9030 C.ar  1 <1>  -0.1500 
 24 C       -3.7420    -8.5120    -0.1070 C.ar  1 <1>  -0.1500 
 25 C       -3.2230    -7.7490    -2.3170 C.ar  1 <1>  -0.1500 
 26 C       -3.4030    -8.7850    -1.4190 C.ar  1 <1>  -0.1500 
 27 H        2.6520    -0.3560    -0.0470 H     1 <1>   0.3700 
 28 H        1.7750    -2.6140     1.9200 H     1 <1>   0.0800 
 29 H        1.6290    -2.3550     0.2080 H     1 <1>   0.0800 
 30 H       -0.6610    -2.4920     2.1800 H     1 <1>   0.0800 
 31 H        0.7320     2.3290     1.9900 H     1 <1>   0.1500 
 32 H        0.3050    -4.6910     1.8060 H     1 <1>   0.0800 
 33 H        0.2240    -4.4930     0.0840 H     1 <1>   0.0800 
 34 H       -0.7490    -2.1650    -0.8350 H     1 <1>   0.0800 
 35 H       -1.2470    -0.9930     0.3440 H     1 <1>   0.0800 
 36 H        4.6900     0.8930    -0.5550 H     1 <1>   0.4000 
 37 H       -2.1170    -4.6400     1.9950 H     1 <1>   0.0800 
 38 H       -1.6370    -5.8570     0.8340 H     1 <1>   0.0800 
 39 H       -3.1720    -2.1880    -0.5900 H     1 <1>   0.0800 
 40 H       -3.0280    -2.4270     1.1370 H     1 <1>   0.0800 
 41 H        4.4350     4.9320     0.1710 H     1 <1>   0.0800 
 42 H        3.0500     5.3720    -0.8020 H     1 <1>   0.0800 
 43 H        5.5650     2.3090    -2.4250 H     1 <1>   0.0800 
 44 H        5.9310     2.8400    -0.8000 H     1 <1>   0.0800 
 45 H       -2.0380    -4.2970    -0.9200 H     1 <1>   0.4500 
 46 H        5.1400     4.7440    -2.1470 H     1 <1>   0.0800 
 47 H        3.7020     3.8710    -2.5740 H     1 <1>   0.0800 
 48 H       -4.4540    -4.1800    -0.8380 H     1 <1>   0.0800 
 49 H       -4.3550    -4.6890     0.8330 H     1 <1>   0.0800 
 50 H       -4.1690    -7.0150     1.3360 H     1 <1>   0.1500 
 51 H       -3.2420    -5.6500    -2.6240 H     1 <1>   0.1500 
 52 H       -3.8880    -9.3230     0.5870 H     1 <1>   0.1500 
 53 H       -2.9660    -7.9690    -3.3400 H     1 <1>   0.1500 
 54 H       -3.2830    -9.8060    -1.7430 H     1 <1>   0.1500 
@<TRIPOS>BOND
  1   1   2  2   
  2   2   3  am  
  3   2   4  1   
  4   3   5  1   
  5   3  27  1   
  6   4   6  1   
  7   4  28  1   
  8   4  29  1   
  9   5   7  2   
 10   5   8  1   
 11   6   9  1   
 12   6  10  1   
 13   6  30  1   
 14   7  11  1   
 15   7  12  1   
 16   8  13  2   
 17   8  31  1   
 18   9  14  1   
 19   9  32  1   
 20   9  33  1   
 21  10  15  1   
 22  10  34  1   
 23  10  35  1   
 24  11  13  1   
 25  11  16  1   
 26  12  17  1   
 27  12  36  1   
 28  14  18  1   
 29  14  37  1   
 30  14  38  1   
 31  15  18  1   
 32  15  39  1   
 33  15  40  1   
 34  16  19  1   
 35  16  41  1   
 36  16  42  1   
 37  17  19  1   
 38  17  43  1   
 39  17  44  1   
 40  18  20  1   
 41  18  45  1   
 42  19  46  1   
 43  19  47  1   
 44  20  21  1   
 45  20  48  1   
 46  20  49  1   
 47  21  22  ar  
 48  21  23  ar  
 49  22  24  ar  
 50  22  50  1   
 51  23  25  ar  
 52  23  51  1   
 53  24  26  ar  
 54  24  52  1   
 55  25  26  ar  
 56  25  53  1   
 57  26  54  1   
@<TRIPOS>SUBSTRUCTURE
  1 ****  10 GROUP 4 **** **** 0

# MOE 2024.06 (io_trps.svl 2023.06)
