@<TRIPOS>MOLECULE
NONAME
55 58 1 0 0 
SMALL
USER_CHARGES


@<TRIPOS>ATOM
  1 O       -1.2950     0.8640     2.4170 O.2   1 <1>  -0.5700 
  2 C       -2.1520     1.3030     1.6720 C.2   1 <1>   0.5440 
  3 N       -3.3830     0.6770     1.6170 N.am  1 <1>  -0.6600 
  4 C       -1.8520     2.4630     0.8590 C.ar  1 <1>   0.0860 
  5 C       -3.7470    -0.4320     2.5420 C.3   1 <1>   0.1400 
  6 C       -4.3800     0.9010     0.5330 C.3   1 <1>   0.1400 
  7 C       -0.8160     2.4370    -0.0720 C.ar  1 <1>  -0.1500 
  8 C       -2.5840     3.6430     0.9780 C.ar  1 <1>  -0.1500 
  9 C       -3.8930    -1.7320     1.7460 C.3   1 <1>  -0.1600 
 10 C       -4.5240    -0.3800    -0.2920 C.3   1 <1>  -0.1600 
 11 C       -0.5250     3.5290    -0.8710 C.ar  1 <1>  -0.1440 
 12 C       -2.3070     4.7440     0.1900 C.ar  1 <1>  -0.1500 
 13 C       -4.8930    -1.5940     0.5850 C.3   1 <1>   0.4240 
 14 C       -1.2750     4.6950    -0.7450 C.ar  1 <1>   0.0820 
 15 C        0.6150     3.4490    -1.8760 C.3   1 <1>  -0.0960 
 16 O       -6.1110    -1.2760     1.2250 O.3   1 <1>  -0.5600 
 17 C       -5.0040    -2.9120    -0.2360 C.ar  1 <1>  -0.1440 
 18 O       -0.9600     5.7420    -1.5470 O.3   1 <1>  -0.3630 
 19 C       -7.2920    -1.5130     0.5330 C.3   1 <1>   0.1200 
 20 C       -3.9090    -3.4650    -0.9140 C.ar  1 <1>   0.0820 
 21 C       -6.2260    -3.5810    -0.3130 C.ar  1 <1>  -0.1440 
 22 C       -1.6250     6.9820    -1.4620 C.3   1 <1>   0.0400 
 23 C       -7.4510    -3.0170     0.3750 C.3   1 <1>  -0.0170 
 24 O       -2.7140    -2.8200    -0.8730 O.3   1 <1>  -0.3630 
 25 C       -4.0490    -4.6560    -1.6240 C.ar  1 <1>  -0.1500 
 26 C       -6.3530    -4.7660    -1.0190 C.ar  1 <1>  -0.1500 
 27 C       -1.5130    -3.4050    -1.3240 C.3   1 <1>   0.0400 
 28 C       -5.2660    -5.3050    -1.6740 C.ar  1 <1>  -0.1500 
 29 H       -4.6770    -0.1920     3.0290 H     1 <1>   0.0800 
 30 H       -2.9980    -0.5560     3.3040 H     1 <1>   0.0800 
 31 H       -4.0790     1.7040    -0.1150 H     1 <1>   0.0800 
 32 H       -5.3260     1.1640     0.9760 H     1 <1>   0.0800 
 33 H       -0.2390     1.5330    -0.1560 H     1 <1>   0.1500 
 34 H       -3.3780     3.6870     1.7020 H     1 <1>   0.1500 
 35 H       -4.2180    -2.5230     2.3960 H     1 <1>   0.0800 
 36 H       -2.9190    -1.9970     1.3870 H     1 <1>   0.0800 
 37 H       -3.5890    -0.5510    -0.7860 H     1 <1>   0.0800 
 38 H       -5.2600    -0.2440    -1.0600 H     1 <1>   0.0800 
 39 H       -2.9000     5.6290     0.3170 H     1 <1>   0.1500 
 40 H        1.0920     2.4860    -1.8480 H     1 <1>   0.0800 
 41 H        1.3490     4.2030    -1.6540 H     1 <1>   0.0800 
 42 H        0.2380     3.6170    -2.8690 H     1 <1>   0.0800 
 43 H       -7.2540    -1.0220    -0.4230 H     1 <1>   0.0800 
 44 H       -8.1030    -1.1050     1.1110 H     1 <1>   0.0800 
 45 H       -1.1830     7.6470    -2.1820 H     1 <1>   0.0800 
 46 H       -1.4970     7.3790    -0.4710 H     1 <1>   0.0800 
 47 H       -2.6660     6.8370    -1.6900 H     1 <1>   0.0800 
 48 H       -8.3340    -3.2190    -0.2050 H     1 <1>   0.0800 
 49 H       -7.5680    -3.4700     1.3430 H     1 <1>   0.0800 
 50 H       -3.2250    -5.0950    -2.1500 H     1 <1>   0.1500 
 51 H       -7.3010    -5.2740    -1.0630 H     1 <1>   0.1500 
 52 H       -0.7070    -2.7360    -1.0840 H     1 <1>   0.0800 
 53 H       -1.5690    -3.5420    -2.3890 H     1 <1>   0.0800 
 54 H       -1.3710    -4.3440    -0.8190 H     1 <1>   0.0800 
 55 H       -5.3670    -6.2250    -2.2220 H     1 <1>   0.1500 
@<TRIPOS>BOND
  1   1   2  2   
  2   2   3  am  
  3   2   4  1   
  4   3   5  1   
  5   3   6  1   
  6   4   7  ar  
  7   4   8  ar  
  8   5   9  1   
  9   5  29  1   
 10   5  30  1   
 11   6  10  1   
 12   6  31  1   
 13   6  32  1   
 14   7  11  ar  
 15   7  33  1   
 16   8  12  ar  
 17   8  34  1   
 18   9  13  1   
 19   9  35  1   
 20   9  36  1   
 21  10  13  1   
 22  10  37  1   
 23  10  38  1   
 24  11  14  ar  
 25  11  15  1   
 26  12  14  ar  
 27  12  39  1   
 28  13  16  1   
 29  13  17  1   
 30  14  18  1   
 31  15  40  1   
 32  15  41  1   
 33  15  42  1   
 34  16  19  1   
 35  17  20  ar  
 36  17  21  ar  
 37  18  22  1   
 38  19  23  1   
 39  19  43  1   
 40  19  44  1   
 41  20  24  1   
 42  20  25  ar  
 43  21  23  1   
 44  21  26  ar  
 45  22  45  1   
 46  22  46  1   
 47  22  47  1   
 48  23  48  1   
 49  23  49  1   
 50  24  27  1   
 51  25  28  ar  
 52  25  50  1   
 53  26  28  ar  
 54  26  51  1   
 55  27  52  1   
 56  27  53  1   
 57  27  54  1   
 58  28  55  1   
@<TRIPOS>SUBSTRUCTURE
  1 ****  10 GROUP 4 **** **** 0

# MOE 2024.06 (io_trps.svl 2023.06)
