@<TRIPOS>MOLECULE
NONAME
42 45 1 0 0 
SMALL
USER_CHARGES


@<TRIPOS>ATOM
  1 S       -1.2060    -0.6830     1.6240 S.3   1 <1>  -0.0800 
  2 C       -1.6070    -0.9390    -0.0700 C.2   1 <1>  -0.1400 
  3 C       -1.2000     1.0580     1.4140 C.2   1 <1>  -0.1100 
  4 C       -1.7080     0.2480    -0.7040 C.2   1 <1>  -0.1500 
  5 C       -1.7600    -2.3810    -0.5380 C.3   1 <1>   0.3800 
  6 C       -1.4800     1.3810     0.1390 C.2   1 <1>  -0.1500 
  7 O       -2.0260    -2.3640    -1.8940 O.3   1 <1>  -0.6800 
  8 C       -2.8910    -3.1390     0.1980 C.3   1 <1>  -0.0800 
  9 C       -3.0010    -4.6070    -0.2660 C.3   1 <1>  -0.1600 
 10 C       -4.2700    -2.4510     0.0880 C.3   1 <1>  -0.1600 
 11 C       -4.1000    -5.3640     0.4830 C.3   1 <1>   0.2090 
 12 C       -5.3390    -3.2310     0.8560 C.3   1 <1>   0.2090 
 13 N       -5.3910    -4.6290     0.3440 N.pl3 1 <1>  -0.8380 
 14 C       -6.5470    -5.2550    -0.0270 C.2   1 <1>   0.2710 
 15 N       -6.6740    -6.5460     0.3130 N.2   1 <1>  -0.6210 
 16 C       -7.5370    -4.6030    -0.7220 C.2   1 <1>  -0.1410 
 17 C       -7.7560    -7.1740    -0.0110 C.2   1 <1>   0.9190 
 18 C       -8.6600    -5.3220    -1.0460 C.cat 1 <1>   0.7910 
 19 N       -8.7730    -6.5980    -0.6890 N.pl3 1 <1>  -0.6690 
 20 N       -7.8650    -8.4510     0.3450 N.pl3 1 <1>  -0.8500 
 21 N       -9.7880    -5.0140    -1.7080 N.pl3 1 <1>  -0.3930 
 22 C       -9.9900    -7.0150    -1.1650 C.2   1 <1>   0.5030 
 23 N      -10.6220    -6.0870    -1.7790 N.2   1 <1>  -0.2600 
 24 H       -0.9820     1.6610     2.2770 H     1 <1>   0.1500 
 25 H       -1.9300     0.3830    -1.7490 H     1 <1>   0.1500 
 26 H       -0.8250    -2.8990    -0.4020 H     1 <1>   0.0800 
 27 H       -1.5360     2.3820    -0.2540 H     1 <1>   0.1500 
 28 H       -2.8210    -1.8240    -2.0410 H     1 <1>   0.4000 
 29 H       -2.6240    -3.1600     1.2400 H     1 <1>   0.0800 
 30 H       -2.0630    -5.1090    -0.1090 H     1 <1>   0.0800 
 31 H       -3.2190    -4.6490    -1.3190 H     1 <1>   0.0800 
 32 H       -4.5720    -2.3780    -0.9410 H     1 <1>   0.0800 
 33 H       -4.2180    -1.4550     0.4920 H     1 <1>   0.0800 
 34 H       -3.8500    -5.4470     1.5270 H     1 <1>   0.0800 
 35 H       -4.1820    -6.3580     0.0770 H     1 <1>   0.0800 
 36 H       -6.2940    -2.7480     0.7560 H     1 <1>   0.0800 
 37 H       -5.0890    -3.2530     1.9030 H     1 <1>   0.0800 
 38 H       -7.4300    -3.5780    -1.0140 H     1 <1>   0.1500 
 39 H       -7.0870    -8.8570     0.8680 H     1 <1>   0.4000 
 40 H       -8.6670    -9.0560     0.2010 H     1 <1>   0.4000 
 41 H      -10.0130    -4.1010    -2.1200 H     1 <1>   0.4500 
 42 H      -10.3560    -8.0200    -1.0260 H     1 <1>   0.1500 
@<TRIPOS>BOND
  1   1   2  1   
  2   1   3  1   
  3   2   4  2   
  4   2   5  1   
  5   3   6  2   
  6   3  24  1   
  7   4   6  1   
  8   4  25  1   
  9   5   7  1   
 10   5   8  1   
 11   5  26  1   
 12   6  27  1   
 13   7  28  1   
 14   8   9  1   
 15   8  10  1   
 16   8  29  1   
 17   9  11  1   
 18   9  30  1   
 19   9  31  1   
 20  10  12  1   
 21  10  32  1   
 22  10  33  1   
 23  11  13  1   
 24  11  34  1   
 25  11  35  1   
 26  12  13  1   
 27  12  36  1   
 28  12  37  1   
 29  13  14  1   
 30  14  15  1   
 31  14  16  2   
 32  15  17  2   
 33  16  18  1   
 34  16  38  1   
 35  17  19  1   
 36  17  20  1   
 37  18  19  ar  
 38  18  21  ar  
 39  19  22  1   
 40  20  39  1   
 41  20  40  1   
 42  21  23  1   
 43  21  41  1   
 44  22  23  2   
 45  22  42  1   
@<TRIPOS>SUBSTRUCTURE
  1 ****  13 GROUP 4 **** **** 0

# MOE 2024.06 (io_trps.svl 2023.06)
