@<TRIPOS>MOLECULE
NONAME
42 44 1 0 0 
SMALL
USER_CHARGES


@<TRIPOS>ATOM
  1 S       -0.7490     0.1140    -0.2250 S.3   1 <1>  -0.0800 
  2 C       -0.4710    -1.5560    -0.6840 C.2   1 <1>  -0.1100 
  3 C       -1.3890    -0.3780     1.3320 C.2   1 <1>  -0.1100 
  4 C       -0.8530    -2.3950     0.2980 C.2   1 <1>  -0.1810 
  5 C       -1.3740    -1.7190     1.4500 C.2   1 <1>  -0.1500 
  6 C       -0.7620    -3.9100     0.2480 C.3   1 <1>   0.0210 
  7 C       -2.1610    -4.5300     0.1220 C.3   1 <1>  -0.0990 
  8 C       -2.1460    -6.0470     0.0210 C.2   1 <1>   0.5690 
  9 O       -1.1100    -6.6400     0.2050 O.2   1 <1>  -0.5700 
 10 N       -3.3060    -6.7090    -0.2680 N.am  1 <1>  -0.6600 
 11 C       -4.6480    -6.1030    -0.4470 C.3   1 <1>   0.1400 
 12 C       -3.3830    -8.1870    -0.3680 C.3   1 <1>   0.1400 
 13 C       -5.5970    -7.2840    -0.6630 C.3   1 <1>   0.2000 
 14 C       -4.8590    -8.5180    -0.1440 C.3   1 <1>  -0.0800 
 15 O       -6.7830    -7.1150     0.0340 O.3   1 <1>  -0.6800 
 16 C       -5.3250    -9.8150    -0.8270 C.3   1 <1>  -0.0170 
 17 C       -4.5920   -11.0310    -0.2860 C.ar  1 <1>   0.1670 
 18 N       -3.4140   -11.2960    -0.8290 N.ar  1 <1>  -0.6200 
 19 C       -5.1690   -11.7870     0.7230 C.ar  1 <1>  -0.1500 
 20 C       -2.7840   -12.3550    -0.3440 C.ar  1 <1>   0.1600 
 21 C       -4.5020   -12.8880     1.2180 C.ar  1 <1>  -0.1500 
 22 C       -3.2740   -13.1700     0.6610 C.ar  1 <1>  -0.1500 
 23 H       -0.0450    -1.7350    -1.6550 H     1 <1>   0.1500 
 24 H       -1.7100     0.3990     2.0020 H     1 <1>   0.1500 
 25 H       -1.7100    -2.2680     2.3120 H     1 <1>   0.1500 
 26 H       -0.1650    -4.2060    -0.5980 H     1 <1>   0.0800 
 27 H       -0.2750    -4.2710     1.1370 H     1 <1>   0.0800 
 28 H       -2.6320    -4.1310    -0.7570 H     1 <1>   0.0800 
 29 H       -2.7490    -4.2550     0.9770 H     1 <1>   0.0800 
 30 H       -4.9140    -5.5510     0.4380 H     1 <1>   0.0800 
 31 H       -4.6530    -5.4560    -1.3060 H     1 <1>   0.0800 
 32 H       -3.0640    -8.4900    -1.3510 H     1 <1>   0.0800 
 33 H       -2.7540    -8.6620     0.3670 H     1 <1>   0.0800 
 34 H       -5.8280    -7.3760    -1.7110 H     1 <1>   0.0800 
 35 H       -5.0040    -8.6050     0.9180 H     1 <1>   0.0800 
 36 H       -6.6110    -7.0840     0.9950 H     1 <1>   0.4000 
 37 H       -5.1600    -9.7530    -1.8890 H     1 <1>   0.0800 
 38 H       -6.3820    -9.9370    -0.6720 H     1 <1>   0.0800 
 39 H       -6.1310   -11.5190     1.1220 H     1 <1>   0.1500 
 40 H       -1.8230   -12.5840    -0.7730 H     1 <1>   0.1500 
 41 H       -4.9200   -13.4970     2.0010 H     1 <1>   0.1500 
 42 H       -2.7000   -14.0130     1.0000 H     1 <1>   0.1500 
@<TRIPOS>BOND
  1   1   2  1   
  2   1   3  1   
  3   2   4  2   
  4   2  23  1   
  5   3   5  2   
  6   3  24  1   
  7   4   5  1   
  8   4   6  1   
  9   5  25  1   
 10   6   7  1   
 11   6  26  1   
 12   6  27  1   
 13   7   8  1   
 14   7  28  1   
 15   7  29  1   
 16   8   9  2   
 17   8  10  am  
 18  10  11  1   
 19  10  12  1   
 20  11  13  1   
 21  11  30  1   
 22  11  31  1   
 23  12  14  1   
 24  12  32  1   
 25  12  33  1   
 26  13  14  1   
 27  13  15  1   
 28  13  34  1   
 29  14  16  1   
 30  14  35  1   
 31  15  36  1   
 32  16  17  1   
 33  16  37  1   
 34  16  38  1   
 35  17  18  ar  
 36  17  19  ar  
 37  18  20  ar  
 38  19  21  ar  
 39  19  39  1   
 40  20  22  ar  
 41  20  40  1   
 42  21  22  ar  
 43  21  41  1   
 44  22  42  1   
@<TRIPOS>SUBSTRUCTURE
  1 ****  10 GROUP 4 **** **** 0

# MOE 2024.06 (io_trps.svl 2023.06)
