@<TRIPOS>MOLECULE
NONAME
53 55 1 0 0 
SMALL
USER_CHARGES


@<TRIPOS>ATOM
  1 O       -4.0450     1.4260    -2.9650 O.2   1 <1>  -0.5700 
  2 C       -3.5420     1.1190    -1.9000 C.2   1 <1>   0.5440 
  3 N       -3.6460    -0.1860    -1.4680 N.am  1 <1>  -0.6600 
  4 C       -2.8620     2.1330    -1.1180 C.ar  1 <1>   0.0860 
  5 C       -2.9480    -0.6640    -0.2200 C.3   1 <1>   0.3640 
  6 C       -4.5570    -1.1250    -2.1900 C.3   1 <1>   0.1400 
  7 C       -1.6180     2.6220    -1.4990 C.ar  1 <1>  -0.1500 
  8 C       -3.4160     2.6390     0.0540 C.ar  1 <1>  -0.1500 
  9 C       -1.4340    -0.5150    -0.4010 C.ar  1 <1>  -0.1430 
 10 C       -3.2570    -2.1280     0.2250 C.3   1 <1>   0.2000 
 11 C       -4.3450    -2.5870    -1.7950 C.3   1 <1>   0.1200 
 12 C       -0.9410     3.5500    -0.7300 C.ar  1 <1>  -0.1500 
 13 C       -2.7400     3.5670     0.8240 C.ar  1 <1>  -0.1500 
 14 C       -0.6790     0.1300     0.5700 C.ar  1 <1>  -0.1500 
 15 C       -0.7930    -1.0110    -1.5290 C.ar  1 <1>  -0.1500 
 16 O       -4.3730    -2.6930    -0.4090 O.3   1 <1>  -0.5600 
 17 C       -3.5170    -2.2380     1.7360 C.3   1 <1>   0.1200 
 18 C       -1.4850     4.0380     0.4550 C.ar  1 <1>  -0.1430 
 19 C        0.6890     0.2710     0.4200 C.ar  1 <1>  -0.1500 
 20 C        0.5760    -0.8720    -1.6800 C.ar  1 <1>  -0.1500 
 21 O       -2.4670    -1.6970     2.4730 O.3   1 <1>  -0.6800 
 22 C       -0.7600     5.0600     1.3560 C.3   1 <1>   0.1430 
 23 C        1.3180    -0.2310    -0.7040 C.ar  1 <1>  -0.1500 
 24 C        0.6170     5.4770     0.8130 C.3   1 <1>  -0.2400 
 25 C       -0.5430     4.4500     2.7490 C.3   1 <1>  -0.2400 
 26 C       -1.6140     6.3310     1.4830 C.3   1 <1>  -0.2400 
 27 H       -3.2540    -0.0170     0.5830 H     1 <1>   0.0800 
 28 H       -5.5750    -0.8490    -1.9760 H     1 <1>   0.0800 
 29 H       -4.4080    -1.0240    -3.2510 H     1 <1>   0.0800 
 30 H       -1.1750     2.2520    -2.4070 H     1 <1>   0.1500 
 31 H       -4.3870     2.2940     0.3610 H     1 <1>   0.1500 
 32 H       -2.4190    -2.7570    -0.0170 H     1 <1>   0.0800 
 33 H       -3.4060    -2.9600    -2.1640 H     1 <1>   0.0800 
 34 H       -5.1410    -3.1940    -2.1890 H     1 <1>   0.0800 
 35 H        0.0210     3.8730    -1.0830 H     1 <1>   0.1500 
 36 H       -3.2080     3.9210     1.7250 H     1 <1>   0.1500 
 37 H       -1.1550     0.5330     1.4480 H     1 <1>   0.1500 
 38 H       -1.3610    -1.5010    -2.3000 H     1 <1>   0.1500 
 39 H       -3.6310    -3.2690     2.0220 H     1 <1>   0.0800 
 40 H       -4.4090    -1.6950     1.9950 H     1 <1>   0.0800 
 41 H        1.2620     0.7760     1.1780 H     1 <1>   0.1500 
 42 H        1.0620    -1.2590    -2.5580 H     1 <1>   0.1500 
 43 H       -1.6350    -2.1890     2.3160 H     1 <1>   0.4000 
 44 H        2.3820    -0.1210    -0.8220 H     1 <1>   0.1500 
 45 H        1.0860     6.1850     1.4730 H     1 <1>   0.0800 
 46 H        0.5170     5.9380    -0.1530 H     1 <1>   0.0800 
 47 H        1.2640     4.6220     0.7290 H     1 <1>   0.0800 
 48 H       -0.0050     5.1310     3.3830 H     1 <1>   0.0800 
 49 H        0.0240     3.5390     2.6660 H     1 <1>   0.0800 
 50 H       -1.4790     4.2210     3.2240 H     1 <1>   0.0800 
 51 H       -1.1090     7.0710     2.0770 H     1 <1>   0.0800 
 52 H       -2.5590     6.1200     1.9460 H     1 <1>   0.0800 
 53 H       -1.8020     6.7440     0.5080 H     1 <1>   0.0800 
@<TRIPOS>BOND
  1   1   2  2   
  2   2   3  am  
  3   2   4  1   
  4   3   5  1   
  5   3   6  1   
  6   4   7  ar  
  7   4   8  ar  
  8   5   9  1   
  9   5  10  1   
 10   5  27  1   
 11   6  11  1   
 12   6  28  1   
 13   6  29  1   
 14   7  12  ar  
 15   7  30  1   
 16   8  13  ar  
 17   8  31  1   
 18   9  14  ar  
 19   9  15  ar  
 20  10  16  1   
 21  10  17  1   
 22  10  32  1   
 23  11  16  1   
 24  11  33  1   
 25  11  34  1   
 26  12  18  ar  
 27  12  35  1   
 28  13  18  ar  
 29  13  36  1   
 30  14  19  ar  
 31  14  37  1   
 32  15  20  ar  
 33  15  38  1   
 34  17  21  1   
 35  17  39  1   
 36  17  40  1   
 37  18  22  1   
 38  19  23  ar  
 39  19  41  1   
 40  20  23  ar  
 41  20  42  1   
 42  21  43  1   
 43  22  24  1   
 44  22  25  1   
 45  22  26  1   
 46  23  44  1   
 47  24  45  1   
 48  24  46  1   
 49  24  47  1   
 50  25  48  1   
 51  25  49  1   
 52  25  50  1   
 53  26  51  1   
 54  26  52  1   
 55  26  53  1   
@<TRIPOS>SUBSTRUCTURE
  1 ****   4 GROUP 4 **** **** 0

# MOE 2024.06 (io_trps.svl 2023.06)
