@<TRIPOS>MOLECULE
NONAME
42 44 1 0 0 
SMALL
USER_CHARGES


@<TRIPOS>ATOM
  1 S       -1.9520    -0.1250    -1.7050 S.3   1 <1>  -0.0800 
  2 C       -1.4550    -1.0030    -0.2610 C.2   1 <1>  -0.1400 
  3 C       -1.6140     1.4160    -0.9400 C.2   1 <1>  -0.1100 
  4 C       -1.0690    -0.1410     0.6990 C.2   1 <1>  -0.1500 
  5 C       -1.5220    -2.5210    -0.2770 C.3   1 <1>   0.3800 
  6 C       -1.1610     1.2350     0.3130 C.2   1 <1>  -0.1500 
  7 O       -0.6630    -2.9660    -1.2550 O.3   1 <1>  -0.6800 
  8 C       -2.9330    -3.0750    -0.5750 C.3   1 <1>  -0.0800 
  9 C       -3.9790    -2.5690     0.4380 C.3   1 <1>  -0.1600 
 10 C       -2.9580    -4.6160    -0.6100 C.3   1 <1>  -0.1600 
 11 C       -5.3660    -3.1420     0.1480 C.3   1 <1>   0.3430 
 12 C       -4.3620    -5.1520    -0.8810 C.3   1 <1>   0.3430 
 13 N       -5.3070    -4.6320     0.1540 N.4   1 <1>  -0.9590 
 14 C       -6.6750    -5.2210     0.0310 C.3   1 <1>   0.4810 
 15 C       -6.6190    -6.7270     0.2730 C.2   1 <1>  -0.0290 
 16 N       -6.4440    -7.5850    -0.8110 N.am  1 <1>  -0.5390 
 17 C       -6.7260    -7.2810     1.5060 C.2   1 <1>  -0.1360 
 18 C       -6.3630    -8.9430    -0.6660 C.2   1 <1>   0.6900 
 19 C       -6.6440    -8.6930     1.6860 C.2   1 <1>   0.6160 
 20 O       -6.2020    -9.6430    -1.6350 O.2   1 <1>  -0.5700 
 21 N       -6.4620    -9.4670     0.5810 N.am  1 <1>  -0.4900 
 22 O       -6.7130    -9.2180     2.7740 O.2   1 <1>  -0.5700 
 23 H       -1.7920     2.3070    -1.5180 H     1 <1>   0.1500 
 24 H       -0.7140    -0.4060     1.6800 H     1 <1>   0.1500 
 25 H       -1.1620    -2.9020     0.6640 H     1 <1>   0.0800 
 26 H       -0.8800     2.0200     0.9940 H     1 <1>   0.1500 
 27 H        0.0430    -2.2990    -1.3700 H     1 <1>   0.4000 
 28 H       -3.2180    -2.7140    -1.5490 H     1 <1>   0.0800 
 29 H       -4.0430    -1.4950     0.3860 H     1 <1>   0.0800 
 30 H       -3.6850    -2.8240     1.4410 H     1 <1>   0.0800 
 31 H       -2.5880    -5.0190     0.3170 H     1 <1>   0.0800 
 32 H       -2.3080    -4.9680    -1.3930 H     1 <1>   0.0800 
 33 H       -5.7020    -2.7920    -0.8160 H     1 <1>   0.0800 
 34 H       -6.0580    -2.7920     0.8970 H     1 <1>   0.0800 
 35 H       -4.3340    -6.2300    -0.8570 H     1 <1>   0.0800 
 36 H       -4.6810    -4.8400    -1.8620 H     1 <1>   0.0800 
 37 H       -4.9300    -4.9240     1.0650 H     1 <1>   0.4500 
 38 H       -7.0880    -5.0180    -0.9430 H     1 <1>   0.0800 
 39 H       -7.3220    -4.7760     0.7700 H     1 <1>   0.0800 
 40 H       -6.4450    -7.2980    -1.7940 H     1 <1>   0.3700 
 41 H       -6.8730    -6.7140     2.4070 H     1 <1>   0.1500 
 42 H       -6.4120   -10.4750     0.6930 H     1 <1>   0.3700 
@<TRIPOS>BOND
  1   1   2  1   
  2   1   3  1   
  3   2   4  2   
  4   2   5  1   
  5   3   6  2   
  6   3  23  1   
  7   4   6  1   
  8   4  24  1   
  9   5   7  1   
 10   5   8  1   
 11   5  25  1   
 12   6  26  1   
 13   7  27  1   
 14   8   9  1   
 15   8  10  1   
 16   8  28  1   
 17   9  11  1   
 18   9  29  1   
 19   9  30  1   
 20  10  12  1   
 21  10  31  1   
 22  10  32  1   
 23  11  13  1   
 24  11  33  1   
 25  11  34  1   
 26  12  13  1   
 27  12  35  1   
 28  12  36  1   
 29  13  14  1   
 30  13  37  1   
 31  14  15  1   
 32  14  38  1   
 33  14  39  1   
 34  15  16  1   
 35  15  17  2   
 36  16  18  am  
 37  16  40  1   
 38  17  19  1   
 39  17  41  1   
 40  18  20  2   
 41  18  21  am  
 42  19  21  am  
 43  19  22  2   
 44  21  42  1   
@<TRIPOS>SUBSTRUCTURE
  1 ****  12 GROUP 4 **** **** 0

# MOE 2024.06 (io_trps.svl 2023.06)
