@<TRIPOS>MOLECULE
NONAME
46 48 1 0 0 
SMALL
USER_CHARGES


@<TRIPOS>ATOM
  1 CL      -1.1510    -0.9150     2.8420 Cl    1 <1>  -0.1230 
  2 C       -2.0010     0.0610     1.6550 C.2   1 <1>   0.1230 
  3 C       -2.8410    -0.3910     0.6300 C.2   1 <1>   0.2030 
  4 C       -1.9670     1.4010     1.5880 C.2   1 <1>  -0.3020 
  5 N       -3.3080     0.6610    -0.0300 N.2   1 <1>  -0.7070 
  6 C       -3.1340    -1.7900     0.3440 C.2   1 <1>   0.7160 
  7 N       -2.7630     1.7380     0.5580 N.pl3 1 <1>   0.3140 
  8 O       -2.3860    -2.6830     0.7120 O.2   1 <1>  -0.5700 
  9 N       -4.2710    -2.1990    -0.3350 N.am  1 <1>  -0.6600 
 10 C       -3.0400     3.1030     0.0900 C.3   1 <1>   0.0160 
 11 C       -4.3480    -3.5590    -0.9260 C.3   1 <1>   0.1400 
 12 C       -5.5950    -1.5560    -0.1220 C.3   1 <1>   0.1400 
 13 C       -5.1300    -4.4750     0.0390 C.3   1 <1>   0.4230 
 14 C       -6.4120    -2.4470     0.8260 C.3   1 <1>  -0.1600 
 15 N       -5.1020    -5.9480    -0.3480 N.4   1 <1>  -0.9590 
 16 C       -6.5560    -3.9210     0.3430 C.3   1 <1>   0.0000 
 17 C       -6.1670    -6.7730     0.3100 C.3   1 <1>   0.3430 
 18 C       -5.0710    -6.2290    -1.8210 C.3   1 <1>   0.2630 
 19 C       -7.1960    -4.7620     1.4880 C.3   1 <1>  -0.1600 
 20 C       -7.4400    -3.9820    -0.9360 C.3   1 <1>   0.1200 
 21 C       -6.5810    -6.1660     1.6500 C.3   1 <1>  -0.1600 
 22 O       -8.6550    -3.3430    -0.7540 O.3   1 <1>  -0.6800 
 23 H       -1.4390     2.1080     2.1990 H     1 <1>   0.1500 
 24 H       -2.1120     3.5980    -0.1260 H     1 <1>   0.0800 
 25 H       -3.5710     3.6370     0.8550 H     1 <1>   0.0800 
 26 H       -3.6390     3.0560    -0.8000 H     1 <1>   0.0800 
 27 H       -4.8280    -3.4890    -1.8850 H     1 <1>   0.0800 
 28 H       -3.3550    -3.9460    -1.0750 H     1 <1>   0.0800 
 29 H       -5.4840    -0.5790     0.3170 H     1 <1>   0.0800 
 30 H       -6.0980    -1.4350    -1.0660 H     1 <1>   0.0800 
 31 H       -4.5970    -4.4030     0.9730 H     1 <1>   0.0800 
 32 H       -5.9190    -2.4230     1.7830 H     1 <1>   0.0800 
 33 H       -7.3790    -1.9970     0.9710 H     1 <1>   0.0800 
 34 H       -4.2060    -6.2860     0.0360 H     1 <1>   0.4500 
 35 H       -7.0370    -6.8190    -0.3260 H     1 <1>   0.0800 
 36 H       -5.8110    -7.7800     0.4580 H     1 <1>   0.0800 
 37 H       -5.9630    -5.8560    -2.2970 H     1 <1>   0.0800 
 38 H       -5.0070    -7.2910    -1.9970 H     1 <1>   0.0800 
 39 H       -4.2130    -5.7610    -2.2780 H     1 <1>   0.0800 
 40 H       -7.0900    -4.2570     2.4340 H     1 <1>   0.0800 
 41 H       -8.2550    -4.8640     1.3260 H     1 <1>   0.0800 
 42 H       -7.6530    -4.9960    -1.2220 H     1 <1>   0.0800 
 43 H       -6.9640    -3.4890    -1.7650 H     1 <1>   0.0800 
 44 H       -7.2990    -6.8130     2.1250 H     1 <1>   0.0800 
 45 H       -5.7210    -6.1220     2.2970 H     1 <1>   0.0800 
 46 H       -9.1910    -3.7570    -0.0490 H     1 <1>   0.4000 
@<TRIPOS>BOND
  1   1   2  1   
  2   2   3  1   
  3   2   4  2   
  4   3   5  2   
  5   3   6  1   
  6   4   7  1   
  7   4  23  1   
  8   5   7  1   
  9   6   8  2   
 10   6   9  am  
 11   7  10  1   
 12   9  11  1   
 13   9  12  1   
 14  10  24  1   
 15  10  25  1   
 16  10  26  1   
 17  11  13  1   
 18  11  27  1   
 19  11  28  1   
 20  12  14  1   
 21  12  29  1   
 22  12  30  1   
 23  13  15  1   
 24  13  16  1   
 25  13  31  1   
 26  14  16  1   
 27  14  32  1   
 28  14  33  1   
 29  15  17  1   
 30  15  18  1   
 31  15  34  1   
 32  16  19  1   
 33  16  20  1   
 34  17  21  1   
 35  17  35  1   
 36  17  36  1   
 37  18  37  1   
 38  18  38  1   
 39  18  39  1   
 40  19  21  1   
 41  19  40  1   
 42  19  41  1   
 43  20  22  1   
 44  20  42  1   
 45  20  43  1   
 46  21  44  1   
 47  21  45  1   
 48  22  46  1   
@<TRIPOS>SUBSTRUCTURE
  1 ****   9 GROUP 4 **** **** 0

# MOE 2024.06 (io_trps.svl 2023.06)
