@<TRIPOS>MOLECULE
NONAME
46 48 1 0 0 
SMALL
USER_CHARGES


@<TRIPOS>ATOM
  1 S       -0.3460    -4.4010     0.6810 S.3   1 <1>  -0.0800 
  2 C        0.0320    -2.8560     1.4060 C.2   1 <1>   0.2280 
  3 C       -1.9510    -3.8170     0.3540 C.2   1 <1>  -0.1100 
  4 N       -0.9270    -2.0180     1.3980 N.2   1 <1>  -0.5650 
  5 C       -2.0620    -2.5540     0.8020 C.2   1 <1>   0.0460 
  6 C       -3.2880    -1.6510     0.7320 C.3   1 <1>   0.3210 
  7 N       -4.3630    -2.2570    -0.0870 N.am  1 <1>  -0.7300 
  8 C       -5.6450    -2.4550     0.3110 C.2   1 <1>   0.5690 
  9 O       -6.0420    -2.0580     1.3820 O.2   1 <1>  -0.5700 
 10 C       -6.6180    -3.2030    -0.6050 C.3   1 <1>   0.2610 
 11 O       -6.0450    -3.3990    -1.9030 O.3   1 <1>  -0.5600 
 12 C       -7.0620    -4.5040     0.1160 C.3   1 <1>   0.3640 
 13 C       -5.6350    -4.7050    -2.2600 C.3   1 <1>   0.1810 
 14 N       -5.9590    -5.5160     0.0660 N.am  1 <1>  -0.6600 
 15 C       -8.3860    -5.0420    -0.4480 C.ar  1 <1>  -0.1430 
 16 C       -5.2030    -5.5670    -1.0700 C.2   1 <1>   0.5690 
 17 C       -5.6040    -6.2840     1.2880 C.3   1 <1>   0.2200 
 18 C       -9.5400    -4.3010    -0.2220 C.ar  1 <1>  -0.1500 
 19 C       -8.4940    -6.2320    -1.1610 C.ar  1 <1>  -0.1500 
 20 O       -4.2110    -6.2490    -1.1740 O.2   1 <1>  -0.5700 
 21 C       -6.8220    -7.0290     1.8360 C.3   1 <1>  -0.2400 
 22 C       -5.0000    -5.3510     2.3380 C.3   1 <1>  -0.2400 
 23 C      -10.7650    -4.7270    -0.7070 C.ar  1 <1>  -0.1500 
 24 C       -9.7170    -6.6590    -1.6470 C.ar  1 <1>  -0.1500 
 25 C      -10.8540    -5.9060    -1.4230 C.ar  1 <1>  -0.1500 
 26 H        1.0260    -2.7290     1.7980 H     1 <1>   0.1500 
 27 H       -2.6350    -4.4870    -0.1340 H     1 <1>   0.1500 
 28 H       -3.0050    -0.7100     0.2950 H     1 <1>   0.0800 
 29 H       -3.6420    -1.4630     1.7310 H     1 <1>   0.0800 
 30 H       -4.0980    -2.5530    -1.0300 H     1 <1>   0.3700 
 31 H       -7.4710    -2.5650    -0.7390 H     1 <1>   0.0800 
 32 H       -7.2540    -4.2540     1.1440 H     1 <1>   0.0800 
 33 H       -6.4580    -5.1810    -2.7610 H     1 <1>   0.0800 
 34 H       -4.8210    -4.6140    -2.9550 H     1 <1>   0.0800 
 35 H       -4.8590    -7.0200     1.0310 H     1 <1>   0.0800 
 36 H       -9.4990    -3.3830     0.3380 H     1 <1>   0.1500 
 37 H       -7.6330    -6.8500    -1.3450 H     1 <1>   0.1500 
 38 H       -7.5840    -6.3500     2.1680 H     1 <1>   0.0800 
 39 H       -6.5260    -7.6360     2.6720 H     1 <1>   0.0800 
 40 H       -7.2260    -7.6780     1.0800 H     1 <1>   0.0800 
 41 H       -5.7190    -4.6420     2.7030 H     1 <1>   0.0800 
 42 H       -4.1610    -4.8230     1.9230 H     1 <1>   0.0800 
 43 H       -4.6480    -5.9290     3.1730 H     1 <1>   0.0800 
 44 H      -11.6490    -4.1410    -0.5270 H     1 <1>   0.1500 
 45 H       -9.7840    -7.5810    -2.1980 H     1 <1>   0.1500 
 46 H      -11.8050    -6.2380    -1.8010 H     1 <1>   0.1500 
@<TRIPOS>BOND
  1   1   2  1   
  2   1   3  1   
  3   2   4  2   
  4   2  26  1   
  5   3   5  2   
  6   3  27  1   
  7   4   5  1   
  8   5   6  1   
  9   6   7  1   
 10   6  28  1   
 11   6  29  1   
 12   7   8  am  
 13   7  30  1   
 14   8   9  2   
 15   8  10  1   
 16  10  11  1   
 17  10  12  1   
 18  10  31  1   
 19  11  13  1   
 20  12  14  1   
 21  12  15  1   
 22  12  32  1   
 23  13  16  1   
 24  13  33  1   
 25  13  34  1   
 26  14  16  am  
 27  14  17  1   
 28  15  18  ar  
 29  15  19  ar  
 30  16  20  2   
 31  17  21  1   
 32  17  22  1   
 33  17  35  1   
 34  18  23  ar  
 35  18  36  1   
 36  19  24  ar  
 37  19  37  1   
 38  21  38  1   
 39  21  39  1   
 40  21  40  1   
 41  22  41  1   
 42  22  42  1   
 43  22  43  1   
 44  23  25  ar  
 45  23  44  1   
 46  24  25  ar  
 47  24  45  1   
 48  25  46  1   
@<TRIPOS>SUBSTRUCTURE
  1 ****  14 GROUP 4 **** **** 0

# MOE 2024.06 (io_trps.svl 2023.06)
