@<TRIPOS>MOLECULE
NONAME
26 26 1 0 0 
SMALL
USER_CHARGES


@<TRIPOS>ATOM
  1 N        7.9370    -2.4530     0.1920 N.pl3 1 <1>  -0.8380 
  2 C        7.0970    -3.2890    -0.5490 C.2   1 <1>  -0.0500 
  3 C        9.2600    -3.1540     0.2020 C.3   1 <1>   0.5780 
  4 C        8.0180    -1.0720    -0.3410 C.3   1 <1>   0.2090 
  5 C        7.7130    -4.3960    -0.9500 C.2   1 <1>  -0.0500 
  6 N        9.0500    -4.4310    -0.5500 N.pl3 1 <1>  -0.8380 
  7 C        6.9210    -0.2220     0.3000 C.3   1 <1>  -0.1600 
  8 C        9.3710    -5.6300     0.2600 C.3   1 <1>   0.1290 
  9 C        6.9710     1.2290    -0.1960 C.3   1 <1>  -0.1600 
 10 C        5.8690     2.0710     0.4530 C.3   1 <1>  -0.2400 
 11 H        6.0740    -3.0060    -0.7340 H     1 <1>   0.1500 
 12 H        9.5590    -3.3480     1.2180 H     1 <1>   0.0800 
 13 H       10.0140    -2.5660    -0.2920 H     1 <1>   0.0800 
 14 H        7.9000    -1.0880    -1.4120 H     1 <1>   0.0800 
 15 H        8.9780    -0.6440    -0.1090 H     1 <1>   0.0800 
 16 H        7.2960    -5.2110    -1.5190 H     1 <1>   0.1500 
 17 H        7.0460    -0.2440     1.3680 H     1 <1>   0.0800 
 18 H        5.9620    -0.6480     0.0620 H     1 <1>   0.0800 
 19 H       10.3980    -5.5960     0.5780 H     1 <1>   0.0800 
 20 H        9.2220    -6.5160    -0.3340 H     1 <1>   0.0800 
 21 H        8.7290    -5.6750     1.1240 H     1 <1>   0.0800 
 22 H        6.8490     1.2510    -1.2650 H     1 <1>   0.0800 
 23 H        7.9300     1.6600     0.0410 H     1 <1>   0.0800 
 24 H        4.9000     1.6700     0.2120 H     1 <1>   0.0800 
 25 H        5.9190     3.0840     0.0950 H     1 <1>   0.0800 
 26 H        5.9830     2.0790     1.5230 H     1 <1>   0.0800 
@<TRIPOS>BOND
  1   1   2  1   
  2   1   3  1   
  3   1   4  1   
  4   2   5  2   
  5   2  11  1   
  6   3   6  1   
  7   3  12  1   
  8   3  13  1   
  9   4   7  1   
 10   4  14  1   
 11   4  15  1   
 12   5   6  1   
 13   5  16  1   
 14   6   8  1   
 15   7   9  1   
 16   7  17  1   
 17   7  18  1   
 18   8  19  1   
 19   8  20  1   
 20   8  21  1   
 21   9  10  1   
 22   9  22  1   
 23   9  23  1   
 24  10  24  1   
 25  10  25  1   
 26  10  26  1   
@<TRIPOS>SUBSTRUCTURE
  1 ****   1 GROUP 4 **** **** 0

# MOE 2024.06 (io_trps.svl 2023.06)
