@<TRIPOS>MOLECULE
NONAME
54 55 1 0 0 
SMALL
USER_CHARGES


@<TRIPOS>ATOM
  1 O        1.6480     0.5760     1.0080 O.3   1 <1>  -0.6800 
  2 C        1.9590    -0.6220     1.6620 C.3   1 <1>   0.1200 
  3 C        3.4080    -1.0430     1.3420 C.3   1 <1>   0.3430 
  4 N        3.7610    -0.6130    -0.0480 N.4   1 <1>  -0.9590 
  5 C        3.7800    -1.7490    -1.0210 C.3   1 <1>   0.5240 
  6 C        5.0100     0.1940    -0.1200 C.3   1 <1>   0.3430 
  7 C        2.4590    -2.5110    -1.0450 C.2   1 <1>   0.0460 
  8 C        4.8500     1.5600     0.5510 C.3   1 <1>  -0.0220 
  9 N        2.1560    -3.4120    -0.0870 N.2   1 <1>  -0.5650 
 10 C        1.4650    -2.4330    -1.9580 C.2   1 <1>  -0.3020 
 11 C        6.1480     2.3490     0.3630 C.2   1 <1>  -0.2760 
 12 C        0.9970    -3.8660    -0.4370 C.2   1 <1>   0.0060 
 13 N        0.5190    -3.3070    -1.5700 N.pl3 1 <1>   0.0330 
 14 C        7.2600     2.0520     1.0620 C.2   1 <1>  -0.2760 
 15 C        6.0940     3.4780    -0.6980 C.3   1 <1>   0.1380 
 16 C        0.2380    -4.9260     0.3330 C.3   1 <1>  -0.0600 
 17 C        8.5980     2.7530     0.8450 C.3   1 <1>  -0.0220 
 18 C        7.3940     0.9990     2.1620 C.3   1 <1>  -0.1020 
 19 C        7.3890     4.3210    -0.6750 C.3   1 <1>  -0.1600 
 20 C        5.9130     2.8600    -2.0930 C.3   1 <1>  -0.2400 
 21 C        4.9400     4.4630    -0.4350 C.3   1 <1>  -0.2400 
 22 C        8.6500     3.4760    -0.4990 C.3   1 <1>  -0.1600 
 23 H        0.7460     0.8790     1.2550 H     1 <1>   0.4000 
 24 H        1.2670    -1.3760     1.3270 H     1 <1>   0.0800 
 25 H        1.8340    -0.4860     2.7220 H     1 <1>   0.0800 
 26 H        3.5160    -2.1090     1.4590 H     1 <1>   0.0800 
 27 H        4.0640    -0.5680     2.0510 H     1 <1>   0.0800 
 28 H        2.9590    -0.0020    -0.2920 H     1 <1>   0.4500 
 29 H        4.5680    -2.4370    -0.7670 H     1 <1>   0.0800 
 30 H        3.9720    -1.3680    -2.0100 H     1 <1>   0.0800 
 31 H        5.2730     0.3610    -1.1510 H     1 <1>   0.0800 
 32 H        5.8240    -0.3380     0.3440 H     1 <1>   0.0800 
 33 H        4.6510     1.4530     1.6010 H     1 <1>   0.0800 
 34 H        4.0050     2.0590     0.1230 H     1 <1>   0.0800 
 35 H        1.3730    -1.8300    -2.8450 H     1 <1>   0.1500 
 36 H       -0.3710    -3.5210    -2.0330 H     1 <1>   0.2700 
 37 H        0.8050    -5.2320     1.1940 H     1 <1>   0.0800 
 38 H        0.0730    -5.7870    -0.2900 H     1 <1>   0.0800 
 39 H       -0.7100    -4.5410     0.6630 H     1 <1>   0.0800 
 40 H        9.4030     2.0400     0.8710 H     1 <1>   0.0800 
 41 H        8.7560     3.4580     1.6430 H     1 <1>   0.0800 
 42 H        7.7450     1.4670     3.0650 H     1 <1>   0.0800 
 43 H        8.1090     0.2510     1.8700 H     1 <1>   0.0800 
 44 H        6.4720     0.5050     2.3930 H     1 <1>   0.0800 
 45 H        7.3460     5.0130     0.1490 H     1 <1>   0.0800 
 46 H        7.4700     4.9060    -1.5740 H     1 <1>   0.0800 
 47 H        6.6890     2.1420    -2.2890 H     1 <1>   0.0800 
 48 H        5.9590     3.6230    -2.8500 H     1 <1>   0.0800 
 49 H        4.9610     2.3710    -2.1780 H     1 <1>   0.0800 
 50 H        4.9510     4.7760     0.5940 H     1 <1>   0.0800 
 51 H        3.9790     4.0390    -0.6550 H     1 <1>   0.0800 
 52 H        5.0470     5.3370    -1.0530 H     1 <1>   0.0800 
 53 H        8.7270     2.7570    -1.2950 H     1 <1>   0.0800 
 54 H        9.5210     4.1060    -0.5350 H     1 <1>   0.0800 
@<TRIPOS>BOND
  1   1   2  1   
  2   1  23  1   
  3   2   3  1   
  4   2  24  1   
  5   2  25  1   
  6   3   4  1   
  7   3  26  1   
  8   3  27  1   
  9   4   5  1   
 10   4   6  1   
 11   4  28  1   
 12   5   7  1   
 13   5  29  1   
 14   5  30  1   
 15   6   8  1   
 16   6  31  1   
 17   6  32  1   
 18   7   9  1   
 19   7  10  2   
 20   8  11  1   
 21   8  33  1   
 22   8  34  1   
 23   9  12  2   
 24  10  13  1   
 25  10  35  1   
 26  11  14  2   
 27  11  15  1   
 28  12  13  1   
 29  12  16  1   
 30  13  36  1   
 31  14  17  1   
 32  14  18  1   
 33  15  19  1   
 34  15  20  1   
 35  15  21  1   
 36  16  37  1   
 37  16  38  1   
 38  16  39  1   
 39  17  22  1   
 40  17  40  1   
 41  17  41  1   
 42  18  42  1   
 43  18  43  1   
 44  18  44  1   
 45  19  22  1   
 46  19  45  1   
 47  19  46  1   
 48  20  47  1   
 49  20  48  1   
 50  20  49  1   
 51  21  50  1   
 52  21  51  1   
 53  21  52  1   
 54  22  53  1   
 55  22  54  1   
@<TRIPOS>SUBSTRUCTURE
  1 ****   6 GROUP 4 **** **** 0

# MOE 2024.06 (io_trps.svl 2023.06)
