@<TRIPOS>MOLECULE
NONAME
45 48 1 0 0 
SMALL
USER_CHARGES


@<TRIPOS>ATOM
  1 O       -0.1180     1.0020     1.0180 O.2   1 <1>  -0.5700 
  2 C        0.0690     2.1940     0.8260 C.2   1 <1>   0.5440 
  3 N       -1.0510     3.0080     0.7190 N.am  1 <1>  -0.6600 
  4 C        1.4500     2.6730     0.6950 C.ar  1 <1>   0.3960 
  5 C       -2.3970     2.5600     1.1930 C.3   1 <1>   0.1400 
  6 C       -1.0430     4.3650     0.1080 C.3   1 <1>   0.1400 
  7 N        1.8100     3.8920     1.2080 N.ar  1 <1>  -0.6200 
  8 C        2.3880     1.8820     0.0710 C.ar  1 <1>  -0.1500 
  9 C       -3.4400     2.5670     0.0500 C.3   1 <1>   0.0000 
 10 C       -2.0580     4.4250    -1.0370 C.3   1 <1>  -0.1600 
 11 C        3.0450     4.2680     1.0820 C.ar  1 <1>   0.1600 
 12 C        3.7250     2.2770    -0.0790 C.ar  1 <1>   0.0000 
 13 C       -4.8020     2.1320     0.6300 C.3   1 <1>   0.2000 
 14 C       -3.4600     3.9750    -0.5950 C.3   1 <1>  -0.1600 
 15 C       -3.1300     1.4520    -0.9700 C.3   1 <1>  -0.1600 
 16 C        4.0680     3.5280     0.4510 C.ar  1 <1>   0.0000 
 17 C        4.7140     1.5030    -0.7150 C.ar  1 <1>  -0.1500 
 18 O       -5.8270     2.4600    -0.2420 O.3   1 <1>  -0.6800 
 19 C       -4.7400     0.6070     0.6910 C.3   1 <1>  -0.1600 
 20 C       -3.7740     0.1720    -0.4210 C.3   1 <1>  -0.1600 
 21 C        5.3980     3.9740     0.3290 C.ar  1 <1>  -0.1500 
 22 C        6.0000     1.9580    -0.8220 C.ar  1 <1>  -0.1500 
 23 C        6.3460     3.2070    -0.2950 C.ar  1 <1>  -0.1500 
 24 H       -2.3300     1.5790     1.6280 H     1 <1>   0.0800 
 25 H       -2.7170     3.2320     1.9700 H     1 <1>   0.0800 
 26 H       -1.2920     5.0890     0.8640 H     1 <1>   0.0800 
 27 H       -0.0720     4.6070    -0.2830 H     1 <1>   0.0800 
 28 H        2.0940     0.9240    -0.3160 H     1 <1>   0.1500 
 29 H       -2.1070     5.4330    -1.4100 H     1 <1>   0.0800 
 30 H       -1.7110     3.8000    -1.8410 H     1 <1>   0.0800 
 31 H        3.3210     5.2240     1.4900 H     1 <1>   0.1500 
 32 H       -5.0210     2.5810     1.5840 H     1 <1>   0.0800 
 33 H       -4.1180     3.9920    -1.4460 H     1 <1>   0.0800 
 34 H       -3.8440     4.6810     0.1210 H     1 <1>   0.0800 
 35 H       -3.5810     1.6910    -1.9170 H     1 <1>   0.0800 
 36 H       -2.0730     1.3220    -1.1260 H     1 <1>   0.0800 
 37 H        4.4400     0.5430    -1.1170 H     1 <1>   0.1500 
 38 H       -5.6540     2.0270    -1.0990 H     1 <1>   0.4000 
 39 H       -4.3290     0.3140     1.6410 H     1 <1>   0.0800 
 40 H       -5.7130     0.1560     0.5930 H     1 <1>   0.0800 
 41 H       -3.0170    -0.4780    -0.0140 H     1 <1>   0.0800 
 42 H       -4.2950    -0.3520    -1.2040 H     1 <1>   0.0800 
 43 H        5.6620     4.9340     0.7360 H     1 <1>   0.1500 
 44 H        6.7570     1.3670    -1.3090 H     1 <1>   0.1500 
 45 H        7.3620     3.5500    -0.3870 H     1 <1>   0.1500 
@<TRIPOS>BOND
  1   1   2  2   
  2   2   3  am  
  3   2   4  1   
  4   3   5  1   
  5   3   6  1   
  6   4   7  ar  
  7   4   8  ar  
  8   5   9  1   
  9   5  24  1   
 10   5  25  1   
 11   6  10  1   
 12   6  26  1   
 13   6  27  1   
 14   7  11  ar  
 15   8  12  ar  
 16   8  28  1   
 17   9  13  1   
 18   9  14  1   
 19   9  15  1   
 20  10  14  1   
 21  10  29  1   
 22  10  30  1   
 23  11  16  ar  
 24  11  31  1   
 25  12  16  ar  
 26  12  17  ar  
 27  13  18  1   
 28  13  19  1   
 29  13  32  1   
 30  14  33  1   
 31  14  34  1   
 32  15  20  1   
 33  15  35  1   
 34  15  36  1   
 35  16  21  ar  
 36  17  22  ar  
 37  17  37  1   
 38  18  38  1   
 39  19  20  1   
 40  19  39  1   
 41  19  40  1   
 42  20  41  1   
 43  20  42  1   
 44  21  23  ar  
 45  21  43  1   
 46  22  23  ar  
 47  22  44  1   
 48  23  45  1   
@<TRIPOS>SUBSTRUCTURE
  1 ****   2 GROUP 4 **** **** 0

# MOE 2024.06 (io_trps.svl 2023.06)
