@<TRIPOS>MOLECULE
NONAME
48 50 1 0 0 
SMALL
USER_CHARGES


@<TRIPOS>ATOM
  1 O        3.4110    -1.4910    -1.6650 O.co2 1 <1>  -0.9000 
  2 C        4.0830    -0.6200    -1.1230 C.2   1 <1>   0.9060 
  3 O        5.2920    -0.4560    -1.3340 O.co2 1 <1>  -0.9000 
  4 C        3.4170     0.3160    -0.1380 C.3   1 <1>  -0.1860 
  5 C        4.0470     0.2010     1.2730 C.3   1 <1>   0.2000 
  6 C        3.4180     1.7710    -0.6750 C.3   1 <1>  -0.1600 
  7 O        5.4000    -0.1110     1.2100 O.3   1 <1>  -0.6800 
  8 C        3.9320     1.5510     2.0090 C.3   1 <1>   0.3430 
  9 C        4.6740     2.4980    -0.2060 C.3   1 <1>   0.3430 
 10 N        4.6520     2.6730     1.2890 N.4   1 <1>  -0.9590 
 11 C        6.0580     2.7800     1.7710 C.3   1 <1>   0.4860 
 12 C        6.5770     4.1670     1.4060 C.ar  1 <1>  -0.1440 
 13 C        7.3410     4.4510     0.2330 C.ar  1 <1>   0.0000 
 14 C        6.2280     5.1680     2.2760 C.ar  1 <1>  -0.1500 
 15 C        7.8560     3.4820    -0.6840 C.ar  1 <1>   0.0820 
 16 C        7.6080     5.8180    -0.0560 C.ar  1 <1>   0.0000 
 17 C        6.5630     6.4950     2.0210 C.ar  1 <1>  -0.1500 
 18 O        7.7480     2.1720    -0.3600 O.3   1 <1>  -0.3620 
 19 C        8.4740     3.8580    -1.8550 C.ar  1 <1>  -0.1500 
 20 C        7.2310     6.8250     0.8700 C.ar  1 <1>   0.0820 
 21 C        8.2460     6.1530    -1.2700 C.ar  1 <1>  -0.1500 
 22 C        7.9560     1.1160    -1.2800 C.3   1 <1>   0.0400 
 23 C        8.6610     5.2030    -2.1560 C.ar  1 <1>  -0.1500 
 24 O        7.5610     8.1070     0.5660 O.3   1 <1>  -0.3620 
 25 C        7.3230     9.1850     1.4450 C.3   1 <1>   0.0400 
 26 H        2.3910     0.0030    -0.0720 H     1 <1>   0.0800 
 27 H        3.5650    -0.5870     1.8260 H     1 <1>   0.0800 
 28 H        2.5430     2.3040    -0.3510 H     1 <1>   0.0800 
 29 H        3.4040     1.7510    -1.7520 H     1 <1>   0.0800 
 30 H        5.6030    -0.3820     0.2580 H     1 <1>   0.4000 
 31 H        4.3100     1.4400     3.0110 H     1 <1>   0.0800 
 32 H        2.8850     1.7940     2.0780 H     1 <1>   0.0800 
 33 H        4.7710     3.4530    -0.6940 H     1 <1>   0.0800 
 34 H        5.5180     1.8890    -0.4880 H     1 <1>   0.0800 
 35 H        4.2010     3.5680     1.4930 H     1 <1>   0.4500 
 36 H        6.0710     2.6870     2.8430 H     1 <1>   0.0800 
 37 H        6.6560     1.9760     1.3860 H     1 <1>   0.0800 
 38 H        5.6790     4.9620     3.1790 H     1 <1>   0.1500 
 39 H        6.2730     7.2340     2.7440 H     1 <1>   0.1500 
 40 H        8.8430     3.1410    -2.5630 H     1 <1>   0.1500 
 41 H        8.4110     7.1900    -1.5020 H     1 <1>   0.1500 
 42 H        7.7240     0.1890    -0.7860 H     1 <1>   0.0800 
 43 H        8.9850     1.1110    -1.5910 H     1 <1>   0.0800 
 44 H        7.2960     1.2420    -2.1210 H     1 <1>   0.0800 
 45 H        9.1430     5.4790    -3.0780 H     1 <1>   0.1500 
 46 H        7.7060    10.0790     0.9860 H     1 <1>   0.0800 
 47 H        7.8390     9.0010     2.3710 H     1 <1>   0.0800 
 48 H        6.2640     9.2810     1.6030 H     1 <1>   0.0800 
@<TRIPOS>BOND
  1   1   2  ar  
  2   2   3  ar  
  3   2   4  1   
  4   4   5  1   
  5   4   6  1   
  6   4  26  1   
  7   5   7  1   
  8   5   8  1   
  9   5  27  1   
 10   6   9  1   
 11   6  28  1   
 12   6  29  1   
 13   7  30  1   
 14   8  10  1   
 15   8  31  1   
 16   8  32  1   
 17   9  10  1   
 18   9  33  1   
 19   9  34  1   
 20  10  11  1   
 21  10  35  1   
 22  11  12  1   
 23  11  36  1   
 24  11  37  1   
 25  12  13  ar  
 26  12  14  ar  
 27  13  15  ar  
 28  13  16  ar  
 29  14  17  ar  
 30  14  38  1   
 31  15  18  1   
 32  15  19  ar  
 33  16  20  ar  
 34  16  21  ar  
 35  17  20  ar  
 36  17  39  1   
 37  18  22  1   
 38  19  23  ar  
 39  19  40  1   
 40  20  24  1   
 41  21  23  ar  
 42  21  41  1   
 43  22  42  1   
 44  22  43  1   
 45  22  44  1   
 46  23  45  1   
 47  24  25  1   
 48  25  46  1   
 49  25  47  1   
 50  25  48  1   
@<TRIPOS>SUBSTRUCTURE
  1 ****  12 GROUP 4 **** **** 0

# MOE 2024.06 (io_trps.svl 2023.06)
