@<TRIPOS>MOLECULE
NONAME
42 44 1 0 0 
SMALL
USER_CHARGES


@<TRIPOS>ATOM
  1 S       -1.5060    -0.1530    -1.6580 S.3   1 <1>  -0.0800 
  2 C       -2.1760     1.0780    -0.6100 C.2   1 <1>   0.1980 
  3 C       -1.9260    -1.3490    -0.4690 C.2   1 <1>  -0.1100 
  4 N       -2.6530     0.6360     0.4820 N.2   1 <1>  -0.5650 
  5 C       -2.1210     2.5080    -1.0950 C.3   1 <1>  -0.0600 
  6 C       -2.5150    -0.7410     0.5730 C.2   1 <1>   0.0460 
  7 C       -3.0460    -1.3980     1.8360 C.3   1 <1>   0.0820 
  8 C       -3.3020    -2.8840     1.6580 C.2   1 <1>   0.5690 
  9 O       -2.6080    -3.6620     2.2690 O.2   1 <1>  -0.5700 
 10 N       -4.3000    -3.3250     0.8300 N.am  1 <1>  -0.6600 
 11 C       -5.2350    -2.4890     0.0300 C.3   1 <1>   0.1400 
 12 C       -4.5680    -4.7660     0.5870 C.3   1 <1>   0.1400 
 13 C       -6.3930    -3.4310    -0.2920 C.3   1 <1>   0.2000 
 14 C       -5.7120    -4.7950    -0.4340 C.3   1 <1>  -0.0800 
 15 O       -7.2450    -3.4480     0.8030 O.3   1 <1>  -0.6800 
 16 C       -6.6360    -6.0180    -0.2960 C.3   1 <1>   0.0210 
 17 C       -5.8500    -7.3070    -0.4410 C.2   1 <1>   0.1080 
 18 N       -5.2180    -7.6280    -1.5270 N.2   1 <1>  -0.7070 
 19 C       -5.7070    -8.2670     0.5550 C.2   1 <1>  -0.1500 
 20 N       -4.6510    -8.8180    -1.2500 N.pl3 1 <1>   0.3000 
 21 C       -4.9300    -9.2250     0.0060 C.2   1 <1>  -0.3320 
 22 C       -4.4310   -10.5230     0.6130 C.3   1 <1>  -0.0600 
 23 H       -1.6860    -2.3770    -0.6750 H     1 <1>   0.1500 
 24 H       -2.5650     3.1560    -0.3620 H     1 <1>   0.0800 
 25 H       -2.6620     2.6000    -2.0190 H     1 <1>   0.0800 
 26 H       -1.1000     2.8000    -1.2490 H     1 <1>   0.0800 
 27 H       -3.9630    -0.9240     2.1280 H     1 <1>   0.0800 
 28 H       -2.3360    -1.2490     2.6280 H     1 <1>   0.0800 
 29 H       -5.5690    -1.6170     0.5640 H     1 <1>   0.0800 
 30 H       -4.7450    -2.1890    -0.8800 H     1 <1>   0.0800 
 31 H       -3.6900    -5.2610     0.2050 H     1 <1>   0.0800 
 32 H       -4.8600    -5.2310     1.5130 H     1 <1>   0.0800 
 33 H       -6.9540    -3.1360    -1.1620 H     1 <1>   0.0800 
 34 H       -5.2610    -4.8330    -1.4100 H     1 <1>   0.0800 
 35 H       -6.7090    -3.5900     1.6100 H     1 <1>   0.4000 
 36 H       -7.3890    -5.9870    -1.0620 H     1 <1>   0.0800 
 37 H       -7.1310    -6.0160     0.6570 H     1 <1>   0.0800 
 38 H       -6.1330    -8.2290     1.5410 H     1 <1>   0.1500 
 39 H       -4.0810    -9.3240    -1.9380 H     1 <1>   0.2700 
 40 H       -4.7890   -10.6200     1.6230 H     1 <1>   0.0800 
 41 H       -3.3560   -10.5380     0.6280 H     1 <1>   0.0800 
 42 H       -4.7880   -11.3620     0.0420 H     1 <1>   0.0800 
@<TRIPOS>BOND
  1   1   2  1   
  2   1   3  1   
  3   2   4  2   
  4   2   5  1   
  5   3   6  2   
  6   3  23  1   
  7   4   6  1   
  8   5  24  1   
  9   5  25  1   
 10   5  26  1   
 11   6   7  1   
 12   7   8  1   
 13   7  27  1   
 14   7  28  1   
 15   8   9  2   
 16   8  10  am  
 17  10  11  1   
 18  10  12  1   
 19  11  13  1   
 20  11  29  1   
 21  11  30  1   
 22  12  14  1   
 23  12  31  1   
 24  12  32  1   
 25  13  14  1   
 26  13  15  1   
 27  13  33  1   
 28  14  16  1   
 29  14  34  1   
 30  15  35  1   
 31  16  17  1   
 32  16  36  1   
 33  16  37  1   
 34  17  18  2   
 35  17  19  1   
 36  18  20  1   
 37  19  21  2   
 38  19  38  1   
 39  20  21  1   
 40  20  39  1   
 41  21  22  1   
 42  22  40  1   
 43  22  41  1   
 44  22  42  1   
@<TRIPOS>SUBSTRUCTURE
  1 ****  10 GROUP 4 **** **** 0

# MOE 2024.06 (io_trps.svl 2023.06)
