@<TRIPOS>MOLECULE
NONAME
61 64 1 0 0 
SMALL
USER_CHARGES


@<TRIPOS>ATOM
  1 O        2.2110     0.2940     2.1570 O.2   1 <1>  -0.5700 
  2 C        2.1170    -0.3210     1.1080 C.2   1 <1>   0.5440 
  3 N        2.2980     0.4220    -0.0330 N.am  1 <1>  -0.6600 
  4 C        1.9740    -1.7660     1.0920 C.ar  1 <1>   0.0860 
  5 C        3.6010     0.3280    -0.7600 C.3   1 <1>   0.1400 
  6 C        1.5000     1.6510    -0.2960 C.3   1 <1>   0.1400 
  7 C        1.5360    -2.4790    -0.0490 C.ar  1 <1>   0.0000 
  8 C        2.2820    -2.5180     2.2190 C.ar  1 <1>  -0.1500 
  9 C        4.7440     0.9830     0.0450 C.3   1 <1>   0.3430 
 10 C        2.0250     2.8800     0.4660 C.3   1 <1>  -0.1600 
 11 C        1.4680    -3.8730    -0.0300 C.ar  1 <1>  -0.1520 
 12 C        1.0970    -2.1000    -1.3390 C.2   1 <1>  -0.1500 
 13 C        2.2010    -3.9110     2.2360 C.ar  1 <1>  -0.1500 
 14 N        4.2360     1.9790     1.0460 N.4   1 <1>  -0.9590 
 15 C        3.5360     3.1120     0.3950 C.3   1 <1>   0.3430 
 16 N        1.0310    -4.3170    -1.2550 N.pl3 1 <1>   0.0480 
 17 C        1.8010    -4.5960     1.1160 C.ar  1 <1>  -0.1500 
 18 C        0.8080    -3.2240    -2.0350 C.2   1 <1>  -0.3020 
 19 C        5.3180     2.4230     1.9750 C.3   1 <1>   0.5240 
 20 C        0.8080    -5.7190    -1.6450 C.3   1 <1>   0.0160 
 21 C        6.2930     3.3910     1.3000 C.2   1 <1>   0.0460 
 22 N        6.9530     3.0650     0.1680 N.2   1 <1>  -0.5650 
 23 C        6.6250     4.6390     1.7000 C.2   1 <1>  -0.3020 
 24 C        7.6760     4.1060    -0.0890 C.2   1 <1>   0.0060 
 25 N        7.5190     5.1030     0.8080 N.pl3 1 <1>   0.0330 
 26 C        8.6180     4.2150    -1.2760 C.3   1 <1>   0.0200 
 27 C       10.0840     4.1540    -0.8260 C.3   1 <1>  -0.1600 
 28 C       11.0430     4.2370    -2.0200 C.3   1 <1>  -0.1600 
 29 C       12.5010     4.1710    -1.5590 C.3   1 <1>  -0.2400 
 30 H        3.5160     0.8120    -1.7170 H     1 <1>   0.0800 
 31 H        3.8420    -0.7050    -0.9450 H     1 <1>   0.0800 
 32 H        0.4780     1.4690    -0.0050 H     1 <1>   0.0800 
 33 H        1.5010     1.8500    -1.3540 H     1 <1>   0.0800 
 34 H        2.5980    -2.0190     3.1190 H     1 <1>   0.1500 
 35 H        5.4390     1.4480    -0.6340 H     1 <1>   0.0800 
 36 H        5.2770     0.2040     0.5650 H     1 <1>   0.0800 
 37 H        1.7250     2.8120     1.4970 H     1 <1>   0.0800 
 38 H        1.5330     3.7480     0.0660 H     1 <1>   0.0800 
 39 H        1.0050    -1.0890    -1.6890 H     1 <1>   0.1500 
 40 H        2.4540    -4.4450     3.1360 H     1 <1>   0.1500 
 41 H        3.5090     1.4680     1.5910 H     1 <1>   0.4500 
 42 H        3.7710     4.0300     0.9090 H     1 <1>   0.0800 
 43 H        3.8600     3.2130    -0.6290 H     1 <1>   0.0800 
 44 H        1.7370    -5.6700     1.1180 H     1 <1>   0.1500 
 45 H        0.4480    -3.3090    -3.0460 H     1 <1>   0.1500 
 46 H        5.8670     1.5660     2.3290 H     1 <1>   0.0800 
 47 H        4.8800     2.9130     2.8270 H     1 <1>   0.0800 
 48 H        0.0600    -6.1490    -1.0050 H     1 <1>   0.0800 
 49 H        1.7280    -6.2650    -1.5440 H     1 <1>   0.0800 
 50 H        0.4750    -5.7620    -2.6650 H     1 <1>   0.0800 
 51 H        6.2970     5.2150     2.5480 H     1 <1>   0.1500 
 52 H        7.9990     6.0100     0.8050 H     1 <1>   0.2700 
 53 H        8.4300     5.1360    -1.7990 H     1 <1>   0.0800 
 54 H        8.4190     3.4030    -1.9530 H     1 <1>   0.0800 
 55 H       10.2470     3.2290    -0.2990 H     1 <1>   0.0800 
 56 H       10.2880     4.9640    -0.1480 H     1 <1>   0.0800 
 57 H       10.8830     5.1580    -2.5550 H     1 <1>   0.0800 
 58 H       10.8520     3.4210    -2.6970 H     1 <1>   0.0800 
 59 H       12.7270     4.9920    -0.9010 H     1 <1>   0.0800 
 60 H       13.1580     4.2250    -2.4090 H     1 <1>   0.0800 
 61 H       12.6910     3.2480    -1.0400 H     1 <1>   0.0800 
@<TRIPOS>BOND
  1   1   2  2   
  2   2   3  am  
  3   2   4  1   
  4   3   5  1   
  5   3   6  1   
  6   4   7  ar  
  7   4   8  ar  
  8   5   9  1   
  9   5  30  1   
 10   5  31  1   
 11   6  10  1   
 12   6  32  1   
 13   6  33  1   
 14   7  11  ar  
 15   7  12  1   
 16   8  13  ar  
 17   8  34  1   
 18   9  14  1   
 19   9  35  1   
 20   9  36  1   
 21  10  15  1   
 22  10  37  1   
 23  10  38  1   
 24  11  16  1   
 25  11  17  ar  
 26  12  18  2   
 27  12  39  1   
 28  13  17  ar  
 29  13  40  1   
 30  14  15  1   
 31  14  19  1   
 32  14  41  1   
 33  15  42  1   
 34  15  43  1   
 35  16  18  1   
 36  16  20  1   
 37  17  44  1   
 38  18  45  1   
 39  19  21  1   
 40  19  46  1   
 41  19  47  1   
 42  20  48  1   
 43  20  49  1   
 44  20  50  1   
 45  21  22  1   
 46  21  23  2   
 47  22  24  2   
 48  23  25  1   
 49  23  51  1   
 50  24  25  1   
 51  24  26  1   
 52  25  52  1   
 53  26  27  1   
 54  26  53  1   
 55  26  54  1   
 56  27  28  1   
 57  27  55  1   
 58  27  56  1   
 59  28  29  1   
 60  28  57  1   
 61  28  58  1   
 62  29  59  1   
 63  29  60  1   
 64  29  61  1   
@<TRIPOS>SUBSTRUCTURE
  1 ****   9 GROUP 4 **** **** 0

# MOE 2024.06 (io_trps.svl 2023.06)
