@<TRIPOS>MOLECULE
NONAME
44 46 1 0 0 
SMALL
USER_CHARGES


@<TRIPOS>ATOM
  1 S       -0.2610    -0.2940     1.9950 S.o2  1 <1>   1.5000 
  2 O        0.0760     0.8310     2.8420 O.2   1 <1>  -0.6500 
  3 O       -0.9800    -1.4130     2.5680 O.2   1 <1>  -0.6500 
  4 N       -1.2220     0.3170     0.7400 N.am  1 <1>  -0.8490 
  5 C        1.1930    -0.9240     1.1210 C.2   1 <1>  -0.0220 
  6 C       -2.6000     0.5570     1.1970 C.3   1 <1>   0.1960 
  7 C       -0.6590     1.5390     0.1580 C.3   1 <1>   0.1960 
  8 S        2.7040    -0.0260     1.2490 S.3   1 <1>  -0.0800 
  9 C        1.3800    -1.9900     0.3150 C.2   1 <1>  -0.1500 
 10 C       -3.5360     0.9480     0.0250 C.3   1 <1>   0.0000 
 11 C       -1.4840     1.9780    -1.0570 C.3   1 <1>  -0.1600 
 12 C        3.5450    -1.1490     0.1950 C.2   1 <1>  -0.1400 
 13 C        2.7060    -2.1210    -0.2070 C.2   1 <1>  -0.1500 
 14 C       -4.9860     1.1880     0.4900 C.3   1 <1>   0.2000 
 15 C       -2.9600     2.1890    -0.6870 C.3   1 <1>  -0.1600 
 16 C       -3.7120    -0.2430    -0.9360 C.3   1 <1>  -0.1600 
 17 C        5.0100    -0.8530    -0.0740 C.3   1 <1>   0.0200 
 18 O       -5.0660     1.8000     1.7290 O.3   1 <1>  -0.6800 
 19 C       -5.6730    -0.1790     0.5310 C.3   1 <1>  -0.1600 
 20 C       -4.7950    -1.1220    -0.3040 C.3   1 <1>  -0.1600 
 21 C        5.6460    -1.8860    -1.0090 C.3   1 <1>  -0.2400 
 22 H       -2.9850    -0.3310     1.6680 H     1 <1>   0.0800 
 23 H       -2.5890     1.3420     1.9360 H     1 <1>   0.0800 
 24 H       -0.6480     2.3280     0.8930 H     1 <1>   0.0800 
 25 H        0.3550     1.3600    -0.1580 H     1 <1>   0.0800 
 26 H        0.6160    -2.7040     0.0610 H     1 <1>   0.1500 
 27 H       -1.0780     2.8940    -1.4470 H     1 <1>   0.0800 
 28 H       -1.3970     1.2300    -1.8250 H     1 <1>   0.0800 
 29 H        2.9600    -2.9400    -0.8570 H     1 <1>   0.1500 
 30 H       -5.4920     1.8200    -0.2210 H     1 <1>   0.0800 
 31 H       -3.5290     2.4160    -1.5720 H     1 <1>   0.0800 
 32 H       -3.0360     3.0340    -0.0250 H     1 <1>   0.0800 
 33 H       -4.0680     0.1100    -1.8880 H     1 <1>   0.0800 
 34 H       -2.8000    -0.7910    -1.0960 H     1 <1>   0.0800 
 35 H        5.0940     0.1250    -0.5140 H     1 <1>   0.0800 
 36 H        5.5420    -0.8440     0.8610 H     1 <1>   0.0800 
 37 H       -4.8590     1.1600     2.4350 H     1 <1>   0.4000 
 38 H       -5.7560    -0.5550     1.5350 H     1 <1>   0.0800 
 39 H       -6.6550    -0.1020     0.0980 H     1 <1>   0.0800 
 40 H       -4.3340    -1.8510     0.3410 H     1 <1>   0.0800 
 41 H       -5.3670    -1.6390    -1.0560 H     1 <1>   0.0800 
 42 H        5.1370    -1.8940    -1.9570 H     1 <1>   0.0800 
 43 H        5.5900    -2.8680    -0.5720 H     1 <1>   0.0800 
 44 H        6.6800    -1.6430    -1.1760 H     1 <1>   0.0800 
@<TRIPOS>BOND
  1   1   2  2   
  2   1   3  2   
  3   1   4  am  
  4   1   5  1   
  5   4   6  1   
  6   4   7  1   
  7   5   8  1   
  8   5   9  2   
  9   6  10  1   
 10   6  22  1   
 11   6  23  1   
 12   7  11  1   
 13   7  24  1   
 14   7  25  1   
 15   8  12  1   
 16   9  13  1   
 17   9  26  1   
 18  10  14  1   
 19  10  15  1   
 20  10  16  1   
 21  11  15  1   
 22  11  27  1   
 23  11  28  1   
 24  12  13  2   
 25  12  17  1   
 26  13  29  1   
 27  14  18  1   
 28  14  19  1   
 29  14  30  1   
 30  15  31  1   
 31  15  32  1   
 32  16  20  1   
 33  16  33  1   
 34  16  34  1   
 35  17  21  1   
 36  17  35  1   
 37  17  36  1   
 38  18  37  1   
 39  19  20  1   
 40  19  38  1   
 41  19  39  1   
 42  20  40  1   
 43  20  41  1   
 44  21  42  1   
 45  21  43  1   
 46  21  44  1   
@<TRIPOS>SUBSTRUCTURE
  1 ****   4 GROUP 4 **** **** 0

# MOE 2024.06 (io_trps.svl 2023.06)
