@<TRIPOS>MOLECULE
NONAME
55 58 1 0 0 
SMALL
USER_CHARGES


@<TRIPOS>ATOM
  1 O        0.3130     2.3660    -1.3600 O.3   1 <1>  -0.3630 
  2 C        1.5300     2.0810    -0.8260 C.ar  1 <1>   0.0830 
  3 C       -0.0450     3.6860    -1.7220 C.3   1 <1>   0.0400 
  4 C        1.9160     0.7630    -0.7580 C.ar  1 <1>  -0.1440 
  5 C        2.3810     3.0860    -0.3330 C.ar  1 <1>  -0.1500 
  6 C        3.1600     0.3860    -0.1930 C.ar  1 <1>   0.0000 
  7 C        0.9590    -0.2830    -1.2930 C.3   1 <1>   0.4870 
  8 C        3.5820     2.7480     0.2190 C.ar  1 <1>  -0.1500 
  9 C        3.9990     1.4070     0.3110 C.ar  1 <1>   0.0000 
 10 C        3.6230    -0.9500    -0.0900 C.ar  1 <1>  -0.1500 
 11 N       -0.2010    -0.3640    -0.3720 N.4   1 <1>  -0.9590 
 12 C        5.2330     1.0630     0.8960 C.ar  1 <1>  -0.1500 
 13 C        4.8260    -1.2540     0.4840 C.ar  1 <1>  -0.1500 
 14 C       -1.2640    -1.2890    -0.8560 C.3   1 <1>   0.3430 
 15 C        0.1600    -0.7470     1.0290 C.3   1 <1>   0.3430 
 16 C        5.6420    -0.2360     0.9850 C.ar  1 <1>  -0.1500 
 17 C       -1.8050    -1.9590     0.3990 C.3   1 <1>  -0.0800 
 18 C       -0.5690    -2.0610     1.3010 C.3   1 <1>  -0.0800 
 19 C       -2.5400    -3.2890     0.1240 C.3   1 <1>   0.2800 
 20 C        0.3430    -3.2550     0.9480 C.3   1 <1>  -0.1600 
 21 O       -3.3120    -3.0940    -0.9990 O.3   1 <1>  -0.6800 
 22 C       -1.5590    -4.4250    -0.2180 C.3   1 <1>  -0.1600 
 23 C       -3.4810    -3.7040     1.2810 C.3   1 <1>  -0.1600 
 24 C       -0.4420    -4.5640     0.8260 C.3   1 <1>  -0.1600 
 25 C       -4.6940    -2.7890     1.5400 C.3   1 <1>  -0.2400 
 26 H       -0.9910     3.6520    -2.2320 H     1 <1>   0.0800 
 27 H        0.7080     4.0860    -2.3800 H     1 <1>   0.0800 
 28 H       -0.1340     4.2840    -0.8330 H     1 <1>   0.0800 
 29 H        2.0990     4.1210    -0.3790 H     1 <1>   0.1500 
 30 H        1.4330    -1.2430    -1.3890 H     1 <1>   0.0800 
 31 H        0.6220     0.0240    -2.2700 H     1 <1>   0.0800 
 32 H        4.2370     3.5130     0.5990 H     1 <1>   0.1500 
 33 H        3.0350    -1.7620    -0.4670 H     1 <1>   0.1500 
 34 H       -0.5690     0.6000    -0.3490 H     1 <1>   0.4500 
 35 H        5.8590     1.8510     1.2770 H     1 <1>   0.1500 
 36 H        5.1680    -2.2730     0.5570 H     1 <1>   0.1500 
 37 H       -2.0450    -0.7680    -1.3870 H     1 <1>   0.0800 
 38 H       -0.8410    -2.0410    -1.5010 H     1 <1>   0.0800 
 39 H        1.2250    -0.8570     1.1570 H     1 <1>   0.0800 
 40 H       -0.1950     0.0100     1.7090 H     1 <1>   0.0800 
 41 H        6.5870    -0.4920     1.4340 H     1 <1>   0.1500 
 42 H       -2.4950    -1.2660     0.8430 H     1 <1>   0.0800 
 43 H       -0.8570    -2.1280     2.3370 H     1 <1>   0.0800 
 44 H        0.8470    -3.0800     0.0140 H     1 <1>   0.0800 
 45 H        1.1000    -3.3670     1.7070 H     1 <1>   0.0800 
 46 H       -3.9380    -3.8400    -1.0930 H     1 <1>   0.4000 
 47 H       -2.0870    -5.3600    -0.2890 H     1 <1>   0.0800 
 48 H       -1.1070    -4.2360    -1.1760 H     1 <1>   0.0800 
 49 H       -3.8510    -4.6960     1.0900 H     1 <1>   0.0800 
 50 H       -2.9100    -3.7640     2.1910 H     1 <1>   0.0800 
 51 H       -0.8550    -4.8340     1.7830 H     1 <1>   0.0800 
 52 H        0.2260    -5.3550     0.5300 H     1 <1>   0.0800 
 53 H       -5.3010    -2.6910     0.6580 H     1 <1>   0.0800 
 54 H       -4.3900    -1.8100     1.8610 H     1 <1>   0.0800 
 55 H       -5.3050    -3.2130     2.3180 H     1 <1>   0.0800 
@<TRIPOS>BOND
  1   1   2  1   
  2   1   3  1   
  3   2   4  ar  
  4   2   5  ar  
  5   3  26  1   
  6   3  27  1   
  7   3  28  1   
  8   4   6  ar  
  9   4   7  1   
 10   5   8  ar  
 11   5  29  1   
 12   6   9  ar  
 13   6  10  ar  
 14   7  11  1   
 15   7  30  1   
 16   7  31  1   
 17   8   9  ar  
 18   8  32  1   
 19   9  12  ar  
 20  10  13  ar  
 21  10  33  1   
 22  11  14  1   
 23  11  15  1   
 24  11  34  1   
 25  12  16  ar  
 26  12  35  1   
 27  13  16  ar  
 28  13  36  1   
 29  14  17  1   
 30  14  37  1   
 31  14  38  1   
 32  15  18  1   
 33  15  39  1   
 34  15  40  1   
 35  16  41  1   
 36  17  18  1   
 37  17  19  1   
 38  17  42  1   
 39  18  20  1   
 40  18  43  1   
 41  19  21  1   
 42  19  22  1   
 43  19  23  1   
 44  20  24  1   
 45  20  44  1   
 46  20  45  1   
 47  21  46  1   
 48  22  24  1   
 49  22  47  1   
 50  22  48  1   
 51  23  25  1   
 52  23  49  1   
 53  23  50  1   
 54  24  51  1   
 55  24  52  1   
 56  25  53  1   
 57  25  54  1   
 58  25  55  1   
@<TRIPOS>SUBSTRUCTURE
  1 ****  11 GROUP 4 **** **** 0

# MOE 2024.06 (io_trps.svl 2023.06)
