@<TRIPOS>MOLECULE
NONAME
50 54 1 0 0 
SMALL
USER_CHARGES


@<TRIPOS>ATOM
  1 O       -0.7100    -1.0410     1.5530 O.2   1 <1>  -0.5700 
  2 C       -1.0190     0.1280     1.5920 C.2   1 <1>   0.5690 
  3 N       -2.1590     0.5920     0.9770 N.am  1 <1>  -0.6600 
  4 C       -0.1000     1.0520     2.3840 C.3   1 <1>   0.0440 
  5 C       -2.5550     2.0350     0.8710 C.3   1 <1>   0.1400 
  6 C       -3.1500    -0.3530     0.3840 C.3   1 <1>   0.1400 
  7 C        0.7950     1.9240     1.5080 C.ar  1 <1>  -0.1440 
  8 C       -2.8430     2.4410    -0.5890 C.3   1 <1>   0.1440 
  9 C       -3.4440     0.0180    -1.0730 C.3   1 <1>  -0.1600 
 10 C        0.8770     3.2940     1.7400 C.ar  1 <1>  -0.1500 
 11 C        1.5420     1.3460     0.4810 C.ar  1 <1>  -0.1500 
 12 C       -3.3150     3.8830    -0.6000 C.ar  1 <1>   0.1660 
 13 C       -3.8870     1.4850    -1.2030 C.3   1 <1>  -0.1600 
 14 C       -1.5480     2.5010    -1.4430 C.3   1 <1>  -0.1600 
 15 C        1.7000     4.0460     0.9260 C.ar  1 <1>   0.0820 
 16 C        2.3630     2.1200    -0.3300 C.ar  1 <1>  -0.1500 
 17 N       -4.4740     4.3090    -0.1460 N.ar  1 <1>  -0.6200 
 18 C       -2.3770     4.7180    -1.1280 C.ar  1 <1>  -0.1430 
 19 C       -1.1330     3.9790    -1.5490 C.3   1 <1>  -0.0170 
 20 O        1.9200     5.3640     0.9610 O.3   1 <1>  -0.3630 
 21 C        2.4200     3.4760    -0.0830 C.ar  1 <1>   0.0820 
 22 C       -4.6580     5.6170    -0.2570 C.ar  1 <1>   0.4770 
 23 C       -2.6720     6.0570    -1.1920 C.ar  1 <1>   0.1600 
 24 C        2.8620     5.6480    -0.0710 C.3   1 <1>   0.4000 
 25 O        3.1260     4.4100    -0.7290 O.3   1 <1>  -0.3630 
 26 N       -3.8250     6.5210    -0.7550 N.ar  1 <1>  -0.6200 
 27 C       -5.9810     6.1470     0.2400 C.3   1 <1>  -0.0970 
 28 H        0.5290     0.4460     3.0100 H     1 <1>   0.0800 
 29 H       -0.7010     1.6570     3.0350 H     1 <1>   0.0800 
 30 H       -1.7930     2.6800     1.2650 H     1 <1>   0.0800 
 31 H       -3.4460     2.1880     1.4560 H     1 <1>   0.0800 
 32 H       -4.0590    -0.3060     0.9600 H     1 <1>   0.0800 
 33 H       -2.7860    -1.3660     0.4270 H     1 <1>   0.0800 
 34 H       -4.2190    -0.6250    -1.4500 H     1 <1>   0.0800 
 35 H       -2.5610    -0.1600    -1.6610 H     1 <1>   0.0800 
 36 H        0.3250     3.7770     2.5260 H     1 <1>   0.1500 
 37 H        1.4850     0.2840     0.3080 H     1 <1>   0.1500 
 38 H       -4.0550     1.7330    -2.2370 H     1 <1>   0.0800 
 39 H       -4.8230     1.6120    -0.6870 H     1 <1>   0.0800 
 40 H       -1.7510     2.1420    -2.4370 H     1 <1>   0.0800 
 41 H       -0.7580     1.8990    -1.0310 H     1 <1>   0.0800 
 42 H        2.9400     1.6860    -1.1260 H     1 <1>   0.1500 
 43 H       -0.8380     4.2340    -2.5520 H     1 <1>   0.0800 
 44 H       -0.3340     4.2010    -0.8680 H     1 <1>   0.0800 
 45 H       -1.9610     6.7540    -1.6000 H     1 <1>   0.1500 
 46 H        3.7710     6.0250     0.3640 H     1 <1>   0.0800 
 47 H        2.4350     6.3460    -0.7690 H     1 <1>   0.0800 
 48 H       -6.4080     5.4700     0.9580 H     1 <1>   0.0800 
 49 H       -6.6540     6.2510    -0.5900 H     1 <1>   0.0800 
 50 H       -5.8410     7.1050     0.7040 H     1 <1>   0.0800 
@<TRIPOS>BOND
  1   1   2  2   
  2   2   3  am  
  3   2   4  1   
  4   3   5  1   
  5   3   6  1   
  6   4   7  1   
  7   4  28  1   
  8   4  29  1   
  9   5   8  1   
 10   5  30  1   
 11   5  31  1   
 12   6   9  1   
 13   6  32  1   
 14   6  33  1   
 15   7  10  ar  
 16   7  11  ar  
 17   8  12  1   
 18   8  13  1   
 19   8  14  1   
 20   9  13  1   
 21   9  34  1   
 22   9  35  1   
 23  10  15  ar  
 24  10  36  1   
 25  11  16  ar  
 26  11  37  1   
 27  12  17  ar  
 28  12  18  ar  
 29  13  38  1   
 30  13  39  1   
 31  14  19  1   
 32  14  40  1   
 33  14  41  1   
 34  15  20  1   
 35  15  21  ar  
 36  16  21  ar  
 37  16  42  1   
 38  17  22  ar  
 39  18  19  1   
 40  18  23  ar  
 41  19  43  1   
 42  19  44  1   
 43  20  24  1   
 44  21  25  1   
 45  22  26  ar  
 46  22  27  1   
 47  23  26  ar  
 48  23  45  1   
 49  24  25  1   
 50  24  46  1   
 51  24  47  1   
 52  27  48  1   
 53  27  49  1   
 54  27  50  1   
@<TRIPOS>SUBSTRUCTURE
  1 ****  14 GROUP 4 **** **** 0

# MOE 2024.06 (io_trps.svl 2023.06)
