@<TRIPOS>MOLECULE
NONAME
56 60 1 0 0 
SMALL
USER_CHARGES


@<TRIPOS>ATOM
  1 O       -0.6250     0.3020     0.5430 O.2   1 <1>  -0.5700 
  2 C       -1.6000     0.9250     0.1510 C.2   1 <1>   0.7150 
  3 N       -2.8280     0.3020     0.2600 N.am  1 <1>  -0.6600 
  4 C       -1.4400     2.2670    -0.3790 C.2   1 <1>   0.1020 
  5 C       -4.1310     0.9120    -0.0850 C.3   1 <1>   0.1400 
  6 C       -2.9880    -1.0720     0.7790 C.3   1 <1>   0.1400 
  7 N       -2.1520     2.8060    -1.3360 N.2   1 <1>  -0.3380 
  8 N       -0.5100     3.1530     0.0400 N.pl3 1 <1>   0.0480 
  9 C       -5.1900    -0.0530     0.4610 C.3   1 <1>  -0.0800 
 10 C       -4.4760    -1.4080     0.6500 C.3   1 <1>  -0.0800 
 11 N       -1.6910     4.0280    -1.5550 N.2   1 <1>  -0.3380 
 12 C       -0.7160     4.2140    -0.7360 C.2   1 <1>   0.0060 
 13 C        0.4950     3.0550     1.1260 C.3   1 <1>   0.0960 
 14 C       -6.5210    -0.1040    -0.3370 C.3   1 <1>   0.4240 
 15 C       -4.7680    -2.3830    -0.5030 C.3   1 <1>  -0.1600 
 16 C        0.1020     5.4900    -0.6780 C.3   1 <1>   0.0200 
 17 C        1.9240     3.1630     0.5770 C.3   1 <1>  -0.1600 
 18 O       -6.2670    -0.0180    -1.6940 O.3   1 <1>  -0.6800 
 19 C       -7.4200     1.0850     0.0590 C.ar  1 <1>  -0.1440 
 20 C       -7.1700    -1.4900    -0.1540 C.3   1 <1>  -0.1600 
 21 C       -6.2800    -2.6550    -0.6510 C.3   1 <1>  -0.1600 
 22 C        1.5900     5.2300    -0.9540 C.3   1 <1>  -0.1600 
 23 C        2.3500     4.5990     0.2250 C.3   1 <1>  -0.1600 
 24 C       -7.2470     2.3250    -0.5500 C.ar  1 <1>  -0.1500 
 25 C       -8.4000     0.9740     1.0420 C.ar  1 <1>  -0.1500 
 26 C       -8.0250     3.4130    -0.1980 C.ar  1 <1>  -0.1500 
 27 C       -9.1830     2.0600     1.3950 C.ar  1 <1>  -0.1500 
 28 C       -8.9970     3.2820     0.7760 C.ar  1 <1>  -0.1500 
 29 H       -4.2320     1.8870     0.3620 H     1 <1>   0.0800 
 30 H       -4.1830     1.0140    -1.1540 H     1 <1>   0.0800 
 31 H       -2.3700    -1.7570     0.2230 H     1 <1>   0.0800 
 32 H       -2.6880    -1.0900     1.8130 H     1 <1>   0.0800 
 33 H       -5.4340     0.2940     1.4490 H     1 <1>   0.0800 
 34 H       -4.8070    -1.8710     1.5640 H     1 <1>   0.0800 
 35 H        0.3130     3.8410     1.8360 H     1 <1>   0.0800 
 36 H        0.3830     2.1220     1.6440 H     1 <1>   0.0800 
 37 H       -4.3800    -1.9670    -1.4170 H     1 <1>   0.0800 
 38 H       -4.2530    -3.3140    -0.3360 H     1 <1>   0.0800 
 39 H       -0.2760     6.1620    -1.4300 H     1 <1>   0.0800 
 40 H       -0.0290     5.9670     0.2770 H     1 <1>   0.0800 
 41 H        2.5940     2.8010     1.3380 H     1 <1>   0.0800 
 42 H        2.0370     2.5150    -0.2760 H     1 <1>   0.0800 
 43 H       -5.7700    -0.8120    -1.9540 H     1 <1>   0.4000 
 44 H       -7.3490    -1.6440     0.8940 H     1 <1>   0.0800 
 45 H       -8.1250    -1.5120    -0.6490 H     1 <1>   0.0800 
 46 H       -6.5390    -3.5400    -0.0940 H     1 <1>   0.0800 
 47 H       -6.4970    -2.8600    -1.6860 H     1 <1>   0.0800 
 48 H        1.6870     4.6090    -1.8290 H     1 <1>   0.0800 
 49 H        2.0550     6.1740    -1.1820 H     1 <1>   0.0800 
 50 H        2.2520     5.2280     1.0930 H     1 <1>   0.0800 
 51 H        3.3960     4.5790    -0.0310 H     1 <1>   0.0800 
 52 H       -6.4970     2.4530    -1.3130 H     1 <1>   0.1500 
 53 H       -8.5740     0.0460     1.5520 H     1 <1>   0.1500 
 54 H       -7.8720     4.3600    -0.6850 H     1 <1>   0.1500 
 55 H       -9.9380     1.9550     2.1550 H     1 <1>   0.1500 
 56 H       -9.6040     4.1270     1.0500 H     1 <1>   0.1500 
@<TRIPOS>BOND
  1   1   2  2   
  2   2   3  am  
  3   2   4  1   
  4   3   5  1   
  5   3   6  1   
  6   4   7  2   
  7   4   8  1   
  8   5   9  1   
  9   5  29  1   
 10   5  30  1   
 11   6  10  1   
 12   6  31  1   
 13   6  32  1   
 14   7  11  1   
 15   8  12  1   
 16   8  13  1   
 17   9  10  1   
 18   9  14  1   
 19   9  33  1   
 20  10  15  1   
 21  10  34  1   
 22  11  12  2   
 23  12  16  1   
 24  13  17  1   
 25  13  35  1   
 26  13  36  1   
 27  14  18  1   
 28  14  19  1   
 29  14  20  1   
 30  15  21  1   
 31  15  37  1   
 32  15  38  1   
 33  16  22  1   
 34  16  39  1   
 35  16  40  1   
 36  17  23  1   
 37  17  41  1   
 38  17  42  1   
 39  18  43  1   
 40  19  24  ar  
 41  19  25  ar  
 42  20  21  1   
 43  20  44  1   
 44  20  45  1   
 45  21  46  1   
 46  21  47  1   
 47  22  23  1   
 48  22  48  1   
 49  22  49  1   
 50  23  50  1   
 51  23  51  1   
 52  24  26  ar  
 53  24  52  1   
 54  25  27  ar  
 55  25  53  1   
 56  26  28  ar  
 57  26  54  1   
 58  27  28  ar  
 59  27  55  1   
 60  28  56  1   
@<TRIPOS>SUBSTRUCTURE
  1 ****   5 GROUP 4 **** **** 0

# MOE 2024.06 (io_trps.svl 2023.06)
