@<TRIPOS>MOLECULE
NONAME
51 53 1 0 0 
SMALL
USER_CHARGES


@<TRIPOS>ATOM
  1 O        0.4500     0.1300    -1.0320 O.3   1 <1>  -0.6800 
  2 C        0.9130    -1.0690    -1.5830 C.3   1 <1>   0.1200 
  3 C        2.4030    -0.9370    -1.9520 C.3   1 <1>   0.3430 
  4 N        3.1070    -0.1130    -0.9270 N.4   1 <1>  -0.9590 
  5 C        3.8450     1.0110    -1.5570 C.3   1 <1>   0.4860 
  6 C        3.9610    -0.9320    -0.0150 C.3   1 <1>   0.5240 
  7 C        4.4120     1.9650    -0.5030 C.ar  1 <1>  -0.1430 
  8 C        3.1690    -2.0290     0.6890 C.2   1 <1>   0.0460 
  9 C        5.7200     1.8340     0.0020 C.ar  1 <1>  -0.0230 
 10 C        3.6010     3.0080    -0.0580 C.ar  1 <1>  -0.1430 
 11 N        2.8360    -3.1750     0.0560 N.2   1 <1>  -0.5650 
 12 C        2.7200    -2.0420     1.9640 C.2   1 <1>  -0.3020 
 13 N        6.6190     0.7720    -0.3500 N.pl3 1 <1>   0.5930 
 14 C        6.1750     2.7790     0.9210 C.ar  1 <1>  -0.1500 
 15 C        4.0840     3.9120     0.8730 C.ar  1 <1>  -0.1500 
 16 C        2.1750     3.2210    -0.5590 C.3   1 <1>  -0.0970 
 17 C        2.2040    -3.8580     0.9530 C.2   1 <1>   0.0060 
 18 N        2.0970    -3.2210     2.1400 N.pl3 1 <1>   0.0330 
 19 N        6.6230     0.1260    -1.5470 N.2   1 <1>  -0.7070 
 20 C        7.4990     0.1620     0.4840 C.2   1 <1>  -0.3020 
 21 C        5.3690     3.8070     1.3630 C.ar  1 <1>  -0.1430 
 22 C        1.6370    -5.2420     0.7160 C.3   1 <1>  -0.0600 
 23 C        7.5120    -0.8140    -1.4450 C.2   1 <1>   0.1390 
 24 C        8.0920    -0.8460    -0.1860 C.2   1 <1>  -0.1500 
 25 C        5.8830     4.8210     2.3700 C.3   1 <1>  -0.0970 
 26 H       -0.5090     0.0660    -0.8300 H     1 <1>   0.4000 
 27 H        0.3290    -1.3010    -2.4570 H     1 <1>   0.0800 
 28 H        0.7710    -1.8500    -0.8550 H     1 <1>   0.0800 
 29 H        2.4710    -0.4630    -2.9160 H     1 <1>   0.0800 
 30 H        2.8500    -1.9150    -2.0340 H     1 <1>   0.0800 
 31 H        2.3390     0.2930    -0.3690 H     1 <1>   0.4500 
 32 H        3.1650     1.5630    -2.1830 H     1 <1>   0.0800 
 33 H        4.6130     0.6370    -2.2070 H     1 <1>   0.0800 
 34 H        4.3920    -0.2960     0.7390 H     1 <1>   0.0800 
 35 H        4.7650    -1.3860    -0.5710 H     1 <1>   0.0800 
 36 H        2.8080    -1.3050     2.7440 H     1 <1>   0.1500 
 37 H        7.1810     2.7190     1.3000 H     1 <1>   0.1500 
 38 H        3.4600     4.7190     1.2200 H     1 <1>   0.1500 
 39 H        1.5420     2.4120    -0.2450 H     1 <1>   0.0800 
 40 H        2.1520     3.2990    -1.6310 H     1 <1>   0.0800 
 41 H        1.7600     4.1310    -0.1640 H     1 <1>   0.0800 
 42 H        1.6460    -3.5750     2.9900 H     1 <1>   0.2700 
 43 H        7.6540     0.4760     1.5000 H     1 <1>   0.1500 
 44 H        1.8450    -5.5560    -0.2910 H     1 <1>   0.0800 
 45 H        0.5730    -5.2390     0.8640 H     1 <1>   0.0800 
 46 H        2.0870    -5.9460     1.3920 H     1 <1>   0.0800 
 47 H        7.7640    -1.4910    -2.2460 H     1 <1>   0.1500 
 48 H        8.8460    -1.5390     0.1480 H     1 <1>   0.1500 
 49 H        6.7350     4.4380     2.9010 H     1 <1>   0.0800 
 50 H        5.1170     5.0570     3.0870 H     1 <1>   0.0800 
 51 H        6.1710     5.7240     1.8620 H     1 <1>   0.0800 
@<TRIPOS>BOND
  1   1   2  1   
  2   1  26  1   
  3   2   3  1   
  4   2  27  1   
  5   2  28  1   
  6   3   4  1   
  7   3  29  1   
  8   3  30  1   
  9   4   5  1   
 10   4   6  1   
 11   4  31  1   
 12   5   7  1   
 13   5  32  1   
 14   5  33  1   
 15   6   8  1   
 16   6  34  1   
 17   6  35  1   
 18   7   9  ar  
 19   7  10  ar  
 20   8  11  1   
 21   8  12  2   
 22   9  13  1   
 23   9  14  ar  
 24  10  15  ar  
 25  10  16  1   
 26  11  17  2   
 27  12  18  1   
 28  12  36  1   
 29  13  19  1   
 30  13  20  1   
 31  14  21  ar  
 32  14  37  1   
 33  15  21  ar  
 34  15  38  1   
 35  16  39  1   
 36  16  40  1   
 37  16  41  1   
 38  17  18  1   
 39  17  22  1   
 40  18  42  1   
 41  19  23  2   
 42  20  24  2   
 43  20  43  1   
 44  21  25  1   
 45  22  44  1   
 46  22  45  1   
 47  22  46  1   
 48  23  24  1   
 49  23  47  1   
 50  24  48  1   
 51  25  49  1   
 52  25  50  1   
 53  25  51  1   
@<TRIPOS>SUBSTRUCTURE
  1 ****   6 GROUP 4 **** **** 0

# MOE 2024.06 (io_trps.svl 2023.06)
