@<TRIPOS>MOLECULE
NONAME
56 59 1 0 0 
SMALL
USER_CHARGES


@<TRIPOS>ATOM
  1 O       -0.8520     0.2900    -0.5580 O.2   1 <1>  -0.5700 
  2 C       -1.7530     0.9490    -0.0720 C.2   1 <1>   0.5440 
  3 N       -2.8490     0.2810     0.4280 N.am  1 <1>  -0.6600 
  4 C       -1.6660     2.3960    -0.0560 C.ar  1 <1>   0.0860 
  5 C       -2.8010    -1.1860     0.7190 C.3   1 <1>   0.1400 
  6 C       -4.2460     0.7730     0.2260 C.3   1 <1>   0.1400 
  7 C       -2.1580     3.1530     1.0100 C.ar  1 <1>  -0.1500 
  8 C       -1.0740     3.0930    -1.1120 C.ar  1 <1>  -0.1500 
  9 C       -3.6160    -1.9750    -0.3200 C.3   1 <1>   0.3440 
 10 C       -5.0050    -0.1250    -0.7820 C.3   1 <1>   0.2950 
 11 C       -2.0730     4.5310     1.0140 C.ar  1 <1>  -0.1500 
 12 C       -0.9890     4.4710    -1.1090 C.ar  1 <1>  -0.1500 
 13 O       -4.9230    -1.4650    -0.3910 O.3   1 <1>  -0.5600 
 14 C       -3.6590    -3.4570     0.0460 C.ar  1 <1>  -0.1440 
 15 C       -6.5010     0.2020    -0.9350 C.3   1 <1>  -0.1950 
 16 C       -1.4850     5.2120    -0.0420 C.ar  1 <1>   0.1000 
 17 C       -4.6650    -3.9800     0.8470 C.ar  1 <1>  -0.1500 
 18 C       -2.6630    -4.3030    -0.4210 C.ar  1 <1>  -0.1500 
 19 C       -7.0740     1.5790    -0.7750 C.3   1 <1>  -0.2000 
 20 C       -7.4120     0.4990     0.2160 C.3   1 <1>  -0.2000 
 21 N       -1.3990     6.5930    -0.0120 N.pl3 1 <1>  -0.8380 
 22 C       -4.6750    -5.3240     1.1770 C.ar  1 <1>  -0.1500 
 23 C       -2.6710    -5.6480    -0.0920 C.ar  1 <1>  -0.1500 
 24 C       -0.0810     7.2550    -0.2330 C.3   1 <1>   0.2090 
 25 C       -2.6020     7.3820    -0.3860 C.3   1 <1>   0.1290 
 26 C       -3.6770    -6.1590     0.7080 C.ar  1 <1>  -0.1500 
 27 C        0.3020     8.0730     1.0020 C.3   1 <1>   0.1200 
 28 O        1.5800     8.5970     0.8450 O.3   1 <1>  -0.6800 
 29 H       -1.7850    -1.5400     0.7170 H     1 <1>   0.0800 
 30 H       -3.2070    -1.3700     1.6980 H     1 <1>   0.0800 
 31 H       -4.7570     0.7690     1.1710 H     1 <1>   0.0800 
 32 H       -4.2360     1.7800    -0.1470 H     1 <1>   0.0800 
 33 H       -2.6050     2.6470     1.8480 H     1 <1>   0.1500 
 34 H       -0.6770     2.5340    -1.9420 H     1 <1>   0.1500 
 35 H       -3.1620    -1.8640    -1.2900 H     1 <1>   0.0800 
 36 H       -4.5370    -0.0310    -1.7470 H     1 <1>   0.0800 
 37 H       -2.4530     5.1010     1.8420 H     1 <1>   0.1500 
 38 H       -0.5370     4.9850    -1.9370 H     1 <1>   0.1500 
 39 H       -6.9240    -0.3900    -1.7290 H     1 <1>   0.1000 
 40 H       -5.4490    -3.3390     1.2150 H     1 <1>   0.1500 
 41 H       -1.8720    -3.9180    -1.0420 H     1 <1>   0.1500 
 42 H       -6.4640     2.3980    -0.4360 H     1 <1>   0.1000 
 43 H       -7.8370     1.9000    -1.4630 H     1 <1>   0.1000 
 44 H       -8.3990     0.0680     0.2030 H     1 <1>   0.1000 
 45 H       -7.0090     0.5550     1.2120 H     1 <1>   0.1000 
 46 H       -5.4610    -5.7180     1.7970 H     1 <1>   0.1500 
 47 H       -1.8940    -6.2960    -0.4580 H     1 <1>   0.1500 
 48 H        0.6700     6.5030    -0.4010 H     1 <1>   0.0800 
 49 H       -0.1330     7.8960    -1.0960 H     1 <1>   0.0800 
 50 H       -2.7020     8.2280     0.2700 H     1 <1>   0.0800 
 51 H       -3.4840     6.7710    -0.3020 H     1 <1>   0.0800 
 52 H       -2.5150     7.7270    -1.4020 H     1 <1>   0.0800 
 53 H       -3.6840    -7.2040     0.9640 H     1 <1>   0.1500 
 54 H        0.2950     7.4540     1.8820 H     1 <1>   0.0800 
 55 H       -0.3800     8.8950     1.1310 H     1 <1>   0.0800 
 56 H        2.2500     7.8880     0.9000 H     1 <1>   0.4000 
@<TRIPOS>BOND
  1   1   2  2   
  2   2   3  am  
  3   2   4  1   
  4   3   5  1   
  5   3   6  1   
  6   4   7  ar  
  7   4   8  ar  
  8   5   9  1   
  9   5  29  1   
 10   5  30  1   
 11   6  10  1   
 12   6  31  1   
 13   6  32  1   
 14   7  11  ar  
 15   7  33  1   
 16   8  12  ar  
 17   8  34  1   
 18   9  13  1   
 19   9  14  1   
 20   9  35  1   
 21  10  13  1   
 22  10  15  1   
 23  10  36  1   
 24  11  16  ar  
 25  11  37  1   
 26  12  16  ar  
 27  12  38  1   
 28  14  17  ar  
 29  14  18  ar  
 30  15  19  1   
 31  15  20  1   
 32  15  39  1   
 33  16  21  1   
 34  17  22  ar  
 35  17  40  1   
 36  18  23  ar  
 37  18  41  1   
 38  19  20  1   
 39  19  42  1   
 40  19  43  1   
 41  20  44  1   
 42  20  45  1   
 43  21  24  1   
 44  21  25  1   
 45  22  26  ar  
 46  22  46  1   
 47  23  26  ar  
 48  23  47  1   
 49  24  27  1   
 50  24  48  1   
 51  24  49  1   
 52  25  50  1   
 53  25  51  1   
 54  25  52  1   
 55  26  53  1   
 56  27  28  1   
 57  27  54  1   
 58  27  55  1   
 59  28  56  1   
@<TRIPOS>SUBSTRUCTURE
  1 ****   3 GROUP 4 **** **** 0

# MOE 2024.06 (io_trps.svl 2023.06)
