@<TRIPOS>MOLECULE
NONAME
46 49 1 0 0 
SMALL
USER_CHARGES


@<TRIPOS>ATOM
  1 S        2.2400    -0.1870     2.7830 S.3   1 <1>  -0.0800 
  2 C        1.6950    -0.3170     1.1140 C.2   1 <1>   0.3250 
  3 C        1.7010    -1.7970     3.0970 C.2   1 <1>  -0.1100 
  4 N        1.1700    -1.4770     0.8800 N.2   1 <1>  -0.5650 
  5 C        1.8790     0.8280     0.2270 C.ar  1 <1>   0.6730 
  6 C        1.1570    -2.3380     1.9860 C.2   1 <1>   0.1410 
  7 N        1.3980     0.7350    -1.0240 N.ar  1 <1>  -0.6200 
  8 N        2.5170     1.9090     0.7050 N.ar  1 <1>  -0.6200 
  9 C        0.6160    -3.7000     1.9350 C.2   1 <1>   0.7160 
 10 C        1.5700     1.7660    -1.8150 C.ar  1 <1>   0.1600 
 11 C        2.6740     2.9260    -0.1080 C.ar  1 <1>   0.1600 
 12 O        0.8240    -4.4450     2.8790 O.2   1 <1>  -0.5700 
 13 N       -0.1220    -4.2100     0.8830 N.am  1 <1>  -0.6600 
 14 C        2.2120     2.9040    -1.3990 C.ar  1 <1>  -0.1500 
 15 C       -0.5810    -3.4770    -0.3250 C.3   1 <1>   0.1400 
 16 C       -0.6430    -5.5940     0.8550 C.3   1 <1>   0.1400 
 17 C       -1.5090    -4.4420    -1.0750 C.3   1 <1>   0.2000 
 18 C       -1.0530    -5.8260    -0.6010 C.3   1 <1>  -0.0800 
 19 O       -2.8380    -4.2470    -0.6770 O.3   1 <1>  -0.5600 
 20 C       -2.1000    -6.9410    -0.7750 C.3   1 <1>   0.0200 
 21 C       -3.5060    -3.2100    -1.3250 C.3   1 <1>   0.0400 
 22 C       -1.5570    -8.3250    -0.4600 C.2   1 <1>  -0.0400 
 23 O       -2.3790    -9.3400    -0.4800 O.3   1 <1>  -0.0190 
 24 C       -0.3380    -8.7940    -0.1470 C.2   1 <1>  -0.1500 
 25 N       -1.7790   -10.4600    -0.1940 N.2   1 <1>  -0.4100 
 26 C       -0.5470   -10.1600     0.0120 C.2   1 <1>   0.1080 
 27 C        0.5220   -11.1650     0.3780 C.3   1 <1>  -0.0590 
 28 H        1.8390    -2.2030     4.0830 H     1 <1>   0.1500 
 29 H        1.1890     1.7000    -2.8210 H     1 <1>   0.1500 
 30 H        3.1850     3.7980     0.2660 H     1 <1>   0.1500 
 31 H        2.3470     3.7420    -2.0560 H     1 <1>   0.1500 
 32 H       -1.0840    -2.5660    -0.0550 H     1 <1>   0.0800 
 33 H        0.2750    -3.2480    -0.9360 H     1 <1>   0.0800 
 34 H        0.1060    -6.2940     1.1820 H     1 <1>   0.0800 
 35 H       -1.5000    -5.6540     1.5050 H     1 <1>   0.0800 
 36 H       -1.4410    -4.3380    -2.1450 H     1 <1>   0.0800 
 37 H       -0.1700    -6.0860    -1.1570 H     1 <1>   0.0800 
 38 H       -2.4560    -6.9390    -1.7900 H     1 <1>   0.0800 
 39 H       -2.9450    -6.7510    -0.1350 H     1 <1>   0.0800 
 40 H       -4.5080    -3.1650    -0.9350 H     1 <1>   0.0800 
 41 H       -3.5390    -3.4130    -2.3810 H     1 <1>   0.0800 
 42 H       -3.0040    -2.2780    -1.1330 H     1 <1>   0.0800 
 43 H        0.5990    -8.2820    -0.0360 H     1 <1>   0.1500 
 44 H        1.2990   -11.1570    -0.3630 H     1 <1>   0.0800 
 45 H        0.0970   -12.1510     0.4280 H     1 <1>   0.0800 
 46 H        0.9410   -10.9180     1.3360 H     1 <1>   0.0800 
@<TRIPOS>BOND
  1   1   2  1   
  2   1   3  1   
  3   2   4  2   
  4   2   5  1   
  5   3   6  2   
  6   3  28  1   
  7   4   6  1   
  8   5   7  ar  
  9   5   8  ar  
 10   6   9  1   
 11   7  10  ar  
 12   8  11  ar  
 13   9  12  2   
 14   9  13  am  
 15  10  14  ar  
 16  10  29  1   
 17  11  14  ar  
 18  11  30  1   
 19  13  15  1   
 20  13  16  1   
 21  14  31  1   
 22  15  17  1   
 23  15  32  1   
 24  15  33  1   
 25  16  18  1   
 26  16  34  1   
 27  16  35  1   
 28  17  18  1   
 29  17  19  1   
 30  17  36  1   
 31  18  20  1   
 32  18  37  1   
 33  19  21  1   
 34  20  22  1   
 35  20  38  1   
 36  20  39  1   
 37  21  40  1   
 38  21  41  1   
 39  21  42  1   
 40  22  23  1   
 41  22  24  2   
 42  23  25  1   
 43  24  26  1   
 44  24  43  1   
 45  25  26  2   
 46  26  27  1   
 47  27  44  1   
 48  27  45  1   
 49  27  46  1   
@<TRIPOS>SUBSTRUCTURE
  1 ****  13 GROUP 4 **** **** 0

# MOE 2024.06 (io_trps.svl 2023.06)
