@<TRIPOS>MOLECULE
NONAME
49 51 1 0 0 
SMALL
USER_CHARGES


@<TRIPOS>ATOM
  1 S       -0.6100    -0.5920    -0.2320 S.o2  1 <1>   1.0900 
  2 O       -0.6410     0.6630     0.4800 O.2   1 <1>  -0.6500 
  3 O        0.6110    -1.1190    -0.7950 O.2   1 <1>  -0.6500 
  4 C       -1.3510    -1.8740     0.7360 C.3   1 <1>  -0.0550 
  5 C       -1.8600    -0.6200    -1.5080 C.3   1 <1>  -0.0550 
  6 C       -2.0180    -2.7830    -0.2920 C.3   1 <1>   0.1760 
  7 C       -2.7350    -1.8690    -1.3060 C.3   1 <1>  -0.1600 
  8 N       -2.9570    -3.7320     0.3520 N.pl3 1 <1>   0.3140 
  9 N       -3.8970    -3.3040     1.2140 N.2   1 <1>  -0.7070 
 10 C       -3.0220    -5.0740     0.1710 C.2   1 <1>  -0.3320 
 11 C       -4.5370    -4.3750     1.5710 C.2   1 <1>   0.1080 
 12 C       -4.0310    -5.5220     0.9500 C.2   1 <1>   0.0630 
 13 C       -2.1070    -5.8720    -0.7490 C.3   1 <1>  -0.0600 
 14 C       -5.7000    -4.3080     2.5350 C.3   1 <1>  -0.0590 
 15 N       -4.4470    -6.8750     1.0340 N.am  1 <1>  -0.4930 
 16 C       -4.8920    -7.6020     2.0930 C.2   1 <1>   0.5690 
 17 O       -5.0370    -7.1540     3.2050 O.2   1 <1>  -0.5700 
 18 C       -5.2210    -9.0630     1.8710 C.3   1 <1>  -0.0990 
 19 C       -6.3290    -9.2430     0.8270 C.3   1 <1>   0.1400 
 20 N       -5.8280   -10.0130    -0.3390 N.am  1 <1>  -0.6600 
 21 C       -4.9850    -9.5600    -1.2930 C.2   1 <1>   0.5690 
 22 C       -6.3430   -11.3620    -0.6280 C.3   1 <1>   0.1400 
 23 O       -4.4270    -8.4890    -1.2870 O.2   1 <1>  -0.5700 
 24 C       -4.8100   -10.5780    -2.3850 C.3   1 <1>  -0.0990 
 25 C       -5.5040   -11.8320    -1.8260 C.3   1 <1>  -0.1600 
 26 H       -2.0930    -1.4500     1.3860 H     1 <1>   0.0800 
 27 H       -0.6210    -2.4040     1.3170 H     1 <1>   0.0800 
 28 H       -1.3900    -0.6480    -2.4740 H     1 <1>   0.0800 
 29 H       -2.4710     0.2620    -1.4540 H     1 <1>   0.0800 
 30 H       -1.2520    -3.3390    -0.8010 H     1 <1>   0.0800 
 31 H       -2.9040    -2.3830    -2.2360 H     1 <1>   0.0800 
 32 H       -3.6860    -1.5610    -0.9000 H     1 <1>   0.0800 
 33 H       -1.0790    -5.7320    -0.4680 H     1 <1>   0.0800 
 34 H       -2.2420    -5.5600    -1.7700 H     1 <1>   0.0800 
 35 H       -2.3270    -6.9220    -0.6880 H     1 <1>   0.0800 
 36 H       -6.1350    -3.3260     2.5170 H     1 <1>   0.0800 
 37 H       -5.3540    -4.5190     3.5290 H     1 <1>   0.0800 
 38 H       -6.4500    -5.0260     2.2600 H     1 <1>   0.0800 
 39 H       -4.3400    -7.3940     0.1500 H     1 <1>   0.3700 
 40 H       -5.5520    -9.4780     2.8050 H     1 <1>   0.0800 
 41 H       -4.3240    -9.5790     1.5820 H     1 <1>   0.0800 
 42 H       -6.6900    -8.2870     0.4840 H     1 <1>   0.0800 
 43 H       -7.1600    -9.7650     1.2700 H     1 <1>   0.0800 
 44 H       -7.3860   -11.3000    -0.8900 H     1 <1>   0.0800 
 45 H       -6.2130   -12.0110     0.2210 H     1 <1>   0.0800 
 46 H       -3.7670   -10.7480    -2.5810 H     1 <1>   0.0800 
 47 H       -5.3000   -10.2240    -3.2730 H     1 <1>   0.0800 
 48 H       -6.1150   -12.3180    -2.5660 H     1 <1>   0.0800 
 49 H       -4.7630   -12.5310    -1.4790 H     1 <1>   0.0800 
@<TRIPOS>BOND
  1   1   2  2   
  2   1   3  2   
  3   1   4  1   
  4   1   5  1   
  5   4   6  1   
  6   4  26  1   
  7   4  27  1   
  8   5   7  1   
  9   5  28  1   
 10   5  29  1   
 11   6   7  1   
 12   6   8  1   
 13   6  30  1   
 14   7  31  1   
 15   7  32  1   
 16   8   9  1   
 17   8  10  1   
 18   9  11  2   
 19  10  12  2   
 20  10  13  1   
 21  11  12  1   
 22  11  14  1   
 23  12  15  1   
 24  13  33  1   
 25  13  34  1   
 26  13  35  1   
 27  14  36  1   
 28  14  37  1   
 29  14  38  1   
 30  15  16  am  
 31  15  39  1   
 32  16  17  2   
 33  16  18  1   
 34  18  19  1   
 35  18  40  1   
 36  18  41  1   
 37  19  20  1   
 38  19  42  1   
 39  19  43  1   
 40  20  21  am  
 41  20  22  1   
 42  21  23  2   
 43  21  24  1   
 44  22  25  1   
 45  22  44  1   
 46  22  45  1   
 47  24  25  1   
 48  24  46  1   
 49  24  47  1   
 50  25  48  1   
 51  25  49  1   
@<TRIPOS>SUBSTRUCTURE
  1 ****  12 GROUP 4 **** **** 0

# MOE 2024.06 (io_trps.svl 2023.06)
