@<TRIPOS>MOLECULE
NONAME
58 59 1 0 0 
SMALL
USER_CHARGES


@<TRIPOS>ATOM
  1 O        0.4910    -0.3340    -2.1250 O.2   1 <1>  -0.5700 
  2 C        1.1850    -1.1070    -1.4970 C.2   1 <1>   0.5690 
  3 N        2.0790    -0.6090    -0.5730 N.am  1 <1>  -0.6600 
  4 C        1.0370    -2.6310    -1.8140 C.3   1 <1>   0.3410 
  5 C        2.2550     0.8450    -0.3500 C.3   1 <1>   0.1400 
  6 C        2.9970    -1.3740     0.3060 C.3   1 <1>   0.1400 
  7 O        1.1970    -3.4670    -0.6710 O.3   1 <1>  -0.3630 
  8 C        2.1610    -3.0560    -2.7700 C.3   1 <1>  -0.2400 
  9 C       -0.3040    -3.0060    -2.4810 C.3   1 <1>  -0.2400 
 10 C        3.6470     0.9650     0.2560 C.3   1 <1>  -0.0190 
 11 C        3.7960    -0.3220     1.0720 C.3   1 <1>  -0.1600 
 12 C        0.3770    -3.5480     0.4140 C.ar  1 <1>   0.0820 
 13 C        3.8300     2.2410     1.0630 C.2   1 <1>   0.5690 
 14 C        0.4860    -4.6740     1.2350 C.ar  1 <1>  -0.1430 
 15 C       -0.5390    -2.5480     0.7360 C.ar  1 <1>  -0.1500 
 16 O        3.0220     2.5300     1.9120 O.2   1 <1>  -0.5700 
 17 N        4.9110     3.0240     0.8050 N.am  1 <1>  -0.7300 
 18 C       -0.3330    -4.7670     2.3520 C.ar  1 <1>  -0.1500 
 19 C        1.4640    -5.8300     0.9760 C.3   1 <1>   0.0630 
 20 C       -1.3480    -2.6540     1.8520 C.ar  1 <1>  -0.1430 
 21 C        5.2370     4.2770     1.5120 C.3   1 <1>   0.1400 
 22 C       -1.2410    -3.7700     2.6600 C.ar  1 <1>  -0.1500 
 23 C        2.9280    -5.3780     1.0390 C.3   1 <1>  -0.2400 
 24 C        1.1590    -6.5610    -0.3370 C.3   1 <1>  -0.2400 
 25 C       -2.3390    -1.5560     2.1940 C.3   1 <1>  -0.0970 
 26 C        6.7040     4.2360     1.9220 C.3   1 <1>  -0.2400 
 27 H        1.5020     1.1830     0.3430 H     1 <1>   0.0800 
 28 H        2.1710     1.3980    -1.2710 H     1 <1>   0.0800 
 29 H        3.6490    -1.9860    -0.2910 H     1 <1>   0.0800 
 30 H        2.4450    -1.9940     0.9920 H     1 <1>   0.0800 
 31 H        3.1220    -2.8670    -2.3290 H     1 <1>   0.0800 
 32 H        2.0950    -2.4930    -3.6830 H     1 <1>   0.0800 
 33 H        2.0820    -4.1020    -3.0050 H     1 <1>   0.0800 
 34 H       -1.1370    -2.6790    -1.8890 H     1 <1>   0.0800 
 35 H       -0.3690    -4.0690    -2.6250 H     1 <1>   0.0800 
 36 H       -0.3830    -2.5240    -3.4390 H     1 <1>   0.0800 
 37 H        4.3550     0.9500    -0.5520 H     1 <1>   0.0800 
 38 H        4.8240    -0.6110     1.1980 H     1 <1>   0.0800 
 39 H        3.3500    -0.1930     2.0440 H     1 <1>   0.0800 
 40 H       -0.6350    -1.6680     0.1330 H     1 <1>   0.1500 
 41 H        5.5720     2.7520     0.0770 H     1 <1>   0.3700 
 42 H       -0.2730    -5.6220     3.0010 H     1 <1>   0.1500 
 43 H        1.3360    -6.5540     1.7620 H     1 <1>   0.0800 
 44 H        4.6140     4.3830     2.3850 H     1 <1>   0.0800 
 45 H        5.0550     5.1140     0.8590 H     1 <1>   0.0800 
 46 H       -1.8620    -3.8680     3.5330 H     1 <1>   0.1500 
 47 H        3.1720    -4.7340     0.2160 H     1 <1>   0.0800 
 48 H        3.5800    -6.2320     1.0060 H     1 <1>   0.0800 
 49 H        3.1050    -4.8460     1.9570 H     1 <1>   0.0800 
 50 H        1.3520    -5.9320    -1.1860 H     1 <1>   0.0800 
 51 H        0.1250    -6.8540    -0.3580 H     1 <1>   0.0800 
 52 H        1.7680    -7.4420    -0.4210 H     1 <1>   0.0800 
 53 H       -2.5680    -0.9670     1.3250 H     1 <1>   0.0800 
 54 H       -1.9200    -0.9130     2.9470 H     1 <1>   0.0800 
 55 H       -3.2530    -1.9810     2.5670 H     1 <1>   0.0800 
 56 H        6.8830     3.4010     2.5760 H     1 <1>   0.0800 
 57 H        6.9550     5.1380     2.4490 H     1 <1>   0.0800 
 58 H        7.3380     4.1600     1.0560 H     1 <1>   0.0800 
@<TRIPOS>BOND
  1   1   2  2   
  2   2   3  am  
  3   2   4  1   
  4   3   5  1   
  5   3   6  1   
  6   4   7  1   
  7   4   8  1   
  8   4   9  1   
  9   5  10  1   
 10   5  27  1   
 11   5  28  1   
 12   6  11  1   
 13   6  29  1   
 14   6  30  1   
 15   7  12  1   
 16   8  31  1   
 17   8  32  1   
 18   8  33  1   
 19   9  34  1   
 20   9  35  1   
 21   9  36  1   
 22  10  11  1   
 23  10  13  1   
 24  10  37  1   
 25  11  38  1   
 26  11  39  1   
 27  12  14  ar  
 28  12  15  ar  
 29  13  16  2   
 30  13  17  am  
 31  14  18  ar  
 32  14  19  1   
 33  15  20  ar  
 34  15  40  1   
 35  17  21  1   
 36  17  41  1   
 37  18  22  ar  
 38  18  42  1   
 39  19  23  1   
 40  19  24  1   
 41  19  43  1   
 42  20  22  ar  
 43  20  25  1   
 44  21  26  1   
 45  21  44  1   
 46  21  45  1   
 47  22  46  1   
 48  23  47  1   
 49  23  48  1   
 50  23  49  1   
 51  24  50  1   
 52  24  51  1   
 53  24  52  1   
 54  25  53  1   
 55  25  54  1   
 56  25  55  1   
 57  26  56  1   
 58  26  57  1   
 59  26  58  1   
@<TRIPOS>SUBSTRUCTURE
  1 ****   6 GROUP 4 **** **** 0

# MOE 2024.06 (io_trps.svl 2023.06)
