@<TRIPOS>MOLECULE
NONAME
56 58 1 0 0 
SMALL
USER_CHARGES


@<TRIPOS>ATOM
  1 CL      -0.4120     2.3190    -1.7390 Cl    1 <1>  -0.1770 
  2 C       -2.0930     1.9750    -1.4300 C.ar  1 <1>   0.1770 
  3 C       -3.0660     2.6000    -2.1850 C.ar  1 <1>  -0.1500 
  4 C       -2.4340     1.0840    -0.4320 C.ar  1 <1>  -0.1500 
  5 C       -4.3980     2.3230    -1.9350 C.ar  1 <1>  -0.1500 
  6 C       -3.7700     0.8160    -0.1890 C.ar  1 <1>  -0.1500 
  7 C       -4.7830     1.4240    -0.9350 C.ar  1 <1>   0.0530 
  8 C       -6.1800     1.1550    -0.6900 C.2   1 <1>   0.0870 
  9 O       -7.0810     2.0640    -0.9750 O.3   1 <1>  -0.0190 
 10 C       -6.8550     0.0840    -0.1890 C.2   1 <1>  -0.0860 
 11 N       -8.3020     1.6840    -0.7050 N.2   1 <1>  -0.4100 
 12 C       -8.1880     0.5040    -0.2250 C.2   1 <1>   0.3720 
 13 C       -6.4370    -1.2170     0.2220 C.2   1 <1>   0.7160 
 14 N       -9.2980    -0.2400     0.1620 N.pl3 1 <1>  -0.8520 
 15 O       -5.5160    -1.7990    -0.3140 O.2   1 <1>  -0.5700 
 16 N       -7.1570    -1.8900     1.1610 N.am  1 <1>  -0.7300 
 17 C       -9.9470     0.2490     1.4150 C.3   1 <1>   0.2090 
 18 C       -7.2400    -3.3680     1.2150 C.3   1 <1>   0.2200 
 19 C      -11.4650     0.3580     1.2200 C.3   1 <1>   0.1200 
 20 C       -7.8060    -3.8780    -0.1290 C.3   1 <1>   0.3430 
 21 C       -8.1700    -3.7710     2.3750 C.3   1 <1>  -0.1600 
 22 O      -11.9510    -0.8170     0.6330 O.3   1 <1>  -0.5600 
 23 N       -9.1520    -3.2490    -0.3830 N.4   1 <1>  -0.9590 
 24 C       -9.5660    -4.2440     1.9080 C.3   1 <1>  -0.1600 
 25 C      -13.3260    -0.7890     0.4040 C.3   1 <1>   0.0400 
 26 C      -10.1460    -3.4520     0.7250 C.3   1 <1>   0.3430 
 27 C       -9.6790    -3.6200    -1.7180 C.3   1 <1>   0.3430 
 28 C      -10.7470    -2.6210    -2.1460 C.3   1 <1>  -0.2400 
 29 H       -2.7790     3.2910    -2.9570 H     1 <1>   0.1500 
 30 H       -1.6620     0.6080     0.1450 H     1 <1>   0.1500 
 31 H       -5.1530     2.8100    -2.5280 H     1 <1>   0.1500 
 32 H       -4.0220     0.1250     0.5950 H     1 <1>   0.1500 
 33 H      -10.0270    -0.0800    -0.5510 H     1 <1>   0.4000 
 34 H       -8.0020    -1.4030     1.4700 H     1 <1>   0.3700 
 35 H       -9.5590     1.2160     1.6960 H     1 <1>   0.0800 
 36 H       -9.7450    -0.4350     2.2210 H     1 <1>   0.0800 
 37 H       -6.2510    -3.7680     1.3730 H     1 <1>   0.0800 
 38 H      -11.6910     1.1890     0.5730 H     1 <1>   0.0800 
 39 H      -11.9530     0.5050     2.1680 H     1 <1>   0.0800 
 40 H       -7.9000    -4.9500    -0.0940 H     1 <1>   0.0800 
 41 H       -7.1180    -3.6240    -0.9190 H     1 <1>   0.0800 
 42 H       -8.2710    -2.9540     3.0710 H     1 <1>   0.0800 
 43 H       -7.7110    -4.5800     2.9160 H     1 <1>   0.0800 
 44 H       -8.9930    -2.2220    -0.3950 H     1 <1>   0.4500 
 45 H      -10.2550    -4.1950     2.7330 H     1 <1>   0.0800 
 46 H       -9.5100    -5.2800     1.6180 H     1 <1>   0.0800 
 47 H      -13.6170    -1.7240    -0.0410 H     1 <1>   0.0800 
 48 H      -13.5610     0.0180    -0.2690 H     1 <1>   0.0800 
 49 H      -13.8430    -0.6600     1.3400 H     1 <1>   0.0800 
 50 H      -11.0190    -3.9620     0.3500 H     1 <1>   0.0800 
 51 H      -10.4670    -2.4870     1.0800 H     1 <1>   0.0800 
 52 H      -10.0890    -4.6170    -1.6910 H     1 <1>   0.0800 
 53 H       -8.8780    -3.6020    -2.4410 H     1 <1>   0.0800 
 54 H      -11.5890    -2.6360    -1.4790 H     1 <1>   0.0800 
 55 H      -11.1010    -2.8820    -3.1280 H     1 <1>   0.0800 
 56 H      -10.3410    -1.6280    -2.1950 H     1 <1>   0.0800 
@<TRIPOS>BOND
  1   1   2  1   
  2   2   3  ar  
  3   2   4  ar  
  4   3   5  ar  
  5   3  29  1   
  6   4   6  ar  
  7   4  30  1   
  8   5   7  ar  
  9   5  31  1   
 10   6   7  ar  
 11   6  32  1   
 12   7   8  1   
 13   8   9  1   
 14   8  10  2   
 15   9  11  1   
 16  10  12  1   
 17  10  13  1   
 18  11  12  2   
 19  12  14  1   
 20  13  15  2   
 21  13  16  am  
 22  14  17  1   
 23  14  33  1   
 24  16  18  1   
 25  16  34  1   
 26  17  19  1   
 27  17  35  1   
 28  17  36  1   
 29  18  20  1   
 30  18  21  1   
 31  18  37  1   
 32  19  22  1   
 33  19  38  1   
 34  19  39  1   
 35  20  23  1   
 36  20  40  1   
 37  20  41  1   
 38  21  24  1   
 39  21  42  1   
 40  21  43  1   
 41  22  25  1   
 42  23  26  1   
 43  23  27  1   
 44  23  44  1   
 45  24  26  1   
 46  24  45  1   
 47  24  46  1   
 48  25  47  1   
 49  25  48  1   
 50  25  49  1   
 51  26  50  1   
 52  26  51  1   
 53  27  28  1   
 54  27  52  1   
 55  27  53  1   
 56  28  54  1   
 57  28  55  1   
 58  28  56  1   
@<TRIPOS>SUBSTRUCTURE
  1 ****  10 GROUP 4 **** **** 0

# MOE 2024.06 (io_trps.svl 2023.06)
