@<TRIPOS>MOLECULE
NONAME
50 53 1 0 0 
SMALL
USER_CHARGES


@<TRIPOS>ATOM
  1 O       -0.0800    -0.4320    -0.4910 O.3   1 <1>  -0.5600 
  2 C        0.2680    -1.7460    -0.1400 C.3   1 <1>   0.1200 
  3 C        0.9010     0.2820    -1.1950 C.3   1 <1>   0.1200 
  4 C        1.5600    -1.7660     0.7070 C.3   1 <1>   0.5180 
  5 C        2.2200     0.3420    -0.3910 C.3   1 <1>   0.4230 
  6 N        2.6690    -1.0400     0.0220 N.4   1 <1>  -0.9590 
  7 C        2.0020    -3.1930     1.0550 C.3   1 <1>  -0.1950 
  8 C        3.3340     1.0910    -1.1690 C.3   1 <1>   0.1100 
  9 C        3.3350    -1.7660    -1.1140 C.3   1 <1>   0.3430 
 10 C        1.5900    -3.8110     2.3560 C.3   1 <1>  -0.2000 
 11 C        3.0300    -3.4600     2.1130 C.3   1 <1>  -0.2000 
 12 N        4.6290     0.3800    -1.0690 N.3   1 <1>  -0.8100 
 13 C        4.5520    -0.9730    -1.6530 C.3   1 <1>   0.1100 
 14 C        5.7970     1.1690    -1.5380 C.3   1 <1>   0.2530 
 15 C        5.9290     2.5200    -0.8290 C.ar  1 <1>   0.1670 
 16 N        6.0250     2.5090     0.4950 N.ar  1 <1>  -0.6200 
 17 C        5.9380     3.6820    -1.5880 C.ar  1 <1>  -0.1500 
 18 C        6.1400     3.6930     1.0760 C.ar  1 <1>   0.1600 
 19 C        6.0510     4.9060    -0.9670 C.ar  1 <1>  -0.1500 
 20 C        6.1550     4.9080     0.4080 C.ar  1 <1>  -0.1430 
 21 C        6.2890     6.2150     1.1730 C.3   1 <1>  -0.0170 
 22 C        7.7620     6.6020     1.3200 C.3   1 <1>  -0.2400 
 23 H       -0.5470    -2.1580     0.4280 H     1 <1>   0.0800 
 24 H        0.3830    -2.3240    -1.0400 H     1 <1>   0.0800 
 25 H        1.0470    -0.1880    -2.1510 H     1 <1>   0.0800 
 26 H        0.5220     1.2760    -1.3570 H     1 <1>   0.0800 
 27 H        1.3440    -1.2570     1.6320 H     1 <1>   0.0800 
 28 H        2.0190     0.9150     0.4990 H     1 <1>   0.0800 
 29 H        3.4310    -0.8660     0.6930 H     1 <1>   0.4500 
 30 H        1.9720    -3.8560     0.2070 H     1 <1>   0.1000 
 31 H        3.4180     2.0790    -0.7480 H     1 <1>   0.0800 
 32 H        3.0640     1.2040    -2.2050 H     1 <1>   0.0800 
 33 H        3.6750    -2.7360    -0.7890 H     1 <1>   0.0800 
 34 H        2.6300    -1.9180    -1.9140 H     1 <1>   0.0800 
 35 H        1.0460    -3.2350     3.0860 H     1 <1>   0.1000 
 36 H        1.3190    -4.8540     2.3800 H     1 <1>   0.1000 
 37 H        3.7310    -4.2670     1.9780 H     1 <1>   0.1000 
 38 H        3.4500    -2.6490     2.6860 H     1 <1>   0.1000 
 39 H        4.4930    -0.9130    -2.7260 H     1 <1>   0.0800 
 40 H        5.4520    -1.5120    -1.4060 H     1 <1>   0.0800 
 41 H        6.6960     0.6100    -1.3410 H     1 <1>   0.0800 
 42 H        5.7260     1.3200    -2.6000 H     1 <1>   0.0800 
 43 H        5.8600     3.6370    -2.6590 H     1 <1>   0.1500 
 44 H        6.2300     3.6940     2.1480 H     1 <1>   0.1500 
 45 H        6.0630     5.8210    -1.5330 H     1 <1>   0.1500 
 46 H        5.7620     6.9960     0.6520 H     1 <1>   0.0800 
 47 H        5.8440     6.1160     2.1480 H     1 <1>   0.0800 
 48 H        8.2130     6.7250     0.3510 H     1 <1>   0.0800 
 49 H        8.2980     5.8360     1.8530 H     1 <1>   0.0800 
 50 H        7.8500     7.5270     1.8620 H     1 <1>   0.0800 
@<TRIPOS>BOND
  1   1   2  1   
  2   1   3  1   
  3   2   4  1   
  4   2  23  1   
  5   2  24  1   
  6   3   5  1   
  7   3  25  1   
  8   3  26  1   
  9   4   6  1   
 10   4   7  1   
 11   4  27  1   
 12   5   6  1   
 13   5   8  1   
 14   5  28  1   
 15   6   9  1   
 16   6  29  1   
 17   7  10  1   
 18   7  11  1   
 19   7  30  1   
 20   8  12  1   
 21   8  31  1   
 22   8  32  1   
 23   9  13  1   
 24   9  33  1   
 25   9  34  1   
 26  10  11  1   
 27  10  35  1   
 28  10  36  1   
 29  11  37  1   
 30  11  38  1   
 31  12  13  1   
 32  12  14  1   
 33  13  39  1   
 34  13  40  1   
 35  14  15  1   
 36  14  41  1   
 37  14  42  1   
 38  15  16  ar  
 39  15  17  ar  
 40  16  18  ar  
 41  17  19  ar  
 42  17  43  1   
 43  18  20  ar  
 44  18  44  1   
 45  19  20  ar  
 46  19  45  1   
 47  20  21  1   
 48  21  22  1   
 49  21  46  1   
 50  21  47  1   
 51  22  48  1   
 52  22  49  1   
 53  22  50  1   
@<TRIPOS>SUBSTRUCTURE
  1 ****   8 GROUP 4 **** **** 0

# MOE 2024.06 (io_trps.svl 2023.06)
