@<TRIPOS>MOLECULE
NONAME
47 49 1 0 0 
SMALL
USER_CHARGES


@<TRIPOS>ATOM
  1 O       -2.8850     0.6790    -2.7910 O.2   1 <1>  -0.5700 
  2 C       -2.2370     0.8010    -1.7670 C.2   1 <1>   0.5440 
  3 N       -1.7630    -0.3380    -1.1890 N.am  1 <1>  -0.7300 
  4 C       -1.9840     2.1130    -1.1940 C.ar  1 <1>   0.0860 
  5 C       -2.0590    -1.7260    -1.6060 C.3   1 <1>   0.2200 
  6 C       -1.6990     2.3390     0.1670 C.ar  1 <1>   0.0820 
  7 C       -2.0230     3.2310    -2.0330 C.ar  1 <1>  -0.1500 
  8 C       -3.1810    -2.3250    -0.7680 C.3   1 <1>  -0.0800 
  9 C       -0.8970    -2.6200    -1.1970 C.3   1 <1>   0.1200 
 10 O       -1.6750     1.2740     1.0140 O.3   1 <1>  -0.3630 
 11 C       -1.4540     3.6300     0.6350 C.ar  1 <1>  -0.1500 
 12 C       -1.7820     4.5060    -1.5650 C.ar  1 <1>  -0.1500 
 13 C       -2.4480    -2.8110     0.4870 C.3   1 <1>   0.1200 
 14 C       -4.3780    -1.4000    -0.4770 C.3   1 <1>  -0.0170 
 15 O       -1.0900    -2.8900     0.1610 O.3   1 <1>  -0.5600 
 16 C       -1.3100     1.3670     2.3750 C.3   1 <1>   0.0400 
 17 C       -1.4940     4.7170    -0.2290 C.ar  1 <1>   0.0820 
 18 C       -5.4550    -2.1350     0.3050 C.ar  1 <1>  -0.1430 
 19 O       -1.2680     5.9950     0.1500 O.3   1 <1>  -0.3630 
 20 C       -5.5920    -1.9970     1.6710 C.ar  1 <1>  -0.1500 
 21 C       -6.3520    -2.9810    -0.3150 C.ar  1 <1>  -0.1500 
 22 C       -0.9660     6.3420     1.4830 C.3   1 <1>   0.0400 
 23 C       -6.5870    -2.6970     2.3340 C.ar  1 <1>   0.1600 
 24 C       -7.3110    -3.6340     0.4410 C.ar  1 <1>   0.1600 
 25 N       -7.4490    -3.5150     1.7520 N.ar  1 <1>  -0.6200 
 26 H       -1.3460    -0.2540    -0.2550 H     1 <1>   0.3700 
 27 H       -2.2580    -1.7690    -2.6640 H     1 <1>   0.0800 
 28 H       -2.2460     3.0920    -3.0770 H     1 <1>   0.1500 
 29 H       -3.5460    -3.1950    -1.2840 H     1 <1>   0.0800 
 30 H        0.0600    -2.1510    -1.3420 H     1 <1>   0.0800 
 31 H       -0.9320    -3.5560    -1.7260 H     1 <1>   0.0800 
 32 H       -1.2370     3.7960     1.6680 H     1 <1>   0.1500 
 33 H       -1.8160     5.3490    -2.2320 H     1 <1>   0.1500 
 34 H       -2.7920    -3.7810     0.8020 H     1 <1>   0.0800 
 35 H       -2.5450    -2.1090     1.2960 H     1 <1>   0.0800 
 36 H       -4.7890    -1.0460    -1.4070 H     1 <1>   0.0800 
 37 H       -4.0610    -0.5380     0.0830 H     1 <1>   0.0800 
 38 H       -1.3270     0.3770     2.7940 H     1 <1>   0.0800 
 39 H       -2.0200     1.9930     2.8860 H     1 <1>   0.0800 
 40 H       -0.3160     1.7730     2.4440 H     1 <1>   0.0800 
 41 H       -4.9350    -1.3520     2.2260 H     1 <1>   0.1500 
 42 H       -6.3140    -3.1360    -1.3770 H     1 <1>   0.1500 
 43 H       -0.8310     7.4080     1.5270 H     1 <1>   0.0800 
 44 H       -0.0580     5.8470     1.7760 H     1 <1>   0.0800 
 45 H       -1.7870     6.0520     2.1140 H     1 <1>   0.0800 
 46 H       -6.6780    -2.5770     3.4000 H     1 <1>   0.1500 
 47 H       -8.0030    -4.2900    -0.0600 H     1 <1>   0.1500 
@<TRIPOS>BOND
  1   1   2  2   
  2   2   3  am  
  3   2   4  1   
  4   3   5  1   
  5   3  26  1   
  6   4   6  ar  
  7   4   7  ar  
  8   5   8  1   
  9   5   9  1   
 10   5  27  1   
 11   6  10  1   
 12   6  11  ar  
 13   7  12  ar  
 14   7  28  1   
 15   8  13  1   
 16   8  14  1   
 17   8  29  1   
 18   9  15  1   
 19   9  30  1   
 20   9  31  1   
 21  10  16  1   
 22  11  17  ar  
 23  11  32  1   
 24  12  17  ar  
 25  12  33  1   
 26  13  15  1   
 27  13  34  1   
 28  13  35  1   
 29  14  18  1   
 30  14  36  1   
 31  14  37  1   
 32  16  38  1   
 33  16  39  1   
 34  16  40  1   
 35  17  19  1   
 36  18  20  ar  
 37  18  21  ar  
 38  19  22  1   
 39  20  23  ar  
 40  20  41  1   
 41  21  24  ar  
 42  21  42  1   
 43  22  43  1   
 44  22  44  1   
 45  22  45  1   
 46  23  25  ar  
 47  23  46  1   
 48  24  25  ar  
 49  24  47  1   
@<TRIPOS>SUBSTRUCTURE
  1 ****   3 GROUP 4 **** **** 0

# MOE 2024.06 (io_trps.svl 2023.06)
