@<TRIPOS>MOLECULE
NONAME
53 55 1 0 0 
SMALL
USER_CHARGES


@<TRIPOS>ATOM
  1 O       -1.8370     2.3120    -1.2050 O.2   1 <1>  -0.5700 
  2 C       -1.8260     2.4020     0.0080 C.2   1 <1>   0.7160 
  3 N       -3.0190     2.3370     0.7030 N.am  1 <1>  -0.6600 
  4 C       -0.5700     2.5520     0.6940 C.2   1 <1>  -0.0860 
  5 C       -4.3080     2.3910    -0.0460 C.3   1 <1>   0.2200 
  6 C       -3.0530     2.0510     2.1720 C.3   1 <1>   0.0600 
  7 C        0.5140     1.6900     0.6460 C.2   1 <1>   0.1080 
  8 C       -0.1140     3.5020     1.5370 C.2   1 <1>  -0.0400 
  9 C       -5.4330     3.1540     0.6550 C.3   1 <1>  -0.1600 
 10 C       -4.8870     1.0030    -0.3000 C.3   1 <1>  -0.1600 
 11 N        1.4580     2.1150     1.4000 N.2   1 <1>  -0.4100 
 12 C        0.5920     0.4120    -0.1710 C.3   1 <1>   0.0210 
 13 O        1.0960     3.2430     1.9680 O.3   1 <1>  -0.0190 
 14 C       -0.7880     4.7730     2.0140 C.3   1 <1>  -0.0600 
 15 C       -6.7090     2.6370    -0.0250 C.3   1 <1>  -0.0800 
 16 C       -6.3660     1.2630    -0.6150 C.3   1 <1>  -0.0800 
 17 C       -0.2850    -0.6950     0.4250 C.3   1 <1>  -0.2400 
 18 C       -7.9080     2.4040     0.9080 C.3   1 <1>  -0.1600 
 19 C       -7.3580     0.2770     0.0170 C.3   1 <1>  -0.1600 
 20 C       -8.5770     1.1220     0.3990 C.3   1 <1>   0.4230 
 21 N       -9.4240     1.4070    -0.8050 N.4   1 <1>  -0.9590 
 22 C      -10.5580     2.3410    -0.5090 C.3   1 <1>   0.2630 
 23 C       -9.9850     0.1640    -1.4270 C.3   1 <1>   0.2630 
 24 H       -4.1490     2.8650    -1.0010 H     1 <1>   0.0800 
 25 H       -3.8250     1.3380     2.3980 H     1 <1>   0.0800 
 26 H       -3.2440     2.9600     2.7140 H     1 <1>   0.0800 
 27 H       -2.1160     1.6390     2.5060 H     1 <1>   0.0800 
 28 H       -5.4560     2.9240     1.7030 H     1 <1>   0.0800 
 29 H       -5.3190     4.2160     0.5250 H     1 <1>   0.0800 
 30 H       -4.3850     0.5260    -1.1240 H     1 <1>   0.0800 
 31 H       -4.7810     0.3940     0.5790 H     1 <1>   0.0800 
 32 H        0.2870     0.6170    -1.1820 H     1 <1>   0.0800 
 33 H        1.6150     0.0790    -0.1990 H     1 <1>   0.0800 
 34 H       -1.7570     4.8820     1.5620 H     1 <1>   0.0800 
 35 H       -0.1850     5.6220     1.7460 H     1 <1>   0.0800 
 36 H       -0.8990     4.7480     3.0820 H     1 <1>   0.0800 
 37 H       -6.9810     3.3020    -0.8280 H     1 <1>   0.0800 
 38 H       -6.5020     1.2990    -1.6840 H     1 <1>   0.0800 
 39 H       -1.3200    -0.4040     0.4130 H     1 <1>   0.0800 
 40 H        0.0100    -0.8910     1.4410 H     1 <1>   0.0800 
 41 H       -0.1760    -1.5980    -0.1480 H     1 <1>   0.0800 
 42 H       -8.5520     3.2600     0.9670 H     1 <1>   0.0800 
 43 H       -7.5550     2.2020     1.9040 H     1 <1>   0.0800 
 44 H       -6.9420    -0.1130     0.9300 H     1 <1>   0.0800 
 45 H       -7.5650    -0.5610    -0.6200 H     1 <1>   0.0800 
 46 H       -9.1640     0.6470     1.1700 H     1 <1>   0.0800 
 47 H       -8.8000     1.8590    -1.4900 H     1 <1>   0.4500 
 48 H      -11.1800     1.9390     0.2740 H     1 <1>   0.0800 
 49 H      -11.1630     2.4850    -1.3890 H     1 <1>   0.0800 
 50 H      -10.1890     3.3040    -0.1970 H     1 <1>   0.0800 
 51 H      -10.5680    -0.3850    -0.7060 H     1 <1>   0.0800 
 52 H       -9.1960    -0.4720    -1.7910 H     1 <1>   0.0800 
 53 H      -10.6200     0.4180    -2.2600 H     1 <1>   0.0800 
@<TRIPOS>BOND
  1   1   2  2   
  2   2   3  am  
  3   2   4  1   
  4   3   5  1   
  5   3   6  1   
  6   4   7  1   
  7   4   8  2   
  8   5   9  1   
  9   5  10  1   
 10   5  24  1   
 11   6  25  1   
 12   6  26  1   
 13   6  27  1   
 14   7  11  2   
 15   7  12  1   
 16   8  13  1   
 17   8  14  1   
 18   9  15  1   
 19   9  28  1   
 20   9  29  1   
 21  10  16  1   
 22  10  30  1   
 23  10  31  1   
 24  11  13  1   
 25  12  17  1   
 26  12  32  1   
 27  12  33  1   
 28  14  34  1   
 29  14  35  1   
 30  14  36  1   
 31  15  16  1   
 32  15  18  1   
 33  15  37  1   
 34  16  19  1   
 35  16  38  1   
 36  17  39  1   
 37  17  40  1   
 38  17  41  1   
 39  18  20  1   
 40  18  42  1   
 41  18  43  1   
 42  19  20  1   
 43  19  44  1   
 44  19  45  1   
 45  20  21  1   
 46  20  46  1   
 47  21  22  1   
 48  21  23  1   
 49  21  47  1   
 50  22  48  1   
 51  22  49  1   
 52  22  50  1   
 53  23  51  1   
 54  23  52  1   
 55  23  53  1   
@<TRIPOS>SUBSTRUCTURE
  1 ****   5 GROUP 4 **** **** 0

# MOE 2024.06 (io_trps.svl 2023.06)
