@<TRIPOS>MOLECULE
NONAME
44 45 1 0 0 
SMALL
USER_CHARGES


@<TRIPOS>ATOM
  1 S        0.7220    -0.6170    -1.0430 S.o2  1 <1>   1.3330 
  2 O        1.9980    -1.0890    -0.5520 O.2   1 <1>  -0.6500 
  3 O        0.3020    -0.9690    -2.3800 O.2   1 <1>  -0.6500 
  4 N       -0.4850    -1.1820     0.0130 N.am  1 <1>  -0.8490 
  5 C        0.6390     1.1710    -0.8550 C.3   1 <1>  -0.0550 
  6 C       -0.1920    -2.5260     0.5230 C.3   1 <1>   0.1160 
  7 C       -1.8310    -1.1600    -0.5720 C.3   1 <1>   0.1160 
  8 C        1.3290     1.8010     0.3770 C.3   1 <1>  -0.0800 
  9 C        2.8550     1.6770     0.3480 C.3   1 <1>   0.2200 
 10 C        0.9400     1.2500     1.7540 C.3   1 <1>   0.1200 
 11 N        3.4510     3.0320     0.3320 N.am  1 <1>  -0.7300 
 12 C        3.1690     0.9730     1.6660 C.3   1 <1>   0.1200 
 13 O        2.1090     1.2970     2.5060 O.3   1 <1>  -0.5600 
 14 C        3.6450     3.7800    -0.7930 C.2   1 <1>   0.5440 
 15 O        3.3050     3.3070    -1.8600 O.2   1 <1>  -0.5700 
 16 C        4.2330     5.1070    -0.7180 C.ar  1 <1>   0.0860 
 17 C        4.9190     5.6390    -1.8090 C.ar  1 <1>  -0.1500 
 18 C        4.1390     5.8990     0.4320 C.ar  1 <1>  -0.1500 
 19 C        5.4800     6.8960    -1.7210 C.ar  1 <1>   0.1900 
 20 C        4.7090     7.1620     0.5120 C.ar  1 <1>  -0.1440 
 21 F        6.1210     7.3730    -2.7530 F     1 <1>  -0.1900 
 22 C        5.3900     7.6690    -0.5810 C.ar  1 <1>  -0.1500 
 23 C        4.5830     7.9880     1.7800 C.3   1 <1>  -0.0970 
 24 H        1.0880     1.6150    -1.7250 H     1 <1>   0.0800 
 25 H       -0.3900     1.4690    -0.8580 H     1 <1>   0.0800 
 26 H       -0.9690    -2.8500     1.1920 H     1 <1>   0.0800 
 27 H        0.7380    -2.5200     1.0670 H     1 <1>   0.0800 
 28 H       -0.1090    -3.2260    -0.2930 H     1 <1>   0.0800 
 29 H       -2.5610    -1.4340     0.1690 H     1 <1>   0.0800 
 30 H       -1.8940    -1.8490    -1.3980 H     1 <1>   0.0800 
 31 H       -2.0650    -0.1720    -0.9310 H     1 <1>   0.0800 
 32 H        1.0630     2.8430     0.3740 H     1 <1>   0.0800 
 33 H        3.2260     1.1090    -0.4890 H     1 <1>   0.0800 
 34 H        0.6260     0.2240     1.7250 H     1 <1>   0.0800 
 35 H        0.1870     1.8470     2.2390 H     1 <1>   0.0800 
 36 H        3.6630     3.4130     1.2550 H     1 <1>   0.3700 
 37 H        4.0960     1.2940     2.1060 H     1 <1>   0.0800 
 38 H        3.1750    -0.0960     1.5360 H     1 <1>   0.0800 
 39 H        5.0110     5.0730    -2.7190 H     1 <1>   0.1500 
 40 H        3.6000     5.5220     1.2820 H     1 <1>   0.1500 
 41 H        5.8430     8.6440    -0.5600 H     1 <1>   0.1500 
 42 H        4.4760     7.3510     2.6400 H     1 <1>   0.0800 
 43 H        3.7210     8.6280     1.7140 H     1 <1>   0.0800 
 44 H        5.4570     8.5980     1.9190 H     1 <1>   0.0800 
@<TRIPOS>BOND
  1   1   2  2   
  2   1   3  2   
  3   1   4  am  
  4   1   5  1   
  5   4   6  1   
  6   4   7  1   
  7   5   8  1   
  8   5  24  1   
  9   5  25  1   
 10   6  26  1   
 11   6  27  1   
 12   6  28  1   
 13   7  29  1   
 14   7  30  1   
 15   7  31  1   
 16   8   9  1   
 17   8  10  1   
 18   8  32  1   
 19   9  11  1   
 20   9  12  1   
 21   9  33  1   
 22  10  13  1   
 23  10  34  1   
 24  10  35  1   
 25  11  14  am  
 26  11  36  1   
 27  12  13  1   
 28  12  37  1   
 29  12  38  1   
 30  14  15  2   
 31  14  16  1   
 32  16  17  ar  
 33  16  18  ar  
 34  17  19  ar  
 35  17  39  1   
 36  18  20  ar  
 37  18  40  1   
 38  19  21  1   
 39  19  22  ar  
 40  20  22  ar  
 41  20  23  1   
 42  22  41  1   
 43  23  42  1   
 44  23  43  1   
 45  23  44  1   
@<TRIPOS>SUBSTRUCTURE
  1 ****  11 GROUP 4 **** **** 0

# MOE 2024.06 (io_trps.svl 2023.06)
