@<TRIPOS>MOLECULE
NONAME
55 58 1 0 0 
SMALL
USER_CHARGES


@<TRIPOS>ATOM
  1 O       -0.9370    -0.1040     1.3230 O.2   1 <1>  -0.5700 
  2 C       -1.6350     0.7650     0.8350 C.2   1 <1>   0.5440 
  3 N       -2.7250     0.4000     0.0660 N.am  1 <1>  -0.6600 
  4 C       -1.3070     2.1530     1.0920 C.ar  1 <1>   0.0860 
  5 C       -3.8180     1.3680    -0.2540 C.3   1 <1>   0.2200 
  6 C       -2.9130    -1.0330    -0.3190 C.3   1 <1>   0.0600 
  7 C       -1.2780     2.6530     2.3930 C.ar  1 <1>  -0.1500 
  8 C       -1.0280     3.0400     0.0510 C.ar  1 <1>  -0.1500 
  9 C       -5.2170     0.8980     0.1390 C.3   1 <1>  -0.1600 
 10 C       -3.9310     1.6760    -1.7440 C.3   1 <1>  -0.1600 
 11 C       -1.0060     3.9850     2.6460 C.ar  1 <1>  -0.1500 
 12 C       -0.7590     4.3740     0.2930 C.ar  1 <1>  -0.1500 
 13 C       -6.1550     1.7840    -0.6910 C.3   1 <1>  -0.0800 
 14 C       -5.3360     2.2700    -1.9020 C.3   1 <1>  -0.0800 
 15 C       -0.7460     4.8550     1.5990 C.ar  1 <1>   0.0820 
 16 C       -6.6180     3.0450     0.0540 C.3   1 <1>  -0.1600 
 17 C       -5.3540     3.8050    -1.8510 C.3   1 <1>  -0.1600 
 18 O       -0.5020     6.1520     1.8970 O.3   1 <1>  -0.1650 
 19 C       -6.5570     4.1500    -0.9890 C.3   1 <1>   0.2000 
 20 C        0.2300     6.9540     1.0840 C.ar  1 <1>   0.0820 
 21 O       -6.3700     5.3700    -0.3780 O.3   1 <1>  -0.6800 
 22 C        1.4720     6.5530     0.6060 C.ar  1 <1>  -0.1500 
 23 C       -0.2770     8.1980     0.7440 C.ar  1 <1>  -0.1500 
 24 C        2.1980     7.3910    -0.2240 C.ar  1 <1>  -0.1500 
 25 C        0.4500     9.0330    -0.0860 C.ar  1 <1>  -0.1500 
 26 C        1.6850     8.6380    -0.5760 C.ar  1 <1>   0.0820 
 27 O        2.3270     9.5170    -1.3870 O.3   1 <1>  -0.3620 
 28 C        3.6020     9.2260    -1.9150 C.3   1 <1>   0.0400 
 29 H       -3.6490     2.2970     0.2620 H     1 <1>   0.0800 
 30 H       -3.4260    -1.1140    -1.2590 H     1 <1>   0.0800 
 31 H       -3.4820    -1.5370     0.4420 H     1 <1>   0.0800 
 32 H       -1.9580    -1.5200    -0.4120 H     1 <1>   0.0800 
 33 H       -1.4720     1.9780     3.2090 H     1 <1>   0.1500 
 34 H       -1.0250     2.6680    -0.9590 H     1 <1>   0.1500 
 35 H       -5.3740    -0.1230    -0.1570 H     1 <1>   0.0800 
 36 H       -5.3870     0.9900     1.1970 H     1 <1>   0.0800 
 37 H       -3.1610     2.3480    -2.0760 H     1 <1>   0.0800 
 38 H       -3.8740     0.7680    -2.3160 H     1 <1>   0.0800 
 39 H       -0.9920     4.3560     3.6550 H     1 <1>   0.1500 
 40 H       -0.5650     5.0360    -0.5320 H     1 <1>   0.1500 
 41 H       -7.0130     1.2240    -1.0230 H     1 <1>   0.0800 
 42 H       -5.7910     1.9320    -2.8180 H     1 <1>   0.0800 
 43 H       -5.9430     3.2700     0.8610 H     1 <1>   0.0800 
 44 H       -7.6150     2.9290     0.4400 H     1 <1>   0.0800 
 45 H       -5.4470     4.2290    -2.8350 H     1 <1>   0.0800 
 46 H       -4.4560     4.1740    -1.3840 H     1 <1>   0.0800 
 47 H       -7.4610     4.1830    -1.5750 H     1 <1>   0.0800 
 48 H       -5.5530     5.3540     0.1540 H     1 <1>   0.4000 
 49 H        1.8670     5.5930     0.8860 H     1 <1>   0.1500 
 50 H       -1.2330     8.5050     1.1260 H     1 <1>   0.1500 
 51 H        3.1530     7.0580    -0.5820 H     1 <1>   0.1500 
 52 H        0.0640     9.9990    -0.3590 H     1 <1>   0.1500 
 53 H        3.9140    10.0630    -2.5130 H     1 <1>   0.0800 
 54 H        3.5330     8.3450    -2.5280 H     1 <1>   0.0800 
 55 H        4.2910     9.0800    -1.1030 H     1 <1>   0.0800 
@<TRIPOS>BOND
  1   1   2  2   
  2   2   3  am  
  3   2   4  1   
  4   3   5  1   
  5   3   6  1   
  6   4   7  ar  
  7   4   8  ar  
  8   5   9  1   
  9   5  10  1   
 10   5  29  1   
 11   6  30  1   
 12   6  31  1   
 13   6  32  1   
 14   7  11  ar  
 15   7  33  1   
 16   8  12  ar  
 17   8  34  1   
 18   9  13  1   
 19   9  35  1   
 20   9  36  1   
 21  10  14  1   
 22  10  37  1   
 23  10  38  1   
 24  11  15  ar  
 25  11  39  1   
 26  12  15  ar  
 27  12  40  1   
 28  13  14  1   
 29  13  16  1   
 30  13  41  1   
 31  14  17  1   
 32  14  42  1   
 33  15  18  1   
 34  16  19  1   
 35  16  43  1   
 36  16  44  1   
 37  17  19  1   
 38  17  45  1   
 39  17  46  1   
 40  18  20  1   
 41  19  21  1   
 42  19  47  1   
 43  20  22  ar  
 44  20  23  ar  
 45  21  48  1   
 46  22  24  ar  
 47  22  49  1   
 48  23  25  ar  
 49  23  50  1   
 50  24  26  ar  
 51  24  51  1   
 52  25  26  ar  
 53  25  52  1   
 54  26  27  1   
 55  27  28  1   
 56  28  53  1   
 57  28  54  1   
 58  28  55  1   
@<TRIPOS>SUBSTRUCTURE
  1 ****  12 GROUP 4 **** **** 0

# MOE 2024.06 (io_trps.svl 2023.06)
