@<TRIPOS>MOLECULE
NONAME
56 59 1 0 0 
SMALL
USER_CHARGES


@<TRIPOS>ATOM
  1 O        0.0390    -0.5250     1.5500 O.3   1 <1>  -0.6800 
  2 C        0.8310    -0.1920     0.4590 C.3   1 <1>   0.2000 
  3 C        1.7410    -1.3860     0.1640 C.3   1 <1>  -0.0800 
  4 C        1.8080     0.9140     0.8990 C.3   1 <1>   0.3430 
  5 C        2.7750    -1.2350     1.2840 C.3   1 <1>   0.3430 
  6 C        2.3300    -1.2910    -1.2730 C.3   1 <1>  -0.0170 
  7 N        3.0740     0.2140     1.2890 N.4   1 <1>  -0.9590 
  8 C        3.8310    -1.5390    -1.3770 C.ar  1 <1>   0.1670 
  9 C        3.6850     0.7290     2.5300 C.3   1 <1>   0.5240 
 10 N        4.6220    -0.5240    -1.0440 N.ar  1 <1>  -0.6200 
 11 C        4.3050    -2.7760    -1.8100 C.ar  1 <1>   0.1600 
 12 C        4.2260     2.1080     2.2230 C.2   1 <1>  -0.1810 
 13 C        5.9050    -0.8270    -1.2000 C.ar  1 <1>   0.1600 
 14 N        5.5830    -3.0800    -1.9350 N.ar  1 <1>  -0.6200 
 15 C        4.0980     3.2280     3.0350 C.2   1 <1>   0.1390 
 16 C        4.9220     2.5490     1.1500 C.2   1 <1>  -0.3020 
 17 C        6.3690    -2.0640    -1.6280 C.ar  1 <1>   0.1600 
 18 N        4.6570     4.2700     2.5140 N.2   1 <1>  -0.7070 
 19 N        5.1840     3.8690     1.3280 N.pl3 1 <1>   0.5930 
 20 C        5.9090     4.7220     0.4460 C.ar  1 <1>  -0.0230 
 21 C        6.6820     5.7640     0.9450 C.ar  1 <1>  -0.1500 
 22 C        5.8710     4.5350    -0.9340 C.ar  1 <1>  -0.1500 
 23 C        7.4020     6.5850     0.0970 C.ar  1 <1>  -0.1500 
 24 C        6.5920     5.3560    -1.7820 C.ar  1 <1>  -0.1500 
 25 C        7.3670     6.3890    -1.2760 C.ar  1 <1>  -0.1440 
 26 C        8.1560     7.2870    -2.2270 C.3   1 <1>   0.0630 
 27 C        9.6600     7.1870    -1.9520 C.3   1 <1>  -0.2400 
 28 C        7.6810     8.7400    -2.1270 C.3   1 <1>  -0.2400 
 29 H       -0.7450    -1.0510     1.2800 H     1 <1>   0.4000 
 30 H        0.1930     0.1090    -0.3560 H     1 <1>   0.0800 
 31 H        1.2180    -2.3210     0.2670 H     1 <1>   0.0800 
 32 H        1.3870     1.4680     1.7210 H     1 <1>   0.0800 
 33 H        2.0060     1.5860     0.0810 H     1 <1>   0.0800 
 34 H        3.6590    -1.8270     1.1090 H     1 <1>   0.0800 
 35 H        2.3250    -1.5220     2.2220 H     1 <1>   0.0800 
 36 H        2.1440    -0.3190    -1.6960 H     1 <1>   0.0800 
 37 H        1.8110    -1.9910    -1.9050 H     1 <1>   0.0800 
 38 H        3.7620     0.3530     0.5240 H     1 <1>   0.4500 
 39 H        2.9500     0.7760     3.3170 H     1 <1>   0.0800 
 40 H        4.4940     0.0890     2.8420 H     1 <1>   0.0800 
 41 H        3.6020    -3.5510    -2.0650 H     1 <1>   0.1500 
 42 H        6.6310    -0.0630    -0.9800 H     1 <1>   0.1500 
 43 H        3.5970     3.2520     3.9910 H     1 <1>   0.1500 
 44 H        5.2600     2.0250     0.2760 H     1 <1>   0.1500 
 45 H        7.4310    -2.2190    -1.7210 H     1 <1>   0.1500 
 46 H        6.7200     5.9380     2.0080 H     1 <1>   0.1500 
 47 H        5.2730     3.7490    -1.3610 H     1 <1>   0.1500 
 48 H        7.9920     7.3820     0.5140 H     1 <1>   0.1500 
 49 H        6.5450     5.1900    -2.8440 H     1 <1>   0.1500 
 50 H        7.9860     6.9560    -3.2370 H     1 <1>   0.0800 
 51 H        9.8960     7.5530    -0.9690 H     1 <1>   0.0800 
 52 H       10.2100     7.7620    -2.6740 H     1 <1>   0.0800 
 53 H        9.9760     6.1610    -2.0190 H     1 <1>   0.0800 
 54 H        7.8730     9.1400    -1.1470 H     1 <1>   0.0800 
 55 H        6.6230     8.7910    -2.3150 H     1 <1>   0.0800 
 56 H        8.1880     9.3490    -2.8530 H     1 <1>   0.0800 
@<TRIPOS>BOND
  1   1   2  1   
  2   1  29  1   
  3   2   3  1   
  4   2   4  1   
  5   2  30  1   
  6   3   5  1   
  7   3   6  1   
  8   3  31  1   
  9   4   7  1   
 10   4  32  1   
 11   4  33  1   
 12   5   7  1   
 13   5  34  1   
 14   5  35  1   
 15   6   8  1   
 16   6  36  1   
 17   6  37  1   
 18   7   9  1   
 19   7  38  1   
 20   8  10  ar  
 21   8  11  ar  
 22   9  12  1   
 23   9  39  1   
 24   9  40  1   
 25  10  13  ar  
 26  11  14  ar  
 27  11  41  1   
 28  12  15  1   
 29  12  16  2   
 30  13  17  ar  
 31  13  42  1   
 32  14  17  ar  
 33  15  18  2   
 34  15  43  1   
 35  16  19  1   
 36  16  44  1   
 37  17  45  1   
 38  18  19  1   
 39  19  20  1   
 40  20  21  ar  
 41  20  22  ar  
 42  21  23  ar  
 43  21  46  1   
 44  22  24  ar  
 45  22  47  1   
 46  23  25  ar  
 47  23  48  1   
 48  24  25  ar  
 49  24  49  1   
 50  25  26  1   
 51  26  27  1   
 52  26  28  1   
 53  26  50  1   
 54  27  51  1   
 55  27  52  1   
 56  27  53  1   
 57  28  54  1   
 58  28  55  1   
 59  28  56  1   
@<TRIPOS>SUBSTRUCTURE
  1 ****  16 GROUP 4 **** **** 0

# MOE 2024.06 (io_trps.svl 2023.06)
