@<TRIPOS>MOLECULE
NONAME
54 57 1 0 0 
SMALL
USER_CHARGES


@<TRIPOS>ATOM
  1 O        0.2640    -0.8270    -0.7510 O.2   1 <1>  -0.5700 
  2 C       -0.1760    -0.1240     0.1240 C.2   1 <1>   0.5690 
  3 N       -1.1120    -0.5650     0.9950 N.am  1 <1>  -0.7300 
  4 C        0.3020     1.3040     0.2290 C.3   1 <1>  -0.0990 
  5 C       -1.6850    -1.9310     1.0090 C.3   1 <1>   0.2200 
  6 C       -0.2030     2.1260    -0.9620 C.3   1 <1>   0.0200 
  7 C       -3.1020    -1.9410     0.4490 C.3   1 <1>  -0.0800 
  8 C       -1.9550    -2.3300     2.4530 C.3   1 <1>   0.1200 
  9 C        0.1280     3.5930    -0.7900 C.2   1 <1>   0.2980 
 10 C       -3.9570    -1.5540     1.6620 C.3   1 <1>   0.1200 
 11 C       -3.3390    -1.0690    -0.7980 C.3   1 <1>  -0.0170 
 12 O       -3.1370    -1.6710     2.7890 O.3   1 <1>  -0.5600 
 13 O        1.3720     3.9790    -0.8970 O.3   1 <1>  -0.0190 
 14 N       -0.7110     4.5070    -0.5360 N.2   1 <1>  -0.5650 
 15 C       -4.7610    -1.2310    -1.3120 C.ar  1 <1>  -0.1440 
 16 N        1.3220     5.2570    -0.6930 N.2   1 <1>  -0.4100 
 17 C        0.0950     5.5740    -0.4700 C.2   1 <1>   0.4620 
 18 C       -5.7540    -0.3160    -1.0250 C.ar  1 <1>  -0.1500 
 19 C       -5.1310    -2.3060    -2.0930 C.ar  1 <1>  -0.1500 
 20 C       -0.4270     6.9010    -0.2120 C.ar  1 <1>   0.0540 
 21 C       -7.0340    -0.5180    -1.5140 C.ar  1 <1>   0.1600 
 22 C       -6.4400    -2.4150    -2.5330 C.ar  1 <1>   0.1600 
 23 C        0.1390     7.7690     0.7330 C.ar  1 <1>   0.0820 
 24 C       -1.5380     7.3510    -0.9270 C.ar  1 <1>  -0.1500 
 25 N       -7.4010    -1.5480    -2.2600 N.ar  1 <1>  -0.6200 
 26 O        1.2010     7.3220     1.4530 O.3   1 <1>  -0.3630 
 27 C       -0.3960     9.0410     0.9260 C.ar  1 <1>  -0.1500 
 28 C       -2.0660     8.6120    -0.7310 C.ar  1 <1>  -0.1500 
 29 C        1.9380     8.1590     2.3170 C.3   1 <1>   0.0400 
 30 C       -1.4920     9.4610     0.1960 C.ar  1 <1>  -0.1500 
 31 H       -1.4930     0.0450     1.7230 H     1 <1>   0.3700 
 32 H       -0.0500     1.7390     1.1460 H     1 <1>   0.0800 
 33 H        1.3770     1.3090     0.2460 H     1 <1>   0.0800 
 34 H       -1.0310    -2.6250     0.5060 H     1 <1>   0.0800 
 35 H       -1.2700     2.0220    -1.0450 H     1 <1>   0.0800 
 36 H        0.2390     1.7650    -1.8740 H     1 <1>   0.0800 
 37 H       -3.3460    -2.9580     0.1970 H     1 <1>   0.0800 
 38 H       -1.1670    -2.0350     3.1240 H     1 <1>   0.0800 
 39 H       -2.1310    -3.3890     2.5330 H     1 <1>   0.0800 
 40 H       -4.8040    -2.2100     1.7760 H     1 <1>   0.0800 
 41 H       -4.2930    -0.5330     1.6080 H     1 <1>   0.0800 
 42 H       -2.6460    -1.3570    -1.5710 H     1 <1>   0.0800 
 43 H       -3.1600    -0.0330    -0.5740 H     1 <1>   0.0800 
 44 H       -5.5480     0.5530    -0.4270 H     1 <1>   0.1500 
 45 H       -4.4150    -3.0600    -2.3650 H     1 <1>   0.1500 
 46 H       -7.7960     0.2050    -1.2800 H     1 <1>   0.1500 
 47 H       -6.7110    -3.2610    -3.1410 H     1 <1>   0.1500 
 48 H       -1.9900     6.6950    -1.6510 H     1 <1>   0.1500 
 49 H        0.0240     9.7200     1.6430 H     1 <1>   0.1500 
 50 H       -2.9230     8.9330    -1.2990 H     1 <1>   0.1500 
 51 H        2.7610     7.5900     2.7080 H     1 <1>   0.0800 
 52 H        1.3000     8.4790     3.1210 H     1 <1>   0.0800 
 53 H        2.3080     8.9990     1.7560 H     1 <1>   0.0800 
 54 H       -1.9010    10.4450     0.3500 H     1 <1>   0.1500 
@<TRIPOS>BOND
  1   1   2  2   
  2   2   3  am  
  3   2   4  1   
  4   3   5  1   
  5   3  31  1   
  6   4   6  1   
  7   4  32  1   
  8   4  33  1   
  9   5   7  1   
 10   5   8  1   
 11   5  34  1   
 12   6   9  1   
 13   6  35  1   
 14   6  36  1   
 15   7  10  1   
 16   7  11  1   
 17   7  37  1   
 18   8  12  1   
 19   8  38  1   
 20   8  39  1   
 21   9  13  1   
 22   9  14  2   
 23  10  12  1   
 24  10  40  1   
 25  10  41  1   
 26  11  15  1   
 27  11  42  1   
 28  11  43  1   
 29  13  16  1   
 30  14  17  1   
 31  15  18  ar  
 32  15  19  ar  
 33  16  17  2   
 34  17  20  1   
 35  18  21  ar  
 36  18  44  1   
 37  19  22  ar  
 38  19  45  1   
 39  20  23  ar  
 40  20  24  ar  
 41  21  25  ar  
 42  21  46  1   
 43  22  25  ar  
 44  22  47  1   
 45  23  26  1   
 46  23  27  ar  
 47  24  28  ar  
 48  24  48  1   
 49  26  29  1   
 50  27  30  ar  
 51  27  49  1   
 52  28  30  ar  
 53  28  50  1   
 54  29  51  1   
 55  29  52  1   
 56  29  53  1   
 57  30  54  1   
@<TRIPOS>SUBSTRUCTURE
  1 ****   6 GROUP 4 **** **** 0

# MOE 2024.06 (io_trps.svl 2023.06)
