@<TRIPOS>MOLECULE
NONAME
36 38 1 0 0 
SMALL
USER_CHARGES


@<TRIPOS>ATOM
  1 O        0.4740    -0.0730     0.1200 O.3   1 <1>  -0.6800 
  2 C        1.6940    -0.2790    -0.5130 C.3   1 <1>   0.2000 
  3 C        2.4530    -1.4280     0.1440 C.3   1 <1>  -0.0800 
  4 C        2.6170     0.9260    -0.3620 C.3   1 <1>   0.2090 
  5 C        3.9290    -1.1020    -0.0990 C.3   1 <1>   0.2090 
  6 C        2.0470    -2.8120    -0.3870 C.3   1 <1>   0.0210 
  7 N        3.9960     0.3580    -0.3770 N.pl3 1 <1>  -0.8380 
  8 C        2.9560    -3.9050     0.1430 C.2   1 <1>   0.1080 
  9 C        5.0920     1.1270     0.0090 C.ar  1 <1>   0.4100 
 10 N        3.2200    -4.0530     1.4030 N.2   1 <1>  -0.7070 
 11 C        3.6050    -4.8520    -0.6440 C.2   1 <1>  -0.1500 
 12 N        4.8500     2.3950     0.3260 N.ar  1 <1>  -0.6200 
 13 C        6.3940     0.5910     0.0500 C.ar  1 <1>   0.1600 
 14 N        4.0510    -5.1120     1.4570 N.pl3 1 <1>   0.3000 
 15 C        4.3000    -5.6110     0.2280 C.2   1 <1>  -0.3320 
 16 C        5.9380     3.0520     0.6840 C.ar  1 <1>   0.1600 
 17 N        7.4840     1.2450     0.4090 N.ar  1 <1>  -0.6200 
 18 C        5.1990    -6.8050    -0.0390 C.3   1 <1>  -0.0600 
 19 C        7.2100     2.5000     0.7280 C.ar  1 <1>   0.1600 
 20 H       -0.0380    -0.9020     0.1610 H     1 <1>   0.4000 
 21 H        1.5170    -0.4670    -1.5570 H     1 <1>   0.0800 
 22 H        2.2980    -1.3930     1.2090 H     1 <1>   0.0800 
 23 H        2.4390     1.4130     0.5820 H     1 <1>   0.0800 
 24 H        2.4880     1.6240    -1.1700 H     1 <1>   0.0800 
 25 H        4.3020    -1.6360    -0.9570 H     1 <1>   0.0800 
 26 H        4.5160    -1.3640     0.7660 H     1 <1>   0.0800 
 27 H        2.0850    -2.8180    -1.4620 H     1 <1>   0.0800 
 28 H        1.0390    -3.0330    -0.0850 H     1 <1>   0.0800 
 29 H        3.5470    -4.9390    -1.7140 H     1 <1>   0.1500 
 30 H        6.5170    -0.4330    -0.2410 H     1 <1>   0.1500 
 31 H        4.4260    -5.4670     2.3440 H     1 <1>   0.2700 
 32 H        5.8150     4.0840     0.9590 H     1 <1>   0.1500 
 33 H        5.2390    -7.0090    -1.0950 H     1 <1>   0.0800 
 34 H        4.8200    -7.6770     0.4630 H     1 <1>   0.0800 
 35 H        6.1970    -6.6050     0.3080 H     1 <1>   0.0800 
 36 H        8.0340     3.1180     1.0360 H     1 <1>   0.1500 
@<TRIPOS>BOND
  1   1   2  1   
  2   1  20  1   
  3   2   3  1   
  4   2   4  1   
  5   2  21  1   
  6   3   5  1   
  7   3   6  1   
  8   3  22  1   
  9   4   7  1   
 10   4  23  1   
 11   4  24  1   
 12   5   7  1   
 13   5  25  1   
 14   5  26  1   
 15   6   8  1   
 16   6  27  1   
 17   6  28  1   
 18   7   9  1   
 19   8  10  2   
 20   8  11  1   
 21   9  12  ar  
 22   9  13  ar  
 23  10  14  1   
 24  11  15  2   
 25  11  29  1   
 26  12  16  ar  
 27  13  17  ar  
 28  13  30  1   
 29  14  15  1   
 30  14  31  1   
 31  15  18  1   
 32  16  19  ar  
 33  16  32  1   
 34  17  19  ar  
 35  18  33  1   
 36  18  34  1   
 37  18  35  1   
 38  19  36  1   
@<TRIPOS>SUBSTRUCTURE
  1 ****   5 GROUP 4 **** **** 0

# MOE 2024.06 (io_trps.svl 2023.06)
