@<TRIPOS>MOLECULE
NONAME
52 54 1 0 0 
SMALL
USER_CHARGES


@<TRIPOS>ATOM
  1 CL       1.5960    -0.7170    -2.8770 Cl    1 <1>  -0.1770 
  2 C        2.6210     0.4540    -2.0890 C.ar  1 <1>   0.1770 
  3 C        3.8450     0.0580    -1.5910 C.ar  1 <1>  -0.1500 
  4 C        2.1960     1.7620    -1.9750 C.ar  1 <1>  -0.1500 
  5 C        4.6550     0.9910    -0.9660 C.ar  1 <1>  -0.1500 
  6 C        3.0100     2.6910    -1.3490 C.ar  1 <1>  -0.1500 
  7 C        4.2520     2.3190    -0.8320 C.ar  1 <1>  -0.1430 
  8 C        5.1880     3.3160    -0.1330 C.3   1 <1>   0.4240 
  9 O        5.5320     2.7420     1.0770 O.3   1 <1>  -0.6800 
 10 C        6.4830     3.5140    -0.9370 C.3   1 <1>  -0.1600 
 11 C        4.5760     4.6840     0.1990 C.3   1 <1>  -0.1600 
 12 C        7.2750     4.7650    -0.5430 C.3   1 <1>   0.3430 
 13 C        5.5350     5.6040     0.9690 C.3   1 <1>   0.3430 
 14 N        6.9530     5.1410     0.8610 N.4   1 <1>  -0.9590 
 15 C        7.9100     6.1420     1.4610 C.3   1 <1>   0.4840 
 16 C        8.1580     7.4200     0.5960 C.2   1 <1>   0.5690 
 17 C        9.2000     5.3840     1.8010 C.3   1 <1>  -0.2400 
 18 O        7.2800     7.7930    -0.1480 O.2   1 <1>  -0.5700 
 19 N        9.3340     8.1000     0.6660 N.am  1 <1>  -0.7300 
 20 C        9.6950     9.2550    -0.1780 C.3   1 <1>   0.2840 
 21 C       11.1870     9.1660    -0.4310 C.ar  1 <1>  -0.1430 
 22 C       12.0820     9.7470     0.4550 C.ar  1 <1>  -0.1500 
 23 C       11.6690     8.4900    -1.5410 C.ar  1 <1>  -0.1500 
 24 C       13.4450     9.6500     0.2340 C.ar  1 <1>  -0.1500 
 25 C       13.0320     8.3940    -1.7630 C.ar  1 <1>  -0.1500 
 26 C       13.9200     8.9730    -0.8750 C.ar  1 <1>  -0.1500 
 27 H        4.1560    -0.9670    -1.6930 H     1 <1>   0.1500 
 28 H        1.2380     2.0440    -2.3740 H     1 <1>   0.1500 
 29 H        5.6090     0.6670    -0.5850 H     1 <1>   0.1500 
 30 H        2.6460     3.7000    -1.2810 H     1 <1>   0.1500 
 31 H        4.8480     2.0720     1.2880 H     1 <1>   0.4000 
 32 H        6.2350     3.6060    -1.9800 H     1 <1>   0.0800 
 33 H        7.1070     2.6440    -0.8450 H     1 <1>   0.0800 
 34 H        3.6680     4.5630     0.7630 H     1 <1>   0.0800 
 35 H        4.3140     5.1810    -0.7180 H     1 <1>   0.0800 
 36 H        7.0120     5.5830    -1.1970 H     1 <1>   0.0800 
 37 H        8.3290     4.5710    -0.6560 H     1 <1>   0.0800 
 38 H        5.2480     5.6150     2.0080 H     1 <1>   0.0800 
 39 H        5.4390     6.6090     0.5870 H     1 <1>   0.0800 
 40 H        6.9870     4.2600     1.4030 H     1 <1>   0.4500 
 41 H        7.4880     6.4840     2.3900 H     1 <1>   0.0800 
 42 H        9.7390     5.1140     0.9110 H     1 <1>   0.0800 
 43 H        8.9810     4.4990     2.3710 H     1 <1>   0.0800 
 44 H        9.8400     6.0050     2.4020 H     1 <1>   0.0800 
 45 H       10.1210     7.7820     1.2380 H     1 <1>   0.3700 
 46 H        9.4560    10.1710     0.3360 H     1 <1>   0.0800 
 47 H        9.1510     9.2300    -1.1080 H     1 <1>   0.0800 
 48 H       11.7270    10.2800     1.3200 H     1 <1>   0.1500 
 49 H       10.9870     8.0360    -2.2400 H     1 <1>   0.1500 
 50 H       14.1370    10.1030     0.9220 H     1 <1>   0.1500 
 51 H       13.4020     7.8700    -2.6280 H     1 <1>   0.1500 
 52 H       14.9800     8.8990    -1.0480 H     1 <1>   0.1500 
@<TRIPOS>BOND
  1   1   2  1   
  2   2   3  ar  
  3   2   4  ar  
  4   3   5  ar  
  5   3  27  1   
  6   4   6  ar  
  7   4  28  1   
  8   5   7  ar  
  9   5  29  1   
 10   6   7  ar  
 11   6  30  1   
 12   7   8  1   
 13   8   9  1   
 14   8  10  1   
 15   8  11  1   
 16   9  31  1   
 17  10  12  1   
 18  10  32  1   
 19  10  33  1   
 20  11  13  1   
 21  11  34  1   
 22  11  35  1   
 23  12  14  1   
 24  12  36  1   
 25  12  37  1   
 26  13  14  1   
 27  13  38  1   
 28  13  39  1   
 29  14  15  1   
 30  14  40  1   
 31  15  16  1   
 32  15  17  1   
 33  15  41  1   
 34  16  18  2   
 35  16  19  am  
 36  17  42  1   
 37  17  43  1   
 38  17  44  1   
 39  19  20  1   
 40  19  45  1   
 41  20  21  1   
 42  20  46  1   
 43  20  47  1   
 44  21  22  ar  
 45  21  23  ar  
 46  22  24  ar  
 47  22  48  1   
 48  23  25  ar  
 49  23  49  1   
 50  24  26  ar  
 51  24  50  1   
 52  25  26  ar  
 53  25  51  1   
 54  26  52  1   
@<TRIPOS>SUBSTRUCTURE
  1 ****  12 GROUP 4 **** **** 0

# MOE 2024.06 (io_trps.svl 2023.06)
