@<TRIPOS>MOLECULE
NONAME
47 49 1 0 0 
SMALL
USER_CHARGES


@<TRIPOS>ATOM
  1 S        0.5310    -0.8720     1.9550 S.o2  1 <1>   1.4470 
  2 O        0.1120    -0.0360     3.0600 O.2   1 <1>  -0.6500 
  3 O        1.2470    -2.1020     2.2170 O.2   1 <1>  -0.6500 
  4 N        1.6250     0.0790     1.0520 N.am  1 <1>  -0.8490 
  5 C       -0.7900    -1.0100     0.7270 C.ar  1 <1>  -0.0090 
  6 C        2.0490     1.3430     1.6750 C.3   1 <1>   0.1960 
  7 C        2.5820    -0.6630     0.2290 C.3   1 <1>   0.1960 
  8 C       -1.5650    -2.1480     0.5380 C.ar  1 <1>   0.0830 
  9 C       -1.0150     0.0700    -0.1070 C.ar  1 <1>  -0.1500 
 10 C        2.8460     2.3160     0.7640 C.3   1 <1>   0.4230 
 11 C        2.9510     0.0810    -1.0750 C.3   1 <1>  -0.0800 
 12 O       -1.3890    -3.1760     1.4000 O.3   1 <1>  -0.3630 
 13 C       -2.4790    -2.1930    -0.5170 C.ar  1 <1>  -0.1500 
 14 C       -1.8490     0.0330    -1.2150 C.ar  1 <1>  -0.1790 
 15 N        2.2980     2.5040    -0.6350 N.4   1 <1>  -0.9590 
 16 C        4.3440     1.9240     0.6980 C.3   1 <1>   0.1200 
 17 C        4.4500     0.4450    -1.1650 C.3   1 <1>   0.1200 
 18 C        2.0000     1.2490    -1.4030 C.3   1 <1>   0.3430 
 19 C       -2.1230    -4.3760     1.3020 C.3   1 <1>   0.0400 
 20 C       -2.6050    -1.1230    -1.3860 C.ar  1 <1>  -0.1500 
 21 C       -1.8470     1.1530    -2.1430 C.2   1 <1>   0.9790 
 22 C        1.1040     3.4010    -0.7140 C.3   1 <1>   0.2630 
 23 O        4.7560     1.6980    -0.6230 O.3   1 <1>  -0.5600 
 24 O       -2.7470     1.3100    -2.9770 O.co2 1 <1>  -0.9000 
 25 O       -0.8870     1.9540    -2.1230 O.co2 1 <1>  -0.9000 
 26 H        1.1700     1.8740     1.9970 H     1 <1>   0.0800 
 27 H        2.6210     1.1250     2.5610 H     1 <1>   0.0800 
 28 H        3.4530    -0.9090     0.8130 H     1 <1>   0.0800 
 29 H        2.1300    -1.6000    -0.0580 H     1 <1>   0.0800 
 30 H       -0.5020     0.9920     0.0880 H     1 <1>   0.1500 
 31 H        2.8190     3.2710     1.2600 H     1 <1>   0.0800 
 32 H        2.7930    -0.6470    -1.8510 H     1 <1>   0.0800 
 33 H       -3.0950    -3.0550    -0.6860 H     1 <1>   0.1500 
 34 H        3.0840     2.9240    -1.1510 H     1 <1>   0.4500 
 35 H        4.5690     1.0580     1.2960 H     1 <1>   0.0800 
 36 H        4.9330     2.7410     1.0770 H     1 <1>   0.0800 
 37 H        4.7450     0.4850    -2.2000 H     1 <1>   0.0800 
 38 H        5.0630    -0.2960    -0.6790 H     1 <1>   0.0800 
 39 H        0.9900     0.9350    -1.2080 H     1 <1>   0.0800 
 40 H        2.0510     1.4680    -2.4570 H     1 <1>   0.0800 
 41 H       -1.8030    -5.0280     2.0940 H     1 <1>   0.0800 
 42 H       -1.9220    -4.8320     0.3490 H     1 <1>   0.0800 
 43 H       -3.1700    -4.1540     1.4110 H     1 <1>   0.0800 
 44 H       -3.2910    -1.1670    -2.2180 H     1 <1>   0.1500 
 45 H        0.2670     2.9580    -0.1980 H     1 <1>   0.0800 
 46 H        0.8090     3.5380    -1.7430 H     1 <1>   0.0800 
 47 H        1.3160     4.3640    -0.2820 H     1 <1>   0.0800 
@<TRIPOS>BOND
  1   1   2  2   
  2   1   3  2   
  3   1   4  am  
  4   1   5  1   
  5   4   6  1   
  6   4   7  1   
  7   5   8  ar  
  8   5   9  ar  
  9   6  10  1   
 10   6  26  1   
 11   6  27  1   
 12   7  11  1   
 13   7  28  1   
 14   7  29  1   
 15   8  12  1   
 16   8  13  ar  
 17   9  14  ar  
 18   9  30  1   
 19  10  15  1   
 20  10  16  1   
 21  10  31  1   
 22  11  17  1   
 23  11  18  1   
 24  11  32  1   
 25  12  19  1   
 26  13  20  ar  
 27  13  33  1   
 28  14  20  ar  
 29  14  21  1   
 30  15  18  1   
 31  15  22  1   
 32  15  34  1   
 33  16  23  1   
 34  16  35  1   
 35  16  36  1   
 36  17  23  1   
 37  17  37  1   
 38  17  38  1   
 39  18  39  1   
 40  18  40  1   
 41  19  41  1   
 42  19  42  1   
 43  19  43  1   
 44  20  44  1   
 45  21  24  ar  
 46  21  25  ar  
 47  22  45  1   
 48  22  46  1   
 49  22  47  1   
@<TRIPOS>SUBSTRUCTURE
  1 ****   4 GROUP 4 **** **** 0

# MOE 2024.06 (io_trps.svl 2023.06)
