@<TRIPOS>MOLECULE
NONAME
44 46 1 0 0 
SMALL
USER_CHARGES


@<TRIPOS>ATOM
  1 O        1.0900     0.8570    -1.9440 O.2   1 <1>  -0.5700 
  2 C        1.8140     0.5390    -1.0340 C.2   1 <1>   0.5690 
  3 N        2.6010     1.3690    -0.2840 N.am  1 <1>  -0.4770 
  4 C        1.9370    -0.8920    -0.5870 C.3   1 <1>  -0.0990 
  5 C        2.6650     2.7710    -0.3420 C.ar  1 <1>   0.1170 
  6 C        3.3210     0.6080     0.7580 C.3   1 <1>   0.1400 
  7 C        3.1120    -0.8680     0.3970 C.3   1 <1>  -0.1600 
  8 C        3.8700     3.4480    -0.1770 C.ar  1 <1>  -0.1500 
  9 C        1.5240     3.5350    -0.5650 C.ar  1 <1>  -0.1500 
 10 C        3.9280     4.8280    -0.2150 C.ar  1 <1>  -0.1500 
 11 C        1.5820     4.9150    -0.6030 C.ar  1 <1>  -0.1500 
 12 C        2.7820     5.6030    -0.4180 C.ar  1 <1>   0.0860 
 13 C        2.8220     7.0520    -0.4380 C.2   1 <1>   0.5440 
 14 O        2.0400     7.6810    -1.1260 O.2   1 <1>  -0.5700 
 15 N        3.7350     7.7210     0.3370 N.am  1 <1>  -0.4930 
 16 C        3.9850     9.1130     0.4340 C.2   1 <1>   0.0630 
 17 C        3.4050    10.1740    -0.2650 C.2   1 <1>   0.1390 
 18 C        4.8800     9.6990     1.2550 C.2   1 <1>  -0.3020 
 19 N        3.8980    11.3260     0.0880 N.2   1 <1>  -0.7070 
 20 N        4.8110    11.0310     1.0340 N.pl3 1 <1>   0.3140 
 21 C        5.6070    12.0780     1.6920 C.3   1 <1>   0.1570 
 22 C        6.7480    12.5020     0.7950 C.2   1 <1>   0.5690 
 23 O        7.8440    12.6320     1.2860 O.2   1 <1>  -0.5700 
 24 N        6.5130    12.7370    -0.5250 N.am  1 <1>  -0.7300 
 25 C        7.5170    13.1590    -1.5310 C.3   1 <1>   0.0600 
 26 H        2.1270    -1.5360    -1.4260 H     1 <1>   0.0800 
 27 H        1.0250    -1.1830    -0.0990 H     1 <1>   0.0800 
 28 H        2.8860     0.8310     1.7180 H     1 <1>   0.0800 
 29 H        4.3680     0.8540     0.7680 H     1 <1>   0.0800 
 30 H        3.9990    -1.2380    -0.0890 H     1 <1>   0.0800 
 31 H        2.9220    -1.4670     1.2710 H     1 <1>   0.0800 
 32 H        4.7750     2.8890    -0.0320 H     1 <1>   0.1500 
 33 H        0.5790     3.0420    -0.7130 H     1 <1>   0.1500 
 34 H        4.8820     5.3090    -0.1010 H     1 <1>   0.1500 
 35 H        0.6820     5.4780    -0.7820 H     1 <1>   0.1500 
 36 H        4.2850     7.1470     0.9720 H     1 <1>   0.3700 
 37 H        2.6380    10.0570    -1.0110 H     1 <1>   0.1500 
 38 H        5.5500     9.2570     1.9670 H     1 <1>   0.1500 
 39 H        5.9940    11.7000     2.6180 H     1 <1>   0.0800 
 40 H        4.9760    12.9210     1.8890 H     1 <1>   0.0800 
 41 H        5.5690    12.5160    -0.8800 H     1 <1>   0.3700 
 42 H        8.4690    13.3350    -1.0580 H     1 <1>   0.0800 
 43 H        7.1930    14.0670    -2.0090 H     1 <1>   0.0800 
 44 H        7.6330    12.3890    -2.2730 H     1 <1>   0.0800 
@<TRIPOS>BOND
  1   1   2  2   
  2   2   3  am  
  3   2   4  1   
  4   3   5  1   
  5   3   6  1   
  6   4   7  1   
  7   4  26  1   
  8   4  27  1   
  9   5   8  ar  
 10   5   9  ar  
 11   6   7  1   
 12   6  28  1   
 13   6  29  1   
 14   7  30  1   
 15   7  31  1   
 16   8  10  ar  
 17   8  32  1   
 18   9  11  ar  
 19   9  33  1   
 20  10  12  ar  
 21  10  34  1   
 22  11  12  ar  
 23  11  35  1   
 24  12  13  1   
 25  13  14  2   
 26  13  15  am  
 27  15  16  1   
 28  15  36  1   
 29  16  17  1   
 30  16  18  2   
 31  17  19  2   
 32  17  37  1   
 33  18  20  1   
 34  18  38  1   
 35  19  20  1   
 36  20  21  1   
 37  21  22  1   
 38  21  39  1   
 39  21  40  1   
 40  22  23  2   
 41  22  24  am  
 42  24  25  1   
 43  24  41  1   
 44  25  42  1   
 45  25  43  1   
 46  25  44  1   
@<TRIPOS>SUBSTRUCTURE
  1 ****  13 GROUP 4 **** **** 0

# MOE 2024.06 (io_trps.svl 2023.06)
