@<TRIPOS>MOLECULE
NONAME
45 48 1 0 0 
SMALL
USER_CHARGES


@<TRIPOS>ATOM
  1 O       -3.4400     0.5920    -1.9510 O.2   1 <1>  -0.5700 
  2 C       -3.1610    -0.4430    -1.3970 C.2   1 <1>   0.5690 
  3 N       -2.3270    -0.4430    -0.3370 N.am  1 <1>  -0.7300 
  4 C       -3.7140    -1.7560    -1.9190 C.3   1 <1>  -0.0190 
  5 C       -1.9760    -1.6690     0.4280 C.3   1 <1>   0.2200 
  6 C       -2.5720    -2.6740    -2.3900 C.3   1 <1>   0.1200 
  7 C       -4.6760    -2.4490    -0.9310 C.3   1 <1>   0.1100 
  8 C       -1.1710    -2.6370    -0.4660 C.3   1 <1>   0.1200 
  9 C       -3.2100    -2.3580     1.0730 C.3   1 <1>   0.1100 
 10 O       -1.9740    -3.3760    -1.3400 O.3   1 <1>  -0.5600 
 11 N       -4.5250    -2.0150     0.4770 N.3   1 <1>  -0.8100 
 12 C       -5.6670    -2.4930     1.2970 C.3   1 <1>   0.2530 
 13 C       -5.7800    -4.0170     1.4110 C.ar  1 <1>   0.1670 
 14 N       -6.4730    -4.6520     0.5110 N.ar  1 <1>  -0.6200 
 15 C       -5.1450    -4.6630     2.4830 C.ar  1 <1>  -0.1500 
 16 C       -6.5700    -6.0100     0.5880 C.ar  1 <1>   0.3100 
 17 C       -5.2270    -6.0160     2.6040 C.ar  1 <1>  -0.1500 
 18 C       -7.2970    -6.7400    -0.3930 C.ar  1 <1>   0.0820 
 19 C       -5.9530    -6.7310     1.6370 C.ar  1 <1>   0.0000 
 20 O       -7.8820    -6.0350    -1.4010 O.3   1 <1>  -0.3630 
 21 C       -7.3940    -8.1140    -0.3120 C.ar  1 <1>  -0.1500 
 22 C       -6.0760    -8.1320     1.6850 C.ar  1 <1>  -0.1500 
 23 C       -8.6490    -6.6450    -2.4140 C.3   1 <1>   0.0400 
 24 C       -6.7820    -8.8100     0.7310 C.ar  1 <1>  -0.1500 
 25 H       -2.1090     0.4640     0.0720 H     1 <1>   0.3700 
 26 H       -4.2830    -1.5200    -2.7980 H     1 <1>   0.0800 
 27 H       -1.3160    -1.3720     1.2230 H     1 <1>   0.0800 
 28 H       -1.8160    -2.1150    -2.9150 H     1 <1>   0.0800 
 29 H       -2.9730    -3.4130    -3.0610 H     1 <1>   0.0800 
 30 H       -4.5610    -3.5180    -1.0000 H     1 <1>   0.0800 
 31 H       -5.6800    -2.2190    -1.2430 H     1 <1>   0.0800 
 32 H       -0.6710    -3.3530     0.1610 H     1 <1>   0.0800 
 33 H       -0.4260    -2.1080    -1.0330 H     1 <1>   0.0800 
 34 H       -3.2280    -2.0670     2.1080 H     1 <1>   0.0800 
 35 H       -3.0730    -3.4260     1.0480 H     1 <1>   0.0800 
 36 H       -5.5920    -2.0690     2.2810 H     1 <1>   0.0800 
 37 H       -6.5800    -2.1190     0.8660 H     1 <1>   0.0800 
 38 H       -4.6000    -4.0770     3.1980 H     1 <1>   0.1500 
 39 H       -4.7530    -6.5430     3.4120 H     1 <1>   0.1500 
 40 H       -7.9360    -8.6880    -1.0390 H     1 <1>   0.1500 
 41 H       -5.6020    -8.6650     2.4900 H     1 <1>   0.1500 
 42 H       -9.0010    -5.8730    -3.0740 H     1 <1>   0.0800 
 43 H       -9.4840    -7.1500    -1.9630 H     1 <1>   0.0800 
 44 H       -8.0260    -7.3330    -2.9570 H     1 <1>   0.0800 
 45 H       -6.8730    -9.8820     0.7710 H     1 <1>   0.1500 
@<TRIPOS>BOND
  1   1   2  2   
  2   2   3  am  
  3   2   4  1   
  4   3   5  1   
  5   3  25  1   
  6   4   6  1   
  7   4   7  1   
  8   4  26  1   
  9   5   8  1   
 10   5   9  1   
 11   5  27  1   
 12   6  10  1   
 13   6  28  1   
 14   6  29  1   
 15   7  11  1   
 16   7  30  1   
 17   7  31  1   
 18   8  10  1   
 19   8  32  1   
 20   8  33  1   
 21   9  11  1   
 22   9  34  1   
 23   9  35  1   
 24  11  12  1   
 25  12  13  1   
 26  12  36  1   
 27  12  37  1   
 28  13  14  ar  
 29  13  15  ar  
 30  14  16  ar  
 31  15  17  ar  
 32  15  38  1   
 33  16  18  ar  
 34  16  19  ar  
 35  17  19  ar  
 36  17  39  1   
 37  18  20  1   
 38  18  21  ar  
 39  19  22  ar  
 40  20  23  1   
 41  21  24  ar  
 42  21  40  1   
 43  22  24  ar  
 44  22  41  1   
 45  23  42  1   
 46  23  43  1   
 47  23  44  1   
 48  24  45  1   
@<TRIPOS>SUBSTRUCTURE
  1 ****  13 GROUP 4 **** **** 0

# MOE 2024.06 (io_trps.svl 2023.06)
