@<TRIPOS>MOLECULE
NONAME
42 44 1 0 0 
SMALL
USER_CHARGES


@<TRIPOS>ATOM
  1 O       -1.9890     0.5840    -1.6500 O.2   1 <1>  -0.5700 
  2 C       -2.0220     0.9180    -0.4820 C.2   1 <1>   0.7160 
  3 N       -2.2620    -0.0430     0.4530 N.am  1 <1>  -0.7300 
  4 C       -1.8290     2.2900    -0.0680 C.2   1 <1>  -0.0860 
  5 C       -2.4840    -1.4780     0.1740 C.3   1 <1>   0.2200 
  6 C       -1.7270     3.4350    -0.8040 C.2   1 <1>  -0.0400 
  7 C       -1.7010     2.7370     1.2680 C.2   1 <1>  -0.1500 
  8 C       -3.9760    -1.7650     0.2050 C.3   1 <1>  -0.0800 
  9 C       -1.9860    -2.3060     1.3510 C.3   1 <1>   0.1200 
 10 O       -1.5580     4.4800    -0.0300 O.3   1 <1>  -0.2800 
 11 C       -1.7760     3.6860    -2.2980 C.3   1 <1>  -0.0600 
 12 C       -1.5410     4.0730     1.2170 C.2   1 <1>  -0.0400 
 13 C       -4.2390    -1.9830     1.7010 C.3   1 <1>   0.1200 
 14 C       -4.3290    -3.0040    -0.6390 C.3   1 <1>  -0.0160 
 15 O       -3.0060    -2.2630     2.3020 O.3   1 <1>  -0.5600 
 16 C       -1.3530     5.0990     2.3110 C.3   1 <1>  -0.0600 
 17 C       -5.8260    -3.2780    -0.6270 C.ar  1 <1>  -0.1440 
 18 C       -6.7100    -2.4960    -1.3420 C.ar  1 <1>  -0.1500 
 19 C       -6.3780    -4.3180     0.0940 C.ar  1 <1>  -0.1500 
 20 C       -8.0650    -2.7800    -1.2990 C.ar  1 <1>   0.1600 
 21 C       -7.7480    -4.5160     0.0690 C.ar  1 <1>   0.1600 
 22 N       -8.6060    -3.7700    -0.6090 N.ar  1 <1>  -0.6200 
 23 H       -2.3870     0.2270     1.4280 H     1 <1>   0.3700 
 24 H       -2.0130    -1.7590    -0.7540 H     1 <1>   0.0800 
 25 H       -1.7240     2.1150     2.1430 H     1 <1>   0.1500 
 26 H       -4.5400    -0.9270    -0.1650 H     1 <1>   0.0800 
 27 H       -1.0760    -1.9210     1.7760 H     1 <1>   0.0800 
 28 H       -1.8480    -3.3330     1.0650 H     1 <1>   0.0800 
 29 H       -1.9360     2.7760    -2.8450 H     1 <1>   0.0800 
 30 H       -0.8480     4.1220    -2.6190 H     1 <1>   0.0800 
 31 H       -2.5750     4.3680    -2.5220 H     1 <1>   0.0800 
 32 H       -4.9140    -2.7970     1.8970 H     1 <1>   0.0800 
 33 H       -4.6240    -1.0860     2.1550 H     1 <1>   0.0800 
 34 H       -3.8020    -3.8680    -0.2740 H     1 <1>   0.0800 
 35 H       -4.0190    -2.8410    -1.6570 H     1 <1>   0.0800 
 36 H       -1.3590     4.6240     3.2740 H     1 <1>   0.0800 
 37 H       -2.1490     5.8210     2.2700 H     1 <1>   0.0800 
 38 H       -0.4160     5.6060     2.1740 H     1 <1>   0.0800 
 39 H       -6.3590    -1.6690    -1.9320 H     1 <1>   0.1500 
 40 H       -5.7580    -4.9760     0.6740 H     1 <1>   0.1500 
 41 H       -8.7400    -2.1580    -1.8630 H     1 <1>   0.1500 
 42 H       -8.1610    -5.3320     0.6380 H     1 <1>   0.1500 
@<TRIPOS>BOND
  1   1   2  2   
  2   2   3  am  
  3   2   4  1   
  4   3   5  1   
  5   3  23  1   
  6   4   6  2   
  7   4   7  1   
  8   5   8  1   
  9   5   9  1   
 10   5  24  1   
 11   6  10  1   
 12   6  11  1   
 13   7  12  2   
 14   7  25  1   
 15   8  13  1   
 16   8  14  1   
 17   8  26  1   
 18   9  15  1   
 19   9  27  1   
 20   9  28  1   
 21  10  12  1   
 22  11  29  1   
 23  11  30  1   
 24  11  31  1   
 25  12  16  1   
 26  13  15  1   
 27  13  32  1   
 28  13  33  1   
 29  14  17  1   
 30  14  34  1   
 31  14  35  1   
 32  16  36  1   
 33  16  37  1   
 34  16  38  1   
 35  17  18  ar  
 36  17  19  ar  
 37  18  20  ar  
 38  18  39  1   
 39  19  21  ar  
 40  19  40  1   
 41  20  22  ar  
 42  20  41  1   
 43  21  22  ar  
 44  21  42  1   
@<TRIPOS>SUBSTRUCTURE
  1 ****   8 GROUP 4 **** **** 0

# MOE 2024.06 (io_trps.svl 2023.06)
