@<TRIPOS>MOLECULE
NONAME
57 59 1 0 0 
SMALL
USER_CHARGES


@<TRIPOS>ATOM
  1 O        0.0610     0.7430     0.6890 O.2   1 <1>  -0.5700 
  2 C       -0.0060     1.8890     0.2990 C.2   1 <1>   0.5440 
  3 N        1.1760     2.5570     0.1820 N.am  1 <1>  -0.7300 
  4 C       -1.2790     2.5120    -0.0070 C.ar  1 <1>   0.0860 
  5 C        1.3580     4.0160    -0.0390 C.3   1 <1>   0.1400 
  6 C       -1.4620     3.2490    -1.1760 C.ar  1 <1>  -0.1500 
  7 C       -2.3570     2.4170     0.8690 C.ar  1 <1>  -0.1500 
  8 C        2.4320     4.6100     0.8710 C.3   1 <1>   0.1400 
  9 C       -2.6340     3.9430    -1.4210 C.ar  1 <1>   0.0830 
 10 C       -3.5510     3.0710     0.6280 C.ar  1 <1>   0.0830 
 11 N        2.5540     6.0690     0.5810 N.am  1 <1>  -0.6600 
 12 O       -2.7510     4.6860    -2.5520 O.3   1 <1>  -0.3630 
 13 C       -3.6860     3.8810    -0.5050 C.ar  1 <1>   0.0830 
 14 O       -4.5320     2.9040     1.5540 O.3   1 <1>  -0.3630 
 15 C        1.7080     6.9620     1.1970 C.2   1 <1>   0.5690 
 16 C        3.5630     6.4230    -0.4590 C.3   1 <1>   0.0600 
 17 C       -1.7590     5.6630    -2.7990 C.3   1 <1>   0.0400 
 18 O       -4.8080     4.6280    -0.6870 O.3   1 <1>  -0.3630 
 19 C       -5.8200     2.5410     1.1030 C.3   1 <1>   0.0400 
 20 O        0.9830     6.6150     2.1000 O.2   1 <1>  -0.5700 
 21 C        1.6800     8.4160     0.7480 C.3   1 <1>  -0.0990 
 22 C       -4.6700     6.0270    -0.5530 C.3   1 <1>   0.1200 
 23 C        0.5450     9.2580     1.3530 C.3   1 <1>   0.0210 
 24 C       -4.5620     6.3910     0.9330 C.3   1 <1>  -0.1600 
 25 C       -0.8380     8.8370     0.8860 C.2   1 <1>   0.0460 
 26 C       -4.2630     7.8820     1.1370 C.3   1 <1>   0.0960 
 27 N       -1.2160     8.8730    -0.3980 N.2   1 <1>  -0.2270 
 28 C       -1.8630     8.4230     1.6420 C.2   1 <1>  -0.3020 
 29 N       -2.8670     8.2290     0.7880 N.pl3 1 <1>   0.3140 
 30 N       -2.4520     8.5120    -0.4540 N.2   1 <1>  -0.4180 
 31 H        2.0050     2.0080     0.4200 H     1 <1>   0.3700 
 32 H        0.4340     4.5320     0.1600 H     1 <1>   0.0800 
 33 H        1.6310     4.1780    -1.0670 H     1 <1>   0.0800 
 34 H       -0.6680     3.2790    -1.8990 H     1 <1>   0.1500 
 35 H       -2.2550     1.8230     1.7600 H     1 <1>   0.1500 
 36 H        3.3760     4.1230     0.7050 H     1 <1>   0.0800 
 37 H        2.1480     4.4660     1.9010 H     1 <1>   0.0800 
 38 H        4.4810     5.8920    -0.2720 H     1 <1>   0.0800 
 39 H        3.7830     7.4750    -0.4500 H     1 <1>   0.0800 
 40 H        3.1930     6.1520    -1.4320 H     1 <1>   0.0800 
 41 H       -2.1310     6.3340    -3.5520 H     1 <1>   0.0800 
 42 H       -0.8660     5.1790    -3.1500 H     1 <1>   0.0800 
 43 H       -1.5650     6.2090    -1.8920 H     1 <1>   0.0800 
 44 H       -6.3400     2.0730     1.9180 H     1 <1>   0.0800 
 45 H       -5.7250     1.8530     0.2810 H     1 <1>   0.0800 
 46 H       -6.3470     3.4260     0.7960 H     1 <1>   0.0800 
 47 H        1.5950     8.4480    -0.3220 H     1 <1>   0.0800 
 48 H        2.6160     8.8630     1.0260 H     1 <1>   0.0800 
 49 H       -5.5390     6.4820    -0.9930 H     1 <1>   0.0800 
 50 H       -3.8040     6.3490    -1.0980 H     1 <1>   0.0800 
 51 H        0.6880    10.2870     1.0760 H     1 <1>   0.0800 
 52 H        0.5880     9.2010     2.4260 H     1 <1>   0.0800 
 53 H       -3.7890     5.8150     1.4110 H     1 <1>   0.0800 
 54 H       -5.4980     6.1540     1.4070 H     1 <1>   0.0800 
 55 H       -4.4190     8.1400     2.1690 H     1 <1>   0.0800 
 56 H       -4.9230     8.4820     0.5380 H     1 <1>   0.0800 
 57 H       -1.9310     8.2700     2.7020 H     1 <1>   0.1500 
@<TRIPOS>BOND
  1   1   2  2   
  2   2   3  am  
  3   2   4  1   
  4   3   5  1   
  5   3  31  1   
  6   4   6  ar  
  7   4   7  ar  
  8   5   8  1   
  9   5  32  1   
 10   5  33  1   
 11   6   9  ar  
 12   6  34  1   
 13   7  10  ar  
 14   7  35  1   
 15   8  11  1   
 16   8  36  1   
 17   8  37  1   
 18   9  12  1   
 19   9  13  ar  
 20  10  13  ar  
 21  10  14  1   
 22  11  15  am  
 23  11  16  1   
 24  12  17  1   
 25  13  18  1   
 26  14  19  1   
 27  15  20  2   
 28  15  21  1   
 29  16  38  1   
 30  16  39  1   
 31  16  40  1   
 32  17  41  1   
 33  17  42  1   
 34  17  43  1   
 35  18  22  1   
 36  19  44  1   
 37  19  45  1   
 38  19  46  1   
 39  21  23  1   
 40  21  47  1   
 41  21  48  1   
 42  22  24  1   
 43  22  49  1   
 44  22  50  1   
 45  23  25  1   
 46  23  51  1   
 47  23  52  1   
 48  24  26  1   
 49  24  53  1   
 50  24  54  1   
 51  25  27  1   
 52  25  28  2   
 53  26  29  1   
 54  26  55  1   
 55  26  56  1   
 56  27  30  2   
 57  28  29  1   
 58  28  57  1   
 59  29  30  1   
@<TRIPOS>SUBSTRUCTURE
  1 ****   9 GROUP 4 **** **** 0

# MOE 2024.06 (io_trps.svl 2023.06)
