@<TRIPOS>MOLECULE
NONAME
48 50 1 0 0 
SMALL
USER_CHARGES


@<TRIPOS>ATOM
  1 O        0.0170    -0.1980    -1.3790 O.2   1 <1>  -0.5700 
  2 C       -0.9160     0.5520    -1.2240 C.2   1 <1>   0.5690 
  3 N       -2.1970     0.0980    -1.0710 N.am  1 <1>  -0.6600 
  4 C       -0.6260     2.0360    -1.1720 C.3   1 <1>  -0.0990 
  5 C       -3.4030     0.9290    -0.8140 C.3   1 <1>   0.1400 
  6 C       -2.5340    -1.3420    -0.9940 C.3   1 <1>   0.1400 
  7 C       -0.3580     2.4740     0.2710 C.3   1 <1>   0.0210 
  8 C       -4.5220    -0.0710    -0.5110 C.3   1 <1>   0.2000 
  9 C       -3.8270    -1.3920    -0.1800 C.3   1 <1>  -0.0800 
 10 C       -0.4440     3.9810     0.3850 C.2   1 <1>   0.1080 
 11 O       -5.2940     0.3370     0.5660 O.3   1 <1>  -0.6800 
 12 C       -4.7110    -2.6150    -0.4740 C.3   1 <1>  -0.0160 
 13 N       -1.5840     4.5830     0.5160 N.2   1 <1>  -0.7070 
 14 C        0.6280     4.8710     0.3540 C.2   1 <1>  -0.1810 
 15 C       -4.0050    -3.9140    -0.1250 C.ar  1 <1>   0.1670 
 16 N       -1.2680     5.8890     0.5800 N.pl3 1 <1>   0.3000 
 17 C        0.0630     6.0920     0.4840 C.2   1 <1>  -0.3320 
 18 C        2.0920     4.4990     0.2030 C.3   1 <1>  -0.0590 
 19 N       -3.2040    -4.4140    -1.0530 N.ar  1 <1>  -0.6200 
 20 C       -4.2210    -4.5020     1.1130 C.ar  1 <1>  -0.1500 
 21 C        0.6840     7.4780     0.5280 C.3   1 <1>  -0.0600 
 22 C       -2.5900    -5.5420    -0.7330 C.ar  1 <1>   0.1600 
 23 C       -3.5760    -5.6770     1.4320 C.ar  1 <1>  -0.1500 
 24 C       -2.7370    -6.2040     0.4740 C.ar  1 <1>  -0.1500 
 25 H        0.2350     2.2510    -1.7780 H     1 <1>   0.0800 
 26 H       -1.4530     2.5870    -1.5780 H     1 <1>   0.0800 
 27 H       -3.2280     1.5810     0.0240 H     1 <1>   0.0800 
 28 H       -3.6460     1.5080    -1.6870 H     1 <1>   0.0800 
 29 H       -2.6900    -1.7210    -1.9900 H     1 <1>   0.0800 
 30 H       -1.7460    -1.9050    -0.5220 H     1 <1>   0.0800 
 31 H        0.6070     2.1230     0.5880 H     1 <1>   0.0800 
 32 H       -1.0940     2.0480     0.9290 H     1 <1>   0.0800 
 33 H       -5.1630    -0.1710    -1.3700 H     1 <1>   0.0800 
 34 H       -3.5450    -1.3990     0.8580 H     1 <1>   0.0800 
 35 H       -4.7280     0.4930     1.3470 H     1 <1>   0.4000 
 36 H       -4.9820    -2.6330    -1.5150 H     1 <1>   0.0800 
 37 H       -5.6210    -2.5380     0.0940 H     1 <1>   0.0800 
 38 H       -1.9830     6.6170     0.6900 H     1 <1>   0.2700 
 39 H        2.2280     3.9000    -0.6790 H     1 <1>   0.0800 
 40 H        2.4150     3.9370     1.0610 H     1 <1>   0.0800 
 41 H        2.7060     5.3760     0.1170 H     1 <1>   0.0800 
 42 H       -4.8870    -4.0450     1.8220 H     1 <1>   0.1500 
 43 H        1.7540     7.4210     0.4560 H     1 <1>   0.0800 
 44 H        0.4330     7.9660     1.4520 H     1 <1>   0.0800 
 45 H        0.3200     8.0720    -0.2920 H     1 <1>   0.0800 
 46 H       -1.9320    -5.9620    -1.4750 H     1 <1>   0.1500 
 47 H       -3.7200    -6.1600     2.3830 H     1 <1>   0.1500 
 48 H       -2.2020    -7.1180     0.6570 H     1 <1>   0.1500 
@<TRIPOS>BOND
  1   1   2  2   
  2   2   3  am  
  3   2   4  1   
  4   3   5  1   
  5   3   6  1   
  6   4   7  1   
  7   4  25  1   
  8   4  26  1   
  9   5   8  1   
 10   5  27  1   
 11   5  28  1   
 12   6   9  1   
 13   6  29  1   
 14   6  30  1   
 15   7  10  1   
 16   7  31  1   
 17   7  32  1   
 18   8   9  1   
 19   8  11  1   
 20   8  33  1   
 21   9  12  1   
 22   9  34  1   
 23  10  13  2   
 24  10  14  1   
 25  11  35  1   
 26  12  15  1   
 27  12  36  1   
 28  12  37  1   
 29  13  16  1   
 30  14  17  2   
 31  14  18  1   
 32  15  19  ar  
 33  15  20  ar  
 34  16  17  1   
 35  16  38  1   
 36  17  21  1   
 37  18  39  1   
 38  18  40  1   
 39  18  41  1   
 40  19  22  ar  
 41  20  23  ar  
 42  20  42  1   
 43  21  43  1   
 44  21  44  1   
 45  21  45  1   
 46  22  24  ar  
 47  22  46  1   
 48  23  24  ar  
 49  23  47  1   
 50  24  48  1   
@<TRIPOS>SUBSTRUCTURE
  1 ****   3 GROUP 4 **** **** 0

# MOE 2024.06 (io_trps.svl 2023.06)
