@<TRIPOS>MOLECULE
NONAME
46 48 1 0 0 
SMALL
USER_CHARGES


@<TRIPOS>ATOM
  1 F        0.8330     1.4980     0.6320 F     1 <1>  -0.3400 
  2 C        1.3770     1.9110    -0.5050 C.3   1 <1>   1.1640 
  3 F        1.2440     0.9090    -1.3670 F     1 <1>  -0.3400 
  4 F        0.5990     2.8890    -0.9560 F     1 <1>  -0.3400 
  5 C        2.8370     2.3480    -0.3180 C.ar  1 <1>  -0.1440 
  6 C        3.1430     3.6600     0.0310 C.ar  1 <1>  -0.1500 
  7 C        3.8820     1.4430    -0.4840 C.ar  1 <1>  -0.1500 
  8 C        4.4560     4.0660     0.2040 C.ar  1 <1>  -0.1440 
  9 C        5.1950     1.8440    -0.3110 C.ar  1 <1>  -0.1500 
 10 C        5.4810     3.1520     0.0310 C.ar  1 <1>  -0.1500 
 11 C        4.7700     5.5060     0.5750 C.3   1 <1>  -0.0160 
 12 C        5.0630     6.3250    -0.6820 C.3   1 <1>   0.2090 
 13 N        5.2550     7.7480    -0.3180 N.pl3 1 <1>  -0.8690 
 14 C        6.4000     8.2620     0.2460 C.ar  1 <1>   0.4100 
 15 N        7.4880     7.4960     0.1660 N.ar  1 <1>  -0.6200 
 16 C        6.3760     9.5250     0.8650 C.ar  1 <1>   0.0860 
 17 C        8.5850     7.9700     0.7200 C.ar  1 <1>   0.1600 
 18 C        5.1660    10.3130     0.8930 C.2   1 <1>   0.5440 
 19 C        7.5510     9.9860     1.4450 C.ar  1 <1>  -0.1500 
 20 C        8.6710     9.1910     1.3660 C.ar  1 <1>  -0.1500 
 21 O        4.1220     9.8230     1.2920 O.2   1 <1>  -0.5700 
 22 N        5.1540    11.6250     0.4740 N.am  1 <1>  -0.6600 
 23 C        3.9280    12.4530     0.5130 C.3   1 <1>   0.1400 
 24 C        6.1670    12.2250    -0.4240 C.3   1 <1>   0.1400 
 25 C        4.2920    13.7310    -0.2350 C.3   1 <1>  -0.1600 
 26 C        5.4180    13.3170    -1.1780 C.3   1 <1>  -0.1600 
 27 H        2.3500     4.3770     0.1700 H     1 <1>   0.1500 
 28 H        3.6820     0.4180    -0.7490 H     1 <1>   0.1500 
 29 H        5.9960     1.1370    -0.4430 H     1 <1>   0.1500 
 30 H        6.5050     3.4590     0.1620 H     1 <1>   0.1500 
 31 H        5.6270     5.5330     1.2240 H     1 <1>   0.0800 
 32 H        3.9370     5.9380     1.1000 H     1 <1>   0.0800 
 33 H        4.2390     6.2470    -1.3700 H     1 <1>   0.0800 
 34 H        5.9440     5.9470    -1.1720 H     1 <1>   0.0800 
 35 H        4.3930     8.2280    -0.0150 H     1 <1>   0.4000 
 36 H        9.4660     7.3540     0.6600 H     1 <1>   0.1500 
 37 H        7.5750    10.9390     1.9440 H     1 <1>   0.1500 
 38 H        9.6030     9.5070     1.7990 H     1 <1>   0.1500 
 39 H        3.6370    12.6530     1.5300 H     1 <1>   0.0800 
 40 H        3.1340    11.9310     0.0070 H     1 <1>   0.0800 
 41 H        6.5770    11.4920    -1.0990 H     1 <1>   0.0800 
 42 H        6.9540    12.6560     0.1700 H     1 <1>   0.0800 
 43 H        4.6530    14.4580     0.4710 H     1 <1>   0.0800 
 44 H        3.4460    14.1400    -0.7590 H     1 <1>   0.0800 
 45 H        5.0040    12.8970    -2.0790 H     1 <1>   0.0800 
 46 H        6.0610    14.1390    -1.4370 H     1 <1>   0.0800 
@<TRIPOS>BOND
  1   1   2  1   
  2   2   3  1   
  3   2   4  1   
  4   2   5  1   
  5   5   6  ar  
  6   5   7  ar  
  7   6   8  ar  
  8   6  27  1   
  9   7   9  ar  
 10   7  28  1   
 11   8  10  ar  
 12   8  11  1   
 13   9  10  ar  
 14   9  29  1   
 15  10  30  1   
 16  11  12  1   
 17  11  31  1   
 18  11  32  1   
 19  12  13  1   
 20  12  33  1   
 21  12  34  1   
 22  13  14  1   
 23  13  35  1   
 24  14  15  ar  
 25  14  16  ar  
 26  15  17  ar  
 27  16  18  1   
 28  16  19  ar  
 29  17  20  ar  
 30  17  36  1   
 31  18  21  2   
 32  18  22  am  
 33  19  20  ar  
 34  19  37  1   
 35  20  38  1   
 36  22  23  1   
 37  22  24  1   
 38  23  25  1   
 39  23  39  1   
 40  23  40  1   
 41  24  26  1   
 42  24  41  1   
 43  24  42  1   
 44  25  26  1   
 45  25  43  1   
 46  25  44  1   
 47  26  45  1   
 48  26  46  1   
@<TRIPOS>SUBSTRUCTURE
  1 ****  12 GROUP 4 **** **** 0

# MOE 2024.06 (io_trps.svl 2023.06)
