@<TRIPOS>MOLECULE
NONAME
55 58 1 0 0 
SMALL
USER_CHARGES


@<TRIPOS>ATOM
  1 O       -2.1020     2.2400    -2.2670 O.2   1 <1>  -0.5700 
  2 C       -2.4760     1.8440    -1.1800 C.2   1 <1>   0.5440 
  3 N       -3.2930     0.7350    -1.1070 N.am  1 <1>  -0.6600 
  4 C       -2.0690     2.5500     0.0030 C.ar  1 <1>   0.0860 
  5 C       -3.9750     0.3260     0.1590 C.3   1 <1>   0.1400 
  6 C       -3.5670    -0.0830    -2.3280 C.3   1 <1>   0.1400 
  7 C       -1.1980     2.0440     0.9620 C.ar  1 <1>   0.1660 
  8 C       -2.5690     3.8140     0.2590 C.ar  1 <1>   0.1600 
  9 C       -5.3030    -0.3730    -0.1360 C.3   1 <1>  -0.1600 
 10 C       -3.8770    -1.5220    -1.9270 C.3   1 <1>  -0.1600 
 11 N       -0.9130     2.7000     2.0610 N.ar  1 <1>  -0.6200 
 12 C       -0.5110     0.6970     0.8110 C.3   1 <1>  -0.0970 
 13 N       -2.2950     4.4920     1.3470 N.ar  1 <1>  -0.6200 
 14 C       -5.1540    -1.5920    -1.0730 C.3   1 <1>   0.4240 
 15 C       -1.4860     3.8840     2.1960 C.ar  1 <1>   0.7200 
 16 O       -6.2020    -1.5140    -2.0070 O.3   1 <1>  -0.5600 
 17 C       -5.2000    -2.9180    -0.2800 C.ar  1 <1>  -0.1430 
 18 N       -1.2030     4.5480     3.3120 N.pl3 1 <1>  -0.9000 
 19 C       -7.4530    -1.9740    -1.5990 C.3   1 <1>   0.1200 
 20 C       -6.2490    -3.8140    -0.4320 C.ar  1 <1>  -0.1440 
 21 C       -4.1950    -3.2350     0.6250 C.ar  1 <1>  -0.1500 
 22 C       -7.3760    -3.4840    -1.3920 C.3   1 <1>  -0.0170 
 23 C       -6.2740    -4.9990     0.2850 C.ar  1 <1>  -0.1500 
 24 C       -4.2060    -4.4060     1.3620 C.ar  1 <1>   0.0830 
 25 C       -5.2580    -5.3200     1.1830 C.ar  1 <1>   0.0830 
 26 O       -3.1430    -4.5350     2.2100 O.3   1 <1>  -0.3630 
 27 O       -5.2760    -6.5010     1.8700 O.3   1 <1>  -0.3620 
 28 C       -3.1210    -5.4600     3.2740 C.3   1 <1>   0.0400 
 29 C       -6.1730    -7.5430     1.5530 C.3   1 <1>   0.0400 
 30 H       -4.1670     1.1910     0.7720 H     1 <1>   0.0800 
 31 H       -3.3290    -0.3340     0.7090 H     1 <1>   0.0800 
 32 H       -2.7090    -0.0670    -2.9790 H     1 <1>   0.0800 
 33 H       -4.4020     0.3410    -2.8610 H     1 <1>   0.0800 
 34 H       -3.2220     4.2660    -0.4690 H     1 <1>   0.1500 
 35 H       -5.9550     0.3550    -0.5850 H     1 <1>   0.0800 
 36 H       -5.7490    -0.6830     0.7910 H     1 <1>   0.0800 
 37 H       -3.0300    -1.9060    -1.3920 H     1 <1>   0.0800 
 38 H       -4.0010    -2.1340    -2.8020 H     1 <1>   0.0800 
 39 H       -0.5980     0.3070    -0.1860 H     1 <1>   0.0800 
 40 H       -0.9400    -0.0070     1.5010 H     1 <1>   0.0800 
 41 H        0.5350     0.8020     1.0380 H     1 <1>   0.0800 
 42 H       -1.4440     5.5340     3.3540 H     1 <1>   0.4000 
 43 H       -0.4260     4.2200     3.8790 H     1 <1>   0.4000 
 44 H       -8.1620    -1.7350    -2.3730 H     1 <1>   0.0800 
 45 H       -7.7370    -1.4710    -0.6910 H     1 <1>   0.0800 
 46 H       -3.3710    -2.5660     0.7800 H     1 <1>   0.1500 
 47 H       -7.1990    -3.9650    -2.3370 H     1 <1>   0.0800 
 48 H       -8.3140    -3.8360    -1.0020 H     1 <1>   0.0800 
 49 H       -7.1010    -5.6620     0.1300 H     1 <1>   0.1500 
 50 H       -2.2790    -5.2300     3.9010 H     1 <1>   0.0800 
 51 H       -3.0130    -6.4510     2.8700 H     1 <1>   0.0800 
 52 H       -4.0340    -5.3710     3.8350 H     1 <1>   0.0800 
 53 H       -5.9200    -8.3950     2.1570 H     1 <1>   0.0800 
 54 H       -6.0690    -7.7890     0.5110 H     1 <1>   0.0800 
 55 H       -7.1750    -7.2230     1.7780 H     1 <1>   0.0800 
@<TRIPOS>BOND
  1   1   2  2   
  2   2   3  am  
  3   2   4  1   
  4   3   5  1   
  5   3   6  1   
  6   4   7  ar  
  7   4   8  ar  
  8   5   9  1   
  9   5  30  1   
 10   5  31  1   
 11   6  10  1   
 12   6  32  1   
 13   6  33  1   
 14   7  11  ar  
 15   7  12  1   
 16   8  13  ar  
 17   8  34  1   
 18   9  14  1   
 19   9  35  1   
 20   9  36  1   
 21  10  14  1   
 22  10  37  1   
 23  10  38  1   
 24  11  15  ar  
 25  12  39  1   
 26  12  40  1   
 27  12  41  1   
 28  13  15  ar  
 29  14  16  1   
 30  14  17  1   
 31  15  18  1   
 32  16  19  1   
 33  17  20  ar  
 34  17  21  ar  
 35  18  42  1   
 36  18  43  1   
 37  19  22  1   
 38  19  44  1   
 39  19  45  1   
 40  20  22  1   
 41  20  23  ar  
 42  21  24  ar  
 43  21  46  1   
 44  22  47  1   
 45  22  48  1   
 46  23  25  ar  
 47  23  49  1   
 48  24  25  ar  
 49  24  26  1   
 50  25  27  1   
 51  26  28  1   
 52  27  29  1   
 53  28  50  1   
 54  28  51  1   
 55  28  52  1   
 56  29  53  1   
 57  29  54  1   
 58  29  55  1   
@<TRIPOS>SUBSTRUCTURE
  1 ****   5 GROUP 4 **** **** 0

# MOE 2024.06 (io_trps.svl 2023.06)
