@<TRIPOS>MOLECULE
NONAME
41 43 1 0 0 
SMALL
USER_CHARGES


@<TRIPOS>ATOM
  1 O        2.0480     2.3360    -0.6840 O.2   1 <1>  -0.5700 
  2 C        1.7140     1.2320    -0.2930 C.2   1 <1>   0.5440 
  3 N        0.5190     1.1360     0.3670 N.am  1 <1>  -0.7300 
  4 C        2.5820     0.0890    -0.5160 C.ar  1 <1>   0.0860 
  5 C       -0.4270     2.2420     0.6540 C.3   1 <1>   0.0600 
  6 C        2.1560    -1.2590    -0.4630 C.ar  1 <1>   0.4100 
  7 C        3.9250     0.3130    -0.8050 C.ar  1 <1>  -0.1500 
  8 N        2.9680    -2.3010    -0.6700 N.ar  1 <1>  -0.6200 
  9 N        0.8370    -1.6010    -0.2090 N.3   1 <1>  -0.5900 
 10 C        4.7550    -0.7630    -1.0160 C.ar  1 <1>  -0.1500 
 11 C        4.2300    -2.0360    -0.9360 C.ar  1 <1>   0.1600 
 12 C        0.4860    -2.7880     0.6620 C.3   1 <1>   0.2450 
 13 C        0.0230    -2.2130    -1.3250 C.3   1 <1>   0.2450 
 14 C        0.0870    -3.5760    -0.6050 C.3   1 <1>   0.2580 
 15 O       -1.1970    -4.1630    -0.4940 O.3   1 <1>  -0.3400 
 16 C       -1.4040    -5.2690     0.2680 C.ar  1 <1>   0.0820 
 17 C       -2.7220    -5.6410     0.5200 C.ar  1 <1>  -0.1430 
 18 C       -0.3610    -6.0260     0.7980 C.ar  1 <1>  -0.1500 
 19 C       -2.9820    -6.7580     1.2980 C.ar  1 <1>  -0.1500 
 20 C       -3.8790    -4.8330    -0.0510 C.3   1 <1>  -0.0970 
 21 C       -0.6320    -7.1390     1.5740 C.ar  1 <1>  -0.1500 
 22 C       -1.9420    -7.5040     1.8250 C.ar  1 <1>  -0.1500 
 23 H        0.1920     0.1850     0.5780 H     1 <1>   0.3700 
 24 H        0.0140     3.1910     0.3990 H     1 <1>   0.0800 
 25 H       -0.6740     2.2450     1.7010 H     1 <1>   0.0800 
 26 H       -1.3250     2.1100     0.0760 H     1 <1>   0.0800 
 27 H        4.3100     1.3180    -0.8620 H     1 <1>   0.1500 
 28 H        5.7960    -0.6170    -1.2400 H     1 <1>   0.1500 
 29 H        4.8840    -2.8770    -1.1020 H     1 <1>   0.1500 
 30 H       -0.3410    -2.5540     1.3090 H     1 <1>   0.0000 
 31 H        1.3410    -3.1900     1.1760 H     1 <1>   0.0000 
 32 H        0.5490    -2.1930    -2.2630 H     1 <1>   0.0000 
 33 H       -0.9610    -1.7800    -1.3610 H     1 <1>   0.0000 
 34 H        0.8200    -4.2560    -1.0020 H     1 <1>   0.0000 
 35 H        0.6660    -5.7740     0.6160 H     1 <1>   0.1500 
 36 H       -3.9960    -7.0560     1.4990 H     1 <1>   0.1500 
 37 H       -3.8150    -3.8150     0.2880 H     1 <1>   0.0800 
 38 H       -4.8250    -5.2380     0.2580 H     1 <1>   0.0800 
 39 H       -3.8340    -4.8440    -1.1250 H     1 <1>   0.0800 
 40 H        0.1750    -7.7210     1.9820 H     1 <1>   0.1500 
 41 H       -2.1530    -8.3700     2.4280 H     1 <1>   0.1500 
@<TRIPOS>BOND
  1   1   2  2   
  2   2   3  am  
  3   2   4  1   
  4   3   5  1   
  5   3  23  1   
  6   4   6  ar  
  7   4   7  ar  
  8   5  24  1   
  9   5  25  1   
 10   5  26  1   
 11   6   8  ar  
 12   6   9  1   
 13   7  10  ar  
 14   7  27  1   
 15   8  11  ar  
 16   9  12  1   
 17   9  13  1   
 18  10  11  ar  
 19  10  28  1   
 20  11  29  1   
 21  12  14  1   
 22  12  30  1   
 23  12  31  1   
 24  13  14  1   
 25  13  32  1   
 26  13  33  1   
 27  14  15  1   
 28  14  34  1   
 29  15  16  1   
 30  16  17  ar  
 31  16  18  ar  
 32  17  19  ar  
 33  17  20  1   
 34  18  21  ar  
 35  18  35  1   
 36  19  22  ar  
 37  19  36  1   
 38  20  37  1   
 39  20  38  1   
 40  20  39  1   
 41  21  22  ar  
 42  21  40  1   
 43  22  41  1   
@<TRIPOS>SUBSTRUCTURE
  1 ****  12 GROUP 4 **** **** 0

# MOE 2024.06 (io_trps.svl 2023.06)
