@<TRIPOS>MOLECULE
NONAME
61 63 1 0 0 
SMALL
USER_CHARGES


@<TRIPOS>ATOM
  1 O       -1.7280     0.2800     1.8930 O.2   1 <1>  -0.5700 
  2 C       -2.0220     0.8170     0.8430 C.2   1 <1>   0.5440 
  3 N       -2.6750     0.0960    -0.1300 N.am  1 <1>  -0.6600 
  4 C       -1.6870     2.2150     0.6500 C.ar  1 <1>   0.0860 
  5 C       -2.6180    -1.4060    -0.0690 C.3   1 <1>   0.3640 
  6 C       -3.7390     0.7410    -0.9560 C.3   1 <1>   0.1400 
  7 C       -1.0030     2.6480    -0.4840 C.ar  1 <1>  -0.1500 
  8 C       -2.0220     3.1720     1.6040 C.ar  1 <1>  -0.1500 
  9 C       -1.2050    -1.8380    -0.4730 C.ar  1 <1>  -0.1430 
 10 C       -3.6560    -2.1750    -0.9410 C.3   1 <1>   0.2000 
 11 C       -4.3610    -0.2070    -1.9840 C.3   1 <1>   0.1200 
 12 C       -0.6660     3.9780    -0.6590 C.ar  1 <1>  -0.1500 
 13 C       -1.6910     4.5040     1.4380 C.ar  1 <1>  -0.1500 
 14 C       -0.4370    -2.5890     0.4030 C.ar  1 <1>  -0.1500 
 15 C       -0.6760    -1.4960    -1.7080 C.ar  1 <1>  -0.1500 
 16 O       -4.7390    -1.3850    -1.3520 O.3   1 <1>  -0.5600 
 17 C       -4.2450    -3.3920    -0.2090 C.3   1 <1>   0.1200 
 18 C       -1.0000     4.9160     0.3070 C.ar  1 <1>  -0.1430 
 19 C        0.8460    -3.0160     0.0650 C.ar  1 <1>   0.0830 
 20 C        0.5960    -1.9080    -2.0590 C.ar  1 <1>  -0.1500 
 21 O       -3.2430    -4.2500     0.2380 O.3   1 <1>  -0.6800 
 22 C       -0.6030     6.3710     0.1370 C.3   1 <1>   0.4860 
 23 O        1.5820    -3.7840     0.9230 O.3   1 <1>  -0.3620 
 24 C        1.3690    -2.6600    -1.1900 C.ar  1 <1>   0.0830 
 25 N        0.5360     6.6650     1.0560 N.4   1 <1>  -0.9590 
 26 C        1.1400    -4.0760     2.2320 C.3   1 <1>   0.0400 
 27 O        2.6040    -2.9850    -1.6690 O.3   1 <1>  -0.3620 
 28 C        0.8320     8.1280     1.1100 C.3   1 <1>   0.2630 
 29 C        1.7580     5.8770     0.6970 C.3   1 <1>   0.2630 
 30 C        3.6980    -3.2070    -0.8080 C.3   1 <1>   0.0400 
 31 H       -2.7850    -1.6970     0.9550 H     1 <1>   0.0800 
 32 H       -4.5180     1.0910    -0.3000 H     1 <1>   0.0800 
 33 H       -3.3350     1.5940    -1.4710 H     1 <1>   0.0800 
 34 H       -0.7280     1.9190    -1.2290 H     1 <1>   0.1500 
 35 H       -2.5470     2.8510     2.4890 H     1 <1>   0.1500 
 36 H       -3.1790    -2.5280    -1.8380 H     1 <1>   0.0800 
 37 H       -3.6710    -0.4330    -2.7780 H     1 <1>   0.0800 
 38 H       -5.2450     0.2370    -2.4080 H     1 <1>   0.0800 
 39 H       -0.1370     4.2660    -1.5530 H     1 <1>   0.1500 
 40 H       -1.9780     5.2070     2.2020 H     1 <1>   0.1500 
 41 H       -0.8690    -2.8360     1.3550 H     1 <1>   0.1500 
 42 H       -1.2500    -0.9060    -2.4000 H     1 <1>   0.1500 
 43 H       -4.8910    -3.9460    -0.8660 H     1 <1>   0.0800 
 44 H       -4.8030    -3.0680     0.6520 H     1 <1>   0.0800 
 45 H        1.0040    -1.6450    -3.0180 H     1 <1>   0.1500 
 46 H       -2.7060    -4.5890    -0.5070 H     1 <1>   0.4000 
 47 H       -1.4460     6.9980     0.3780 H     1 <1>   0.0800 
 48 H       -0.3170     6.5600    -0.8840 H     1 <1>   0.0800 
 49 H        0.2340     6.3480     1.9900 H     1 <1>   0.4500 
 50 H        1.9080    -4.6430     2.7250 H     1 <1>   0.0800 
 51 H        0.2370    -4.6570     2.1740 H     1 <1>   0.0800 
 52 H        0.9720    -3.1520     2.7580 H     1 <1>   0.0800 
 53 H        1.1440     8.4850     0.1410 H     1 <1>   0.0800 
 54 H        1.6220     8.3230     1.8180 H     1 <1>   0.0800 
 55 H       -0.0430     8.6790     1.4160 H     1 <1>   0.0800 
 56 H        2.0960     6.1350    -0.2930 H     1 <1>   0.0800 
 57 H        1.5430     4.8200     0.7230 H     1 <1>   0.0800 
 58 H        2.5520     6.0780     1.3980 H     1 <1>   0.0800 
 59 H        4.6010    -3.1230    -1.3850 H     1 <1>   0.0800 
 60 H        3.6200    -4.1970    -0.3960 H     1 <1>   0.0800 
 61 H        3.6870    -2.4660    -0.0290 H     1 <1>   0.0800 
@<TRIPOS>BOND
  1   1   2  2   
  2   2   3  am  
  3   2   4  1   
  4   3   5  1   
  5   3   6  1   
  6   4   7  ar  
  7   4   8  ar  
  8   5   9  1   
  9   5  10  1   
 10   5  31  1   
 11   6  11  1   
 12   6  32  1   
 13   6  33  1   
 14   7  12  ar  
 15   7  34  1   
 16   8  13  ar  
 17   8  35  1   
 18   9  14  ar  
 19   9  15  ar  
 20  10  16  1   
 21  10  17  1   
 22  10  36  1   
 23  11  16  1   
 24  11  37  1   
 25  11  38  1   
 26  12  18  ar  
 27  12  39  1   
 28  13  18  ar  
 29  13  40  1   
 30  14  19  ar  
 31  14  41  1   
 32  15  20  ar  
 33  15  42  1   
 34  17  21  1   
 35  17  43  1   
 36  17  44  1   
 37  18  22  1   
 38  19  23  1   
 39  19  24  ar  
 40  20  24  ar  
 41  20  45  1   
 42  21  46  1   
 43  22  25  1   
 44  22  47  1   
 45  22  48  1   
 46  23  26  1   
 47  24  27  1   
 48  25  28  1   
 49  25  29  1   
 50  25  49  1   
 51  26  50  1   
 52  26  51  1   
 53  26  52  1   
 54  27  30  1   
 55  28  53  1   
 56  28  54  1   
 57  28  55  1   
 58  29  56  1   
 59  29  57  1   
 60  29  58  1   
 61  30  59  1   
 62  30  60  1   
 63  30  61  1   
@<TRIPOS>SUBSTRUCTURE
  1 ****   2 GROUP 4 **** **** 0

# MOE 2024.06 (io_trps.svl 2023.06)
