@<TRIPOS>MOLECULE
NONAME
52 55 1 0 0 
SMALL
USER_CHARGES


@<TRIPOS>ATOM
  1 CL       0.2490     0.7700     2.0070 Cl    1 <1>  -0.1770 
  2 C        1.3320    -0.4240     1.3410 C.ar  1 <1>   0.1770 
  3 C        1.0540    -1.7690     1.5400 C.ar  1 <1>  -0.1500 
  4 C        2.4440    -0.0040     0.6290 C.ar  1 <1>  -0.1500 
  5 C        1.9040    -2.7330     1.0140 C.ar  1 <1>  -0.1440 
  6 C        3.2850    -0.9710     0.1070 C.ar  1 <1>  -0.1440 
  7 C        3.0120    -2.3020     0.2980 C.ar  1 <1>   0.0830 
  8 C        1.6470    -4.2140     1.2090 C.3   1 <1>   0.4870 
  9 C        4.5490    -0.8370    -0.7010 C.3   1 <1>   0.1440 
 10 O        3.9160    -3.1090    -0.2840 O.3   1 <1>  -0.3630 
 11 N        1.6480    -4.8690    -0.1220 N.4   1 <1>  -0.9590 
 12 C        4.9620    -2.3220    -0.8500 C.3   1 <1>   0.1200 
 13 C        5.6030    -0.0260     0.0620 C.3   1 <1>  -0.2400 
 14 C        4.2440    -0.1960    -2.0600 C.3   1 <1>  -0.2400 
 15 C        0.4450    -4.4670    -0.9160 C.3   1 <1>   0.3430 
 16 C        1.6260    -6.3560    -0.0020 C.3   1 <1>   0.3430 
 17 C       -0.5490    -5.6210    -0.7590 C.3   1 <1>   0.2000 
 18 C        0.3740    -6.8380    -0.7460 C.3   1 <1>  -0.0800 
 19 O       -1.1800    -5.4940     0.4780 O.3   1 <1>  -0.6800 
 20 C       -0.2070    -8.1430    -0.1680 C.3   1 <1>   0.0200 
 21 C        0.8820    -9.1920    -0.0470 C.2   1 <1>  -0.0400 
 22 O        1.6720    -9.4270    -1.0600 O.3   1 <1>  -0.0190 
 23 C        1.2600    -9.9870     0.9650 C.2   1 <1>  -0.1500 
 24 N        2.5680   -10.3240    -0.7760 N.2   1 <1>  -0.4100 
 25 C        2.3400   -10.6890     0.4340 C.2   1 <1>   0.1080 
 26 C        3.1420   -11.7390     1.1710 C.3   1 <1>  -0.0590 
 27 H        0.1780    -2.0370     2.1050 H     1 <1>   0.1500 
 28 H        2.6370     1.0450     0.4910 H     1 <1>   0.1500 
 29 H        0.7000    -4.3700     1.7010 H     1 <1>   0.0800 
 30 H        2.4310    -4.6260     1.8230 H     1 <1>   0.0800 
 31 H        2.5120    -4.5310    -0.5820 H     1 <1>   0.4500 
 32 H        5.8640    -2.5360    -0.3040 H     1 <1>   0.0800 
 33 H        5.0860    -2.6070    -1.8790 H     1 <1>   0.0800 
 34 H        5.2680     0.9870     0.2020 H     1 <1>   0.0800 
 35 H        6.5310    -0.0070    -0.4820 H     1 <1>   0.0800 
 36 H        5.7800    -0.4590     1.0310 H     1 <1>   0.0800 
 37 H        3.8870     0.8100    -1.9270 H     1 <1>   0.0800 
 38 H        3.4870    -0.7560    -2.5790 H     1 <1>   0.0800 
 39 H        5.1300    -0.1650    -2.6690 H     1 <1>   0.0800 
 40 H        0.0220    -3.5340    -0.5790 H     1 <1>   0.0800 
 41 H        0.7180    -4.3760    -1.9540 H     1 <1>   0.0800 
 42 H        2.5130    -6.8000    -0.4260 H     1 <1>   0.0800 
 43 H        1.5560    -6.6410     1.0350 H     1 <1>   0.0800 
 44 H       -1.2930    -5.6370    -1.5380 H     1 <1>   0.0800 
 45 H        0.6720    -7.0340    -1.7620 H     1 <1>   0.0800 
 46 H       -2.0280    -5.9870     0.4950 H     1 <1>   0.4000 
 47 H       -0.9810    -8.5150    -0.8170 H     1 <1>   0.0800 
 48 H       -0.6320    -7.9830     0.8070 H     1 <1>   0.0800 
 49 H        0.8600   -10.0920     1.9570 H     1 <1>   0.1500 
 50 H        3.5780   -11.3140     2.0560 H     1 <1>   0.0800 
 51 H        3.9290   -12.1100     0.5400 H     1 <1>   0.0800 
 52 H        2.5050   -12.5580     1.4470 H     1 <1>   0.0800 
@<TRIPOS>BOND
  1   1   2  1   
  2   2   3  ar  
  3   2   4  ar  
  4   3   5  ar  
  5   3  27  1   
  6   4   6  ar  
  7   4  28  1   
  8   5   7  ar  
  9   5   8  1   
 10   6   7  ar  
 11   6   9  1   
 12   7  10  1   
 13   8  11  1   
 14   8  29  1   
 15   8  30  1   
 16   9  12  1   
 17   9  13  1   
 18   9  14  1   
 19  10  12  1   
 20  11  15  1   
 21  11  16  1   
 22  11  31  1   
 23  12  32  1   
 24  12  33  1   
 25  13  34  1   
 26  13  35  1   
 27  13  36  1   
 28  14  37  1   
 29  14  38  1   
 30  14  39  1   
 31  15  17  1   
 32  15  40  1   
 33  15  41  1   
 34  16  18  1   
 35  16  42  1   
 36  16  43  1   
 37  17  18  1   
 38  17  19  1   
 39  17  44  1   
 40  18  20  1   
 41  18  45  1   
 42  19  46  1   
 43  20  21  1   
 44  20  47  1   
 45  20  48  1   
 46  21  22  1   
 47  21  23  2   
 48  22  24  1   
 49  23  25  1   
 50  23  49  1   
 51  24  25  2   
 52  25  26  1   
 53  26  50  1   
 54  26  51  1   
 55  26  52  1   
@<TRIPOS>SUBSTRUCTURE
  1 ****  11 GROUP 4 **** **** 0

# MOE 2024.06 (io_trps.svl 2023.06)
