@<TRIPOS>MOLECULE
NONAME
45 47 1 0 0 
SMALL
USER_CHARGES


@<TRIPOS>ATOM
  1 O       -2.0430    -0.4670    -2.7770 O.2   1 <1>  -0.5700 
  2 C       -2.1210    -0.8440    -1.6360 C.2   1 <1>   0.5690 
  3 N       -2.0120     0.0100    -0.5750 N.am  1 <1>  -0.6600 
  4 C       -2.3970    -2.3080    -1.4100 C.3   1 <1>  -0.0190 
  5 C       -2.1590    -0.4320     0.8410 C.3   1 <1>   0.2200 
  6 C       -1.6720     1.4540    -0.7750 C.3   1 <1>   0.0600 
  7 C       -1.2770    -3.0000    -0.6030 C.3   1 <1>   0.1200 
  8 C       -3.8300    -2.4580    -0.8880 C.3   1 <1>   0.3430 
  9 C       -1.0670    -1.4630     1.2140 C.3   1 <1>   0.1200 
 10 C       -3.6100    -0.9100     1.1270 C.3   1 <1>   0.3430 
 11 O       -1.3660    -2.7620     0.7750 O.3   1 <1>  -0.5600 
 12 N       -3.9510    -2.2770     0.5970 N.4   1 <1>  -0.9590 
 13 C       -5.2250    -2.8130     1.1430 C.3   1 <1>   0.4860 
 14 C       -5.3240    -4.2840     0.7860 C.ar  1 <1>  -0.1440 
 15 C       -4.3500    -5.1740     1.2190 C.ar  1 <1>  -0.1500 
 16 C       -6.3760    -4.7520     0.0090 C.ar  1 <1>  -0.1500 
 17 C       -4.4260    -6.5040     0.8580 C.ar  1 <1>   0.0820 
 18 C       -6.4530    -6.0900    -0.3450 C.ar  1 <1>  -0.1500 
 19 O       -3.4660    -7.3470     1.2690 O.3   1 <1>  -0.5330 
 20 C       -5.4720    -6.9820     0.0760 C.ar  1 <1>   0.0820 
 21 O       -5.4690    -8.3100    -0.2310 O.3   1 <1>  -0.3620 
 22 C       -6.5390    -8.8970    -0.9390 C.3   1 <1>   0.0400 
 23 H       -2.3830    -2.7590    -2.3860 H     1 <1>   0.0800 
 24 H       -1.9900     0.4330     1.4600 H     1 <1>   0.0800 
 25 H       -2.4540     2.0770    -0.3780 H     1 <1>   0.0800 
 26 H       -1.5560     1.6830    -1.8210 H     1 <1>   0.0800 
 27 H       -0.7460     1.6860    -0.2780 H     1 <1>   0.0800 
 28 H       -0.3040    -2.6880    -0.9490 H     1 <1>   0.0800 
 29 H       -1.3480    -4.0670    -0.7370 H     1 <1>   0.0800 
 30 H       -4.1600    -3.4510    -1.1460 H     1 <1>   0.0800 
 31 H       -4.4720    -1.7590    -1.4000 H     1 <1>   0.0800 
 32 H       -0.9830    -1.5160     2.2860 H     1 <1>   0.0800 
 33 H       -0.1080    -1.1680     0.8220 H     1 <1>   0.0800 
 34 H       -4.2960    -0.1820     0.7270 H     1 <1>   0.0800 
 35 H       -3.7380    -0.9220     2.1960 H     1 <1>   0.0800 
 36 H       -3.1930    -2.8900     0.9620 H     1 <1>   0.4500 
 37 H       -5.2440    -2.7090     2.2160 H     1 <1>   0.0800 
 38 H       -6.0630    -2.2750     0.7300 H     1 <1>   0.0800 
 39 H       -3.5230    -4.8630     1.8330 H     1 <1>   0.1500 
 40 H       -7.1490    -4.0830    -0.3330 H     1 <1>   0.1500 
 41 H       -7.2810    -6.4190    -0.9460 H     1 <1>   0.1500 
 42 H       -3.6680    -8.2520     0.9510 H     1 <1>   0.4500 
 43 H       -6.3410    -9.9500    -1.0330 H     1 <1>   0.0800 
 44 H       -6.6000    -8.4510    -1.9160 H     1 <1>   0.0800 
 45 H       -7.4500    -8.7470    -0.3870 H     1 <1>   0.0800 
@<TRIPOS>BOND
  1   1   2  2   
  2   2   3  am  
  3   2   4  1   
  4   3   5  1   
  5   3   6  1   
  6   4   7  1   
  7   4   8  1   
  8   4  23  1   
  9   5   9  1   
 10   5  10  1   
 11   5  24  1   
 12   6  25  1   
 13   6  26  1   
 14   6  27  1   
 15   7  11  1   
 16   7  28  1   
 17   7  29  1   
 18   8  12  1   
 19   8  30  1   
 20   8  31  1   
 21   9  11  1   
 22   9  32  1   
 23   9  33  1   
 24  10  12  1   
 25  10  34  1   
 26  10  35  1   
 27  12  13  1   
 28  12  36  1   
 29  13  14  1   
 30  13  37  1   
 31  13  38  1   
 32  14  15  ar  
 33  14  16  ar  
 34  15  17  ar  
 35  15  39  1   
 36  16  18  ar  
 37  16  40  1   
 38  17  19  1   
 39  17  20  ar  
 40  18  20  ar  
 41  18  41  1   
 42  19  42  1   
 43  20  21  1   
 44  21  22  1   
 45  22  43  1   
 46  22  44  1   
 47  22  45  1   
@<TRIPOS>SUBSTRUCTURE
  1 ****   8 GROUP 4 **** **** 0

# MOE 2024.06 (io_trps.svl 2023.06)
