@<TRIPOS>MOLECULE
NONAME
57 59 1 0 0 
SMALL
USER_CHARGES


@<TRIPOS>ATOM
  1 O        0.5720     0.1380     0.3420 O.3   1 <1>  -0.3630 
  2 C        0.3120     1.4590     0.1700 C.ar  1 <1>   0.0830 
  3 C       -0.4080    -0.8740     0.4270 C.3   1 <1>   0.0400 
  4 C       -0.9600     2.0670     0.0360 C.ar  1 <1>   0.0830 
  5 C        1.4400     2.2450     0.1280 C.ar  1 <1>  -0.1500 
  6 O       -2.0850     1.2970     0.0740 O.3   1 <1>  -0.3630 
  7 C       -1.0350     3.4390    -0.1320 C.ar  1 <1>  -0.1500 
  8 C        1.3540     3.6210    -0.0420 C.ar  1 <1>   0.3610 
  9 C       -3.3870     1.8270    -0.0630 C.3   1 <1>   0.0400 
 10 C        0.1160     4.2420    -0.1740 C.ar  1 <1>   0.0000 
 11 N        2.4660     4.4240    -0.0880 N.ar  1 <1>  -0.1790 
 12 C        0.1350     5.6630    -0.3390 C.ar  1 <1>   0.4100 
 13 C        2.4040     5.7480    -0.2570 C.ar  1 <1>   0.7710 
 14 N        1.2300     6.3670    -0.3750 N.ar  1 <1>  -0.6200 
 15 N       -0.9880     6.3740    -0.4690 N.pl3 1 <1>  -0.9000 
 16 N        3.5500     6.4720    -0.3010 N.pl3 1 <1>  -0.8380 
 17 C        3.4740     7.9740    -0.2200 C.3   1 <1>   0.2090 
 18 C        4.9160     5.8920    -0.5280 C.3   1 <1>   0.2090 
 19 C        4.6610     8.6240     0.5020 C.3   1 <1>  -0.1600 
 20 C        5.7190     6.6730    -1.5710 C.3   1 <1>  -0.1600 
 21 C        5.8250     9.0280    -0.4390 C.3   1 <1>  -0.0800 
 22 C        6.5860     7.7850    -0.9600 C.3   1 <1>  -0.1600 
 23 C        6.7770    10.1070     0.1940 C.3   1 <1>   0.0000 
 24 C        7.3320     9.6730     1.5630 C.3   1 <1>  -0.2400 
 25 C        7.9770    10.4100    -0.7250 C.3   1 <1>  -0.2400 
 26 C        6.0350    11.4460     0.3850 C.3   1 <1>  -0.2400 
 27 H        0.0910    -1.8150     0.5680 H     1 <1>   0.0800 
 28 H       -0.9710    -0.8940    -0.4890 H     1 <1>   0.0800 
 29 H       -1.0490    -0.6710     1.2670 H     1 <1>   0.0800 
 30 H        2.3960     1.7630     0.2310 H     1 <1>   0.1500 
 31 H       -1.9840     3.9270    -0.2350 H     1 <1>   0.1500 
 32 H       -4.0860     1.0120    -0.0010 H     1 <1>   0.0800 
 33 H       -3.4730     2.3060    -1.0220 H     1 <1>   0.0800 
 34 H       -3.5700     2.5220     0.7380 H     1 <1>   0.0800 
 35 H        3.3850     4.0300     0.0520 H     1 <1>   0.4570 
 36 H       -0.9350     7.3900    -0.5890 H     1 <1>   0.4000 
 37 H       -1.9380     5.9990    -0.4660 H     1 <1>   0.4000 
 38 H        2.5900     8.2590     0.3260 H     1 <1>   0.0800 
 39 H        3.3730     8.3840    -1.2110 H     1 <1>   0.0800 
 40 H        4.8340     4.8840    -0.8920 H     1 <1>   0.0800 
 41 H        5.4590     5.8620     0.4030 H     1 <1>   0.0800 
 42 H        5.0020     7.9990     1.3080 H     1 <1>   0.0800 
 43 H        4.2620     9.5090     0.9550 H     1 <1>   0.0800 
 44 H        5.0790     7.0570    -2.3460 H     1 <1>   0.0800 
 45 H        6.3940     5.9790    -2.0420 H     1 <1>   0.0800 
 46 H        5.3840     9.4940    -1.3040 H     1 <1>   0.0800 
 47 H        7.2610     8.0960    -1.7370 H     1 <1>   0.0800 
 48 H        7.1840     7.3660    -0.1720 H     1 <1>   0.0800 
 49 H        7.8870     8.7570     1.4850 H     1 <1>   0.0800 
 50 H        6.5420     9.5350     2.2780 H     1 <1>   0.0800 
 51 H        7.9950    10.4260     1.9510 H     1 <1>   0.0800 
 52 H        8.6490     9.5730    -0.7820 H     1 <1>   0.0800 
 53 H        8.5440    11.2440    -0.3500 H     1 <1>   0.0800 
 54 H        7.6410    10.6540    -1.7170 H     1 <1>   0.0800 
 55 H        5.2750    11.3830     1.1390 H     1 <1>   0.0800 
 56 H        5.5790    11.7610    -0.5370 H     1 <1>   0.0800 
 57 H        6.7190    12.2160     0.6960 H     1 <1>   0.0800 
@<TRIPOS>BOND
  1   1   2  1   
  2   1   3  1   
  3   2   4  ar  
  4   2   5  ar  
  5   3  27  1   
  6   3  28  1   
  7   3  29  1   
  8   4   6  1   
  9   4   7  ar  
 10   5   8  ar  
 11   5  30  1   
 12   6   9  1   
 13   7  10  ar  
 14   7  31  1   
 15   8  10  ar  
 16   8  11  ar  
 17   9  32  1   
 18   9  33  1   
 19   9  34  1   
 20  10  12  ar  
 21  11  13  ar  
 22  11  35  1   
 23  12  14  ar  
 24  12  15  1   
 25  13  14  ar  
 26  13  16  1   
 27  15  36  1   
 28  15  37  1   
 29  16  17  1   
 30  16  18  1   
 31  17  19  1   
 32  17  38  1   
 33  17  39  1   
 34  18  20  1   
 35  18  40  1   
 36  18  41  1   
 37  19  21  1   
 38  19  42  1   
 39  19  43  1   
 40  20  22  1   
 41  20  44  1   
 42  20  45  1   
 43  21  22  1   
 44  21  23  1   
 45  21  46  1   
 46  22  47  1   
 47  22  48  1   
 48  23  24  1   
 49  23  25  1   
 50  23  26  1   
 51  24  49  1   
 52  24  50  1   
 53  24  51  1   
 54  25  52  1   
 55  25  53  1   
 56  25  54  1   
 57  26  55  1   
 58  26  56  1   
 59  26  57  1   
@<TRIPOS>SUBSTRUCTURE
  1 ****  13 GROUP 4 **** **** 0

# MOE 2024.06 (io_trps.svl 2023.06)
