@<TRIPOS>MOLECULE
NONAME
52 55 1 0 0 
SMALL
USER_CHARGES


@<TRIPOS>ATOM
  1 F        1.6760     1.6170     2.6430 F     1 <1>  -0.1900 
  2 C        2.5380     1.7560     1.6740 C.ar  1 <1>   0.1900 
  3 C        2.5460     2.9400     0.9610 C.ar  1 <1>  -0.1500 
  4 C        3.4110     0.7210     1.4000 C.ar  1 <1>  -0.1500 
  5 C        3.4680     3.1000    -0.0640 C.ar  1 <1>  -0.1440 
  6 C        4.3230     0.8820     0.3720 C.ar  1 <1>  -0.1500 
  7 C        4.3490     2.0630    -0.3560 C.ar  1 <1>  -0.1500 
  8 C        3.5150     4.4000    -0.8470 C.3   1 <1>   0.4870 
  9 N        4.7660     5.1440    -0.5380 N.4   1 <1>  -0.9590 
 10 C        5.0850     5.2620     0.9340 C.3   1 <1>   0.4230 
 11 C        4.9080     6.3800    -1.3730 C.3   1 <1>   0.3430 
 12 C        4.4510     6.4910     1.6190 C.3   1 <1>   0.1200 
 13 C        6.6210     5.2040     1.1370 C.3   1 <1>   0.1400 
 14 C        5.8700     7.4650    -0.8470 C.3   1 <1>  -0.0800 
 15 O        5.2450     7.6320     1.4880 O.3   1 <1>  -0.5600 
 16 N        7.3950     5.5900    -0.0910 N.am  1 <1>  -0.6600 
 17 C        5.2140     8.2940     0.2700 C.3   1 <1>   0.1200 
 18 C        7.3130     7.0170    -0.5060 C.3   1 <1>   0.1400 
 19 C        7.8590     4.6170    -0.9290 C.2   1 <1>   0.5690 
 20 O        7.1110     3.7320    -1.2770 O.2   1 <1>  -0.5700 
 21 C        9.2930     4.6390    -1.4330 C.3   1 <1>   0.0440 
 22 C       10.2530     4.3060    -0.3000 C.ar  1 <1>  -0.1430 
 23 C       10.6210     5.2770     0.6210 C.ar  1 <1>   0.1600 
 24 C       10.7590     3.0300    -0.1550 C.ar  1 <1>  -0.1500 
 25 N       11.4290     5.0820     1.6490 N.ar  1 <1>  -0.6200 
 26 C       11.6060     2.8090     0.9090 C.ar  1 <1>  -0.1500 
 27 C       11.9040     3.8530     1.7680 C.ar  1 <1>   0.1600 
 28 H        1.8350     3.7050     1.2210 H     1 <1>   0.1500 
 29 H        3.3730    -0.1860     1.9770 H     1 <1>   0.1500 
 30 H        5.0110     0.0870     0.1360 H     1 <1>   0.1500 
 31 H        5.0680     2.1560    -1.1530 H     1 <1>   0.1500 
 32 H        2.6590     5.0020    -0.5930 H     1 <1>   0.0800 
 33 H        3.4730     4.1780    -1.9010 H     1 <1>   0.0800 
 34 H        5.5430     4.5260    -0.8570 H     1 <1>   0.4500 
 35 H        4.6860     4.4020     1.4430 H     1 <1>   0.0800 
 36 H        5.2410     6.0840    -2.3550 H     1 <1>   0.0800 
 37 H        3.9380     6.8340    -1.4920 H     1 <1>   0.0800 
 38 H        4.3850     6.2960     2.6750 H     1 <1>   0.0800 
 39 H        3.4590     6.6910     1.2550 H     1 <1>   0.0800 
 40 H        6.8830     4.1940     1.4030 H     1 <1>   0.0800 
 41 H        6.9210     5.8250     1.9650 H     1 <1>   0.0800 
 42 H        5.9720     8.1640    -1.6580 H     1 <1>   0.0800 
 43 H        4.1940     8.5500     0.0370 H     1 <1>   0.0800 
 44 H        5.7620     9.2110     0.4070 H     1 <1>   0.0800 
 45 H        7.7200     7.6360     0.2770 H     1 <1>   0.0800 
 46 H        7.9290     7.1620    -1.3770 H     1 <1>   0.0800 
 47 H        9.3970     3.9190    -2.2240 H     1 <1>   0.0800 
 48 H        9.5280     5.6040    -1.8400 H     1 <1>   0.0800 
 49 H       10.2280     6.2730     0.5120 H     1 <1>   0.1500 
 50 H       10.5070     2.2340    -0.8360 H     1 <1>   0.1500 
 51 H       12.0330     1.8370     1.0750 H     1 <1>   0.1500 
 52 H       12.5660     3.6680     2.5960 H     1 <1>   0.1500 
@<TRIPOS>BOND
  1   1   2  1   
  2   2   3  ar  
  3   2   4  ar  
  4   3   5  ar  
  5   3  28  1   
  6   4   6  ar  
  7   4  29  1   
  8   5   7  ar  
  9   5   8  1   
 10   6   7  ar  
 11   6  30  1   
 12   7  31  1   
 13   8   9  1   
 14   8  32  1   
 15   8  33  1   
 16   9  10  1   
 17   9  11  1   
 18   9  34  1   
 19  10  12  1   
 20  10  13  1   
 21  10  35  1   
 22  11  14  1   
 23  11  36  1   
 24  11  37  1   
 25  12  15  1   
 26  12  38  1   
 27  12  39  1   
 28  13  16  1   
 29  13  40  1   
 30  13  41  1   
 31  14  17  1   
 32  14  18  1   
 33  14  42  1   
 34  15  17  1   
 35  16  18  1   
 36  16  19  am  
 37  17  43  1   
 38  17  44  1   
 39  18  45  1   
 40  18  46  1   
 41  19  20  2   
 42  19  21  1   
 43  21  22  1   
 44  21  47  1   
 45  21  48  1   
 46  22  23  ar  
 47  22  24  ar  
 48  23  25  ar  
 49  23  49  1   
 50  24  26  ar  
 51  24  50  1   
 52  25  27  ar  
 53  26  27  ar  
 54  26  51  1   
 55  27  52  1   
@<TRIPOS>SUBSTRUCTURE
  1 ****  13 GROUP 4 **** **** 0

# MOE 2024.06 (io_trps.svl 2023.06)
