@<TRIPOS>MOLECULE
NONAME
45 47 1 0 0 
SMALL
USER_CHARGES


@<TRIPOS>ATOM
  1 S       -0.1260     0.5100    -1.9000 S.o2  1 <1>   1.4470 
  2 O        0.3530    -0.4220    -2.9010 O.2   1 <1>  -0.6500 
  3 O       -0.6590     1.7780    -2.3540 O.2   1 <1>  -0.6500 
  4 N       -1.3590    -0.2820    -1.0550 N.am  1 <1>  -0.8490 
  5 C        1.1660     0.8110    -0.6470 C.ar  1 <1>  -0.0090 
  6 C       -0.9390    -1.5660    -0.4550 C.3   1 <1>   0.1960 
  7 C       -2.6210    -0.3630    -1.7750 C.3   1 <1>   0.1960 
  8 C        0.9190     1.4250     0.5850 C.ar  1 <1>  -0.1440 
  9 C        2.4700     0.4180    -0.9230 C.ar  1 <1>  -0.1500 
 10 C       -2.1190    -2.4720    -0.0870 C.3   1 <1>  -0.1860 
 11 C       -3.7620    -0.6820    -0.7940 C.3   1 <1>  -0.1600 
 12 C        1.9550     1.6110     1.4860 C.ar  1 <1>  -0.1500 
 13 C       -0.4730     1.8940     0.9970 C.3   1 <1>  -0.0970 
 14 C        3.5280     0.5980    -0.0350 C.ar  1 <1>   0.0530 
 15 C       -1.6920    -3.4320     0.9920 C.2   1 <1>   0.9060 
 16 C       -3.3710    -1.6850     0.3040 C.3   1 <1>   0.2000 
 17 C        3.2380     1.2060     1.1810 C.ar  1 <1>  -0.1500 
 18 C        4.8720     0.1740    -0.3560 C.2   1 <1>   0.0870 
 19 O       -1.4780    -4.6040     0.6820 O.co2 1 <1>  -0.9000 
 20 O       -1.5620    -3.0080     2.1480 O.co2 1 <1>  -0.9000 
 21 O       -3.1180    -0.9940     1.4740 O.3   1 <1>  -0.6800 
 22 O        5.1610    -0.3720    -1.5170 O.3   1 <1>  -0.0190 
 23 C        6.0310     0.2120     0.3370 C.2   1 <1>  -0.1500 
 24 N        6.4170    -0.6910    -1.6310 N.2   1 <1>  -0.4100 
 25 C        6.9660    -0.3470    -0.5230 C.2   1 <1>   0.1080 
 26 C        8.4360    -0.5400    -0.2230 C.3   1 <1>  -0.0590 
 27 H       -0.2950    -2.1090    -1.1280 H     1 <1>   0.0800 
 28 H       -0.3730    -1.3490     0.4370 H     1 <1>   0.0800 
 29 H       -2.8360     0.5740    -2.2620 H     1 <1>   0.0800 
 30 H       -2.5480    -1.1260    -2.5320 H     1 <1>   0.0800 
 31 H        2.6720    -0.0540    -1.8700 H     1 <1>   0.1500 
 32 H       -2.3590    -3.0680    -0.9460 H     1 <1>   0.0800 
 33 H       -4.5740    -1.0940    -1.3630 H     1 <1>   0.0800 
 34 H       -4.1150     0.2290    -0.3450 H     1 <1>   0.0800 
 35 H        1.7620     2.0730     2.4390 H     1 <1>   0.1500 
 36 H       -0.4230     2.5710     1.8310 H     1 <1>   0.0800 
 37 H       -1.0760     1.0510     1.2890 H     1 <1>   0.0800 
 38 H       -0.9650     2.4060     0.1900 H     1 <1>   0.0800 
 39 H       -4.1830    -2.3610     0.5100 H     1 <1>   0.0800 
 40 H        4.0190     1.3630     1.9010 H     1 <1>   0.1500 
 41 H       -2.5430    -1.6000     2.0290 H     1 <1>   0.4000 
 42 H        6.2190     0.5830     1.3250 H     1 <1>   0.1500 
 43 H        8.6700    -0.1850     0.7630 H     1 <1>   0.0800 
 44 H        9.0230     0.0030    -0.9410 H     1 <1>   0.0800 
 45 H        8.6820    -1.5840    -0.2890 H     1 <1>   0.0800 
@<TRIPOS>BOND
  1   1   2  2   
  2   1   3  2   
  3   1   4  am  
  4   1   5  1   
  5   4   6  1   
  6   4   7  1   
  7   5   8  ar  
  8   5   9  ar  
  9   6  10  1   
 10   6  27  1   
 11   6  28  1   
 12   7  11  1   
 13   7  29  1   
 14   7  30  1   
 15   8  12  ar  
 16   8  13  1   
 17   9  14  ar  
 18   9  31  1   
 19  10  15  1   
 20  10  16  1   
 21  10  32  1   
 22  11  16  1   
 23  11  33  1   
 24  11  34  1   
 25  12  17  ar  
 26  12  35  1   
 27  13  36  1   
 28  13  37  1   
 29  13  38  1   
 30  14  17  ar  
 31  14  18  1   
 32  15  19  ar  
 33  15  20  ar  
 34  16  21  1   
 35  16  39  1   
 36  17  40  1   
 37  18  22  1   
 38  18  23  2   
 39  21  41  1   
 40  22  24  1   
 41  23  25  1   
 42  23  42  1   
 43  24  25  2   
 44  25  26  1   
 45  26  43  1   
 46  26  44  1   
 47  26  45  1   
@<TRIPOS>SUBSTRUCTURE
  1 ****   5 GROUP 4 **** **** 0

# MOE 2024.06 (io_trps.svl 2023.06)
