@<TRIPOS>MOLECULE
NONAME
47 50 1 0 0 
SMALL
USER_CHARGES


@<TRIPOS>ATOM
  1 O        0.4780     1.7090    -1.0110 O.2   1 <1>  -0.5700 
  2 C        0.0260     2.8280    -1.0820 C.2   1 <1>   0.5690 
  3 N       -0.8880     3.3330    -0.1970 N.am  1 <1>  -0.5090 
  4 C        0.5020     3.7480    -2.2010 C.3   1 <1>   0.1810 
  5 C       -1.4070     4.7250    -0.3750 C.3   1 <1>   0.3640 
  6 C       -1.2670     2.6240     1.0480 C.3   1 <1>   0.0490 
  7 O        0.7110     5.0450    -1.7070 O.3   1 <1>  -0.5600 
  8 C       -2.7600     4.7210    -1.0910 C.ar  1 <1>  -0.1440 
  9 C       -0.4270     5.6710    -1.1270 C.3   1 <1>   0.2610 
 10 C       -1.9490     1.2980     0.9270 C.3   1 <1>  -0.2000 
 11 C       -2.7090     2.4810     1.4320 C.3   1 <1>  -0.2000 
 12 C       -3.6080     5.8060    -0.9050 C.ar  1 <1>   0.1600 
 13 C       -3.1820     3.6950    -1.9210 C.ar  1 <1>  -0.1500 
 14 C       -0.0550     6.8180    -0.1780 C.2   1 <1>   0.5690 
 15 N       -4.8010     5.9440    -1.4590 N.ar  1 <1>  -0.6200 
 16 C       -4.4230     3.8260    -2.5060 C.ar  1 <1>  -0.1500 
 17 O       -0.8060     7.7670    -0.1830 O.2   1 <1>  -0.5700 
 18 N        1.0190     6.7760     0.6830 N.am  1 <1>  -0.6600 
 19 C       -5.1820     4.9530    -2.2460 C.ar  1 <1>   0.1600 
 20 C        1.4470     8.0020     1.4150 C.3   1 <1>   0.3210 
 21 C        1.9000     5.5880     0.8870 C.3   1 <1>   0.0600 
 22 C        2.7430     8.5450     0.8360 C.2   1 <1>  -0.1810 
 23 C        3.2830     8.3590    -0.3890 C.2   1 <1>  -0.0100 
 24 C        3.6390     9.3870     1.5110 C.2   1 <1>  -0.1500 
 25 O        4.4240     9.0080    -0.5030 O.3   1 <1>  -0.2800 
 26 C        4.6400     9.6290     0.6390 C.2   1 <1>  -0.0100 
 27 H       -0.2250     3.7870    -2.9920 H     1 <1>   0.0800 
 28 H        1.4360     3.3890    -2.5930 H     1 <1>   0.0800 
 29 H       -1.5750     5.1300     0.6080 H     1 <1>   0.0800 
 30 H       -0.5320     2.7390     1.8280 H     1 <1>   0.1000 
 31 H       -0.9570     6.1220    -1.9470 H     1 <1>   0.0800 
 32 H       -2.1570     0.9190    -0.0590 H     1 <1>   0.1000 
 33 H       -1.6850     0.5200     1.6210 H     1 <1>   0.1000 
 34 H       -2.9740     2.4980     2.4740 H     1 <1>   0.1000 
 35 H       -3.4910     2.8720     0.8060 H     1 <1>   0.1000 
 36 H       -3.2920     6.6150    -0.2650 H     1 <1>   0.1500 
 37 H       -2.5890     2.8180    -2.1110 H     1 <1>   0.1500 
 38 H       -4.8040     3.0600    -3.1570 H     1 <1>   0.1500 
 39 H       -6.1500     5.0430    -2.7070 H     1 <1>   0.1500 
 40 H        0.6930     8.7680     1.3630 H     1 <1>   0.0800 
 41 H        1.5910     7.7570     2.4530 H     1 <1>   0.0800 
 42 H        2.3610     5.6260     1.8590 H     1 <1>   0.0800 
 43 H        2.6720     5.5750     0.1370 H     1 <1>   0.0800 
 44 H        1.3330     4.6770     0.8190 H     1 <1>   0.0800 
 45 H        2.9220     7.7880    -1.2270 H     1 <1>   0.1500 
 46 H        3.5290     9.7520     2.5170 H     1 <1>   0.1500 
 47 H        5.5310    10.2230     0.7430 H     1 <1>   0.1500 
@<TRIPOS>BOND
  1   1   2  2   
  2   2   3  am  
  3   2   4  1   
  4   3   5  1   
  5   3   6  1   
  6   4   7  1   
  7   4  27  1   
  8   4  28  1   
  9   5   8  1   
 10   5   9  1   
 11   5  29  1   
 12   6  10  1   
 13   6  11  1   
 14   6  30  1   
 15   7   9  1   
 16   8  12  ar  
 17   8  13  ar  
 18   9  14  1   
 19   9  31  1   
 20  10  11  1   
 21  10  32  1   
 22  10  33  1   
 23  11  34  1   
 24  11  35  1   
 25  12  15  ar  
 26  12  36  1   
 27  13  16  ar  
 28  13  37  1   
 29  14  17  2   
 30  14  18  am  
 31  15  19  ar  
 32  16  19  ar  
 33  16  38  1   
 34  18  20  1   
 35  18  21  1   
 36  19  39  1   
 37  20  22  1   
 38  20  40  1   
 39  20  41  1   
 40  21  42  1   
 41  21  43  1   
 42  21  44  1   
 43  22  23  2   
 44  22  24  1   
 45  23  25  1   
 46  23  45  1   
 47  24  26  2   
 48  24  46  1   
 49  25  26  1   
 50  26  47  1   
@<TRIPOS>SUBSTRUCTURE
  1 ****   9 GROUP 4 **** **** 0

# MOE 2024.06 (io_trps.svl 2023.06)
