@<TRIPOS>MOLECULE
NONAME
54 56 1 0 0 
SMALL
USER_CHARGES


@<TRIPOS>ATOM
  1 O        1.8550    -0.9440    -1.7740 O.2   1 <1>  -0.5700 
  2 C        2.2880    -0.8640    -0.6450 C.2   1 <1>   0.5690 
  3 N        2.8180     0.3060    -0.1480 N.am  1 <1>  -0.6600 
  4 C        2.1770    -2.1570     0.2020 C.3   1 <1>   0.4840 
  5 C        3.3180     0.4820     1.2540 C.3   1 <1>   0.1400 
  6 C        2.8840     1.5270    -1.0160 C.3   1 <1>   0.1400 
  7 N        1.0960    -3.0680    -0.3060 N.4   1 <1>  -0.9590 
  8 C        3.4540    -3.0080     0.1570 C.3   1 <1>  -0.1600 
  9 C        4.8140     0.1540     1.3750 C.3   1 <1>   0.1400 
 10 C        4.2260     2.2710    -0.9540 C.3   1 <1>  -0.1600 
 11 C        1.5350    -4.4660    -0.1000 C.3   1 <1>   0.3430 
 12 C       -0.2530    -2.7300     0.2060 C.3   1 <1>   0.3430 
 13 C        3.0370    -4.4070    -0.3040 C.3   1 <1>  -0.1600 
 14 N        5.6780     1.1780     0.7160 N.am  1 <1>  -0.6600 
 15 C        5.4480     1.3720    -0.7470 C.3   1 <1>   0.1400 
 16 C       -1.3050    -3.4650    -0.6150 C.3   1 <1>  -0.2400 
 17 C        6.6380     1.8490     1.4410 C.2   1 <1>   0.5690 
 18 O        6.7860     1.6420     2.6230 O.2   1 <1>  -0.5700 
 19 C        7.5520     2.8850     0.8120 C.3   1 <1>   0.0440 
 20 C        8.6690     2.2250     0.0260 C.ar  1 <1>   0.1670 
 21 N        8.7650     2.5530    -1.2550 N.ar  1 <1>  -0.6200 
 22 C        9.5200     1.3340     0.6630 C.ar  1 <1>  -0.1500 
 23 C        9.7460     1.9680    -1.9240 C.ar  1 <1>   0.1600 
 24 C       10.5350     0.7310    -0.0470 C.ar  1 <1>  -0.1500 
 25 C       10.6420     1.0640    -1.3790 C.ar  1 <1>  -0.1500 
 26 H        1.9670    -1.8940     1.2230 H     1 <1>   0.0800 
 27 H        3.1510     1.4950     1.5810 H     1 <1>   0.0800 
 28 H        2.7680    -0.1550     1.9220 H     1 <1>   0.0800 
 29 H        2.7140     1.2470    -2.0420 H     1 <1>   0.0800 
 30 H        2.0910     2.2010    -0.7380 H     1 <1>   0.0800 
 31 H        1.0940    -2.8660    -1.3230 H     1 <1>   0.4500 
 32 H        4.1850    -2.5890    -0.5140 H     1 <1>   0.0800 
 33 H        3.8840    -3.0490     1.1420 H     1 <1>   0.0800 
 34 H        5.0250    -0.8060     0.9440 H     1 <1>   0.0800 
 35 H        5.0550     0.0910     2.4220 H     1 <1>   0.0800 
 36 H        4.3450     2.7910    -1.8880 H     1 <1>   0.0800 
 37 H        4.1940     3.0250    -0.1880 H     1 <1>   0.0800 
 38 H        1.3150    -4.7750     0.9100 H     1 <1>   0.0800 
 39 H        1.0620    -5.1410    -0.7950 H     1 <1>   0.0800 
 40 H       -0.3390    -3.0010     1.2460 H     1 <1>   0.0800 
 41 H       -0.4190    -1.6680     0.1130 H     1 <1>   0.0800 
 42 H        3.5410    -5.1860     0.2430 H     1 <1>   0.0800 
 43 H        3.2530    -4.5290    -1.3520 H     1 <1>   0.0800 
 44 H        6.3030     1.8330    -1.2040 H     1 <1>   0.0800 
 45 H        5.3100     0.4210    -1.2320 H     1 <1>   0.0800 
 46 H       -1.2250    -4.5300    -0.4950 H     1 <1>   0.0800 
 47 H       -1.2210    -3.2090    -1.6570 H     1 <1>   0.0800 
 48 H       -2.2830    -3.1690    -0.2810 H     1 <1>   0.0800 
 49 H        6.9790     3.5400     0.1840 H     1 <1>   0.0800 
 50 H        7.9870     3.4860     1.5880 H     1 <1>   0.0800 
 51 H        9.3890     1.1120     1.7090 H     1 <1>   0.1500 
 52 H        9.8420     2.2230    -2.9660 H     1 <1>   0.1500 
 53 H       11.2100     0.0330     0.4180 H     1 <1>   0.1500 
 54 H       11.4120     0.6310    -1.9910 H     1 <1>   0.1500 
@<TRIPOS>BOND
  1   1   2  2   
  2   2   3  am  
  3   2   4  1   
  4   3   5  1   
  5   3   6  1   
  6   4   7  1   
  7   4   8  1   
  8   4  26  1   
  9   5   9  1   
 10   5  27  1   
 11   5  28  1   
 12   6  10  1   
 13   6  29  1   
 14   6  30  1   
 15   7  11  1   
 16   7  12  1   
 17   7  31  1   
 18   8  13  1   
 19   8  32  1   
 20   8  33  1   
 21   9  14  1   
 22   9  34  1   
 23   9  35  1   
 24  10  15  1   
 25  10  36  1   
 26  10  37  1   
 27  11  13  1   
 28  11  38  1   
 29  11  39  1   
 30  12  16  1   
 31  12  40  1   
 32  12  41  1   
 33  13  42  1   
 34  13  43  1   
 35  14  15  1   
 36  14  17  am  
 37  15  44  1   
 38  15  45  1   
 39  16  46  1   
 40  16  47  1   
 41  16  48  1   
 42  17  18  2   
 43  17  19  1   
 44  19  20  1   
 45  19  49  1   
 46  19  50  1   
 47  20  21  ar  
 48  20  22  ar  
 49  21  23  ar  
 50  22  24  ar  
 51  22  51  1   
 52  23  25  ar  
 53  23  52  1   
 54  24  25  ar  
 55  24  53  1   
 56  25  54  1   
@<TRIPOS>SUBSTRUCTURE
  1 ****   9 GROUP 4 **** **** 0

# MOE 2024.06 (io_trps.svl 2023.06)
