@<TRIPOS>MOLECULE
NONAME
46 48 1 0 0 
SMALL
USER_CHARGES


@<TRIPOS>ATOM
  1 O        0.5240     4.2880    -1.7550 O.2   1 <1>  -0.5700 
  2 C        0.1430     3.4930    -0.9290 C.2   1 <1>   0.5690 
  3 N        0.5790     3.4260     0.3450 N.am  1 <1>  -0.6600 
  4 C       -0.9260     2.4680    -1.1840 C.3   1 <1>  -0.0990 
  5 C       -0.1540     2.4410     1.1560 C.3   1 <1>   0.1400 
  6 C        1.6030     4.3280     0.9600 C.3   1 <1>   0.2010 
  7 C       -1.2720     1.9510     0.2240 C.3   1 <1>  -0.1600 
  8 C        1.1040     5.7570     1.1610 C.2   1 <1>   0.5690 
  9 O        0.9940     6.1870     2.2870 O.2   1 <1>  -0.5700 
 10 N        0.8100     6.4840     0.0430 N.am  1 <1>  -0.4940 
 11 C        0.5270     7.8590    -0.1180 C.2   1 <1>  -0.0880 
 12 N        1.1170     8.9030     0.5350 N.pl3 1 <1>   0.3140 
 13 C       -0.3540     8.3990    -0.9910 C.2   1 <1>  -0.1810 
 14 N        0.6220    10.0900     0.0980 N.2   1 <1>  -0.7070 
 15 C        2.2250     8.8770     1.5220 C.3   1 <1>   0.2390 
 16 C       -0.2520     9.7720    -0.8050 C.2   1 <1>   0.1390 
 17 C       -1.2690     7.6960    -1.9770 C.3   1 <1>  -0.0590 
 18 C        3.4200     8.0390     1.0630 C.ar  1 <1>  -0.1440 
 19 C        3.9120     8.1470    -0.2300 C.ar  1 <1>  -0.1500 
 20 C        4.0210     7.1520     1.9430 C.ar  1 <1>  -0.1500 
 21 C        4.9820     7.3730    -0.6470 C.ar  1 <1>  -0.1440 
 22 C        5.0920     6.3780     1.5330 C.ar  1 <1>  -0.1500 
 23 C        5.5700     6.4870     0.2400 C.ar  1 <1>  -0.1500 
 24 C        5.4950     7.4970    -2.0700 C.3   1 <1>  -0.0970 
 25 H       -0.5200     1.6860    -1.7990 H     1 <1>   0.0800 
 26 H       -1.7740     2.9170    -1.6670 H     1 <1>   0.0800 
 27 H       -0.5560     2.9030     2.0420 H     1 <1>   0.0800 
 28 H        0.5060     1.6340     1.4270 H     1 <1>   0.0800 
 29 H        2.4680     4.3630     0.3210 H     1 <1>   0.0800 
 30 H        1.9100     3.9310     1.9100 H     1 <1>   0.0800 
 31 H       -1.3580     0.8790     0.2470 H     1 <1>   0.0800 
 32 H       -2.2060     2.3770     0.5480 H     1 <1>   0.0800 
 33 H        0.7580     5.9170    -0.8170 H     1 <1>   0.3700 
 34 H        1.8340     8.5060     2.4500 H     1 <1>   0.0800 
 35 H        2.5490     9.8880     1.6820 H     1 <1>   0.0800 
 36 H       -0.8290    10.5020    -1.3480 H     1 <1>   0.1500 
 37 H       -1.1760     6.6290    -1.8860 H     1 <1>   0.0800 
 38 H       -1.0100     7.9800    -2.9810 H     1 <1>   0.0800 
 39 H       -2.2900     7.9700    -1.7860 H     1 <1>   0.0800 
 40 H        3.4520     8.8350    -0.9200 H     1 <1>   0.1500 
 41 H        3.6510     7.0550     2.9500 H     1 <1>   0.1500 
 42 H        5.5540     5.6920     2.2210 H     1 <1>   0.1500 
 43 H        6.4010     5.8800    -0.0730 H     1 <1>   0.1500 
 44 H        5.4510     8.5210    -2.3940 H     1 <1>   0.0800 
 45 H        4.8880     6.8990    -2.7260 H     1 <1>   0.0800 
 46 H        6.5150     7.1620    -2.1370 H     1 <1>   0.0800 
@<TRIPOS>BOND
  1   1   2  2   
  2   2   3  am  
  3   2   4  1   
  4   3   5  1   
  5   3   6  1   
  6   4   7  1   
  7   4  25  1   
  8   4  26  1   
  9   5   7  1   
 10   5  27  1   
 11   5  28  1   
 12   6   8  1   
 13   6  29  1   
 14   6  30  1   
 15   7  31  1   
 16   7  32  1   
 17   8   9  2   
 18   8  10  am  
 19  10  11  1   
 20  10  33  1   
 21  11  12  1   
 22  11  13  2   
 23  12  14  1   
 24  12  15  1   
 25  13  16  1   
 26  13  17  1   
 27  14  16  2   
 28  15  18  1   
 29  15  34  1   
 30  15  35  1   
 31  16  36  1   
 32  17  37  1   
 33  17  38  1   
 34  17  39  1   
 35  18  19  ar  
 36  18  20  ar  
 37  19  21  ar  
 38  19  40  1   
 39  20  22  ar  
 40  20  41  1   
 41  21  23  ar  
 42  21  24  1   
 43  22  23  ar  
 44  22  42  1   
 45  23  43  1   
 46  24  44  1   
 47  24  45  1   
 48  24  46  1   
@<TRIPOS>SUBSTRUCTURE
  1 ****  10 GROUP 4 **** **** 0

# MOE 2024.06 (io_trps.svl 2023.06)
