@<TRIPOS>MOLECULE
NONAME
50 51 1 0 0 
SMALL
USER_CHARGES


@<TRIPOS>ATOM
  1 O        1.4230     0.6450    -0.1130 O.3   1 <1>  -0.5600 
  2 C        0.9010    -0.6370     0.0560 C.3   1 <1>   0.2000 
  3 C        1.7960     1.3020     1.0490 C.3   1 <1>   0.1200 
  4 C        2.0500    -1.6460     0.2030 C.3   1 <1>  -0.1600 
  5 C        0.0500    -0.9430    -1.1800 C.3   1 <1>  -0.1600 
  6 C        2.1800     2.7230     0.6440 C.3   1 <1>  -0.1600 
  7 C        1.5220    -3.0880     0.2310 C.3   1 <1>  -0.1600 
  8 C       -0.4830    -2.3830    -1.1500 C.3   1 <1>  -0.1600 
  9 C        2.9640     3.4210     1.7530 C.3   1 <1>   0.2090 
 10 C        0.6640    -3.3920    -1.0050 C.3   1 <1>  -0.1600 
 11 N        3.2990     4.8030     1.3350 N.pl3 1 <1>  -0.8690 
 12 C        4.1860     5.2930     0.4630 C.ar  1 <1>   0.7710 
 13 N        4.2880     6.6010     0.4090 N.ar  1 <1>  -0.6200 
 14 N        4.9160     4.4690    -0.3030 N.ar  1 <1>  -0.1790 
 15 C        5.1700     7.1190    -0.4260 C.ar  1 <1>   0.4100 
 16 C        5.8010     4.9590    -1.2020 C.ar  1 <1>   0.2110 
 17 N        5.2870     8.4720    -0.4110 N.pl3 1 <1>  -0.8380 
 18 C        5.9480     6.3050    -1.2920 C.ar  1 <1>  -0.1440 
 19 C        4.0890     9.3520    -0.2860 C.3   1 <1>   0.1290 
 20 C        6.5750     9.1660    -0.1330 C.3   1 <1>   0.1290 
 21 C        6.8970     6.9060    -2.3280 C.3   1 <1>  -0.0970 
 22 H        0.2690    -0.6520     0.9300 H     1 <1>   0.0800 
 23 H        2.6320     0.7790     1.4810 H     1 <1>   0.0800 
 24 H        0.9670     1.3090     1.7370 H     1 <1>   0.0800 
 25 H        2.5920    -1.4620     1.1120 H     1 <1>   0.0800 
 26 H        2.7220    -1.5360    -0.6300 H     1 <1>   0.0800 
 27 H        0.6490    -0.8080    -2.0630 H     1 <1>   0.0800 
 28 H       -0.7770    -0.2570    -1.2210 H     1 <1>   0.0800 
 29 H        1.2790     3.2740     0.4350 H     1 <1>   0.0800 
 30 H        2.7700     2.6700    -0.2510 H     1 <1>   0.0800 
 31 H        0.9310    -3.2360     1.1180 H     1 <1>   0.0800 
 32 H        2.3510    -3.7750     0.2700 H     1 <1>   0.0800 
 33 H       -1.0280    -2.5840    -2.0560 H     1 <1>   0.0800 
 34 H       -1.1640    -2.4950    -0.3240 H     1 <1>   0.0800 
 35 H        3.8650     2.8770     1.9810 H     1 <1>   0.0800 
 36 H        2.3650     3.4620     2.6490 H     1 <1>   0.0800 
 37 H        0.2610    -4.3880    -0.9290 H     1 <1>   0.0800 
 38 H        1.2830    -3.3550    -1.8850 H     1 <1>   0.0800 
 39 H        2.7790     5.5330     1.8370 H     1 <1>   0.4000 
 40 H        4.7300     3.4790    -0.1900 H     1 <1>   0.4570 
 41 H        6.3490     4.2680    -1.8230 H     1 <1>   0.1500 
 42 H        3.2000     8.8180    -0.5740 H     1 <1>   0.0800 
 43 H        4.1960    10.2110    -0.9250 H     1 <1>   0.0800 
 44 H        3.9820     9.6790     0.7340 H     1 <1>   0.0800 
 45 H        7.3460     8.4530     0.0990 H     1 <1>   0.0800 
 46 H        6.4610     9.8250     0.7120 H     1 <1>   0.0800 
 47 H        6.8710     9.7450    -0.9900 H     1 <1>   0.0800 
 48 H        6.4200     7.7320    -2.8280 H     1 <1>   0.0800 
 49 H        7.1720     6.1820    -3.0740 H     1 <1>   0.0800 
 50 H        7.7950     7.2620    -1.8560 H     1 <1>   0.0800 
@<TRIPOS>BOND
  1   1   2  1   
  2   1   3  1   
  3   2   4  1   
  4   2   5  1   
  5   2  22  1   
  6   3   6  1   
  7   3  23  1   
  8   3  24  1   
  9   4   7  1   
 10   4  25  1   
 11   4  26  1   
 12   5   8  1   
 13   5  27  1   
 14   5  28  1   
 15   6   9  1   
 16   6  29  1   
 17   6  30  1   
 18   7  10  1   
 19   7  31  1   
 20   7  32  1   
 21   8  10  1   
 22   8  33  1   
 23   8  34  1   
 24   9  11  1   
 25   9  35  1   
 26   9  36  1   
 27  10  37  1   
 28  10  38  1   
 29  11  12  1   
 30  11  39  1   
 31  12  13  ar  
 32  12  14  ar  
 33  13  15  ar  
 34  14  16  ar  
 35  14  40  1   
 36  15  17  1   
 37  15  18  ar  
 38  16  18  ar  
 39  16  41  1   
 40  17  19  1   
 41  17  20  1   
 42  18  21  1   
 43  19  42  1   
 44  19  43  1   
 45  19  44  1   
 46  20  45  1   
 47  20  46  1   
 48  20  47  1   
 49  21  48  1   
 50  21  49  1   
 51  21  50  1   
@<TRIPOS>SUBSTRUCTURE
  1 ****   6 GROUP 4 **** **** 0

# MOE 2024.06 (io_trps.svl 2023.06)
