@<TRIPOS>MOLECULE
NONAME
51 54 1 0 0 
SMALL
USER_CHARGES


@<TRIPOS>ATOM
  1 O       -0.2760     1.2400     0.3130 O.2   1 <1>  -0.5700 
  2 C       -0.2760     2.4370     0.1770 C.2   1 <1>   0.5690 
  3 N       -1.0990     3.2180     0.9070 N.am  1 <1>  -0.7300 
  4 C        0.6330     3.0960    -0.8590 C.3   1 <1>   0.1810 
  5 C       -1.2440     4.6830     0.7110 C.3   1 <1>   0.3640 
  6 O        0.8710     4.4550    -0.5710 O.3   1 <1>  -0.5600 
  7 C       -2.7100     4.9620     0.3820 C.ar  1 <1>  -0.1440 
  8 C       -0.3020     5.2490    -0.3930 C.3   1 <1>   0.2610 
  9 C       -3.3830     5.9870     1.0320 C.ar  1 <1>  -0.1500 
 10 C       -3.3940     4.2090    -0.5660 C.ar  1 <1>  -0.1500 
 11 C        0.0970     6.6980    -0.0730 C.2   1 <1>   0.5690 
 12 C       -4.7100     6.2540     0.7460 C.ar  1 <1>  -0.1500 
 13 C       -4.7220     4.4740    -0.8540 C.ar  1 <1>  -0.1500 
 14 O       -0.7090     7.4610     0.4060 O.2   1 <1>  -0.5700 
 15 N        1.3700     7.0940    -0.3280 N.am  1 <1>  -0.7300 
 16 C       -5.3810     5.4970    -0.1980 C.ar  1 <1>  -0.1500 
 17 C        1.9510     8.4180    -0.0250 C.3   1 <1>   0.2350 
 18 C        3.2210     8.2990     0.8480 C.3   1 <1>  -0.1900 
 19 C        3.3660     7.1710     1.8270 C.3   1 <1>  -0.2000 
 20 C        4.2280     7.2160     0.5930 C.3   1 <1>  -0.2000 
 21 C        3.7200     9.6820     1.3180 C.3   1 <1>   0.1910 
 22 N        3.8630    10.6450     0.2020 N.pl3 1 <1>   0.0480 
 23 C        4.8700    10.7930    -0.6960 C.2   1 <1>   0.0060 
 24 C        2.9750    11.6030    -0.1250 C.2   1 <1>  -0.3020 
 25 N        4.6750    11.7520    -1.5410 N.2   1 <1>  -0.5650 
 26 C        6.1140     9.9300    -0.7280 C.3   1 <1>  -0.0600 
 27 C        3.4850    12.2630    -1.1850 C.2   1 <1>   0.0770 
 28 H       -1.7550     2.7720     1.5490 H     1 <1>   0.3700 
 29 H        0.1850     3.0240    -1.8330 H     1 <1>   0.0800 
 30 H        1.5820     2.5910    -0.8720 H     1 <1>   0.0800 
 31 H       -0.9990     5.1600     1.6440 H     1 <1>   0.0800 
 32 H       -0.8260     5.2580    -1.3310 H     1 <1>   0.0800 
 33 H       -2.8760     6.5930     1.7640 H     1 <1>   0.1500 
 34 H       -2.9010     3.4060    -1.0860 H     1 <1>   0.1500 
 35 H       -5.2190     7.0530     1.2550 H     1 <1>   0.1500 
 36 H       -5.2420     3.8830    -1.5870 H     1 <1>   0.1500 
 37 H        2.0300     6.3790    -0.6470 H     1 <1>   0.3700 
 38 H       -6.4140     5.7040    -0.4200 H     1 <1>   0.1500 
 39 H        2.1900     8.9050    -0.9550 H     1 <1>   0.0800 
 40 H        1.2180     9.0200     0.4850 H     1 <1>   0.0800 
 41 H        3.8330     7.3510     2.7800 H     1 <1>   0.1000 
 42 H        2.6070     6.4090     1.8940 H     1 <1>   0.1000 
 43 H        4.0510     6.4890    -0.1800 H     1 <1>   0.1000 
 44 H        5.2780     7.4080     0.7290 H     1 <1>   0.1000 
 45 H        4.6680     9.5880     1.8160 H     1 <1>   0.0800 
 46 H        3.0180    10.0900     2.0230 H     1 <1>   0.0800 
 47 H        2.0500    11.7640     0.3980 H     1 <1>   0.1500 
 48 H        6.8400    10.3690    -1.3890 H     1 <1>   0.0800 
 49 H        5.8700     8.9520    -1.0970 H     1 <1>   0.0800 
 50 H        6.5470     9.8520     0.2520 H     1 <1>   0.0800 
 51 H        3.0520    13.0930    -1.7200 H     1 <1>   0.1500 
@<TRIPOS>BOND
  1   1   2  2   
  2   2   3  am  
  3   2   4  1   
  4   3   5  1   
  5   3  28  1   
  6   4   6  1   
  7   4  29  1   
  8   4  30  1   
  9   5   7  1   
 10   5   8  1   
 11   5  31  1   
 12   6   8  1   
 13   7   9  ar  
 14   7  10  ar  
 15   8  11  1   
 16   8  32  1   
 17   9  12  ar  
 18   9  33  1   
 19  10  13  ar  
 20  10  34  1   
 21  11  14  2   
 22  11  15  am  
 23  12  16  ar  
 24  12  35  1   
 25  13  16  ar  
 26  13  36  1   
 27  15  17  1   
 28  15  37  1   
 29  16  38  1   
 30  17  18  1   
 31  17  39  1   
 32  17  40  1   
 33  18  19  1   
 34  18  20  1   
 35  18  21  1   
 36  19  20  1   
 37  19  41  1   
 38  19  42  1   
 39  20  43  1   
 40  20  44  1   
 41  21  22  1   
 42  21  45  1   
 43  21  46  1   
 44  22  23  1   
 45  22  24  1   
 46  23  25  2   
 47  23  26  1   
 48  24  27  2   
 49  24  47  1   
 50  25  27  1   
 51  26  48  1   
 52  26  49  1   
 53  26  50  1   
 54  27  51  1   
@<TRIPOS>SUBSTRUCTURE
  1 ****  11 GROUP 4 **** **** 0

# MOE 2024.06 (io_trps.svl 2023.06)
