@<TRIPOS>MOLECULE
NONAME
54 56 1 0 0 
SMALL
USER_CHARGES


@<TRIPOS>ATOM
  1 O       -0.6130    -0.0480     0.8380 O.2   1 <1>  -0.5700 
  2 C       -1.0610     0.8080     0.1100 C.2   1 <1>   0.5690 
  3 N       -2.3800     1.1930     0.1810 N.am  1 <1>  -0.6600 
  4 C       -0.0860     1.3870    -0.9060 C.3   1 <1>  -0.0990 
  5 C       -2.9170     2.4280    -0.4730 C.3   1 <1>   0.2200 
  6 C       -3.3340     0.3640     0.9790 C.3   1 <1>   0.0600 
  7 C        0.9310     2.3460    -0.2700 C.3   1 <1>  -0.0160 
  8 C       -3.9350     3.2260     0.3500 C.3   1 <1>  -0.1600 
  9 C       -3.6360     2.1180    -1.7790 C.3   1 <1>  -0.1600 
 10 C        0.2570     3.6190     0.2080 C.ar  1 <1>  -0.1430 
 11 C       -4.7670     4.0070    -0.6810 C.3   1 <1>  -0.0800 
 12 C       -4.4800     3.3660    -2.0500 C.3   1 <1>  -0.0800 
 13 C        0.0140     4.6530    -0.6800 C.ar  1 <1>  -0.1500 
 14 C       -0.1450     3.7500     1.5260 C.ar  1 <1>  -0.1500 
 15 C       -4.3880     5.4930    -0.8020 C.3   1 <1>  -0.1600 
 16 C       -3.7470     4.4380    -2.8670 C.3   1 <1>  -0.1600 
 17 C       -0.6400     5.8040    -0.2760 C.ar  1 <1>   0.0820 
 18 C       -0.7940     4.8960     1.9490 C.ar  1 <1>  -0.1500 
 19 C       -4.2640     5.7470    -2.2960 C.3   1 <1>   0.2000 
 20 O       -0.8420     6.7250    -1.2600 O.3   1 <1>  -0.3630 
 21 C       -1.0640     5.9310     1.0560 C.ar  1 <1>   0.0820 
 22 O       -3.3710     6.7660    -2.5410 O.3   1 <1>  -0.6800 
 23 C       -0.7770     8.1070    -0.9790 C.3   1 <1>   0.0400 
 24 O       -1.7560     7.0410     1.4450 O.3   1 <1>  -0.3630 
 25 C       -2.4560     7.0900     2.6680 C.3   1 <1>   0.0400 
 26 H        0.4520     0.5610    -1.3330 H     1 <1>   0.0800 
 27 H       -0.6020     1.8710    -1.7110 H     1 <1>   0.0800 
 28 H       -2.1120     3.1000    -0.6950 H     1 <1>   0.0800 
 29 H       -4.2800     0.2900     0.4740 H     1 <1>   0.0800 
 30 H       -3.4760     0.8090     1.9480 H     1 <1>   0.0800 
 31 H       -2.9480    -0.6320     1.1150 H     1 <1>   0.0800 
 32 H        1.6870     2.5950    -0.9930 H     1 <1>   0.0800 
 33 H        1.4220     1.8550     0.5540 H     1 <1>   0.0800 
 34 H       -4.6070     2.5790     0.8800 H     1 <1>   0.0800 
 35 H       -3.4410     3.8680     1.0560 H     1 <1>   0.0800 
 36 H       -2.9500     1.9110    -2.5800 H     1 <1>   0.0800 
 37 H       -4.2910     1.2760    -1.6430 H     1 <1>   0.0800 
 38 H       -5.8160     3.9200    -0.4520 H     1 <1>   0.0800 
 39 H       -5.4030     3.1080    -2.5420 H     1 <1>   0.0800 
 40 H        0.3250     4.5710    -1.7060 H     1 <1>   0.1500 
 41 H        0.0370     2.9510     2.2250 H     1 <1>   0.1500 
 42 H       -3.4450     5.6780    -0.3250 H     1 <1>   0.0800 
 43 H       -5.1380     6.1260    -0.3650 H     1 <1>   0.0800 
 44 H       -3.9630     4.3540    -3.9170 H     1 <1>   0.0800 
 45 H       -2.6850     4.3710    -2.7060 H     1 <1>   0.0800 
 46 H       -1.0850     4.9550     2.9790 H     1 <1>   0.1500 
 47 H       -5.2170     6.0060    -2.7280 H     1 <1>   0.0800 
 48 H       -2.5200     6.5900    -2.0780 H     1 <1>   0.4000 
 49 H       -0.5690     8.6270    -1.8960 H     1 <1>   0.0800 
 50 H        0.0080     8.2860    -0.2650 H     1 <1>   0.0800 
 51 H       -1.7260     8.4290    -0.5900 H     1 <1>   0.0800 
 52 H       -3.0170     8.0070     2.6950 H     1 <1>   0.0800 
 53 H       -1.7480     7.0720     3.4780 H     1 <1>   0.0800 
 54 H       -3.1270     6.2500     2.7210 H     1 <1>   0.0800 
@<TRIPOS>BOND
  1   1   2  2   
  2   2   3  am  
  3   2   4  1   
  4   3   5  1   
  5   3   6  1   
  6   4   7  1   
  7   4  26  1   
  8   4  27  1   
  9   5   8  1   
 10   5   9  1   
 11   5  28  1   
 12   6  29  1   
 13   6  30  1   
 14   6  31  1   
 15   7  10  1   
 16   7  32  1   
 17   7  33  1   
 18   8  11  1   
 19   8  34  1   
 20   8  35  1   
 21   9  12  1   
 22   9  36  1   
 23   9  37  1   
 24  10  13  ar  
 25  10  14  ar  
 26  11  12  1   
 27  11  15  1   
 28  11  38  1   
 29  12  16  1   
 30  12  39  1   
 31  13  17  ar  
 32  13  40  1   
 33  14  18  ar  
 34  14  41  1   
 35  15  19  1   
 36  15  42  1   
 37  15  43  1   
 38  16  19  1   
 39  16  44  1   
 40  16  45  1   
 41  17  20  1   
 42  17  21  ar  
 43  18  21  ar  
 44  18  46  1   
 45  19  22  1   
 46  19  47  1   
 47  20  23  1   
 48  21  24  1   
 49  22  48  1   
 50  23  49  1   
 51  23  50  1   
 52  23  51  1   
 53  24  25  1   
 54  25  52  1   
 55  25  53  1   
 56  25  54  1   
@<TRIPOS>SUBSTRUCTURE
  1 ****   5 GROUP 4 **** **** 0

# MOE 2024.06 (io_trps.svl 2023.06)
