@<TRIPOS>MOLECULE
NONAME
51 54 1 0 0 
SMALL
USER_CHARGES


@<TRIPOS>ATOM
  1 O        0.5910    -0.0500    -0.1380 O.2   1 <1>  -0.5700 
  2 C        1.3720    -0.9560    -0.3530 C.2   1 <1>   0.5440 
  3 N        2.7200    -0.7340    -0.1660 N.am  1 <1>  -0.6600 
  4 C        0.8610    -2.2380    -0.7980 C.ar  1 <1>   0.0860 
  5 C        3.2770     0.6410     0.0260 C.3   1 <1>   0.1400 
  6 C        3.7120    -1.8130     0.1260 C.3   1 <1>   0.1400 
  7 C       -0.2200    -2.8520    -0.1940 C.ar  1 <1>  -0.1500 
  8 C        1.4050    -2.9340    -1.8700 C.ar  1 <1>  -0.1500 
  9 C        4.0030     0.7510     1.3750 C.3   1 <1>   0.1200 
 10 C        4.4210    -1.5530     1.4680 C.3   1 <1>   0.1200 
 11 C       -0.6840    -4.0790    -0.6380 C.ar  1 <1>   0.4100 
 12 C        0.8760    -4.1530    -2.2450 C.ar  1 <1>   0.1600 
 13 O        4.9610    -0.2630     1.5030 O.3   1 <1>  -0.5600 
 14 N       -0.1470    -4.7440    -1.6540 N.ar  1 <1>  -0.6200 
 15 N       -1.7740    -4.6530    -0.0190 N.pl3 1 <1>  -0.8380 
 16 C       -3.0530    -4.5540    -0.7840 C.3   1 <1>   0.2090 
 17 C       -1.6170    -6.0610     0.4500 C.3   1 <1>   0.2090 
 18 C       -3.8360    -5.8180    -0.4350 C.3   1 <1>   0.2000 
 19 C       -2.7370    -6.8560    -0.2260 C.3   1 <1>  -0.0800 
 20 O       -4.5050    -5.6020     0.7630 O.3   1 <1>  -0.6800 
 21 C       -3.1640    -8.1160     0.5490 C.3   1 <1>   0.0200 
 22 C       -2.0710    -9.1690     0.6070 C.2   1 <1>  -0.0400 
 23 O       -2.2340   -10.2050     1.3860 O.3   1 <1>  -0.0190 
 24 C       -0.8820    -9.3030    -0.0050 C.2   1 <1>  -0.1500 
 25 N       -1.2210   -11.0210     1.3320 N.2   1 <1>  -0.4100 
 26 C       -0.3910   -10.5030     0.5010 C.2   1 <1>   0.1080 
 27 C        0.9380   -11.1220     0.1290 C.3   1 <1>  -0.0590 
 28 H        3.9730     0.8520    -0.7660 H     1 <1>   0.0800 
 29 H        2.4960     1.3800    -0.0190 H     1 <1>   0.0800 
 30 H        3.2290    -2.7730     0.1720 H     1 <1>   0.0800 
 31 H        4.4460    -1.8420    -0.6600 H     1 <1>   0.0800 
 32 H       -0.7170    -2.3770     0.6310 H     1 <1>   0.1500 
 33 H        2.2350    -2.5150    -2.4080 H     1 <1>   0.1500 
 34 H        3.3020     0.6720     2.1880 H     1 <1>   0.0800 
 35 H        4.5120     1.6950     1.4470 H     1 <1>   0.0800 
 36 H        5.2280    -2.2510     1.6030 H     1 <1>   0.0800 
 37 H        3.7310    -1.6600     2.2870 H     1 <1>   0.0800 
 38 H        1.3160    -4.6710    -3.0800 H     1 <1>   0.1500 
 39 H       -3.5980    -3.6640    -0.5220 H     1 <1>   0.0800 
 40 H       -2.8420    -4.5410    -1.8400 H     1 <1>   0.0800 
 41 H       -0.6480    -6.4580     0.2030 H     1 <1>   0.0800 
 42 H       -1.7340    -6.0810     1.5200 H     1 <1>   0.0800 
 43 H       -4.5540    -6.0950    -1.1880 H     1 <1>   0.0800 
 44 H       -2.3840    -7.1520    -1.1980 H     1 <1>   0.0800 
 45 H       -3.8990    -5.1210     1.3640 H     1 <1>   0.4000 
 46 H       -4.0300    -8.5490     0.0810 H     1 <1>   0.0800 
 47 H       -3.4380    -7.8530     1.5560 H     1 <1>   0.0800 
 48 H       -0.3910    -8.6690    -0.7200 H     1 <1>   0.1500 
 49 H        1.0260   -11.1860    -0.9400 H     1 <1>   0.0800 
 50 H        1.0100   -12.1110     0.5440 H     1 <1>   0.0800 
 51 H        1.7400   -10.5220     0.5180 H     1 <1>   0.0800 
@<TRIPOS>BOND
  1   1   2  2   
  2   2   3  am  
  3   2   4  1   
  4   3   5  1   
  5   3   6  1   
  6   4   7  ar  
  7   4   8  ar  
  8   5   9  1   
  9   5  28  1   
 10   5  29  1   
 11   6  10  1   
 12   6  30  1   
 13   6  31  1   
 14   7  11  ar  
 15   7  32  1   
 16   8  12  ar  
 17   8  33  1   
 18   9  13  1   
 19   9  34  1   
 20   9  35  1   
 21  10  13  1   
 22  10  36  1   
 23  10  37  1   
 24  11  14  ar  
 25  11  15  1   
 26  12  14  ar  
 27  12  38  1   
 28  15  16  1   
 29  15  17  1   
 30  16  18  1   
 31  16  39  1   
 32  16  40  1   
 33  17  19  1   
 34  17  41  1   
 35  17  42  1   
 36  18  19  1   
 37  18  20  1   
 38  18  43  1   
 39  19  21  1   
 40  19  44  1   
 41  20  45  1   
 42  21  22  1   
 43  21  46  1   
 44  21  47  1   
 45  22  23  1   
 46  22  24  2   
 47  23  25  1   
 48  24  26  1   
 49  24  48  1   
 50  25  26  2   
 51  26  27  1   
 52  27  49  1   
 53  27  50  1   
 54  27  51  1   
@<TRIPOS>SUBSTRUCTURE
  1 ****  11 GROUP 4 **** **** 0

# MOE 2024.06 (io_trps.svl 2023.06)
