@<TRIPOS>MOLECULE
NONAME
53 55 1 0 0 
SMALL
USER_CHARGES


@<TRIPOS>ATOM
  1 O       -1.2200    -0.3380    -0.6110 O.2   1 <1>  -0.5700 
  2 C       -2.0810     0.3830    -0.1420 C.2   1 <1>   0.5440 
  3 N       -1.8720     1.7470    -0.1500 N.am  1 <1>  -0.6600 
  4 C       -3.2840    -0.2180     0.3880 C.ar  1 <1>   0.0860 
  5 C       -0.5100     2.3320    -0.3480 C.3   1 <1>   0.1400 
  6 C       -2.9660     2.7550    -0.2890 C.3   1 <1>   0.1400 
  7 C       -3.8120    -1.3660    -0.2000 C.ar  1 <1>   0.1600 
  8 C       -3.9610     0.2780     1.4980 C.ar  1 <1>  -0.1500 
  9 C       -0.4670     3.1860    -1.6240 C.3   1 <1>   0.1200 
 10 C       -2.7730     3.5980    -1.5620 C.3   1 <1>   0.1200 
 11 N       -4.9040    -2.0110     0.1790 N.ar  1 <1>  -0.6200 
 12 C       -5.0930    -0.3790     1.9140 C.ar  1 <1>  -0.1500 
 13 O       -1.4860     4.1460    -1.6070 O.3   1 <1>  -0.5600 
 14 C       -5.5370    -1.5130     1.2380 C.ar  1 <1>   0.4100 
 15 N       -6.6710    -2.1810     1.6470 N.pl3 1 <1>  -0.8380 
 16 C       -6.6510    -3.6570     1.7820 C.3   1 <1>   0.2090 
 17 C       -7.9750    -1.4860     1.7920 C.3   1 <1>   0.2090 
 18 C       -7.5670    -4.3280     0.7550 C.3   1 <1>  -0.1600 
 19 C       -8.5710    -1.2300     0.4030 C.3   1 <1>  -0.1600 
 20 C       -7.7300    -3.4840    -0.5250 C.3   1 <1>   0.4230 
 21 C       -8.9060    -2.4950    -0.4140 C.3   1 <1>  -0.1600 
 22 N       -7.9140    -4.3310    -1.7430 N.4   1 <1>  -0.9590 
 23 C       -9.0110    -5.3440    -1.6340 C.3   1 <1>   0.2630 
 24 C       -6.6120    -4.9560    -2.1330 C.3   1 <1>   0.2630 
 25 H        0.2330     1.5570    -0.4120 H     1 <1>   0.0800 
 26 H       -0.2660     2.9500     0.4980 H     1 <1>   0.0800 
 27 H       -2.9600     3.4060     0.5680 H     1 <1>   0.0800 
 28 H       -3.9250     2.2710    -0.3380 H     1 <1>   0.0800 
 29 H       -3.2790    -1.7700    -1.0450 H     1 <1>   0.1500 
 30 H       -3.5940     1.1450     2.0190 H     1 <1>   0.1500 
 31 H       -0.5850     2.5670    -2.4960 H     1 <1>   0.0800 
 32 H        0.4730     3.7050    -1.6920 H     1 <1>   0.0800 
 33 H       -3.4760     4.4120    -1.5800 H     1 <1>   0.0800 
 34 H       -2.9200     2.9950    -2.4420 H     1 <1>   0.0800 
 35 H       -5.6380    -0.0380     2.7730 H     1 <1>   0.1500 
 36 H       -6.9470    -3.9310     2.7810 H     1 <1>   0.0800 
 37 H       -5.6410    -4.0080     1.6410 H     1 <1>   0.0800 
 38 H       -7.8290    -0.5470     2.2980 H     1 <1>   0.0800 
 39 H       -8.6470    -2.0800     2.3880 H     1 <1>   0.0800 
 40 H       -8.5230    -4.5020     1.2130 H     1 <1>   0.0800 
 41 H       -7.1360    -5.2870     0.5390 H     1 <1>   0.0800 
 42 H       -7.8790    -0.6190    -0.1520 H     1 <1>   0.0800 
 43 H       -9.4700    -0.6510     0.5240 H     1 <1>   0.0800 
 44 H       -6.8340    -2.9070    -0.6710 H     1 <1>   0.0800 
 45 H       -9.1910    -2.1650    -1.3970 H     1 <1>   0.0800 
 46 H       -9.7580    -2.9800     0.0280 H     1 <1>   0.0800 
 47 H       -8.1630    -3.6710    -2.4930 H     1 <1>   0.4500 
 48 H       -8.7820    -6.0660    -0.8670 H     1 <1>   0.0800 
 49 H       -9.1330    -5.8650    -2.5700 H     1 <1>   0.0800 
 50 H       -9.9430    -4.8620    -1.3860 H     1 <1>   0.0800 
 51 H       -6.3000    -5.6740    -1.3930 H     1 <1>   0.0800 
 52 H       -5.8470    -4.1990    -2.2160 H     1 <1>   0.0800 
 53 H       -6.7050    -5.4570    -3.0830 H     1 <1>   0.0800 
@<TRIPOS>BOND
  1   1   2  2   
  2   2   3  am  
  3   2   4  1   
  4   3   5  1   
  5   3   6  1   
  6   4   7  ar  
  7   4   8  ar  
  8   5   9  1   
  9   5  25  1   
 10   5  26  1   
 11   6  10  1   
 12   6  27  1   
 13   6  28  1   
 14   7  11  ar  
 15   7  29  1   
 16   8  12  ar  
 17   8  30  1   
 18   9  13  1   
 19   9  31  1   
 20   9  32  1   
 21  10  13  1   
 22  10  33  1   
 23  10  34  1   
 24  11  14  ar  
 25  12  14  ar  
 26  12  35  1   
 27  14  15  1   
 28  15  16  1   
 29  15  17  1   
 30  16  18  1   
 31  16  36  1   
 32  16  37  1   
 33  17  19  1   
 34  17  38  1   
 35  17  39  1   
 36  18  20  1   
 37  18  40  1   
 38  18  41  1   
 39  19  21  1   
 40  19  42  1   
 41  19  43  1   
 42  20  21  1   
 43  20  22  1   
 44  20  44  1   
 45  21  45  1   
 46  21  46  1   
 47  22  23  1   
 48  22  24  1   
 49  22  47  1   
 50  23  48  1   
 51  23  49  1   
 52  23  50  1   
 53  24  51  1   
 54  24  52  1   
 55  24  53  1   
@<TRIPOS>SUBSTRUCTURE
  1 ****  11 GROUP 4 **** **** 0

# MOE 2024.06 (io_trps.svl 2023.06)
