@<TRIPOS>MOLECULE
NONAME
42 44 1 0 0 
SMALL
USER_CHARGES


@<TRIPOS>ATOM
  1 F       -0.1690    -2.7190     2.1310 F     1 <1>  -0.3400 
  2 C        0.9740    -2.4020     1.5410 C.3   1 <1>   1.3000 
  3 F        1.7040    -1.7220     2.4170 F     1 <1>  -0.3400 
  4 F        0.6930    -1.5990     0.5200 F     1 <1>  -0.3400 
  5 O        1.6380    -3.5740     1.1140 O.3   1 <1>  -0.3630 
  6 C        2.7390    -3.4350     0.3410 C.ar  1 <1>   0.0820 
  7 C        2.6650    -3.6630    -1.0300 C.ar  1 <1>  -0.1440 
  8 C        3.9460    -3.0880     0.9320 C.ar  1 <1>  -0.1500 
  9 C        3.8110    -3.5200    -1.7980 C.ar  1 <1>  -0.1500 
 10 C        1.3650    -4.0750    -1.7010 C.3   1 <1>   0.2840 
 11 C        5.0810    -2.9470     0.1550 C.ar  1 <1>  -0.1500 
 12 C        5.0130    -3.1610    -1.2100 C.ar  1 <1>  -0.1500 
 13 N        1.2540    -5.5380    -1.6370 N.am  1 <1>  -0.7300 
 14 C        0.0930    -6.2480    -1.5610 C.2   1 <1>   0.7160 
 15 O       -0.9620    -5.6460    -1.6690 O.2   1 <1>  -0.5700 
 16 C        0.1440    -7.6870    -1.3510 C.2   1 <1>   0.2030 
 17 N        1.2500    -8.3990    -1.1870 N.2   1 <1>  -0.7070 
 18 C       -0.9700    -8.5220    -1.2960 C.2   1 <1>  -0.1500 
 19 N        0.8410    -9.6610    -1.0340 N.pl3 1 <1>   0.3140 
 20 C       -0.5090    -9.7790    -1.0760 C.2   1 <1>  -0.2370 
 21 C        1.8090   -10.7770    -0.9690 C.3   1 <1>   0.0960 
 22 C       -1.2100   -11.0160    -0.8920 C.2   1 <1>   0.7150 
 23 C        1.7250   -11.5780     0.3430 C.3   1 <1>   0.2000 
 24 O       -2.2770   -11.2390    -1.4160 O.2   1 <1>  -0.5700 
 25 N       -0.7040   -11.9750    -0.0760 N.am  1 <1>  -0.7300 
 26 O        2.1610   -12.8670     0.0720 O.3   1 <1>  -0.6800 
 27 C        0.3180   -11.6830     0.9630 C.3   1 <1>   0.1400 
 28 H        4.0040    -2.9330     1.9950 H     1 <1>   0.1500 
 29 H        3.7770    -3.6910    -2.8600 H     1 <1>   0.1500 
 30 H        1.3640    -3.7670    -2.7320 H     1 <1>   0.0800 
 31 H        0.5190    -3.6200    -1.2160 H     1 <1>   0.0800 
 32 H        6.0170    -2.6740     0.6120 H     1 <1>   0.1500 
 33 H        5.8960    -3.0510    -1.8150 H     1 <1>   0.1500 
 34 H        2.1180    -6.0560    -1.4600 H     1 <1>   0.3700 
 35 H       -1.9930    -8.2020    -1.4030 H     1 <1>   0.1500 
 36 H        2.8000   -10.3790    -1.0820 H     1 <1>   0.0800 
 37 H        1.6040   -11.4200    -1.8050 H     1 <1>   0.0800 
 38 H        2.4060   -11.1610     1.0650 H     1 <1>   0.0800 
 39 H       -1.3420   -12.7550     0.0990 H     1 <1>   0.3700 
 40 H        1.4820   -13.3450    -0.4480 H     1 <1>   0.4000 
 41 H        0.0730   -10.7490     1.4400 H     1 <1>   0.0800 
 42 H        0.3070   -12.4470     1.7220 H     1 <1>   0.0800 
@<TRIPOS>BOND
  1   1   2  1   
  2   2   3  1   
  3   2   4  1   
  4   2   5  1   
  5   5   6  1   
  6   6   7  ar  
  7   6   8  ar  
  8   7   9  ar  
  9   7  10  1   
 10   8  11  ar  
 11   8  28  1   
 12   9  12  ar  
 13   9  29  1   
 14  10  13  1   
 15  10  30  1   
 16  10  31  1   
 17  11  12  ar  
 18  11  32  1   
 19  12  33  1   
 20  13  14  am  
 21  13  34  1   
 22  14  15  2   
 23  14  16  1   
 24  16  17  2   
 25  16  18  1   
 26  17  19  1   
 27  18  20  2   
 28  18  35  1   
 29  19  20  1   
 30  19  21  1   
 31  20  22  1   
 32  21  23  1   
 33  21  36  1   
 34  21  37  1   
 35  22  24  2   
 36  22  25  am  
 37  23  26  1   
 38  23  27  1   
 39  23  38  1   
 40  25  27  1   
 41  25  39  1   
 42  26  40  1   
 43  27  41  1   
 44  27  42  1   
@<TRIPOS>SUBSTRUCTURE
  1 ****  13 GROUP 4 **** **** 0

# MOE 2024.06 (io_trps.svl 2023.06)
