@<TRIPOS>MOLECULE
NONAME
49 52 1 0 0 
SMALL
USER_CHARGES


@<TRIPOS>ATOM
  1 O       -0.1660     0.3950     0.0690 O.2   1 <1>  -0.5700 
  2 C        0.9310    -0.1150    -0.0600 C.2   1 <1>   0.5440 
  3 N        2.0690     0.6220     0.1750 N.am  1 <1>  -0.4940 
  4 C        1.0610    -1.5100    -0.4300 C.ar  1 <1>   0.0860 
  5 C        2.2320     2.0100     0.4000 C.2   1 <1>  -0.0880 
  6 C        0.1320    -2.4490    -0.0080 C.ar  1 <1>  -0.1500 
  7 C        2.1410    -1.9570    -1.2250 C.ar  1 <1>  -0.1500 
  8 N        3.3640     2.6150     0.8660 N.pl3 1 <1>   0.3140 
  9 C        1.3340     3.0000     0.1900 C.2   1 <1>  -0.1500 
 10 C        0.2730    -3.7970    -0.3360 C.ar  1 <1>   0.0000 
 11 C        2.2970    -3.2810    -1.5590 C.ar  1 <1>  -0.1500 
 12 N        3.1990     3.9600     0.9430 N.2   1 <1>  -0.7070 
 13 C        4.6370     2.0040     1.3550 C.3   1 <1>   0.2710 
 14 C        1.9880     4.1720     0.5400 C.2   1 <1>   0.1080 
 15 C        1.3550    -4.2060    -1.1040 C.ar  1 <1>  -0.1520 
 16 C       -0.4810    -4.9600    -0.0540 C.2   1 <1>  -0.1810 
 17 C        5.1130     0.8160     0.4920 C.3   1 <1>  -0.1950 
 18 C        4.5000     1.5830     2.8240 C.3   1 <1>  -0.2400 
 19 C        1.3870     5.5560     0.4740 C.3   1 <1>  -0.0590 
 20 N        1.2670    -5.5590    -1.2830 N.pl3 1 <1>   0.0330 
 21 C        0.1470    -6.0100    -0.6400 C.2   1 <1>  -0.3320 
 22 C       -1.7560    -4.9310     0.7670 C.3   1 <1>  -0.0590 
 23 C        6.5550     0.7140     0.0950 C.3   1 <1>  -0.2000 
 24 C        5.5090     1.0010    -0.9410 C.3   1 <1>  -0.2000 
 25 C       -0.2200    -7.4840    -0.6630 C.3   1 <1>  -0.0600 
 26 H        2.9310     0.0800     0.1590 H     1 <1>   0.3700 
 27 H       -0.7110    -2.1420     0.5840 H     1 <1>   0.1500 
 28 H        2.8530    -1.2390    -1.5890 H     1 <1>   0.1500 
 29 H        0.3260     2.9110    -0.1710 H     1 <1>   0.1500 
 30 H        3.1220    -3.6130    -2.1650 H     1 <1>   0.1500 
 31 H        5.3800     2.7800     1.2960 H     1 <1>   0.0800 
 32 H        4.6650    -0.1160     0.7870 H     1 <1>   0.1000 
 33 H        3.7400     0.8300     2.9330 H     1 <1>   0.0800 
 34 H        4.2380     2.4380     3.4230 H     1 <1>   0.0800 
 35 H        5.4340     1.1900     3.1830 H     1 <1>   0.0800 
 36 H        0.3740     5.5080     0.1200 H     1 <1>   0.0800 
 37 H        1.9670     6.1660    -0.1930 H     1 <1>   0.0800 
 38 H        1.3990     5.9980     1.4520 H     1 <1>   0.0800 
 39 H        1.9290    -6.1310    -1.8150 H     1 <1>   0.2700 
 40 H       -2.4760    -4.2890     0.2940 H     1 <1>   0.0800 
 41 H       -1.5440    -4.5520     1.7500 H     1 <1>   0.0800 
 42 H       -2.1800    -5.9120     0.8610 H     1 <1>   0.0800 
 43 H        7.0280    -0.2530     0.0930 H     1 <1>   0.1000 
 44 H        7.2400     1.5030     0.3550 H     1 <1>   0.1000 
 45 H        5.4640     1.9880    -1.3710 H     1 <1>   0.1000 
 46 H        5.2670     0.2330    -1.6560 H     1 <1>   0.1000 
 47 H       -1.1240    -7.6650    -0.1110 H     1 <1>   0.0800 
 48 H        0.5680    -8.0670    -0.2210 H     1 <1>   0.0800 
 49 H       -0.3710    -7.8110    -1.6760 H     1 <1>   0.0800 
@<TRIPOS>BOND
  1   1   2  2   
  2   2   3  am  
  3   2   4  1   
  4   3   5  1   
  5   3  26  1   
  6   4   6  ar  
  7   4   7  ar  
  8   5   8  1   
  9   5   9  2   
 10   6  10  ar  
 11   6  27  1   
 12   7  11  ar  
 13   7  28  1   
 14   8  12  1   
 15   8  13  1   
 16   9  14  1   
 17   9  29  1   
 18  10  15  ar  
 19  10  16  1   
 20  11  15  ar  
 21  11  30  1   
 22  12  14  2   
 23  13  17  1   
 24  13  18  1   
 25  13  31  1   
 26  14  19  1   
 27  15  20  1   
 28  16  21  2   
 29  16  22  1   
 30  17  23  1   
 31  17  24  1   
 32  17  32  1   
 33  18  33  1   
 34  18  34  1   
 35  18  35  1   
 36  19  36  1   
 37  19  37  1   
 38  19  38  1   
 39  20  21  1   
 40  20  39  1   
 41  21  25  1   
 42  22  40  1   
 43  22  41  1   
 44  22  42  1   
 45  23  24  1   
 46  23  43  1   
 47  23  44  1   
 48  24  45  1   
 49  24  46  1   
 50  25  47  1   
 51  25  48  1   
 52  25  49  1   
@<TRIPOS>SUBSTRUCTURE
  1 ****   2 GROUP 4 **** **** 0

# MOE 2024.06 (io_trps.svl 2023.06)
