@<TRIPOS>MOLECULE
NONAME
44 46 1 0 0 
SMALL
USER_CHARGES


@<TRIPOS>ATOM
  1 CL       1.0030    -0.2740     3.0470 Cl    1 <1>  -0.1770 
  2 C        1.9190    -1.0320     1.7700 C.ar  1 <1>   0.1770 
  3 C        2.6600    -0.2430     0.9150 C.ar  1 <1>  -0.1500 
  4 C        1.8820    -2.4050     1.6430 C.ar  1 <1>  -0.1500 
  5 C        3.3890    -0.8570    -0.0980 C.ar  1 <1>   0.0830 
  6 C        2.5960    -3.0390     0.6270 C.ar  1 <1>   0.0860 
  7 O        4.1510    -0.1790    -0.9900 O.3   1 <1>  -0.3630 
  8 C        3.3510    -2.2360    -0.2270 C.ar  1 <1>  -0.1500 
  9 C        2.5650    -4.4800     0.4620 C.2   1 <1>   0.5440 
 10 C        4.3060     1.2210    -0.9130 C.3   1 <1>   0.0400 
 11 O        3.6050    -5.0950     0.3340 O.2   1 <1>  -0.5700 
 12 N        1.3780    -5.1750     0.4370 N.am  1 <1>  -0.6600 
 13 C        0.0530    -4.5840     0.1170 C.3   1 <1>   0.1400 
 14 C        1.3350    -6.6530     0.2950 C.3   1 <1>   0.1400 
 15 C       -0.7450    -5.7320    -0.4980 C.3   1 <1>   0.2000 
 16 C       -0.1410    -7.0000     0.0970 C.3   1 <1>  -0.0800 
 17 O       -2.0920    -5.6450    -0.1830 O.3   1 <1>  -0.6800 
 18 C       -0.3680    -8.2470    -0.7700 C.3   1 <1>   0.0210 
 19 C        0.3340    -9.4530    -0.1760 C.2   1 <1>   0.1080 
 20 N        0.0430    -9.9300     0.9940 N.2   1 <1>  -0.7070 
 21 C        1.3580   -10.1630    -0.7940 C.2   1 <1>  -0.1500 
 22 N        0.8800   -10.9710     1.1540 N.pl3 1 <1>   0.3000 
 23 C        1.6880   -11.1320     0.0850 C.2   1 <1>  -0.3320 
 24 C        2.7430   -12.2160    -0.0310 C.3   1 <1>  -0.0600 
 25 H        2.6550     0.8210     1.0550 H     1 <1>   0.1500 
 26 H        1.3030    -2.9890     2.3350 H     1 <1>   0.1500 
 27 H        3.9260    -2.7020    -1.0080 H     1 <1>   0.1500 
 28 H        4.9670     1.5270    -1.7040 H     1 <1>   0.0800 
 29 H        4.7370     1.4730     0.0400 H     1 <1>   0.0800 
 30 H        3.3460     1.6870    -1.0400 H     1 <1>   0.0800 
 31 H       -0.4110    -4.2450     1.0260 H     1 <1>   0.0800 
 32 H        0.1530    -3.7710    -0.5810 H     1 <1>   0.0800 
 33 H        1.9190    -6.9410    -0.5620 H     1 <1>   0.0800 
 34 H        1.7370    -7.1330     1.1720 H     1 <1>   0.0800 
 35 H       -0.6440    -5.7100    -1.5700 H     1 <1>   0.0800 
 36 H       -0.5560    -7.1730     1.0750 H     1 <1>   0.0800 
 37 H       -2.2320    -5.8520     0.7620 H     1 <1>   0.4000 
 38 H       -0.0040    -8.0770    -1.7670 H     1 <1>   0.0800 
 39 H       -1.4210    -8.4570    -0.8290 H     1 <1>   0.0800 
 40 H        1.7770    -9.9610    -1.7630 H     1 <1>   0.1500 
 41 H        0.8760   -11.5500     2.0030 H     1 <1>   0.2700 
 42 H        3.2540   -12.1340    -0.9740 H     1 <1>   0.0800 
 43 H        2.2870   -13.1880     0.0270 H     1 <1>   0.0800 
 44 H        3.4670   -12.1180     0.7590 H     1 <1>   0.0800 
@<TRIPOS>BOND
  1   1   2  1   
  2   2   3  ar  
  3   2   4  ar  
  4   3   5  ar  
  5   3  25  1   
  6   4   6  ar  
  7   4  26  1   
  8   5   7  1   
  9   5   8  ar  
 10   6   8  ar  
 11   6   9  1   
 12   7  10  1   
 13   8  27  1   
 14   9  11  2   
 15   9  12  am  
 16  10  28  1   
 17  10  29  1   
 18  10  30  1   
 19  12  13  1   
 20  12  14  1   
 21  13  15  1   
 22  13  31  1   
 23  13  32  1   
 24  14  16  1   
 25  14  33  1   
 26  14  34  1   
 27  15  16  1   
 28  15  17  1   
 29  15  35  1   
 30  16  18  1   
 31  16  36  1   
 32  17  37  1   
 33  18  19  1   
 34  18  38  1   
 35  18  39  1   
 36  19  20  2   
 37  19  21  1   
 38  20  22  1   
 39  21  23  2   
 40  21  40  1   
 41  22  23  1   
 42  22  41  1   
 43  23  24  1   
 44  24  42  1   
 45  24  43  1   
 46  24  44  1   
@<TRIPOS>SUBSTRUCTURE
  1 ****  12 GROUP 4 **** **** 0

# MOE 2024.06 (io_trps.svl 2023.06)
