@<TRIPOS>MOLECULE
NONAME
50 53 1 0 0 
SMALL
USER_CHARGES


@<TRIPOS>ATOM
  1 O       -1.7640     0.7470     1.0880 O.co2 1 <1>  -0.9020 
  2 C       -0.9020     1.6320     0.9680 C.2   1 <1>   0.9770 
  3 O        0.3010     1.3280     0.9800 O.co2 1 <1>  -0.9020 
  4 C       -1.3140     3.0180     0.8170 C.ar  1 <1>  -0.1860 
  5 C       -2.6640     3.3540     0.8130 C.ar  1 <1>  -0.1170 
  6 C       -0.3730     4.0560     0.6700 C.ar  1 <1>  -0.1570 
  7 C       -3.0400     4.6770     0.6700 C.ar  1 <1>   0.3030 
  8 C       -0.7510     5.3760     0.5270 C.ar  1 <1>  -0.1170 
  9 N       -4.2760     5.2810     0.6300 N.pl3 1 <1>  -0.7040 
 10 C       -2.1070     5.6830     0.5300 C.ar  1 <1>   0.3030 
 11 C       -4.1220     6.5880     0.4550 C.cat 1 <1>   1.0690 
 12 N       -2.8060     6.8830     0.4150 N.pl3 1 <1>  -0.7670 
 13 N       -5.1670     7.4290     0.3360 N.pl3 1 <1>  -0.5960 
 14 C       -2.1280     8.2000     0.5050 C.3   1 <1>   0.2680 
 15 C       -6.5310     7.0810     0.8450 C.3   1 <1>   0.1600 
 16 C       -5.1540     8.7220    -0.4090 C.3   1 <1>   0.1600 
 17 C       -7.5490     6.9490    -0.3110 C.3   1 <1>  -0.0080 
 18 C       -6.1610     8.6790    -1.5650 C.3   1 <1>  -0.1670 
 19 C       -8.9440     6.5860     0.2310 C.3   1 <1>   0.1930 
 20 C       -7.5700     8.2730    -1.1020 C.3   1 <1>  -0.1670 
 21 C       -7.2320     5.7410    -1.2120 C.3   1 <1>  -0.1670 
 22 O       -9.1730     7.1960     1.4650 O.3   1 <1>  -0.5650 
 23 C       -8.9630     5.0580     0.3710 C.3   1 <1>  -0.1670 
 24 C       -7.8080     4.5250    -0.4850 C.3   1 <1>  -0.1670 
 25 C      -10.5100     7.2380     1.8540 C.3   1 <1>   0.0320 
 26 H       -3.4080     2.5830     0.9220 H     1 <1>   0.1430 
 27 H        0.6730     3.7890     0.6720 H     1 <1>   0.1430 
 28 H       -0.0110     6.1450     0.4130 H     1 <1>   0.1430 
 29 H       -5.1700     4.8000     0.6480 H     1 <1>   0.4450 
 30 H       -1.2400     8.1180     1.1090 H     1 <1>   0.0720 
 31 H       -2.7750     8.9280     0.9630 H     1 <1>   0.0720 
 32 H       -1.8490     8.5360    -0.4800 H     1 <1>   0.0720 
 33 H       -6.5150     6.1790     1.4310 H     1 <1>   0.0720 
 34 H       -6.8470     7.8720     1.5050 H     1 <1>   0.0720 
 35 H       -5.4120     9.5210     0.2660 H     1 <1>   0.0720 
 36 H       -4.1840     8.9230    -0.8230 H     1 <1>   0.0720 
 37 H       -6.2090     9.6500    -2.0250 H     1 <1>   0.0720 
 38 H       -5.8110     7.9900    -2.3140 H     1 <1>   0.0720 
 39 H       -9.6980     6.9040    -0.4710 H     1 <1>   0.0720 
 40 H       -8.2210     8.1900    -1.9550 H     1 <1>   0.0720 
 41 H       -7.9670     9.0490    -0.4690 H     1 <1>   0.0720 
 42 H       -7.7580     5.8510    -2.1460 H     1 <1>   0.0720 
 43 H       -6.1880     5.6250    -1.4360 H     1 <1>   0.0720 
 44 H       -8.8240     4.7660     1.3970 H     1 <1>   0.0720 
 45 H       -9.9020     4.6720     0.0160 H     1 <1>   0.0720 
 46 H       -7.0660     4.0770     0.1510 H     1 <1>   0.0720 
 47 H       -8.1510     3.7830    -1.1870 H     1 <1>   0.0720 
 48 H      -10.5650     7.7270     2.8110 H     1 <1>   0.0720 
 49 H      -10.8920     6.2360     1.9390 H     1 <1>   0.0720 
 50 H      -11.0740     7.7980     1.1290 H     1 <1>   0.0720 
@<TRIPOS>BOND
  1   1   2  ar  
  2   2   3  ar  
  3   2   4  1   
  4   4   5  ar  
  5   4   6  ar  
  6   5   7  ar  
  7   5  26  1   
  8   6   8  ar  
  9   6  27  1   
 10   7   9  1   
 11   7  10  ar  
 12   8  10  ar  
 13   8  28  1   
 14   9  11  ar  
 15   9  29  1   
 16  10  12  1   
 17  11  12  ar  
 18  11  13  ar  
 19  12  14  1   
 20  13  15  1   
 21  13  16  1   
 22  14  30  1   
 23  14  31  1   
 24  14  32  1   
 25  15  17  1   
 26  15  33  1   
 27  15  34  1   
 28  16  18  1   
 29  16  35  1   
 30  16  36  1   
 31  17  19  1   
 32  17  20  1   
 33  17  21  1   
 34  18  20  1   
 35  18  37  1   
 36  18  38  1   
 37  19  22  1   
 38  19  23  1   
 39  19  39  1   
 40  20  40  1   
 41  20  41  1   
 42  21  24  1   
 43  21  42  1   
 44  21  43  1   
 45  22  25  1   
 46  23  24  1   
 47  23  44  1   
 48  23  45  1   
 49  24  46  1   
 50  24  47  1   
 51  25  48  1   
 52  25  49  1   
 53  25  50  1   
@<TRIPOS>SUBSTRUCTURE
  1 ****   9 GROUP 4 **** **** 0

# MOE 2024.06 (io_trps.svl 2023.06)
