@<TRIPOS>MOLECULE
NONAME
59 62 1 0 0 
SMALL
USER_CHARGES


@<TRIPOS>ATOM
  1 O        1.7040     2.3380    -1.3710 O.co2 1 <1>  -0.9000 
  2 C        1.6980     1.6000    -0.3830 C.2   1 <1>   0.9060 
  3 O        1.4780     2.0490     0.7450 O.co2 1 <1>  -0.9000 
  4 C        2.3190     0.1930    -0.5050 C.3   1 <1>  -0.1060 
  5 C        3.5770     0.2270     0.3840 C.3   1 <1>   0.4230 
  6 C        2.7820    -0.1110    -1.9670 C.3   1 <1>  -0.1600 
  7 C        1.3500    -0.9300    -0.0500 C.3   1 <1>  -0.1600 
  8 N        3.1770     0.3420     1.8330 N.4   1 <1>  -0.9590 
  9 C        4.5380     1.3590    -0.1070 C.3   1 <1>   0.3430 
 10 C        3.9930     0.7020    -2.4740 C.3   1 <1>   0.3430 
 11 C        1.0810    -0.9080     1.4630 C.3   1 <1>  -0.1600 
 12 C        2.3650    -0.8170     2.2900 C.3   1 <1>   0.3430 
 13 C        4.2570     0.6880     2.8020 C.3   1 <1>   0.2630 
 14 N        4.3180     1.8010    -1.5350 N.4   1 <1>  -0.9590 
 15 C        5.3440     2.7510    -2.0340 C.3   1 <1>   0.4860 
 16 C        5.5760     3.8220    -0.9870 C.ar  1 <1>  -0.1430 
 17 C        6.6840     3.7470    -0.1520 C.ar  1 <1>   0.0820 
 18 C        4.6690     4.8610    -0.8420 C.ar  1 <1>  -0.1500 
 19 O        7.5200     2.6870    -0.3150 O.3   1 <1>  -0.3620 
 20 C        6.8870     4.7250     0.8170 C.ar  1 <1>  -0.1500 
 21 C        4.8600     5.8290     0.1280 C.ar  1 <1>   0.0820 
 22 C        8.8460     2.7480     0.1730 C.3   1 <1>   0.0400 
 23 C        5.9900     5.7690     0.9560 C.ar  1 <1>   0.0820 
 24 O        3.8980     6.7820     0.2330 O.3   1 <1>  -0.3620 
 25 O        6.2810     6.6970     1.9060 O.3   1 <1>  -0.3620 
 26 C        3.5220     7.1760     1.5340 C.3   1 <1>   0.1200 
 27 C        5.9240     8.0400     1.6590 C.3   1 <1>   0.1200 
 28 C        4.4600     8.2770     2.0360 C.3   1 <1>  -0.1600 
 29 H        4.0940    -0.7090     0.2570 H     1 <1>   0.0800 
 30 H        1.9560     0.0720    -2.6350 H     1 <1>   0.0800 
 31 H        3.0280    -1.1520    -2.0750 H     1 <1>   0.0800 
 32 H        0.4140    -0.8310    -0.5780 H     1 <1>   0.0800 
 33 H        1.7610    -1.8930    -0.3010 H     1 <1>   0.0800 
 34 H        2.4840     1.1430     1.8040 H     1 <1>   0.4500 
 35 H        5.5570     1.0310     0.0120 H     1 <1>   0.0800 
 36 H        4.3870     2.2180     0.5270 H     1 <1>   0.0800 
 37 H        3.7570     1.1100    -3.4440 H     1 <1>   0.0800 
 38 H        4.8480     0.0530    -2.5800 H     1 <1>   0.0800 
 39 H        0.5450    -1.7990     1.7420 H     1 <1>   0.0800 
 40 H        0.4460    -0.0740     1.7100 H     1 <1>   0.0800 
 41 H        2.9330    -1.7270     2.1850 H     1 <1>   0.0800 
 42 H        2.1040    -0.6950     3.3290 H     1 <1>   0.0800 
 43 H        5.0040    -0.0880     2.8290 H     1 <1>   0.0800 
 44 H        3.8400     0.8010     3.7900 H     1 <1>   0.0800 
 45 H        4.7250     1.6200     2.5290 H     1 <1>   0.0800 
 46 H        3.4190     2.3580    -1.5130 H     1 <1>   0.4500 
 47 H        6.2670     2.2320    -2.2320 H     1 <1>   0.0800 
 48 H        5.0060     3.2100    -2.9490 H     1 <1>   0.0800 
 49 H        3.7910     4.9280    -1.4640 H     1 <1>   0.1500 
 50 H        7.7320     4.7040     1.4770 H     1 <1>   0.1500 
 51 H        9.3840     1.8930    -0.1980 H     1 <1>   0.0800 
 52 H        8.8300     2.7280     1.2480 H     1 <1>   0.0800 
 53 H        9.3110     3.6510    -0.1840 H     1 <1>   0.0800 
 54 H        2.5080     7.5310     1.4920 H     1 <1>   0.0800 
 55 H        3.5590     6.3110     2.1750 H     1 <1>   0.0800 
 56 H        6.5700     8.6660     2.2480 H     1 <1>   0.0800 
 57 H        6.0950     8.2500     0.6160 H     1 <1>   0.0800 
 58 H        4.3730     8.3510     3.1040 H     1 <1>   0.0800 
 59 H        4.1450     9.2190     1.6250 H     1 <1>   0.0800 
@<TRIPOS>BOND
  1   1   2  ar  
  2   2   3  ar  
  3   2   4  1   
  4   4   5  1   
  5   4   6  1   
  6   4   7  1   
  7   5   8  1   
  8   5   9  1   
  9   5  29  1   
 10   6  10  1   
 11   6  30  1   
 12   6  31  1   
 13   7  11  1   
 14   7  32  1   
 15   7  33  1   
 16   8  12  1   
 17   8  13  1   
 18   8  34  1   
 19   9  14  1   
 20   9  35  1   
 21   9  36  1   
 22  10  14  1   
 23  10  37  1   
 24  10  38  1   
 25  11  12  1   
 26  11  39  1   
 27  11  40  1   
 28  12  41  1   
 29  12  42  1   
 30  13  43  1   
 31  13  44  1   
 32  13  45  1   
 33  14  15  1   
 34  14  46  1   
 35  15  16  1   
 36  15  47  1   
 37  15  48  1   
 38  16  17  ar  
 39  16  18  ar  
 40  17  19  1   
 41  17  20  ar  
 42  18  21  ar  
 43  18  49  1   
 44  19  22  1   
 45  20  23  ar  
 46  20  50  1   
 47  21  23  ar  
 48  21  24  1   
 49  22  51  1   
 50  22  52  1   
 51  22  53  1   
 52  23  25  1   
 53  24  26  1   
 54  25  27  1   
 55  26  28  1   
 56  26  54  1   
 57  26  55  1   
 58  27  28  1   
 59  27  56  1   
 60  27  57  1   
 61  28  58  1   
 62  28  59  1   
@<TRIPOS>SUBSTRUCTURE
  1 ****   9 GROUP 4 **** **** 0

# MOE 2024.06 (io_trps.svl 2023.06)
