@<TRIPOS>MOLECULE
NONAME
42 44 1 0 0 
SMALL
USER_CHARGES


@<TRIPOS>ATOM
  1 O        0.3520     0.0900     0.5780 O.3   1 <1>  -0.2800 
  2 C        0.8360    -1.0460     0.1670 C.2   1 <1>   0.4780 
  3 C        1.3050     0.9440     0.4030 C.2   1 <1>   0.2980 
  4 N        2.0510    -0.8930    -0.2490 N.2   1 <1>  -0.3380 
  5 C        0.0240    -2.2340     0.2210 C.2   1 <1>  -0.1520 
  6 N        2.3490     0.3930    -0.0940 N.2   1 <1>  -0.3380 
  7 C        1.0450     2.4050     0.7930 C.3   1 <1>   0.2900 
  8 N        0.4190    -3.4950    -0.1660 N.pl3 1 <1>   0.0480 
  9 C       -1.2720    -2.3250     0.6600 C.2   1 <1>  -0.1500 
 10 N        2.1400     3.3830     0.5730 N.3   1 <1>  -0.8100 
 11 C       -0.6290    -4.3440     0.0360 C.2   1 <1>  -0.3320 
 12 C        1.7470    -3.8660    -0.7030 C.3   1 <1>   0.0160 
 13 C       -1.6790    -3.6490     0.5430 C.2   1 <1>  -0.1500 
 14 C        2.5060     3.5110    -0.8510 C.3   1 <1>   0.2910 
 15 C        3.3100     3.1230     1.4270 C.3   1 <1>   0.0300 
 16 C       -0.6030    -5.8330    -0.2660 C.3   1 <1>  -0.0600 
 17 C        3.4060     4.7140    -1.0780 C.2   1 <1>  -0.1810 
 18 C        3.1740     6.0310    -0.8810 C.2   1 <1>  -0.3320 
 19 C        4.7100     4.6530    -1.5600 C.2   1 <1>   0.1390 
 20 N        4.3030     6.6780    -1.2390 N.pl3 1 <1>   0.3000 
 21 C        1.9320     6.7280    -0.3550 C.3   1 <1>  -0.0600 
 22 N        5.2560     5.8260    -1.6630 N.2   1 <1>  -0.7070 
 23 H        0.7810     2.4240     1.8360 H     1 <1>   0.0800 
 24 H        0.1810     2.7400     0.2480 H     1 <1>   0.0800 
 25 H       -1.8850    -1.5240     1.0330 H     1 <1>   0.1500 
 26 H        1.9280    -3.3180    -1.6090 H     1 <1>   0.0800 
 27 H        1.7880    -4.9170    -0.9120 H     1 <1>   0.0800 
 28 H        2.5020    -3.6200     0.0210 H     1 <1>   0.0800 
 29 H       -2.6520    -4.0250     0.8110 H     1 <1>   0.1500 
 30 H        1.6150     3.6410    -1.4410 H     1 <1>   0.0800 
 31 H        3.0080     2.6220    -1.1920 H     1 <1>   0.0800 
 32 H        3.0050     3.0240     2.4540 H     1 <1>   0.0800 
 33 H        4.0020     3.9460     1.3630 H     1 <1>   0.0800 
 34 H        3.8180     2.2240     1.1220 H     1 <1>   0.0800 
 35 H        0.1600    -6.3180     0.3160 H     1 <1>   0.0800 
 36 H       -0.4090    -5.9970    -1.3110 H     1 <1>   0.0800 
 37 H       -1.5510    -6.2770    -0.0220 H     1 <1>   0.0800 
 38 H        5.2200     3.7410    -1.8220 H     1 <1>   0.1500 
 39 H        4.4550     7.6920    -1.2030 H     1 <1>   0.2700 
 40 H        1.1740     6.0040    -0.1160 H     1 <1>   0.0800 
 41 H        1.5410     7.4040    -1.0950 H     1 <1>   0.0800 
 42 H        2.1670     7.2780     0.5380 H     1 <1>   0.0800 
@<TRIPOS>BOND
  1   1   2  1   
  2   1   3  1   
  3   2   4  2   
  4   2   5  1   
  5   3   6  2   
  6   3   7  1   
  7   4   6  1   
  8   5   8  1   
  9   5   9  2   
 10   7  10  1   
 11   7  23  1   
 12   7  24  1   
 13   8  11  1   
 14   8  12  1   
 15   9  13  1   
 16   9  25  1   
 17  10  14  1   
 18  10  15  1   
 19  11  13  2   
 20  11  16  1   
 21  12  26  1   
 22  12  27  1   
 23  12  28  1   
 24  13  29  1   
 25  14  17  1   
 26  14  30  1   
 27  14  31  1   
 28  15  32  1   
 29  15  33  1   
 30  15  34  1   
 31  16  35  1   
 32  16  36  1   
 33  16  37  1   
 34  17  18  2   
 35  17  19  1   
 36  18  20  1   
 37  18  21  1   
 38  19  22  2   
 39  19  38  1   
 40  20  22  1   
 41  20  39  1   
 42  21  40  1   
 43  21  41  1   
 44  21  42  1   
@<TRIPOS>SUBSTRUCTURE
  1 ****   3 GROUP 4 **** **** 0

# MOE 2024.06 (io_trps.svl 2023.06)
