@<TRIPOS>MOLECULE
NONAME
56 58 1 0 0 
SMALL
USER_CHARGES


@<TRIPOS>ATOM
  1 O       -0.7330     0.2310     2.8170 O.2   1 <1>  -0.5700 
  2 C       -1.0860     1.0090     1.9590 C.2   1 <1>   0.5690 
  3 N       -2.2960     0.8630     1.3180 N.am  1 <1>  -0.6600 
  4 C       -0.1440     2.1670     1.6500 C.3   1 <1>   0.0440 
  5 C       -3.2250    -0.2490     1.6830 C.3   1 <1>   0.1400 
  6 C       -2.7810     1.7640     0.2350 C.3   1 <1>   0.1400 
  7 C        0.6190     1.9830     0.3360 C.ar  1 <1>  -0.1440 
  8 C       -4.5760     0.2690     2.1980 C.3   1 <1>   0.1400 
  9 C       -3.7390     2.8020     0.8270 C.3   1 <1>  -0.1600 
 10 C        0.6040     2.9470    -0.6730 C.ar  1 <1>   0.0820 
 11 C        1.3530     0.8200     0.1550 C.ar  1 <1>  -0.1500 
 12 N       -5.3850     0.8810     1.0960 N.am  1 <1>  -0.6600 
 13 C       -5.2070     2.3530     0.9000 C.3   1 <1>   0.1400 
 14 O       -0.1220     4.0790    -0.4660 O.3   1 <1>  -0.3630 
 15 C        1.3200     2.7240    -1.8480 C.ar  1 <1>  -0.1500 
 16 C        2.0610     0.6050    -1.0130 C.ar  1 <1>  -0.1500 
 17 C       -6.2640     0.1770     0.3080 C.2   1 <1>   0.5690 
 18 C       -0.1170     5.1440    -1.3900 C.3   1 <1>   0.0400 
 19 C        2.0440     1.5570    -2.0150 C.ar  1 <1>  -0.1500 
 20 O       -6.9000     0.7130    -0.5690 O.2   1 <1>  -0.5700 
 21 C       -6.4530    -1.3200     0.5160 C.3   1 <1>  -0.0990 
 22 C       -7.4300    -1.9680    -0.4750 C.3   1 <1>   0.0200 
 23 C       -7.5110    -3.4660    -0.2310 C.2   1 <1>  -0.3320 
 24 N       -6.6330    -4.3850    -0.6960 N.pl3 1 <1>   0.3140 
 25 C       -8.4440    -4.1430     0.4710 C.2   1 <1>  -0.1500 
 26 N       -6.9690    -5.6250    -0.3030 N.2   1 <1>  -0.7070 
 27 C       -5.4510    -4.1580    -1.5390 C.3   1 <1>   0.0160 
 28 C       -8.0550    -5.4730     0.3900 C.2   1 <1>   0.1390 
 29 H        0.5740     2.2390     2.4450 H     1 <1>   0.0800 
 30 H       -0.7100     3.0770     1.6640 H     1 <1>   0.0800 
 31 H       -2.7850    -0.8580     2.4530 H     1 <1>   0.0800 
 32 H       -3.3740    -0.8800     0.8250 H     1 <1>   0.0800 
 33 H       -3.2700     1.1910    -0.5350 H     1 <1>   0.0800 
 34 H       -1.9530     2.2670    -0.2280 H     1 <1>   0.0800 
 35 H       -4.4080     0.9910     2.9780 H     1 <1>   0.0800 
 36 H       -5.1180    -0.5480     2.6380 H     1 <1>   0.0800 
 37 H       -3.7040     3.6840     0.2120 H     1 <1>   0.0800 
 38 H       -3.3980     3.0960     1.8030 H     1 <1>   0.0800 
 39 H        1.3760     0.0710     0.9300 H     1 <1>   0.1500 
 40 H       -5.6880     2.6530    -0.0160 H     1 <1>   0.0800 
 41 H       -5.7030     2.8750     1.7010 H     1 <1>   0.0800 
 42 H        1.3270     3.4420    -2.6440 H     1 <1>   0.1500 
 43 H        2.6250    -0.3020    -1.1400 H     1 <1>   0.1500 
 44 H       -0.7250     5.9360    -0.9910 H     1 <1>   0.0800 
 45 H       -0.5290     4.8010    -2.3220 H     1 <1>   0.0800 
 46 H        0.8940     5.4900    -1.5180 H     1 <1>   0.0800 
 47 H        2.5950     1.3890    -2.9240 H     1 <1>   0.1500 
 48 H       -6.8260    -1.4850     1.5090 H     1 <1>   0.0800 
 49 H       -5.4990    -1.8020     0.4260 H     1 <1>   0.0800 
 50 H       -7.1250    -1.7720    -1.4890 H     1 <1>   0.0800 
 51 H       -8.4060    -1.5320    -0.3420 H     1 <1>   0.0800 
 52 H       -9.3080    -3.7680     0.9890 H     1 <1>   0.1500 
 53 H       -4.7020    -3.6460    -0.9680 H     1 <1>   0.0800 
 54 H       -5.7320    -3.5720    -2.3930 H     1 <1>   0.0800 
 55 H       -5.0670    -5.1060    -1.8660 H     1 <1>   0.0800 
 56 H       -8.5840    -6.2930     0.8470 H     1 <1>   0.1500 
@<TRIPOS>BOND
  1   1   2  2   
  2   2   3  am  
  3   2   4  1   
  4   3   5  1   
  5   3   6  1   
  6   4   7  1   
  7   4  29  1   
  8   4  30  1   
  9   5   8  1   
 10   5  31  1   
 11   5  32  1   
 12   6   9  1   
 13   6  33  1   
 14   6  34  1   
 15   7  10  ar  
 16   7  11  ar  
 17   8  12  1   
 18   8  35  1   
 19   8  36  1   
 20   9  13  1   
 21   9  37  1   
 22   9  38  1   
 23  10  14  1   
 24  10  15  ar  
 25  11  16  ar  
 26  11  39  1   
 27  12  13  1   
 28  12  17  am  
 29  13  40  1   
 30  13  41  1   
 31  14  18  1   
 32  15  19  ar  
 33  15  42  1   
 34  16  19  ar  
 35  16  43  1   
 36  17  20  2   
 37  17  21  1   
 38  18  44  1   
 39  18  45  1   
 40  18  46  1   
 41  19  47  1   
 42  21  22  1   
 43  21  48  1   
 44  21  49  1   
 45  22  23  1   
 46  22  50  1   
 47  22  51  1   
 48  23  24  1   
 49  23  25  2   
 50  24  26  1   
 51  24  27  1   
 52  25  28  1   
 53  25  52  1   
 54  26  28  2   
 55  27  53  1   
 56  27  54  1   
 57  27  55  1   
 58  28  56  1   
@<TRIPOS>SUBSTRUCTURE
  1 ****   5 GROUP 4 **** **** 0

# MOE 2024.06 (io_trps.svl 2023.06)
