@<TRIPOS>MOLECULE
NONAME
47 50 1 0 0 
SMALL
USER_CHARGES


@<TRIPOS>ATOM
  1 F        1.8760     0.0350     1.1520 F     1 <1>  -0.1900 
  2 C        2.8800     0.8080     0.8250 C.ar  1 <1>   0.1900 
  3 C        3.7020     0.4290    -0.2090 C.ar  1 <1>  -0.1500 
  4 C        3.0620     1.9860     1.5550 C.ar  1 <1>  -0.1500 
  5 C        4.7610     1.2750    -0.5300 C.ar  1 <1>   0.2270 
  6 C        4.1100     2.8210     1.2340 C.ar  1 <1>  -0.1500 
  7 N        5.7190     1.1390    -1.4890 N.2   1 <1>  -0.5650 
  8 C        4.9500     2.4480     0.1800 C.ar  1 <1>  -0.1520 
  9 C        6.4550     2.1910    -1.3630 C.2   1 <1>   0.0060 
 10 N        6.0430     3.0280    -0.3730 N.pl3 1 <1>   0.0330 
 11 C        7.6720     2.4630    -2.2430 C.3   1 <1>   0.3000 
 12 O        8.3570     3.6250    -1.8590 O.3   1 <1>  -0.5600 
 13 C        9.1050     3.5310    -0.6700 C.3   1 <1>   0.1810 
 14 C        8.8270     4.7440     0.2200 C.2   1 <1>   0.5690 
 15 O        8.0250     4.5910     1.1140 O.2   1 <1>  -0.5700 
 16 N        9.4300     5.9560    -0.0020 N.am  1 <1>  -0.6600 
 17 C        9.2290     7.1180     0.9220 C.3   1 <1>   0.1400 
 18 C       10.2300     6.3110    -1.2190 C.3   1 <1>   0.1400 
 19 C       10.5710     7.7710     1.2990 C.3   1 <1>   0.2090 
 20 C       11.5700     6.9650    -0.8390 C.3   1 <1>   0.2090 
 21 N       11.3630     8.1230     0.0800 N.pl3 1 <1>  -0.8380 
 22 C       12.4530     8.9770     0.2520 C.ar  1 <1>   0.1000 
 23 C       12.5220    10.2060    -0.4070 C.ar  1 <1>   0.1600 
 24 C       13.5110     8.6340     1.0780 C.ar  1 <1>  -0.1500 
 25 N       13.5140    11.0800    -0.3160 N.ar  1 <1>  -0.6200 
 26 C       14.5520     9.5290     1.1900 C.ar  1 <1>  -0.1500 
 27 C       14.5060    10.7190     0.4830 C.ar  1 <1>   0.1600 
 28 H        3.5540    -0.4780    -0.7610 H     1 <1>   0.1500 
 29 H        2.3830     2.2210     2.3550 H     1 <1>   0.1500 
 30 H        4.2890     3.7370     1.7710 H     1 <1>   0.1500 
 31 H        6.5190     3.8780    -0.0440 H     1 <1>   0.2700 
 32 H        7.3430     2.6050    -3.2570 H     1 <1>   0.0800 
 33 H        8.3500     1.6280    -2.2180 H     1 <1>   0.0800 
 34 H       10.1460     3.4780    -0.9260 H     1 <1>   0.0800 
 35 H        8.8390     2.6370    -0.1340 H     1 <1>   0.0800 
 36 H        8.7290     6.8030     1.8210 H     1 <1>   0.0800 
 37 H        8.6080     7.8500     0.4370 H     1 <1>   0.0800 
 38 H        9.6640     7.0090    -1.8110 H     1 <1>   0.0800 
 39 H       10.4160     5.4480    -1.8300 H     1 <1>   0.0800 
 40 H       11.1340     7.0900     1.9120 H     1 <1>   0.0800 
 41 H       10.3860     8.6630     1.8720 H     1 <1>   0.0800 
 42 H       12.0680     7.3040    -1.7310 H     1 <1>   0.0800 
 43 H       12.2010     6.2360    -0.3610 H     1 <1>   0.0800 
 44 H       11.6970    10.4650    -1.0440 H     1 <1>   0.1500 
 45 H       13.5140     7.7000     1.6080 H     1 <1>   0.1500 
 46 H       15.3960     9.3100     1.8190 H     1 <1>   0.1500 
 47 H       15.3270    11.4100     0.5790 H     1 <1>   0.1500 
@<TRIPOS>BOND
  1   1   2  1   
  2   2   3  ar  
  3   2   4  ar  
  4   3   5  ar  
  5   3  28  1   
  6   4   6  ar  
  7   4  29  1   
  8   5   7  1   
  9   5   8  ar  
 10   6   8  ar  
 11   6  30  1   
 12   7   9  2   
 13   8  10  1   
 14   9  10  1   
 15   9  11  1   
 16  10  31  1   
 17  11  12  1   
 18  11  32  1   
 19  11  33  1   
 20  12  13  1   
 21  13  14  1   
 22  13  34  1   
 23  13  35  1   
 24  14  15  2   
 25  14  16  am  
 26  16  17  1   
 27  16  18  1   
 28  17  19  1   
 29  17  36  1   
 30  17  37  1   
 31  18  20  1   
 32  18  38  1   
 33  18  39  1   
 34  19  21  1   
 35  19  40  1   
 36  19  41  1   
 37  20  21  1   
 38  20  42  1   
 39  20  43  1   
 40  21  22  1   
 41  22  23  ar  
 42  22  24  ar  
 43  23  25  ar  
 44  23  44  1   
 45  24  26  ar  
 46  24  45  1   
 47  25  27  ar  
 48  26  27  ar  
 49  26  46  1   
 50  27  47  1   
@<TRIPOS>SUBSTRUCTURE
  1 ****  14 GROUP 4 **** **** 0

# MOE 2024.06 (io_trps.svl 2023.06)
