@<TRIPOS>MOLECULE
NONAME
48 51 1 0 0 
SMALL
USER_CHARGES


@<TRIPOS>ATOM
  1 S       -0.1960    -0.6560     0.5830 S.o2  1 <1>   1.4470 
  2 O        0.2460    -2.0120     0.8180 O.2   1 <1>  -0.6500 
  3 O       -1.2070    -0.1130     1.4600 O.2   1 <1>  -0.6500 
  4 N       -0.8760    -0.5910    -0.9540 N.am  1 <1>  -0.9140 
  5 C        1.2440     0.4250     0.4870 C.ar  1 <1>  -0.0090 
  6 C       -1.3930    -1.7670    -1.6680 C.3   1 <1>   0.2760 
  7 C        1.0700     1.7740     0.1170 C.ar  1 <1>   0.3100 
  8 C        2.5030    -0.0510     0.7740 C.ar  1 <1>  -0.1500 
  9 C       -2.4680    -2.6420    -1.0090 C.3   1 <1>  -0.0800 
 10 C       -0.3000    -2.7660    -2.0750 C.3   1 <1>   0.1200 
 11 N       -0.1720     2.2520    -0.1820 N.ar  1 <1>  -0.6200 
 12 C        2.2100     2.6120     0.0630 C.ar  1 <1>   0.0000 
 13 C        3.6310     0.7710     0.7130 C.ar  1 <1>  -0.1430 
 14 C       -1.7510    -3.9760    -0.8190 C.3   1 <1>   0.1200 
 15 C       -3.1940    -2.1580     0.2580 C.3   1 <1>  -0.0170 
 16 O       -0.8300    -4.0370    -1.8560 O.3   1 <1>  -0.5600 
 17 C       -0.2910     3.5040    -0.5010 C.ar  1 <1>   0.1600 
 18 C        3.4780     2.0830     0.3630 C.ar  1 <1>  -0.1500 
 19 C        2.0370     3.9620    -0.2910 C.ar  1 <1>  -0.1500 
 20 C        4.9920     0.1830     1.0390 C.3   1 <1>  -0.0970 
 21 C       -4.4000    -3.0350     0.5550 C.ar  1 <1>  -0.1430 
 22 C        0.7810     4.4020    -0.5700 C.ar  1 <1>  -0.1500 
 23 C       -5.6170    -2.8380    -0.0660 C.ar  1 <1>  -0.1500 
 24 C       -4.3400    -4.0740     1.4610 C.ar  1 <1>  -0.1500 
 25 C       -6.6820    -3.6690     0.2370 C.ar  1 <1>   0.1600 
 26 C       -5.4660    -4.8470     1.6920 C.ar  1 <1>   0.1600 
 27 N       -6.6360    -4.6710     1.1000 N.ar  1 <1>  -0.6200 
 28 H       -1.5830     0.1390    -0.8720 H     1 <1>   0.4200 
 29 H       -1.8140    -1.3930    -2.5860 H     1 <1>   0.0800 
 30 H        2.6360    -1.0840     1.0540 H     1 <1>   0.1500 
 31 H       -3.2180    -2.8150    -1.7600 H     1 <1>   0.0800 
 32 H        0.5900    -2.6720    -1.4810 H     1 <1>   0.0800 
 33 H       -0.0510    -2.6790    -3.1180 H     1 <1>   0.0800 
 34 H       -2.4190    -4.8170    -0.8860 H     1 <1>   0.0800 
 35 H       -1.2080    -4.0070     0.1110 H     1 <1>   0.0800 
 36 H       -3.5180    -1.1400     0.1340 H     1 <1>   0.0800 
 37 H       -2.5340    -2.1980     1.1050 H     1 <1>   0.0800 
 38 H       -1.2740     3.8800    -0.7270 H     1 <1>   0.1500 
 39 H        4.3300     2.7390     0.3110 H     1 <1>   0.1500 
 40 H        2.8890     4.6170    -0.3340 H     1 <1>   0.1500 
 41 H        5.7640     0.9260     0.9490 H     1 <1>   0.0800 
 42 H        5.2140    -0.6250     0.3650 H     1 <1>   0.0800 
 43 H        4.9970    -0.1940     2.0460 H     1 <1>   0.0800 
 44 H        0.5900     5.4240    -0.8440 H     1 <1>   0.1500 
 45 H       -5.7460    -2.0460    -0.7810 H     1 <1>   0.1500 
 46 H       -3.4290    -4.2900     1.9900 H     1 <1>   0.1500 
 47 H       -7.6240    -3.5000    -0.2570 H     1 <1>   0.1500 
 48 H       -5.3990    -5.6540     2.4020 H     1 <1>   0.1500 
@<TRIPOS>BOND
  1   1   2  2   
  2   1   3  2   
  3   1   4  am  
  4   1   5  1   
  5   4   6  1   
  6   4  28  1   
  7   5   7  ar  
  8   5   8  ar  
  9   6   9  1   
 10   6  10  1   
 11   6  29  1   
 12   7  11  ar  
 13   7  12  ar  
 14   8  13  ar  
 15   8  30  1   
 16   9  14  1   
 17   9  15  1   
 18   9  31  1   
 19  10  16  1   
 20  10  32  1   
 21  10  33  1   
 22  11  17  ar  
 23  12  18  ar  
 24  12  19  ar  
 25  13  18  ar  
 26  13  20  1   
 27  14  16  1   
 28  14  34  1   
 29  14  35  1   
 30  15  21  1   
 31  15  36  1   
 32  15  37  1   
 33  17  22  ar  
 34  17  38  1   
 35  18  39  1   
 36  19  22  ar  
 37  19  40  1   
 38  20  41  1   
 39  20  42  1   
 40  20  43  1   
 41  21  23  ar  
 42  21  24  ar  
 43  22  44  1   
 44  23  25  ar  
 45  23  45  1   
 46  24  26  ar  
 47  24  46  1   
 48  25  27  ar  
 49  25  47  1   
 50  26  27  ar  
 51  26  48  1   
@<TRIPOS>SUBSTRUCTURE
  1 ****   1 GROUP 4 **** **** 0

# MOE 2024.06 (io_trps.svl 2023.06)
