@<TRIPOS>MOLECULE
NONAME
46 49 1 0 0 
SMALL
USER_CHARGES


@<TRIPOS>ATOM
  1 O        1.1240     0.2720    -1.5160 O.3   1 <1>  -0.0190 
  2 N        0.3480     1.3090    -1.4950 N.2   1 <1>  -0.4100 
  3 C        1.8630     0.4020    -0.4440 C.2   1 <1>   0.2980 
  4 C        0.6360     1.9960    -0.4480 C.2   1 <1>   0.4620 
  5 N        1.6190     1.4320     0.2600 N.2   1 <1>  -0.5650 
  6 C        2.9160    -0.6660    -0.1330 C.3   1 <1>   0.3700 
  7 C       -0.0020     3.2360    -0.0500 C.ar  1 <1>   0.0540 
  8 N        2.3730    -2.0260    -0.0450 N.3   1 <1>  -0.8100 
  9 C        4.0020    -0.7860    -1.1990 C.3   1 <1>  -0.1600 
 10 C       -1.0310     3.8150    -0.7830 C.ar  1 <1>  -0.1500 
 11 C        0.3600     3.9430     1.0890 C.ar  1 <1>  -0.1500 
 12 C        3.5220    -2.9260    -0.1450 C.3   1 <1>   0.1100 
 13 C        1.5790    -2.2410     1.1830 C.3   1 <1>   0.2910 
 14 C        4.4950    -2.2310    -1.0940 C.3   1 <1>  -0.1600 
 15 C       -1.6110     4.9980    -0.3680 C.ar  1 <1>   0.1600 
 16 C       -0.2830     5.1200     1.4200 C.ar  1 <1>   0.1600 
 17 C        0.9980    -3.6470     1.2390 C.2   1 <1>   0.1080 
 18 N       -1.2620     5.6660     0.7190 N.ar  1 <1>  -0.6200 
 19 N        1.1110    -4.4440     2.2430 N.2   1 <1>  -0.4100 
 20 C        0.2740    -4.2480     0.2130 C.2   1 <1>  -0.1500 
 21 O        0.4880    -5.5370     1.9060 O.3   1 <1>  -0.0190 
 22 C       -0.0230    -5.4610     0.7040 C.2   1 <1>  -0.0400 
 23 C       -0.7890    -6.6480     0.1380 C.3   1 <1>   0.1000 
 24 C        0.1570    -7.8350    -0.0690 C.3   1 <1>  -0.2400 
 25 C       -1.4800    -6.2910    -1.1830 C.3   1 <1>  -0.2400 
 26 H        3.3880    -0.4180     0.8030 H     1 <1>   0.0800 
 27 H        3.5760    -0.6200    -2.1730 H     1 <1>   0.0800 
 28 H        4.7880    -0.0710    -1.0340 H     1 <1>   0.0800 
 29 H       -1.3810     3.3410    -1.6820 H     1 <1>   0.1500 
 30 H        1.1470     3.5740     1.7210 H     1 <1>   0.1500 
 31 H        3.9830    -3.0510     0.8220 H     1 <1>   0.0800 
 32 H        3.2190    -3.8890    -0.5200 H     1 <1>   0.0800 
 33 H        2.1920    -2.0800     2.0530 H     1 <1>   0.0800 
 34 H        0.7640    -1.5400     1.2110 H     1 <1>   0.0800 
 35 H        5.4950    -2.2820    -0.7020 H     1 <1>   0.0800 
 36 H        4.4740    -2.7070    -2.0590 H     1 <1>   0.0800 
 37 H       -2.4060     5.4190    -0.9600 H     1 <1>   0.1500 
 38 H        0.0230     5.6430     2.3110 H     1 <1>   0.1500 
 39 H        0.0420    -3.7990    -0.7360 H     1 <1>   0.1500 
 40 H       -1.5440    -6.9270     0.8530 H     1 <1>   0.0800 
 41 H        0.9370    -7.5750    -0.7630 H     1 <1>   0.0800 
 42 H       -0.3820    -8.6840    -0.4510 H     1 <1>   0.0800 
 43 H        0.6110    -8.1120     0.8660 H     1 <1>   0.0800 
 44 H       -0.7530    -6.0160    -1.9270 H     1 <1>   0.0800 
 45 H       -2.1530    -5.4650    -1.0350 H     1 <1>   0.0800 
 46 H       -2.0460    -7.1290    -1.5460 H     1 <1>   0.0800 
@<TRIPOS>BOND
  1   1   2  1   
  2   1   3  1   
  3   2   4  2   
  4   3   5  2   
  5   3   6  1   
  6   4   5  1   
  7   4   7  1   
  8   6   8  1   
  9   6   9  1   
 10   6  26  1   
 11   7  10  ar  
 12   7  11  ar  
 13   8  12  1   
 14   8  13  1   
 15   9  14  1   
 16   9  27  1   
 17   9  28  1   
 18  10  15  ar  
 19  10  29  1   
 20  11  16  ar  
 21  11  30  1   
 22  12  14  1   
 23  12  31  1   
 24  12  32  1   
 25  13  17  1   
 26  13  33  1   
 27  13  34  1   
 28  14  35  1   
 29  14  36  1   
 30  15  18  ar  
 31  15  37  1   
 32  16  18  ar  
 33  16  38  1   
 34  17  19  2   
 35  17  20  1   
 36  19  21  1   
 37  20  22  2   
 38  20  39  1   
 39  21  22  1   
 40  22  23  1   
 41  23  24  1   
 42  23  25  1   
 43  23  40  1   
 44  24  41  1   
 45  24  42  1   
 46  24  43  1   
 47  25  44  1   
 48  25  45  1   
 49  25  46  1   
@<TRIPOS>SUBSTRUCTURE
  1 ****   3 GROUP 4 **** **** 0

# MOE 2024.06 (io_trps.svl 2023.06)
