@<TRIPOS>MOLECULE
NONAME
51 54 1 0 0 
SMALL
USER_CHARGES


@<TRIPOS>ATOM
  1 O        0.3900     1.8440     0.3740 O.3   1 <1>  -0.6800 
  2 C        0.5540     3.1880     0.6730 C.3   1 <1>   0.2000 
  3 C        1.2780     3.9310    -0.4530 C.3   1 <1>   0.2090 
  4 C        1.4670     3.3280     1.8790 C.3   1 <1>  -0.1600 
  5 N        2.1570     4.9260     0.2260 N.pl3 1 <1>  -0.8380 
  6 C        2.1400     4.6830     1.6940 C.3   1 <1>   0.2090 
  7 C        2.9190     5.8780    -0.3690 C.ar  1 <1>   0.4100 
  8 N        3.5760     6.7140     0.4170 N.ar  1 <1>  -0.6200 
  9 C        3.0040     5.9720    -1.7730 C.ar  1 <1>  -0.1500 
 10 C        4.3200     7.6430    -0.1470 C.ar  1 <1>   0.7710 
 11 C        3.7720     6.9400    -2.3260 C.ar  1 <1>   0.2110 
 12 N        4.4260     7.7720    -1.4850 N.ar  1 <1>  -0.1790 
 13 N        4.9620     8.4510     0.7120 N.pl3 1 <1>  -0.8690 
 14 C        5.9240     9.5740     0.5120 C.3   1 <1>   0.3890 
 15 C        5.5400    10.3690    -0.7220 C.2   1 <1>   0.0060 
 16 N        6.0010    10.0900    -1.8940 N.2   1 <1>  -0.3380 
 17 N        4.6410    11.3620    -0.7640 N.pl3 1 <1>   0.0480 
 18 N        5.3690    10.8740    -2.7570 N.2   1 <1>  -0.3380 
 19 C        4.5790    11.6280    -2.0720 C.2   1 <1>   0.0360 
 20 C        3.8420    11.9680     0.3340 C.3   1 <1>   0.1760 
 21 C        2.4150    11.3940     0.3290 C.3   1 <1>  -0.1600 
 22 C        3.8260    13.5040     0.2310 C.3   1 <1>  -0.1600 
 23 C        1.5680    12.0140     1.4500 C.3   1 <1>  -0.1600 
 24 C        2.9830    14.1190     1.3570 C.3   1 <1>  -0.1600 
 25 C        1.5590    13.5460     1.3590 C.3   1 <1>  -0.1600 
 26 H       -0.3190     1.7140    -0.2860 H     1 <1>   0.4000 
 27 H       -0.4100     3.6290     0.8650 H     1 <1>   0.0800 
 28 H        0.5720     4.4250    -1.0970 H     1 <1>   0.0800 
 29 H        1.8900     3.2450    -1.0130 H     1 <1>   0.0800 
 30 H        2.2230     2.5640     1.8650 H     1 <1>   0.0800 
 31 H        0.9240     3.2820     2.8050 H     1 <1>   0.0800 
 32 H        3.1390     4.6770     2.0990 H     1 <1>   0.0800 
 33 H        1.5650     5.4580     2.1720 H     1 <1>   0.0800 
 34 H        2.4620     5.2760    -2.3840 H     1 <1>   0.1500 
 35 H        3.8840     7.0760    -3.3900 H     1 <1>   0.1500 
 36 H        5.0040     8.5460    -1.8360 H     1 <1>   0.4570 
 37 H        4.8230     8.1890     1.6930 H     1 <1>   0.4000 
 38 H        6.9180     9.1750     0.3910 H     1 <1>   0.0800 
 39 H        5.9280    10.2120     1.3800 H     1 <1>   0.0800 
 40 H        3.9360    12.3810    -2.4930 H     1 <1>   0.1500 
 41 H        4.3030    11.7100     1.2700 H     1 <1>   0.0800 
 42 H        2.4480    10.3270     0.4670 H     1 <1>   0.0800 
 43 H        1.9430    11.6030    -0.6160 H     1 <1>   0.0800 
 44 H        3.4050    13.8080    -0.7110 H     1 <1>   0.0800 
 45 H        4.8300    13.8850     0.2940 H     1 <1>   0.0800 
 46 H        1.9620    11.7180     2.4080 H     1 <1>   0.0800 
 47 H        0.5580    11.6460     1.3850 H     1 <1>   0.0800 
 48 H        2.9380    15.1880     1.2310 H     1 <1>   0.0800 
 49 H        3.4480    13.9220     2.3080 H     1 <1>   0.0800 
 50 H        1.0100    13.9520     2.1920 H     1 <1>   0.0800 
 51 H        1.0520    13.8470     0.4590 H     1 <1>   0.0800 
@<TRIPOS>BOND
  1   1   2  1   
  2   1  26  1   
  3   2   3  1   
  4   2   4  1   
  5   2  27  1   
  6   3   5  1   
  7   3  28  1   
  8   3  29  1   
  9   4   6  1   
 10   4  30  1   
 11   4  31  1   
 12   5   6  1   
 13   5   7  1   
 14   6  32  1   
 15   6  33  1   
 16   7   8  ar  
 17   7   9  ar  
 18   8  10  ar  
 19   9  11  ar  
 20   9  34  1   
 21  10  12  ar  
 22  10  13  1   
 23  11  12  ar  
 24  11  35  1   
 25  12  36  1   
 26  13  14  1   
 27  13  37  1   
 28  14  15  1   
 29  14  38  1   
 30  14  39  1   
 31  15  16  2   
 32  15  17  1   
 33  16  18  1   
 34  17  19  1   
 35  17  20  1   
 36  18  19  2   
 37  19  40  1   
 38  20  21  1   
 39  20  22  1   
 40  20  41  1   
 41  21  23  1   
 42  21  42  1   
 43  21  43  1   
 44  22  24  1   
 45  22  44  1   
 46  22  45  1   
 47  23  25  1   
 48  23  46  1   
 49  23  47  1   
 50  24  25  1   
 51  24  48  1   
 52  24  49  1   
 53  25  50  1   
 54  25  51  1   
@<TRIPOS>SUBSTRUCTURE
  1 ****  10 GROUP 4 **** **** 0

# MOE 2024.06 (io_trps.svl 2023.06)
