@<TRIPOS>MOLECULE
NONAME
47 48 1 0 0 
SMALL
USER_CHARGES


@<TRIPOS>ATOM
  1 F        1.1550    -0.9980    -0.4360 F     1 <1>  -0.1900 
  2 C        0.6010    -2.0910     0.0080 C.ar  1 <1>   0.1900 
  3 C        0.9230    -3.2940    -0.5870 C.ar  1 <1>  -0.1500 
  4 C       -0.2870    -2.0080     1.0610 C.ar  1 <1>  -0.1500 
  5 C        0.3300    -4.4590    -0.1260 C.ar  1 <1>  -0.1440 
  6 C       -0.8780    -3.1730     1.5140 C.ar  1 <1>  -0.1500 
  7 C       -0.6030    -4.4110     0.9240 C.ar  1 <1>   0.0860 
  8 C        0.7310    -5.7840    -0.7670 C.3   1 <1>  -0.0960 
  9 C       -1.2970    -5.5890     1.4070 C.2   1 <1>   0.5440 
 10 O       -1.1730    -5.9390     2.5640 O.2   1 <1>  -0.5700 
 11 N       -2.1700    -6.2960     0.6140 N.am  1 <1>  -0.6600 
 12 C       -2.4700    -7.7240     0.9870 C.3   1 <1>   0.3210 
 13 C       -2.9030    -5.6340    -0.5180 C.3   1 <1>   0.1400 
 14 C       -3.4400    -8.4480     0.0510 C.2   1 <1>   0.0460 
 15 C       -4.0830    -4.7580    -0.0390 C.3   1 <1>   0.3430 
 16 N       -4.7720    -8.2130     0.0970 N.2   1 <1>  -0.5650 
 17 C       -3.1510    -9.3780    -0.8890 C.2   1 <1>  -0.3320 
 18 N       -4.9920    -5.4570     0.9270 N.4   1 <1>  -0.9590 
 19 C       -5.2590    -9.0130    -0.7960 C.2   1 <1>   0.0360 
 20 N       -4.3250    -9.7480    -1.4330 N.pl3 1 <1>   0.0330 
 21 C       -1.8270    -9.9820    -1.3320 C.3   1 <1>  -0.0600 
 22 C       -6.4220    -5.0940     0.7200 C.3   1 <1>   0.2630 
 23 C       -4.5860    -5.2650     2.3530 C.3   1 <1>   0.2630 
 24 H        1.6340    -3.3040    -1.3940 H     1 <1>   0.1500 
 25 H       -0.4990    -1.0550     1.5120 H     1 <1>   0.1500 
 26 H       -1.5600    -3.1310     2.3460 H     1 <1>   0.1500 
 27 H        1.6200    -5.6690    -1.3610 H     1 <1>   0.0800 
 28 H       -0.0550    -6.1500    -1.4020 H     1 <1>   0.0800 
 29 H        0.9370    -6.5180    -0.0080 H     1 <1>   0.0800 
 30 H       -2.8780    -7.7520     1.9820 H     1 <1>   0.0800 
 31 H       -1.5420    -8.2660     1.0160 H     1 <1>   0.0800 
 32 H       -3.2610    -6.3620    -1.2230 H     1 <1>   0.0800 
 33 H       -2.2230    -5.0070    -1.0650 H     1 <1>   0.0800 
 34 H       -4.6440    -4.4620    -0.9090 H     1 <1>   0.0800 
 35 H       -3.6950    -3.8610     0.4150 H     1 <1>   0.0800 
 36 H       -4.8970    -6.4780     0.7160 H     1 <1>   0.4500 
 37 H       -6.3060    -9.1090    -1.0280 H     1 <1>   0.1500 
 38 H       -4.4820   -10.4490    -2.1650 H     1 <1>   0.2700 
 39 H       -1.0030    -9.5290    -0.8110 H     1 <1>   0.0800 
 40 H       -1.6840    -9.8300    -2.3870 H     1 <1>   0.0800 
 41 H       -1.8160   -11.0380    -1.1300 H     1 <1>   0.0800 
 42 H       -6.5760    -4.0460     0.9160 H     1 <1>   0.0800 
 43 H       -7.0480    -5.6690     1.3840 H     1 <1>   0.0800 
 44 H       -6.7160    -5.3080    -0.2940 H     1 <1>   0.0800 
 45 H       -4.6390    -4.2240     2.6240 H     1 <1>   0.0800 
 46 H       -3.5790    -5.6110     2.5110 H     1 <1>   0.0800 
 47 H       -5.2380    -5.8270     3.0020 H     1 <1>   0.0800 
@<TRIPOS>BOND
  1   1   2  1   
  2   2   3  ar  
  3   2   4  ar  
  4   3   5  ar  
  5   3  24  1   
  6   4   6  ar  
  7   4  25  1   
  8   5   7  ar  
  9   5   8  1   
 10   6   7  ar  
 11   6  26  1   
 12   7   9  1   
 13   8  27  1   
 14   8  28  1   
 15   8  29  1   
 16   9  10  2   
 17   9  11  am  
 18  11  12  1   
 19  11  13  1   
 20  12  14  1   
 21  12  30  1   
 22  12  31  1   
 23  13  15  1   
 24  13  32  1   
 25  13  33  1   
 26  14  16  1   
 27  14  17  2   
 28  15  18  1   
 29  15  34  1   
 30  15  35  1   
 31  16  19  2   
 32  17  20  1   
 33  17  21  1   
 34  18  22  1   
 35  18  23  1   
 36  18  36  1   
 37  19  20  1   
 38  19  37  1   
 39  20  38  1   
 40  21  39  1   
 41  21  40  1   
 42  21  41  1   
 43  22  42  1   
 44  22  43  1   
 45  22  44  1   
 46  23  45  1   
 47  23  46  1   
 48  23  47  1   
@<TRIPOS>SUBSTRUCTURE
  1 ****  11 GROUP 4 **** **** 0

# MOE 2024.06 (io_trps.svl 2023.06)
