@<TRIPOS>MOLECULE
NONAME
52 54 1 0 0 
SMALL
USER_CHARGES


@<TRIPOS>ATOM
  1 O       -0.6420    -2.0130     2.7710 O.2   1 <1>  -0.5700 
  2 C        0.1310    -2.5610     2.0230 C.2   1 <1>   0.5690 
  3 N       -0.2110    -2.9970     0.7720 N.am  1 <1>  -0.6600 
  4 C        1.5580    -2.7880     2.4790 C.3   1 <1>  -0.0990 
  5 C        0.7880    -3.6870    -0.0820 C.3   1 <1>   0.1400 
  6 C       -1.5880    -2.8650     0.2250 C.3   1 <1>   0.0600 
  7 C        2.5440    -2.4070     1.3600 C.3   1 <1>  -0.0800 
  8 C        2.1380    -2.9430    -0.0330 C.3   1 <1>  -0.0800 
  9 C        3.9740    -2.9000     1.6230 C.3   1 <1>  -0.1600 
 10 C        3.3120    -3.8080    -0.5100 C.3   1 <1>  -0.1600 
 11 C        4.5190    -3.2490     0.2440 C.3   1 <1>   0.2200 
 12 N        5.6960    -4.1700     0.3150 N.am  1 <1>  -0.6600 
 13 C        6.9920    -3.7540     0.1110 C.2   1 <1>   0.5690 
 14 C        5.4340    -5.6110     0.6270 C.3   1 <1>   0.0600 
 15 O        7.9090    -4.5420     0.0830 O.2   1 <1>  -0.5700 
 16 C        7.3120    -2.2770    -0.0870 C.3   1 <1>  -0.0990 
 17 C        8.8120    -1.9500    -0.0580 C.3   1 <1>  -0.0170 
 18 C        9.0240    -0.4540    -0.2260 C.ar  1 <1>  -0.1440 
 19 C        9.1340     0.1000    -1.4910 C.ar  1 <1>  -0.1500 
 20 C        9.1040     0.3720     0.8840 C.ar  1 <1>  -0.1500 
 21 C        9.3200     1.4630    -1.6450 C.ar  1 <1>  -0.1500 
 22 C        9.2900     1.7350     0.7300 C.ar  1 <1>  -0.1500 
 23 C        9.4000     2.2880    -0.5350 C.ar  1 <1>  -0.1440 
 24 C        9.6030     3.7830    -0.7030 C.3   1 <1>  -0.0970 
 25 H        1.7520    -2.2020     3.3580 H     1 <1>   0.0800 
 26 H        1.6570    -3.8260     2.7350 H     1 <1>   0.0800 
 27 H        0.9030    -4.6920     0.2850 H     1 <1>   0.0800 
 28 H        0.4380    -3.7370    -1.0990 H     1 <1>   0.0800 
 29 H       -1.5670    -2.2790    -0.6760 H     1 <1>   0.0800 
 30 H       -2.2320    -2.3780     0.9370 H     1 <1>   0.0800 
 31 H       -1.9890    -3.8400     0.0090 H     1 <1>   0.0800 
 32 H        2.5620    -1.3310     1.2950 H     1 <1>   0.0800 
 33 H        2.0620    -2.0950    -0.6950 H     1 <1>   0.0800 
 34 H        3.9540    -3.7770     2.2440 H     1 <1>   0.0800 
 35 H        4.5690    -2.1420     2.1000 H     1 <1>   0.0800 
 36 H        3.4500    -3.7400    -1.5750 H     1 <1>   0.0800 
 37 H        3.1280    -4.8290    -0.2360 H     1 <1>   0.0800 
 38 H        4.7920    -2.3320    -0.2470 H     1 <1>   0.0800 
 39 H        4.6490    -5.7080     1.3540 H     1 <1>   0.0800 
 40 H        6.3170    -6.0800     1.0280 H     1 <1>   0.0800 
 41 H        5.1540    -6.1290    -0.2730 H     1 <1>   0.0800 
 42 H        6.9110    -1.9660    -1.0330 H     1 <1>   0.0800 
 43 H        6.8310    -1.7140     0.6910 H     1 <1>   0.0800 
 44 H        9.3170    -2.4800    -0.8480 H     1 <1>   0.0800 
 45 H        9.2380    -2.2780     0.8740 H     1 <1>   0.0800 
 46 H        9.0750    -0.5280    -2.3620 H     1 <1>   0.1500 
 47 H        9.0220    -0.0420     1.8730 H     1 <1>   0.1500 
 48 H        9.4020     1.8770    -2.6330 H     1 <1>   0.1500 
 49 H        9.3490     2.3630     1.6010 H     1 <1>   0.1500 
 50 H       10.1530     3.9890    -1.6040 H     1 <1>   0.0800 
 51 H       10.1550     4.1830     0.1280 H     1 <1>   0.0800 
 52 H        8.6490     4.2760    -0.7580 H     1 <1>   0.0800 
@<TRIPOS>BOND
  1   1   2  2   
  2   2   3  am  
  3   2   4  1   
  4   3   5  1   
  5   3   6  1   
  6   4   7  1   
  7   4  25  1   
  8   4  26  1   
  9   5   8  1   
 10   5  27  1   
 11   5  28  1   
 12   6  29  1   
 13   6  30  1   
 14   6  31  1   
 15   7   8  1   
 16   7   9  1   
 17   7  32  1   
 18   8  10  1   
 19   8  33  1   
 20   9  11  1   
 21   9  34  1   
 22   9  35  1   
 23  10  11  1   
 24  10  36  1   
 25  10  37  1   
 26  11  12  1   
 27  11  38  1   
 28  12  13  am  
 29  12  14  1   
 30  13  15  2   
 31  13  16  1   
 32  14  39  1   
 33  14  40  1   
 34  14  41  1   
 35  16  17  1   
 36  16  42  1   
 37  16  43  1   
 38  17  18  1   
 39  17  44  1   
 40  17  45  1   
 41  18  19  ar  
 42  18  20  ar  
 43  19  21  ar  
 44  19  46  1   
 45  20  22  ar  
 46  20  47  1   
 47  21  23  ar  
 48  21  48  1   
 49  22  23  ar  
 50  22  49  1   
 51  23  24  1   
 52  24  50  1   
 53  24  51  1   
 54  24  52  1   
@<TRIPOS>SUBSTRUCTURE
  1 ****  11 GROUP 4 **** **** 0

# MOE 2024.06 (io_trps.svl 2023.06)
