@<TRIPOS>MOLECULE
NONAME
50 52 1 0 0 
SMALL
USER_CHARGES


@<TRIPOS>ATOM
  1 CL       2.5760    -0.4780    -3.2290 Cl    1 <1>  -0.1770 
  2 C        2.8240     0.4410    -1.7640 C.ar  1 <1>   0.1770 
  3 C        2.6660    -0.1740    -0.5340 C.ar  1 <1>  -0.1440 
  4 C        3.1650     1.7780    -1.8660 C.ar  1 <1>  -0.1500 
  5 C        2.8630     0.6040     0.5930 C.ar  1 <1>   0.1900 
  6 C        2.3050    -1.6390    -0.4160 C.3   1 <1>   0.4860 
  7 C        3.3560     2.5310    -0.7180 C.ar  1 <1>  -0.1500 
  8 F        2.7130     0.0410     1.7640 F     1 <1>  -0.1900 
  9 C        3.2060     1.9480     0.5330 C.ar  1 <1>  -0.1440 
 10 N        0.9140    -1.8620    -0.8870 N.4   1 <1>  -0.9590 
 11 C        3.4160     2.7700     1.7970 C.3   1 <1>  -0.0970 
 12 C        0.6310    -3.3290    -1.0580 C.3   1 <1>   0.3430 
 13 C       -0.1200    -1.1690    -0.0600 C.3   1 <1>   0.3430 
 14 C        0.3760    -4.1040     0.2460 C.3   1 <1>  -0.1060 
 15 C       -0.3310    -1.8670     1.2800 C.3   1 <1>  -0.1600 
 16 C       -0.2820    -5.4040    -0.1790 C.2   1 <1>   0.9060 
 17 C       -0.6850    -3.3350     1.0560 C.3   1 <1>   0.2000 
 18 C        1.6550    -4.4350     1.0810 C.3   1 <1>  -0.0170 
 19 O       -0.3120    -5.6920    -1.3790 O.co2 1 <1>  -0.9000 
 20 O       -0.8100    -6.1050     0.6890 O.co2 1 <1>  -0.9000 
 21 O       -0.8490    -3.9250     2.2870 O.3   1 <1>  -0.6800 
 22 C        2.9590    -4.5880     0.2980 C.ar  1 <1>  -0.1440 
 23 C        4.0930    -3.9020     0.7140 C.ar  1 <1>  -0.1500 
 24 C        3.0450    -5.4120    -0.8150 C.ar  1 <1>  -0.1500 
 25 C        5.2760    -3.9980     0.0020 C.ar  1 <1>  -0.1500 
 26 C        4.2260    -5.5080    -1.5290 C.ar  1 <1>  -0.1500 
 27 C        5.3420    -4.7960    -1.1260 C.ar  1 <1>  -0.1500 
 28 H        3.2830     2.2280    -2.8370 H     1 <1>   0.1500 
 29 H        2.3990    -1.9580     0.6080 H     1 <1>   0.0800 
 30 H        2.9890    -2.2230    -1.0110 H     1 <1>   0.0800 
 31 H        3.6240     3.5710    -0.8050 H     1 <1>   0.1500 
 32 H        0.8880    -1.4590    -1.8330 H     1 <1>   0.4500 
 33 H        3.6940     3.7820     1.5600 H     1 <1>   0.0800 
 34 H        4.1990     2.3350     2.3930 H     1 <1>   0.0800 
 35 H        2.5120     2.7930     2.3790 H     1 <1>   0.0800 
 36 H       -0.2550    -3.4300    -1.6660 H     1 <1>   0.0800 
 37 H        1.4260    -3.8030    -1.6070 H     1 <1>   0.0800 
 38 H        0.1640    -0.1420     0.1060 H     1 <1>   0.0800 
 39 H       -1.0560    -1.1710    -0.5960 H     1 <1>   0.0800 
 40 H       -1.1450    -1.3880     1.7930 H     1 <1>   0.0800 
 41 H        0.5460    -1.7700     1.8930 H     1 <1>   0.0800 
 42 H       -1.6370    -3.3990     0.5500 H     1 <1>   0.0800 
 43 H        1.7970    -3.6780     1.8290 H     1 <1>   0.0800 
 44 H        1.4910    -5.3480     1.6310 H     1 <1>   0.0800 
 45 H       -0.9970    -4.8970     2.1090 H     1 <1>   0.4000 
 46 H        4.0690    -3.2930     1.6010 H     1 <1>   0.1500 
 47 H        2.1960    -5.9930    -1.1390 H     1 <1>   0.1500 
 48 H        6.1500    -3.4610     0.3290 H     1 <1>   0.1500 
 49 H        4.2750    -6.1460    -2.3950 H     1 <1>   0.1500 
 50 H        6.2600    -4.8750    -1.6820 H     1 <1>   0.1500 
@<TRIPOS>BOND
  1   1   2  1   
  2   2   3  ar  
  3   2   4  ar  
  4   3   5  ar  
  5   3   6  1   
  6   4   7  ar  
  7   4  28  1   
  8   5   8  1   
  9   5   9  ar  
 10   6  10  1   
 11   6  29  1   
 12   6  30  1   
 13   7   9  ar  
 14   7  31  1   
 15   9  11  1   
 16  10  12  1   
 17  10  13  1   
 18  10  32  1   
 19  11  33  1   
 20  11  34  1   
 21  11  35  1   
 22  12  14  1   
 23  12  36  1   
 24  12  37  1   
 25  13  15  1   
 26  13  38  1   
 27  13  39  1   
 28  14  16  1   
 29  14  17  1   
 30  14  18  1   
 31  15  17  1   
 32  15  40  1   
 33  15  41  1   
 34  16  19  ar  
 35  16  20  ar  
 36  17  21  1   
 37  17  42  1   
 38  18  22  1   
 39  18  43  1   
 40  18  44  1   
 41  21  45  1   
 42  22  23  ar  
 43  22  24  ar  
 44  23  25  ar  
 45  23  46  1   
 46  24  26  ar  
 47  24  47  1   
 48  25  27  ar  
 49  25  48  1   
 50  26  27  ar  
 51  26  49  1   
 52  27  50  1   
@<TRIPOS>SUBSTRUCTURE
  1 ****   6 GROUP 4 **** **** 0

# MOE 2024.06 (io_trps.svl 2023.06)
