@<TRIPOS>MOLECULE
NONAME
55 58 1 0 0 
SMALL
USER_CHARGES


@<TRIPOS>ATOM
  1 O       -1.3280    -0.6340    -1.2040 O.2   1 <1>  -0.5700 
  2 C       -1.0130    -1.7540    -0.8510 C.2   1 <1>   0.5440 
  3 N        0.2450    -2.2020    -1.1550 N.am  1 <1>  -0.7300 
  4 C       -1.9540    -2.5950    -0.1450 C.ar  1 <1>   0.0860 
  5 C        1.2820    -1.4130    -1.8470 C.3   1 <1>   0.1400 
  6 C       -3.3210    -2.3260    -0.1970 C.ar  1 <1>   0.1600 
  7 C       -1.5690    -3.6960     0.6170 C.ar  1 <1>  -0.1500 
  8 C        2.6400    -1.7680    -1.2530 C.3   1 <1>  -0.2400 
  9 N       -4.2760    -3.0260     0.3890 N.ar  1 <1>  -0.6200 
 10 C       -2.5510    -4.4340     1.2320 C.ar  1 <1>  -0.1500 
 11 C       -3.8930    -4.0850     1.0930 C.ar  1 <1>   0.4100 
 12 N       -4.8770    -4.8440     1.6910 N.pl3 1 <1>  -0.8380 
 13 C       -6.1460    -4.2070     2.1490 C.3   1 <1>   0.2090 
 14 C       -4.9420    -6.3070     1.4460 C.3   1 <1>   0.2090 
 15 C       -7.2810    -4.5400     1.1800 C.3   1 <1>  -0.1600 
 16 C       -6.0860    -6.6270     0.4810 C.3   1 <1>  -0.1600 
 17 C       -7.4210    -6.0570     0.9830 C.3   1 <1>   0.1000 
 18 C       -8.5560    -6.4190     0.0230 C.2   1 <1>   0.0060 
 19 N       -9.0690    -5.6120    -0.8430 N.2   1 <1>  -0.3380 
 20 N       -9.1470    -7.6220    -0.0300 N.pl3 1 <1>   0.0480 
 21 N      -10.0200    -6.2790    -1.4940 N.2   1 <1>  -0.3380 
 22 C      -10.0500    -7.4670    -1.0010 C.2   1 <1>   0.0060 
 23 C       -8.9000    -8.8420     0.7690 C.3   1 <1>   0.0960 
 24 C      -10.9940    -8.5560    -1.4740 C.3   1 <1>   0.0200 
 25 C       -8.4730   -10.0220    -0.1170 C.3   1 <1>  -0.1600 
 26 C      -10.2390    -9.7860    -1.9980 C.3   1 <1>  -0.1600 
 27 C       -9.6300   -10.6690    -0.8960 C.3   1 <1>  -0.1600 
 28 H        0.4840    -3.1780    -0.9860 H     1 <1>   0.3700 
 29 H        1.0890    -0.3590    -1.7210 H     1 <1>   0.0800 
 30 H        1.2620    -1.6410    -2.8990 H     1 <1>   0.0800 
 31 H       -3.6390    -1.4710    -0.7680 H     1 <1>   0.1500 
 32 H       -0.5330    -3.9580     0.7320 H     1 <1>   0.1500 
 33 H        2.6560    -1.5380    -0.2030 H     1 <1>   0.0800 
 34 H        3.4060    -1.1910    -1.7390 H     1 <1>   0.0800 
 35 H        2.8560    -2.8110    -1.4000 H     1 <1>   0.0800 
 36 H       -2.3000    -5.2830     1.8370 H     1 <1>   0.1500 
 37 H       -6.0250    -3.1390     2.2150 H     1 <1>   0.0800 
 38 H       -6.3830    -4.5720     3.1330 H     1 <1>   0.0800 
 39 H       -5.0940    -6.8120     2.3840 H     1 <1>   0.0800 
 40 H       -4.0160    -6.6560     1.0210 H     1 <1>   0.0800 
 41 H       -7.0750    -4.0630     0.2370 H     1 <1>   0.0800 
 42 H       -8.2030    -4.1350     1.5560 H     1 <1>   0.0800 
 43 H       -6.1570    -7.6910     0.3590 H     1 <1>   0.0800 
 44 H       -5.8580    -6.2010    -0.4810 H     1 <1>   0.0800 
 45 H       -7.6460    -6.4840     1.9430 H     1 <1>   0.0800 
 46 H       -9.7950    -9.0870     1.3120 H     1 <1>   0.0800 
 47 H       -8.1240    -8.6410     1.4830 H     1 <1>   0.0800 
 48 H      -11.5920    -8.1520    -2.2720 H     1 <1>   0.0800 
 49 H      -11.6610    -8.8310    -0.6780 H     1 <1>   0.0800 
 50 H       -8.0510   -10.7760     0.5240 H     1 <1>   0.0800 
 51 H       -7.6960    -9.7080    -0.7940 H     1 <1>   0.0800 
 52 H       -9.4710    -9.4670    -2.6820 H     1 <1>   0.0800 
 53 H      -10.9350   -10.3870    -2.5590 H     1 <1>   0.0800 
 54 H      -10.4030   -10.9750    -0.2110 H     1 <1>   0.0800 
 55 H       -9.2540   -11.5630    -1.3630 H     1 <1>   0.0800 
@<TRIPOS>BOND
  1   1   2  2   
  2   2   3  am  
  3   2   4  1   
  4   3   5  1   
  5   3  28  1   
  6   4   6  ar  
  7   4   7  ar  
  8   5   8  1   
  9   5  29  1   
 10   5  30  1   
 11   6   9  ar  
 12   6  31  1   
 13   7  10  ar  
 14   7  32  1   
 15   8  33  1   
 16   8  34  1   
 17   8  35  1   
 18   9  11  ar  
 19  10  11  ar  
 20  10  36  1   
 21  11  12  1   
 22  12  13  1   
 23  12  14  1   
 24  13  15  1   
 25  13  37  1   
 26  13  38  1   
 27  14  16  1   
 28  14  39  1   
 29  14  40  1   
 30  15  17  1   
 31  15  41  1   
 32  15  42  1   
 33  16  17  1   
 34  16  43  1   
 35  16  44  1   
 36  17  18  1   
 37  17  45  1   
 38  18  19  2   
 39  18  20  1   
 40  19  21  1   
 41  20  22  1   
 42  20  23  1   
 43  21  22  2   
 44  22  24  1   
 45  23  25  1   
 46  23  46  1   
 47  23  47  1   
 48  24  26  1   
 49  24  48  1   
 50  24  49  1   
 51  25  27  1   
 52  25  50  1   
 53  25  51  1   
 54  26  27  1   
 55  26  52  1   
 56  26  53  1   
 57  27  54  1   
 58  27  55  1   
@<TRIPOS>SUBSTRUCTURE
  1 ****  16 GROUP 4 **** **** 0

# MOE 2024.06 (io_trps.svl 2023.06)
