@<TRIPOS>MOLECULE
NONAME
48 51 1 0 0 
SMALL
USER_CHARGES


@<TRIPOS>ATOM
  1 S       -0.4850     0.0730     1.5550 S.3   1 <1>  -0.0800 
  2 C       -1.4100     1.1360     0.5050 C.2   1 <1>  -0.1400 
  3 C       -1.8450    -1.0340     1.6860 C.2   1 <1>  -0.1100 
  4 C       -2.6430     0.6510     0.3090 C.2   1 <1>  -0.1810 
  5 C       -0.8320     2.4190    -0.0820 C.3   1 <1>   0.4600 
  6 C       -2.8990    -0.5900     0.9740 C.2   1 <1>  -0.1500 
  7 C       -3.6120     1.4160    -0.5620 C.3   1 <1>   0.0210 
  8 O       -1.7740     2.9710    -0.9820 O.3   1 <1>  -0.5600 
  9 C        0.4180     2.1180    -0.9310 C.3   1 <1>  -0.1600 
 10 C       -0.5550     3.4560     1.0200 C.3   1 <1>  -0.1600 
 11 C       -3.1460     2.8810    -0.6640 C.3   1 <1>   0.1200 
 12 C        1.7200     2.4980    -0.2230 C.3   1 <1>   0.1400 
 13 C        0.3930     4.5430     0.5190 C.3   1 <1>   0.1400 
 14 N        1.7120     3.9500     0.1380 N.am  1 <1>  -0.6600 
 15 C        2.8810     4.6690     0.1060 C.2   1 <1>   0.5690 
 16 O        3.9430     4.1430    -0.1350 O.2   1 <1>  -0.5700 
 17 C        2.8620     6.1640     0.3790 C.3   1 <1>  -0.0990 
 18 C        4.1970     6.8330     0.0530 C.3   1 <1>   0.1200 
 19 O        4.0720     8.2150     0.3090 O.3   1 <1>  -0.3630 
 20 C        5.1130     9.0610     0.1030 C.ar  1 <1>   0.0820 
 21 C        6.3630     8.6550    -0.3570 C.ar  1 <1>  -0.1500 
 22 C        4.8900    10.4020     0.3750 C.ar  1 <1>  -0.1500 
 23 C        7.3700     9.5880    -0.5400 C.ar  1 <1>  -0.1500 
 24 C        5.8970    11.3330     0.1910 C.ar  1 <1>  -0.1500 
 25 C        7.1380    10.9260    -0.2670 C.ar  1 <1>  -0.1500 
 26 H       -1.7090    -1.9140     2.2890 H     1 <1>   0.1500 
 27 H       -3.8510    -1.0840     0.8880 H     1 <1>   0.1500 
 28 H       -4.5980     1.3850    -0.1360 H     1 <1>   0.0800 
 29 H       -3.6490     0.9740    -1.5420 H     1 <1>   0.0800 
 30 H        0.3760     2.6670    -1.8540 H     1 <1>   0.0800 
 31 H        0.4460     1.0730    -1.1800 H     1 <1>   0.0800 
 32 H       -0.0980     2.9760     1.8660 H     1 <1>   0.0800 
 33 H       -1.4720     3.8920     1.3650 H     1 <1>   0.0800 
 34 H       -3.3160     3.3890     0.2680 H     1 <1>   0.0800 
 35 H       -3.6940     3.3900    -1.4370 H     1 <1>   0.0800 
 36 H        2.5510     2.2840    -0.8740 H     1 <1>   0.0800 
 37 H        1.8400     1.9130     0.6730 H     1 <1>   0.0800 
 38 H        0.5280     5.2740     1.2970 H     1 <1>   0.0800 
 39 H       -0.0370     5.0300    -0.3410 H     1 <1>   0.0800 
 40 H        2.6420     6.3180     1.4190 H     1 <1>   0.0800 
 41 H        2.0970     6.6170    -0.2220 H     1 <1>   0.0800 
 42 H        4.4440     6.6980    -0.9860 H     1 <1>   0.0800 
 43 H        4.9810     6.4380     0.6750 H     1 <1>   0.0800 
 44 H        6.5710     7.6260    -0.5770 H     1 <1>   0.1500 
 45 H        3.9230    10.7100     0.7300 H     1 <1>   0.1500 
 46 H        8.3350     9.2730    -0.8960 H     1 <1>   0.1500 
 47 H        5.7150    12.3720     0.4050 H     1 <1>   0.1500 
 48 H        7.9230    11.6480    -0.4100 H     1 <1>   0.1500 
@<TRIPOS>BOND
  1   1   2  1   
  2   1   3  1   
  3   2   4  2   
  4   2   5  1   
  5   3   6  2   
  6   3  26  1   
  7   4   6  1   
  8   4   7  1   
  9   5   8  1   
 10   5   9  1   
 11   5  10  1   
 12   6  27  1   
 13   7  11  1   
 14   7  28  1   
 15   7  29  1   
 16   8  11  1   
 17   9  12  1   
 18   9  30  1   
 19   9  31  1   
 20  10  13  1   
 21  10  32  1   
 22  10  33  1   
 23  11  34  1   
 24  11  35  1   
 25  12  14  1   
 26  12  36  1   
 27  12  37  1   
 28  13  14  1   
 29  13  38  1   
 30  13  39  1   
 31  14  15  am  
 32  15  16  2   
 33  15  17  1   
 34  17  18  1   
 35  17  40  1   
 36  17  41  1   
 37  18  19  1   
 38  18  42  1   
 39  18  43  1   
 40  19  20  1   
 41  20  21  ar  
 42  20  22  ar  
 43  21  23  ar  
 44  21  44  1   
 45  22  24  ar  
 46  22  45  1   
 47  23  25  ar  
 48  23  46  1   
 49  24  25  ar  
 50  24  47  1   
 51  25  48  1   
@<TRIPOS>SUBSTRUCTURE
  1 ****  14 GROUP 4 **** **** 0

# MOE 2024.06 (io_trps.svl 2023.06)
