@<TRIPOS>MOLECULE
NONAME
42 44 1 0 0 
SMALL
USER_CHARGES


@<TRIPOS>ATOM
  1 O       -1.0320    -1.3610     2.0550 O.co2 1 <1>  -0.9000 
  2 C       -2.0120    -2.0840     1.7630 C.2   1 <1>   0.9790 
  3 O       -3.0130    -1.9960     2.5050 O.co2 1 <1>  -0.9000 
  4 C       -1.9540    -2.9740     0.5810 C.ar  1 <1>   0.1310 
  5 N       -2.9120    -3.8940     0.3310 N.ar  1 <1>  -0.6200 
  6 C       -0.8660    -2.8420    -0.2890 C.ar  1 <1>  -0.1500 
  7 C       -2.7880    -4.6500    -0.7480 C.ar  1 <1>   0.4100 
  8 C       -0.7360    -3.6300    -1.4120 C.ar  1 <1>  -0.1500 
  9 N       -3.7830    -5.5790    -0.9860 N.pl3 1 <1>  -0.8380 
 10 C       -1.7270    -4.5520    -1.6370 C.ar  1 <1>  -0.1500 
 11 C       -5.1260    -4.9940    -1.2300 C.3   1 <1>   0.2090 
 12 C       -3.9200    -6.6390     0.0470 C.3   1 <1>   0.2090 
 13 C       -5.9450    -5.2940     0.0270 C.3   1 <1>  -0.0800 
 14 C       -5.3770    -6.6310     0.5230 C.3   1 <1>  -0.0800 
 15 C       -7.4940    -5.2440    -0.1290 C.3   1 <1>   0.2800 
 16 C       -6.1930    -7.8160    -0.0180 C.3   1 <1>  -0.1600 
 17 O       -7.8640    -5.5340    -1.4320 O.3   1 <1>  -0.6800 
 18 C       -8.1460    -6.3220     0.7580 C.3   1 <1>  -0.1600 
 19 C       -8.0830    -3.8570     0.2110 C.3   1 <1>  -0.1600 
 20 C       -7.6600    -7.7550     0.4480 C.3   1 <1>  -0.1600 
 21 C       -7.5660    -2.6870    -0.6440 C.3   1 <1>  -0.2400 
 22 H       -0.1140    -2.1040    -0.0680 H     1 <1>   0.1500 
 23 H        0.1020    -3.5240    -2.0770 H     1 <1>   0.1500 
 24 H       -1.7080    -5.2050    -2.4860 H     1 <1>   0.1500 
 25 H       -5.0610    -3.9350    -1.4110 H     1 <1>   0.0800 
 26 H       -5.5440    -5.4720    -2.0980 H     1 <1>   0.0800 
 27 H       -3.6490    -7.5910    -0.3710 H     1 <1>   0.0800 
 28 H       -3.2660    -6.4280     0.8780 H     1 <1>   0.0800 
 29 H       -5.6590    -4.5600     0.7610 H     1 <1>   0.0800 
 30 H       -5.3910    -6.6620     1.5990 H     1 <1>   0.0800 
 31 H       -6.1670    -7.7850    -1.0940 H     1 <1>   0.0800 
 32 H       -5.7520    -8.7470     0.2920 H     1 <1>   0.0800 
 33 H       -8.8350    -5.5310    -1.4960 H     1 <1>   0.4000 
 34 H       -7.8950    -6.0980     1.7800 H     1 <1>   0.0800 
 35 H       -9.2180    -6.2780     0.6830 H     1 <1>   0.0800 
 36 H       -9.1540    -3.8990     0.1250 H     1 <1>   0.0800 
 37 H       -7.8610    -3.6360     1.2410 H     1 <1>   0.0800 
 38 H       -7.7830    -8.3580     1.3310 H     1 <1>   0.0800 
 39 H       -8.2770    -8.1830    -0.3240 H     1 <1>   0.0800 
 40 H       -7.6880    -2.8920    -1.6920 H     1 <1>   0.0800 
 41 H       -6.5240    -2.5040    -0.4420 H     1 <1>   0.0800 
 42 H       -8.1090    -1.7910    -0.4030 H     1 <1>   0.0800 
@<TRIPOS>BOND
  1   1   2  ar  
  2   2   3  ar  
  3   2   4  1   
  4   4   5  ar  
  5   4   6  ar  
  6   5   7  ar  
  7   6   8  ar  
  8   6  22  1   
  9   7   9  1   
 10   7  10  ar  
 11   8  10  ar  
 12   8  23  1   
 13   9  11  1   
 14   9  12  1   
 15  10  24  1   
 16  11  13  1   
 17  11  25  1   
 18  11  26  1   
 19  12  14  1   
 20  12  27  1   
 21  12  28  1   
 22  13  14  1   
 23  13  15  1   
 24  13  29  1   
 25  14  16  1   
 26  14  30  1   
 27  15  17  1   
 28  15  18  1   
 29  15  19  1   
 30  16  20  1   
 31  16  31  1   
 32  16  32  1   
 33  17  33  1   
 34  18  20  1   
 35  18  34  1   
 36  18  35  1   
 37  19  21  1   
 38  19  36  1   
 39  19  37  1   
 40  20  38  1   
 41  20  39  1   
 42  21  40  1   
 43  21  41  1   
 44  21  42  1   
@<TRIPOS>SUBSTRUCTURE
  1 ****  11 GROUP 4 **** **** 0

# MOE 2024.06 (io_trps.svl 2023.06)
