@<TRIPOS>MOLECULE
NONAME
48 50 1 0 0 
SMALL
USER_CHARGES


@<TRIPOS>ATOM
  1 S        0.2420    -0.0500     0.6700 S.o2  1 <1>   1.3330 
  2 O        1.6300    -0.0670     1.0710 O.2   1 <1>  -0.6500 
  3 O       -0.7940     0.0110     1.6770 O.2   1 <1>  -0.6500 
  4 N       -0.0360    -1.4120    -0.3050 N.am  1 <1>  -0.8490 
  5 C       -0.0240     1.3120    -0.4620 C.3   1 <1>  -0.0550 
  6 C       -0.5490    -2.5500     0.4630 C.3   1 <1>   0.1160 
  7 C        1.1390    -1.8230    -1.0810 C.3   1 <1>   0.1160 
  8 C        0.0840     2.6880     0.2160 C.3   1 <1>  -0.0800 
  9 C       -0.2710     3.8310    -0.7280 C.3   1 <1>   0.2000 
 10 C        1.4900     3.0400     0.7080 C.3   1 <1>   0.1400 
 11 O       -1.6460     3.9860    -0.7930 O.3   1 <1>  -0.6800 
 12 C        0.4160     5.0610    -0.1420 C.3   1 <1>   0.1400 
 13 N        1.5820     4.5170     0.6010 N.am  1 <1>  -0.6600 
 14 C        2.7750     5.1890     0.7560 C.2   1 <1>   0.6160 
 15 O        3.7850     4.5370     0.9440 O.2   1 <1>  -0.5700 
 16 C        2.8510     6.6360     0.6800 C.2   1 <1>   0.0140 
 17 C        3.8600     7.2550     0.0150 C.2   1 <1>  -0.1780 
 18 C        1.8330     7.3930     1.3740 C.2   1 <1>  -0.1500 
 19 C        4.1070     8.6650    -0.1480 C.ar  1 <1>   0.0280 
 20 C        1.3780     8.6170     1.0590 C.2   1 <1>  -0.0730 
 21 C        3.1050     9.6500    -0.1460 C.ar  1 <1>   0.0820 
 22 C        5.4190     9.0920    -0.3380 C.ar  1 <1>  -0.1500 
 23 O        1.7840     9.3480    -0.0050 O.3   1 <1>  -0.1590 
 24 C        3.4170    10.9850    -0.3290 C.ar  1 <1>  -0.1500 
 25 C        5.7320    10.4300    -0.5150 C.ar  1 <1>  -0.1500 
 26 C        4.7310    11.3810    -0.5110 C.ar  1 <1>  -0.1500 
 27 H        0.6810     1.2540    -1.2670 H     1 <1>   0.0800 
 28 H       -1.0080     1.2160    -0.8810 H     1 <1>   0.0800 
 29 H       -0.7290    -3.3890    -0.1860 H     1 <1>   0.0800 
 30 H       -1.4800    -2.2870     0.9360 H     1 <1>   0.0800 
 31 H        0.1570    -2.8360     1.2260 H     1 <1>   0.0800 
 32 H        0.8800    -2.6300    -1.7450 H     1 <1>   0.0800 
 33 H        1.9290    -2.1490    -0.4240 H     1 <1>   0.0800 
 34 H        1.5010    -1.0000    -1.6730 H     1 <1>   0.0800 
 35 H       -0.5700     2.7170     1.0720 H     1 <1>   0.0800 
 36 H        0.0980     3.6500    -1.7240 H     1 <1>   0.0800 
 37 H        2.2450     2.5940     0.0800 H     1 <1>   0.0800 
 38 H        1.6490     2.7220     1.7260 H     1 <1>   0.0800 
 39 H       -2.0260     4.0850     0.1020 H     1 <1>   0.4000 
 40 H       -0.2350     5.5700     0.5470 H     1 <1>   0.0800 
 41 H        0.7340     5.7330    -0.9210 H     1 <1>   0.0800 
 42 H        4.6070     6.6310    -0.4450 H     1 <1>   0.1500 
 43 H        1.4180     6.8810     2.2260 H     1 <1>   0.1500 
 44 H        0.6180     9.1260     1.6240 H     1 <1>   0.1500 
 45 H        6.2130     8.3670    -0.3430 H     1 <1>   0.1500 
 46 H        2.6300    11.7180    -0.3300 H     1 <1>   0.1500 
 47 H        6.7570    10.7270    -0.6570 H     1 <1>   0.1500 
 48 H        4.9680    12.4210    -0.6500 H     1 <1>   0.1500 
@<TRIPOS>BOND
  1   1   2  2   
  2   1   3  2   
  3   1   4  am  
  4   1   5  1   
  5   4   6  1   
  6   4   7  1   
  7   5   8  1   
  8   5  27  1   
  9   5  28  1   
 10   6  29  1   
 11   6  30  1   
 12   6  31  1   
 13   7  32  1   
 14   7  33  1   
 15   7  34  1   
 16   8   9  1   
 17   8  10  1   
 18   8  35  1   
 19   9  11  1   
 20   9  12  1   
 21   9  36  1   
 22  10  13  1   
 23  10  37  1   
 24  10  38  1   
 25  11  39  1   
 26  12  13  1   
 27  12  40  1   
 28  12  41  1   
 29  13  14  am  
 30  14  15  2   
 31  14  16  1   
 32  16  17  2   
 33  16  18  1   
 34  17  19  1   
 35  17  42  1   
 36  18  20  2   
 37  18  43  1   
 38  19  21  ar  
 39  19  22  ar  
 40  20  23  1   
 41  20  44  1   
 42  21  23  1   
 43  21  24  ar  
 44  22  25  ar  
 45  22  45  1   
 46  24  26  ar  
 47  24  46  1   
 48  25  26  ar  
 49  25  47  1   
 50  26  48  1   
@<TRIPOS>SUBSTRUCTURE
  1 ****  13 GROUP 4 **** **** 0

# MOE 2024.06 (io_trps.svl 2023.06)
