@<TRIPOS>MOLECULE
NONAME
40 42 1 0 0 
SMALL
USER_CHARGES


@<TRIPOS>ATOM
  1 CL       0.3060    -0.7270    -0.9830 Cl    1 <1>  -0.1770 
  2 C       -1.3160    -1.3700    -0.9680 C.ar  1 <1>   0.1770 
  3 C       -1.9720    -1.5250     0.2380 C.ar  1 <1>  -0.1500 
  4 C       -1.9190    -1.7150    -2.1630 C.ar  1 <1>  -0.1500 
  5 C       -3.2600    -2.0350     0.2460 C.ar  1 <1>  -0.1500 
  6 C       -3.2070    -2.2240    -2.1480 C.ar  1 <1>  -0.1500 
  7 C       -3.8820    -2.3850    -0.9450 C.ar  1 <1>  -0.1430 
  8 C       -5.2950    -2.9450    -0.9310 C.3   1 <1>  -0.0160 
  9 C       -5.2660    -4.4730    -0.8210 C.3   1 <1>  -0.1600 
 10 C       -6.6870    -5.0650    -0.7760 C.3   1 <1>  -0.0990 
 11 C       -6.7340    -6.5830    -0.6330 C.2   1 <1>   0.5690 
 12 O       -5.7350    -7.2240    -0.8690 O.2   1 <1>  -0.5700 
 13 N       -7.8990    -7.1720    -0.2480 N.am  1 <1>  -0.6600 
 14 C       -9.2060    -6.4890    -0.0400 C.3   1 <1>   0.2350 
 15 C       -8.0660    -8.6420    -0.0810 C.3   1 <1>   0.2350 
 16 C      -10.2610    -7.5590    -0.2380 C.3   1 <1>  -0.2420 
 17 C       -9.5570    -8.8950    -0.2460 C.3   1 <1>  -0.2420 
 18 C      -11.6020    -7.0890     0.3350 C.2   1 <1>   0.9470 
 19 C      -10.2720    -8.4130    -1.4810 C.3   1 <1>  -0.2000 
 20 C       -9.9530   -10.2370     0.3740 C.2   1 <1>   0.9470 
 21 O      -12.6100    -7.0840    -0.3840 O.co2 1 <1>  -0.9000 
 22 O      -11.6130    -6.5440     1.4490 O.co2 1 <1>  -0.9000 
 23 O      -10.4290   -11.1250    -0.3480 O.co2 1 <1>  -0.9000 
 24 O       -9.6470   -10.4670     1.5520 O.co2 1 <1>  -0.9000 
 25 H       -1.4810    -1.2520     1.1530 H     1 <1>   0.1500 
 26 H       -1.3870    -1.5870    -3.0880 H     1 <1>   0.1500 
 27 H       -3.7750    -2.1620     1.1820 H     1 <1>   0.1500 
 28 H       -3.6810    -2.4980    -3.0740 H     1 <1>   0.1500 
 29 H       -5.8360    -2.5290    -0.0990 H     1 <1>   0.0800 
 30 H       -5.8060    -2.6540    -1.8320 H     1 <1>   0.0800 
 31 H       -4.7360    -4.7600     0.0710 H     1 <1>   0.0800 
 32 H       -4.7350    -4.8830    -1.6630 H     1 <1>   0.0800 
 33 H       -7.2130    -4.8060    -1.6760 H     1 <1>   0.0800 
 34 H       -7.2100    -4.6340     0.0570 H     1 <1>   0.0800 
 35 H       -9.2490    -6.1090     0.9670 H     1 <1>   0.0800 
 36 H       -9.3560    -5.6880    -0.7410 H     1 <1>   0.0800 
 37 H       -7.4990    -9.1860    -0.8160 H     1 <1>   0.0800 
 38 H       -7.7470    -8.9260     0.9070 H     1 <1>   0.0800 
 39 H       -9.7010    -8.1120    -2.3390 H     1 <1>   0.1000 
 40 H      -11.1920    -8.9060    -1.7480 H     1 <1>   0.1000 
@<TRIPOS>BOND
  1   1   2  1   
  2   2   3  ar  
  3   2   4  ar  
  4   3   5  ar  
  5   3  25  1   
  6   4   6  ar  
  7   4  26  1   
  8   5   7  ar  
  9   5  27  1   
 10   6   7  ar  
 11   6  28  1   
 12   7   8  1   
 13   8   9  1   
 14   8  29  1   
 15   8  30  1   
 16   9  10  1   
 17   9  31  1   
 18   9  32  1   
 19  10  11  1   
 20  10  33  1   
 21  10  34  1   
 22  11  12  2   
 23  11  13  am  
 24  13  14  1   
 25  13  15  1   
 26  14  16  1   
 27  14  35  1   
 28  14  36  1   
 29  15  17  1   
 30  15  37  1   
 31  15  38  1   
 32  16  17  1   
 33  16  18  1   
 34  16  19  1   
 35  17  19  1   
 36  17  20  1   
 37  18  21  ar  
 38  18  22  ar  
 39  19  39  1   
 40  19  40  1   
 41  20  23  ar  
 42  20  24  ar  
@<TRIPOS>SUBSTRUCTURE
  1 ****  10 GROUP 4 **** **** 0

# MOE 2024.06 (io_trps.svl 2023.06)
