@<TRIPOS>MOLECULE
NONAME
55 57 1 0 0 
SMALL
USER_CHARGES


@<TRIPOS>ATOM
  1 O       -0.7910    -0.1990     1.8540 O.2   1 <1>  -0.5700 
  2 C       -1.1650     0.6500     1.0750 C.2   1 <1>   0.5690 
  3 N       -1.8390     0.3080    -0.0780 N.am  1 <1>  -0.6600 
  4 C       -0.8950     2.1220     1.4440 C.3   1 <1>   0.1710 
  5 C       -2.4290     1.2680    -1.0470 C.3   1 <1>   0.1400 
  6 C       -2.0570    -1.1200    -0.4370 C.3   1 <1>   0.1400 
  7 N        0.4700     2.6540     1.1430 N.3   1 <1>  -0.8100 
  8 C       -3.8410     1.7050    -0.6320 C.3   1 <1>  -0.1600 
  9 C       -3.4550    -1.5920    -0.0240 C.3   1 <1>  -0.1600 
 10 C        0.6230     4.0120     1.7050 C.3   1 <1>   0.1100 
 11 C        0.8270     2.5560    -0.2800 C.3   1 <1>   0.1100 
 12 C       -4.7200     0.6350     0.0410 C.3   1 <1>  -0.1600 
 13 C       -4.6260    -0.7640    -0.5880 C.3   1 <1>  -0.1600 
 14 C        2.0560     4.5660     1.6470 C.3   1 <1>   0.2090 
 15 C        2.3480     2.5650    -0.4490 C.3   1 <1>  -0.1600 
 16 N        2.4270     5.0040     0.2630 N.pl3 1 <1>  -0.8380 
 17 C        2.9760     3.9510    -0.6380 C.3   1 <1>   0.2090 
 18 C        2.5810     6.3160    -0.0420 C.ar  1 <1>   0.1000 
 19 C        1.7760     6.9830    -0.9850 C.ar  1 <1>  -0.1430 
 20 C        3.5840     7.0580     0.5900 C.ar  1 <1>  -0.1500 
 21 C        2.0050     8.3090    -1.2570 C.ar  1 <1>   0.2110 
 22 C        0.6410     6.2430    -1.6880 C.3   1 <1>  -0.0970 
 23 C        3.7790     8.3790     0.2920 C.ar  1 <1>   0.2110 
 24 N        2.9940     8.9920    -0.6270 N.ar  1 <1>  -0.1790 
 25 H       -1.0520     2.1920     2.5050 H     1 <1>   0.0800 
 26 H       -1.6300     2.7500     0.9800 H     1 <1>   0.0800 
 27 H       -2.4810     0.7990    -2.0150 H     1 <1>   0.0800 
 28 H       -1.7970     2.1310    -1.1510 H     1 <1>   0.0800 
 29 H       -1.3190    -1.7340     0.0520 H     1 <1>   0.0800 
 30 H       -1.9260    -1.2490    -1.4970 H     1 <1>   0.0800 
 31 H       -4.3430     2.0570    -1.5160 H     1 <1>   0.0800 
 32 H       -3.7650     2.5470     0.0320 H     1 <1>   0.0800 
 33 H       -3.5060    -1.6090     1.0510 H     1 <1>   0.0800 
 34 H       -3.5660    -2.6090    -0.3570 H     1 <1>   0.0800 
 35 H        0.3400     3.9760     2.7420 H     1 <1>   0.0800 
 36 H       -0.0410     4.6970     1.2080 H     1 <1>   0.0800 
 37 H        0.3670     3.3460    -0.8470 H     1 <1>   0.0800 
 38 H        0.4780     1.6150    -0.6660 H     1 <1>   0.0800 
 39 H       -5.7420     0.9680    -0.0050 H     1 <1>   0.0800 
 40 H       -4.4610     0.5690     1.0850 H     1 <1>   0.0800 
 41 H       -5.5350    -1.2920    -0.3560 H     1 <1>   0.0800 
 42 H       -4.5620    -0.6950    -1.6610 H     1 <1>   0.0800 
 43 H        2.7480     3.8260     2.0110 H     1 <1>   0.0800 
 44 H        2.1100     5.4140     2.3060 H     1 <1>   0.0800 
 45 H        2.5900     1.9880    -1.3230 H     1 <1>   0.0800 
 46 H        2.8040     2.0600     0.3840 H     1 <1>   0.0800 
 47 H        2.8300     4.2610    -1.6570 H     1 <1>   0.0800 
 48 H        4.0370     3.8740    -0.4750 H     1 <1>   0.0800 
 49 H        4.2050     6.5570     1.3120 H     1 <1>   0.1500 
 50 H        1.4000     8.8380    -1.9770 H     1 <1>   0.1500 
 51 H        0.0180     5.7540    -0.9600 H     1 <1>   0.0800 
 52 H        1.0380     5.4970    -2.3520 H     1 <1>   0.0800 
 53 H        0.0260     6.9130    -2.2610 H     1 <1>   0.0800 
 54 H        4.5560     8.9480     0.7780 H     1 <1>   0.1500 
 55 H        3.1460     9.9820    -0.8470 H     1 <1>   0.4570 
@<TRIPOS>BOND
  1   1   2  2   
  2   2   3  am  
  3   2   4  1   
  4   3   5  1   
  5   3   6  1   
  6   4   7  1   
  7   4  25  1   
  8   4  26  1   
  9   5   8  1   
 10   5  27  1   
 11   5  28  1   
 12   6   9  1   
 13   6  29  1   
 14   6  30  1   
 15   7  10  1   
 16   7  11  1   
 17   8  12  1   
 18   8  31  1   
 19   8  32  1   
 20   9  13  1   
 21   9  33  1   
 22   9  34  1   
 23  10  14  1   
 24  10  35  1   
 25  10  36  1   
 26  11  15  1   
 27  11  37  1   
 28  11  38  1   
 29  12  13  1   
 30  12  39  1   
 31  12  40  1   
 32  13  41  1   
 33  13  42  1   
 34  14  16  1   
 35  14  43  1   
 36  14  44  1   
 37  15  17  1   
 38  15  45  1   
 39  15  46  1   
 40  16  17  1   
 41  16  18  1   
 42  17  47  1   
 43  17  48  1   
 44  18  19  ar  
 45  18  20  ar  
 46  19  21  ar  
 47  19  22  1   
 48  20  23  ar  
 49  20  49  1   
 50  21  24  ar  
 51  21  50  1   
 52  22  51  1   
 53  22  52  1   
 54  22  53  1   
 55  23  24  ar  
 56  23  54  1   
 57  24  55  1   
@<TRIPOS>SUBSTRUCTURE
  1 ****  11 GROUP 4 **** **** 0

# MOE 2024.06 (io_trps.svl 2023.06)
