@<TRIPOS>MOLECULE
NONAME
51 55 1 0 0 
SMALL
USER_CHARGES


@<TRIPOS>ATOM
  1 O        0.0710    -0.2350     0.2910 O.3   1 <1>  -0.5600 
  2 C        0.4020    -1.4760    -0.2730 C.3   1 <1>   0.1200 
  3 C        1.1230     0.6850     0.3680 C.3   1 <1>   0.1200 
  4 C        1.5370    -2.1590     0.5300 C.3   1 <1>   0.5180 
  5 C        2.2970     0.1050     1.1900 C.3   1 <1>   0.4230 
  6 N        2.7190    -1.2480     0.6600 N.4   1 <1>  -0.9590 
  7 C        1.9940    -3.5190    -0.0370 C.3   1 <1>  -0.1950 
  8 C        3.4880     1.1010     1.2490 C.3   1 <1>   0.1100 
  9 C        3.5610    -1.1070    -0.5790 C.3   1 <1>   0.3430 
 10 C        2.0930    -3.8510    -1.4980 C.3   1 <1>  -0.2000 
 11 C        1.0450    -4.5080    -0.6440 C.3   1 <1>  -0.2000 
 12 N        4.7870     0.4370     0.9930 N.3   1 <1>  -0.8100 
 13 C        4.8390    -0.2780    -0.3040 C.3   1 <1>   0.1100 
 14 C        5.9750     1.2830     1.2760 C.3   1 <1>   0.2910 
 15 C        6.1240     2.5460     0.4260 C.2   1 <1>   0.0460 
 16 N        7.0950     3.4230     0.7380 N.2   1 <1>  -0.5650 
 17 C        5.4540     3.0080    -0.6400 C.2   1 <1>  -0.0100 
 18 C        6.9720     4.3690    -0.1430 C.2   1 <1>   0.4250 
 19 O        5.9840     4.1430    -0.9900 O.3   1 <1>  -0.2800 
 20 C        7.7750     5.5700    -0.2640 C.ar  1 <1>   0.0530 
 21 C        7.5420     6.5160    -1.2650 C.ar  1 <1>  -0.1500 
 22 C        8.8210     5.8280     0.6240 C.ar  1 <1>  -0.1500 
 23 C        8.3110     7.6600    -1.3730 C.ar  1 <1>  -0.1500 
 24 C        9.5950     6.9700     0.5220 C.ar  1 <1>  -0.1500 
 25 C        9.3410     7.8900    -0.4790 C.ar  1 <1>  -0.1500 
 26 H       -0.4850    -2.0830    -0.2470 H     1 <1>   0.0800 
 27 H        0.6820    -1.3240    -1.3000 H     1 <1>   0.0800 
 28 H        1.4300     0.9390    -0.6310 H     1 <1>   0.0800 
 29 H        0.7410     1.5720     0.8440 H     1 <1>   0.0800 
 30 H        1.1430    -2.3450     1.5160 H     1 <1>   0.0800 
 31 H        1.9370    -0.0210     2.1970 H     1 <1>   0.0800 
 32 H        3.3590    -1.6230     1.3700 H     1 <1>   0.4500 
 33 H        2.7300    -3.9620     0.6130 H     1 <1>   0.1000 
 34 H        3.5040     1.5550     2.2260 H     1 <1>   0.0800 
 35 H        3.3350     1.8930     0.5380 H     1 <1>   0.0800 
 36 H        3.8550    -2.0760    -0.9460 H     1 <1>   0.0800 
 37 H        2.9880    -0.6270    -1.3540 H     1 <1>   0.0800 
 38 H        1.7470    -3.1740    -2.2600 H     1 <1>   0.1000 
 39 H        2.9080    -4.4650    -1.8460 H     1 <1>   0.1000 
 40 H        1.1630    -5.5530    -0.4090 H     1 <1>   0.1000 
 41 H        0.0150    -4.2580    -0.8360 H     1 <1>   0.1000 
 42 H        4.9880     0.4110    -1.1170 H     1 <1>   0.0800 
 43 H        5.6860    -0.9440    -0.2970 H     1 <1>   0.0800 
 44 H        5.9410     1.5860     2.3090 H     1 <1>   0.0800 
 45 H        6.8660     0.6910     1.1570 H     1 <1>   0.0800 
 46 H        4.6240     2.6290    -1.2050 H     1 <1>   0.1500 
 47 H        6.7460     6.3560    -1.9700 H     1 <1>   0.1500 
 48 H        9.0290     5.1200     1.4080 H     1 <1>   0.1500 
 49 H        8.1100     8.3740    -2.1540 H     1 <1>   0.1500 
 50 H       10.3950     7.1420     1.2210 H     1 <1>   0.1500 
 51 H        9.9420     8.7800    -0.5610 H     1 <1>   0.1500 
@<TRIPOS>BOND
  1   1   2  1   
  2   1   3  1   
  3   2   4  1   
  4   2  26  1   
  5   2  27  1   
  6   3   5  1   
  7   3  28  1   
  8   3  29  1   
  9   4   6  1   
 10   4   7  1   
 11   4  30  1   
 12   5   6  1   
 13   5   8  1   
 14   5  31  1   
 15   6   9  1   
 16   6  32  1   
 17   7  10  1   
 18   7  11  1   
 19   7  33  1   
 20   8  12  1   
 21   8  34  1   
 22   8  35  1   
 23   9  13  1   
 24   9  36  1   
 25   9  37  1   
 26  10  11  1   
 27  10  38  1   
 28  10  39  1   
 29  11  40  1   
 30  11  41  1   
 31  12  13  1   
 32  12  14  1   
 33  13  42  1   
 34  13  43  1   
 35  14  15  1   
 36  14  44  1   
 37  14  45  1   
 38  15  16  1   
 39  15  17  2   
 40  16  18  2   
 41  17  19  1   
 42  17  46  1   
 43  18  19  1   
 44  18  20  1   
 45  20  21  ar  
 46  20  22  ar  
 47  21  23  ar  
 48  21  47  1   
 49  22  24  ar  
 50  22  48  1   
 51  23  25  ar  
 52  23  49  1   
 53  24  25  ar  
 54  24  50  1   
 55  25  51  1   
@<TRIPOS>SUBSTRUCTURE
  1 ****  17 GROUP 4 **** **** 0

# MOE 2024.06 (io_trps.svl 2023.06)
