@<TRIPOS>MOLECULE
NONAME
46 48 1 0 0 
SMALL
USER_CHARGES


@<TRIPOS>ATOM
  1 O       -0.2960     1.3600    -1.2130 O.2   1 <1>  -0.5700 
  2 C       -0.5590     2.5370    -1.1230 C.2   1 <1>   0.5690 
  3 N       -0.9670     3.1400     0.0350 N.am  1 <1>  -0.5090 
  4 C       -0.4250     3.4170    -2.3600 C.3   1 <1>   0.1810 
  5 C       -1.3050     4.5980     0.0410 C.3   1 <1>   0.3640 
  6 C       -0.9320     2.4520     1.3470 C.3   1 <1>   0.0490 
  7 O        0.1470     4.6530    -2.0180 O.3   1 <1>  -0.5600 
  8 C       -2.8190     4.8160    -0.0750 C.ar  1 <1>  -0.1440 
  9 C       -0.5840     5.4240    -1.0670 C.3   1 <1>   0.2610 
 10 C       -1.7730     1.2290     1.5320 C.3   1 <1>  -0.2000 
 11 C       -2.1240     2.4890     2.2550 C.3   1 <1>  -0.2000 
 12 C       -3.6740     3.9070    -0.6920 C.ar  1 <1>  -0.1500 
 13 C       -3.3600     5.9800     0.4560 C.ar  1 <1>  -0.1500 
 14 C        0.3360     6.4530    -0.4020 C.2   1 <1>   0.5690 
 15 C       -5.0320     4.1550    -0.7780 C.ar  1 <1>  -0.1500 
 16 C       -4.7170     6.2310     0.3710 C.ar  1 <1>  -0.1500 
 17 O       -0.1410     7.2730     0.3500 O.2   1 <1>  -0.5700 
 18 N        1.6720     6.4120    -0.6460 N.am  1 <1>  -0.7300 
 19 C       -5.5630     5.3240    -0.2440 C.ar  1 <1>   0.0830 
 20 C        2.7030     7.3330    -0.0690 C.3   1 <1>   0.2010 
 21 O       -6.8810     5.6450    -0.2830 O.3   1 <1>  -0.3630 
 22 C        2.9760     7.1050     1.4210 C.2   1 <1>   0.5690 
 23 C       -7.8320     4.7730    -0.8520 C.3   1 <1>   0.0400 
 24 O        4.0870     6.8270     1.7940 O.2   1 <1>  -0.5700 
 25 N        1.9710     7.2250     2.3090 N.am  1 <1>  -0.8000 
 26 H       -1.3870     3.5870    -2.8080 H     1 <1>   0.0800 
 27 H        0.2210     2.9390    -3.0740 H     1 <1>   0.0800 
 28 H       -1.0080     4.9850     1.0000 H     1 <1>   0.0800 
 29 H        0.0530     2.4540     1.7850 H     1 <1>   0.1000 
 30 H       -1.3200     5.9780    -1.6220 H     1 <1>   0.0800 
 31 H       -2.3870     0.9040     0.7110 H     1 <1>   0.1000 
 32 H       -1.3650     0.4080     2.0930 H     1 <1>   0.1000 
 33 H       -1.9670     2.5180     3.3180 H     1 <1>   0.1000 
 34 H       -3.0250     2.9960     1.9600 H     1 <1>   0.1000 
 35 H       -3.2980     2.9880    -1.1070 H     1 <1>   0.1500 
 36 H       -2.7290     6.7060     0.9410 H     1 <1>   0.1500 
 37 H       -5.6590     3.4290    -1.2590 H     1 <1>   0.1500 
 38 H       -5.1320     7.1330     0.7820 H     1 <1>   0.1500 
 39 H        2.0120     5.6720    -1.2700 H     1 <1>   0.3700 
 40 H        3.6250     7.2120    -0.6090 H     1 <1>   0.0800 
 41 H        2.3750     8.3490    -0.1970 H     1 <1>   0.0800 
 42 H       -8.8010     5.2280    -0.7560 H     1 <1>   0.0800 
 43 H       -7.8120     3.8390    -0.3190 H     1 <1>   0.0800 
 44 H       -7.5970     4.6310    -1.8920 H     1 <1>   0.0800 
 45 H        2.1290     7.0750     3.3040 H     1 <1>   0.3700 
 46 H        1.0090     7.4120     1.9960 H     1 <1>   0.3700 
@<TRIPOS>BOND
  1   1   2  2   
  2   2   3  am  
  3   2   4  1   
  4   3   5  1   
  5   3   6  1   
  6   4   7  1   
  7   4  26  1   
  8   4  27  1   
  9   5   8  1   
 10   5   9  1   
 11   5  28  1   
 12   6  10  1   
 13   6  11  1   
 14   6  29  1   
 15   7   9  1   
 16   8  12  ar  
 17   8  13  ar  
 18   9  14  1   
 19   9  30  1   
 20  10  11  1   
 21  10  31  1   
 22  10  32  1   
 23  11  33  1   
 24  11  34  1   
 25  12  15  ar  
 26  12  35  1   
 27  13  16  ar  
 28  13  36  1   
 29  14  17  2   
 30  14  18  am  
 31  15  19  ar  
 32  15  37  1   
 33  16  19  ar  
 34  16  38  1   
 35  18  20  1   
 36  18  39  1   
 37  19  21  1   
 38  20  22  1   
 39  20  40  1   
 40  20  41  1   
 41  21  23  1   
 42  22  24  2   
 43  22  25  am  
 44  23  42  1   
 45  23  43  1   
 46  23  44  1   
 47  25  45  1   
 48  25  46  1   
@<TRIPOS>SUBSTRUCTURE
  1 ****   5 GROUP 4 **** **** 0

# MOE 2024.06 (io_trps.svl 2023.06)
