@<TRIPOS>MOLECULE
NONAME
54 56 1 0 0 
SMALL
USER_CHARGES


@<TRIPOS>ATOM
  1 O        1.8720     0.9970     1.2630 O.2   1 <1>  -0.5700 
  2 C        2.1310     0.1600     0.4180 C.2   1 <1>   0.5440 
  3 N        2.4360     0.5740    -0.8660 N.am  1 <1>  -0.6600 
  4 C        2.1340    -1.2390     0.7940 C.ar  1 <1>   0.0860 
  5 C        2.9560    -0.3660    -1.9190 C.3   1 <1>   0.1400 
  6 C        2.4900     2.0260    -1.1940 C.3   1 <1>   0.1400 
  7 C        1.2110    -2.1350     0.2600 C.ar  1 <1>  -0.1500 
  8 C        3.0740    -1.7340     1.6960 C.ar  1 <1>  -0.1500 
  9 C        4.2970     0.0810    -2.5270 C.3   1 <1>   0.1400 
 10 C        3.8040     2.6480    -0.6920 C.3   1 <1>  -0.1600 
 11 C        1.2290    -3.4780     0.5930 C.ar  1 <1>   0.0820 
 12 C        3.1020    -3.0730     2.0400 C.ar  1 <1>  -0.1500 
 13 N        5.1690     0.7020    -1.4910 N.am  1 <1>  -0.6600 
 14 C        5.0760     2.1850    -1.4170 C.3   1 <1>   0.1400 
 15 O        0.2930    -4.2620     0.0050 O.3   1 <1>  -0.3630 
 16 C        2.1840    -3.9490     1.4900 C.ar  1 <1>  -0.1500 
 17 C        5.7990    -0.0970    -0.5640 C.2   1 <1>   0.5690 
 18 C        0.2030    -5.6370     0.2930 C.3   1 <1>   0.1200 
 19 O        5.9130    -1.2920    -0.7560 O.2   1 <1>  -0.5700 
 20 C        6.3690     0.4820     0.7530 C.3   1 <1>   0.4040 
 21 C       -0.9550    -6.2130    -0.5160 C.3   1 <1>  -0.2400 
 22 O        6.5380    -0.5210     1.7070 O.3   1 <1>  -0.6800 
 23 C        7.7160     1.1810     0.5670 C.ar  1 <1>  -0.1430 
 24 C        8.6860     0.6680    -0.2850 C.ar  1 <1>  -0.1500 
 25 C        7.9790     2.3580     1.2550 C.ar  1 <1>  -0.1500 
 26 C        9.8920     1.3260    -0.4540 C.ar  1 <1>  -0.1500 
 27 C        9.1840     3.0170     1.0860 C.ar  1 <1>  -0.1500 
 28 C       10.1410     2.5020     0.2300 C.ar  1 <1>  -0.1500 
 29 H        3.1100    -1.3450    -1.5030 H     1 <1>   0.0800 
 30 H        2.2240    -0.4630    -2.7000 H     1 <1>   0.0800 
 31 H        2.3840     2.1700    -2.2550 H     1 <1>   0.0800 
 32 H        1.6620     2.5200    -0.7140 H     1 <1>   0.0800 
 33 H        0.4670    -1.7780    -0.4270 H     1 <1>   0.1500 
 34 H        3.7900    -1.0550     2.1270 H     1 <1>   0.1500 
 35 H        4.1160     0.7810    -3.3230 H     1 <1>   0.0800 
 36 H        4.7930    -0.7720    -2.9580 H     1 <1>   0.0800 
 37 H        3.8990     2.4640     0.3630 H     1 <1>   0.0800 
 38 H        3.7310     3.7140    -0.8080 H     1 <1>   0.0800 
 39 H        3.8420    -3.4290     2.7360 H     1 <1>   0.1500 
 40 H        5.9410     2.5850    -0.9180 H     1 <1>   0.0800 
 41 H        5.0810     2.5830    -2.4170 H     1 <1>   0.0800 
 42 H        2.2280    -4.9840     1.7710 H     1 <1>   0.1500 
 43 H        1.1310    -6.1060     0.0150 H     1 <1>   0.0800 
 44 H        0.0250    -5.7540     1.3480 H     1 <1>   0.0800 
 45 H        5.6560     1.1720     1.1610 H     1 <1>   0.0800 
 46 H       -0.7750    -6.0770    -1.5670 H     1 <1>   0.0800 
 47 H       -1.8740    -5.7270    -0.2420 H     1 <1>   0.0800 
 48 H       -1.0510    -7.2650    -0.3170 H     1 <1>   0.0800 
 49 H        6.7590    -1.3400     1.2150 H     1 <1>   0.4000 
 50 H        8.5120    -0.2500    -0.8220 H     1 <1>   0.1500 
 51 H        7.2470     2.7640     1.9310 H     1 <1>   0.1500 
 52 H       10.6360     0.9210    -1.1160 H     1 <1>   0.1500 
 53 H        9.3800     3.9280     1.6240 H     1 <1>   0.1500 
 54 H       11.0790     3.0130     0.0990 H     1 <1>   0.1500 
@<TRIPOS>BOND
  1   1   2  2   
  2   2   3  am  
  3   2   4  1   
  4   3   5  1   
  5   3   6  1   
  6   4   7  ar  
  7   4   8  ar  
  8   5   9  1   
  9   5  29  1   
 10   5  30  1   
 11   6  10  1   
 12   6  31  1   
 13   6  32  1   
 14   7  11  ar  
 15   7  33  1   
 16   8  12  ar  
 17   8  34  1   
 18   9  13  1   
 19   9  35  1   
 20   9  36  1   
 21  10  14  1   
 22  10  37  1   
 23  10  38  1   
 24  11  15  1   
 25  11  16  ar  
 26  12  16  ar  
 27  12  39  1   
 28  13  14  1   
 29  13  17  am  
 30  14  40  1   
 31  14  41  1   
 32  15  18  1   
 33  16  42  1   
 34  17  19  2   
 35  17  20  1   
 36  18  21  1   
 37  18  43  1   
 38  18  44  1   
 39  20  22  1   
 40  20  23  1   
 41  20  45  1   
 42  21  46  1   
 43  21  47  1   
 44  21  48  1   
 45  22  49  1   
 46  23  24  ar  
 47  23  25  ar  
 48  24  26  ar  
 49  24  50  1   
 50  25  27  ar  
 51  25  51  1   
 52  26  28  ar  
 53  26  52  1   
 54  27  28  ar  
 55  27  53  1   
 56  28  54  1   
@<TRIPOS>SUBSTRUCTURE
  1 ****  17 GROUP 4 **** **** 0

# MOE 2024.06 (io_trps.svl 2023.06)
