@<TRIPOS>MOLECULE
NONAME
45 47 1 0 0 
SMALL
USER_CHARGES


@<TRIPOS>ATOM
  1 O       -1.7150     0.3510     2.6940 O.2   1 <1>  -0.5700 
  2 C       -1.8090     0.8520     1.5900 C.2   1 <1>   0.5440 
  3 N       -2.2490     0.0590     0.5560 N.am  1 <1>  -0.6600 
  4 C       -1.5270     2.2580     1.4210 C.ar  1 <1>   0.0860 
  5 C       -2.6990     0.5310    -0.7780 C.3   1 <1>   0.1400 
  6 C       -2.5020    -1.3960     0.6980 C.3   1 <1>   0.1400 
  7 C       -0.5830     2.7330     0.5010 C.ar  1 <1>   0.3920 
  8 C       -2.1960     3.2000     2.1910 C.ar  1 <1>  -0.1500 
  9 C       -3.6990    -0.5320    -1.2260 C.3   1 <1>   0.2000 
 10 C       -3.1330    -1.8280    -0.6320 C.3   1 <1>  -0.0800 
 11 O        0.1040     1.8270    -0.2260 O.3   1 <1>  -0.3630 
 12 N       -0.3080     4.0200     0.2880 N.ar  1 <1>  -0.6200 
 13 C       -1.9110     4.5320     1.9880 C.ar  1 <1>  -0.1500 
 14 O       -4.9200    -0.2460    -0.6340 O.3   1 <1>  -0.6800 
 15 C       -4.1390    -2.9850    -0.4970 C.3   1 <1>  -0.0170 
 16 C        1.1190     2.2030    -1.1310 C.3   1 <1>   0.1200 
 17 C       -0.9740     4.8830     1.0340 C.ar  1 <1>   0.1600 
 18 C       -3.4540    -4.2480     0.0030 C.ar  1 <1>  -0.1430 
 19 C        1.6680     0.9340    -1.7750 C.3   1 <1>  -0.2400 
 20 C       -2.8090    -5.1130    -0.8580 C.ar  1 <1>  -0.1500 
 21 C       -3.4380    -4.5930     1.3390 C.ar  1 <1>  -0.1500 
 22 C       -2.1960    -6.2480    -0.3550 C.ar  1 <1>   0.1600 
 23 C       -2.7950    -5.7530     1.7390 C.ar  1 <1>   0.1600 
 24 N       -2.1720    -6.5890     0.9240 N.ar  1 <1>  -0.6200 
 25 H       -3.1450     1.5100    -0.7360 H     1 <1>   0.0800 
 26 H       -1.8560     0.5450    -1.4460 H     1 <1>   0.0800 
 27 H       -1.5830    -1.9230     0.8900 H     1 <1>   0.0800 
 28 H       -3.1800    -1.5540     1.5200 H     1 <1>   0.0800 
 29 H       -2.9150     2.8850     2.9280 H     1 <1>   0.1500 
 30 H       -3.8330    -0.5680    -2.2930 H     1 <1>   0.0800 
 31 H       -2.3310    -2.1520    -1.2710 H     1 <1>   0.0800 
 32 H       -2.4090     5.2930     2.5630 H     1 <1>   0.1500 
 33 H       -4.7680    -0.0770     0.3180 H     1 <1>   0.4000 
 34 H       -4.5890    -3.1790    -1.4550 H     1 <1>   0.0800 
 35 H       -4.9320    -2.7170     0.1790 H     1 <1>   0.0800 
 36 H        0.6920     2.8590    -1.8710 H     1 <1>   0.0800 
 37 H        1.8870     2.7220    -0.5830 H     1 <1>   0.0800 
 38 H       -0.7600     5.9280     0.8800 H     1 <1>   0.1500 
 39 H        0.8890     0.4210    -2.3090 H     1 <1>   0.0800 
 40 H        2.0760     0.2850    -1.0210 H     1 <1>   0.0800 
 41 H        2.4500     1.1880    -2.4680 H     1 <1>   0.0800 
 42 H       -2.7780    -4.9170    -1.9130 H     1 <1>   0.1500 
 43 H       -3.9190    -3.9740     2.0740 H     1 <1>   0.1500 
 44 H       -1.6970    -6.9110    -1.0410 H     1 <1>   0.1500 
 45 H       -2.7920    -6.0050     2.7850 H     1 <1>   0.1500 
@<TRIPOS>BOND
  1   1   2  2   
  2   2   3  am  
  3   2   4  1   
  4   3   5  1   
  5   3   6  1   
  6   4   7  ar  
  7   4   8  ar  
  8   5   9  1   
  9   5  25  1   
 10   5  26  1   
 11   6  10  1   
 12   6  27  1   
 13   6  28  1   
 14   7  11  1   
 15   7  12  ar  
 16   8  13  ar  
 17   8  29  1   
 18   9  10  1   
 19   9  14  1   
 20   9  30  1   
 21  10  15  1   
 22  10  31  1   
 23  11  16  1   
 24  12  17  ar  
 25  13  17  ar  
 26  13  32  1   
 27  14  33  1   
 28  15  18  1   
 29  15  34  1   
 30  15  35  1   
 31  16  19  1   
 32  16  36  1   
 33  16  37  1   
 34  17  38  1   
 35  18  20  ar  
 36  18  21  ar  
 37  19  39  1   
 38  19  40  1   
 39  19  41  1   
 40  20  22  ar  
 41  20  42  1   
 42  21  23  ar  
 43  21  43  1   
 44  22  24  ar  
 45  22  44  1   
 46  23  24  ar  
 47  23  45  1   
@<TRIPOS>SUBSTRUCTURE
  1 ****   3 GROUP 4 **** **** 0

# MOE 2024.06 (io_trps.svl 2023.06)
