@<TRIPOS>MOLECULE
NONAME
46 49 1 0 0 
SMALL
USER_CHARGES


@<TRIPOS>ATOM
  1 O       -0.6390    -0.1110    -0.8740 O.2   1 <1>  -0.5700 
  2 C       -1.6310     0.6040    -0.8760 C.2   1 <1>   0.7160 
  3 N       -2.8680    -0.0210    -0.8990 N.am  1 <1>  -0.6600 
  4 C       -1.4690     2.0600    -0.8390 C.2   1 <1>   0.1410 
  5 C       -4.1580     0.6660    -0.5850 C.3   1 <1>   0.1400 
  6 C       -3.0310    -1.4670    -1.2380 C.3   1 <1>   0.1400 
  7 N       -2.2960     2.9340    -1.4980 N.2   1 <1>  -0.5650 
  8 C       -0.5030     2.7910    -0.1980 C.2   1 <1>  -0.3320 
  9 C       -4.9790    -0.1270     0.4500 C.3   1 <1>   0.1900 
 10 C       -3.8770    -2.1950    -0.1820 C.3   1 <1>   0.1100 
 11 C       -1.8180     4.1050    -1.2520 C.2   1 <1>   0.0360 
 12 N       -0.7260     4.0840    -0.4660 N.pl3 1 <1>   0.0330 
 13 C        0.6580     2.3380     0.6750 C.3   1 <1>  -0.0600 
 14 N       -5.1850    -1.5310     0.0120 N.3   1 <1>  -0.8100 
 15 C       -6.3320     0.5670     0.7020 C.3   1 <1>   0.1200 
 16 C       -6.0300    -2.2460     0.9960 C.3   1 <1>   0.3330 
 17 O       -7.0810    -0.1460     1.6460 O.3   1 <1>  -0.5600 
 18 C       -6.3700    -3.6550     0.5090 C.ar  1 <1>  -0.1440 
 19 C       -7.3380    -1.4690     1.2580 C.3   1 <1>   0.1200 
 20 C       -6.2420    -4.7380     1.3670 C.ar  1 <1>  -0.1500 
 21 C       -6.8120    -3.8720    -0.7890 C.ar  1 <1>  -0.1500 
 22 C       -6.5530    -6.0160     0.9360 C.ar  1 <1>  -0.1500 
 23 C       -7.1240    -5.1490    -1.2220 C.ar  1 <1>  -0.1500 
 24 C       -6.9940    -6.2220    -0.3590 C.ar  1 <1>  -0.1500 
 25 H       -3.9750     1.6460    -0.1830 H     1 <1>   0.0800 
 26 H       -4.7250     0.7760    -1.4920 H     1 <1>   0.0800 
 27 H       -3.5190    -1.5480    -2.1930 H     1 <1>   0.0800 
 28 H       -2.0740    -1.9530    -1.3180 H     1 <1>   0.0800 
 29 H       -4.4300    -0.1200     1.3760 H     1 <1>   0.0800 
 30 H       -3.3340    -2.2240     0.7470 H     1 <1>   0.0800 
 31 H       -4.0280    -3.2080    -0.5120 H     1 <1>   0.0800 
 32 H       -2.2330     5.0240    -1.6290 H     1 <1>   0.1500 
 33 H       -0.1830     4.8930    -0.1500 H     1 <1>   0.2700 
 34 H        0.6130     1.2790     0.8570 H     1 <1>   0.0800 
 35 H        0.6310     2.8420     1.6240 H     1 <1>   0.0800 
 36 H        1.5930     2.5560     0.1890 H     1 <1>   0.0800 
 37 H       -6.9000     0.6340    -0.2090 H     1 <1>   0.0800 
 38 H       -6.1770     1.5570     1.0910 H     1 <1>   0.0800 
 39 H       -5.4970    -2.3180     1.9280 H     1 <1>   0.0800 
 40 H       -7.8930    -1.9420     2.0490 H     1 <1>   0.0800 
 41 H       -7.9470    -1.4550     0.3720 H     1 <1>   0.0800 
 42 H       -5.9010    -4.5930     2.3770 H     1 <1>   0.1500 
 43 H       -6.9080    -3.0390    -1.4650 H     1 <1>   0.1500 
 44 H       -6.4520    -6.8500     1.6070 H     1 <1>   0.1500 
 45 H       -7.4660    -5.3060    -2.2300 H     1 <1>   0.1500 
 46 H       -7.2360    -7.2150    -0.6950 H     1 <1>   0.1500 
@<TRIPOS>BOND
  1   1   2  2   
  2   2   3  am  
  3   2   4  1   
  4   3   5  1   
  5   3   6  1   
  6   4   7  1   
  7   4   8  2   
  8   5   9  1   
  9   5  25  1   
 10   5  26  1   
 11   6  10  1   
 12   6  27  1   
 13   6  28  1   
 14   7  11  2   
 15   8  12  1   
 16   8  13  1   
 17   9  14  1   
 18   9  15  1   
 19   9  29  1   
 20  10  14  1   
 21  10  30  1   
 22  10  31  1   
 23  11  12  1   
 24  11  32  1   
 25  12  33  1   
 26  13  34  1   
 27  13  35  1   
 28  13  36  1   
 29  14  16  1   
 30  15  17  1   
 31  15  37  1   
 32  15  38  1   
 33  16  18  1   
 34  16  19  1   
 35  16  39  1   
 36  17  19  1   
 37  18  20  ar  
 38  18  21  ar  
 39  19  40  1   
 40  19  41  1   
 41  20  22  ar  
 42  20  42  1   
 43  21  23  ar  
 44  21  43  1   
 45  22  24  ar  
 46  22  44  1   
 47  23  24  ar  
 48  23  45  1   
 49  24  46  1   
@<TRIPOS>SUBSTRUCTURE
  1 ****   9 GROUP 4 **** **** 0

# MOE 2024.06 (io_trps.svl 2023.06)
