@<TRIPOS>MOLECULE
NONAME
45 47 1 0 0 
SMALL
USER_CHARGES


@<TRIPOS>ATOM
  1 O       -0.3710    -0.4000     1.3750 O.3   1 <1>  -0.2800 
  2 C       -0.3080    -1.6390     0.9400 C.2   1 <1>  -0.0100 
  3 C       -1.3450     0.2050     0.7280 C.2   1 <1>  -0.0100 
  4 C       -1.2600    -1.8650     0.0070 C.2   1 <1>  -0.1810 
  5 C       -1.9390    -0.6430    -0.1380 C.2   1 <1>  -0.1500 
  6 C       -1.5520    -3.1440    -0.7420 C.3   1 <1>   0.5240 
  7 N       -2.4830    -3.9630     0.0870 N.4   1 <1>  -0.9590 
  8 C       -2.5480    -5.3880    -0.4100 C.3   1 <1>   0.3430 
  9 C       -3.8320    -3.3210     0.1370 C.3   1 <1>   0.3430 
 10 C       -3.5640    -6.2880     0.3680 C.3   1 <1>   0.4230 
 11 C       -4.7790    -4.1610     1.0010 C.3   1 <1>  -0.1600 
 12 N       -3.6290    -7.7490    -0.0790 N.4   1 <1>  -0.9590 
 13 C       -4.9640    -5.6210     0.5060 C.3   1 <1>   0.0000 
 14 C       -4.8360    -8.4870     0.4340 C.3   1 <1>   0.3430 
 15 C       -3.5280    -7.9670    -1.5630 C.3   1 <1>   0.2630 
 16 C       -5.7740    -6.3990     1.5820 C.3   1 <1>  -0.1600 
 17 C       -5.7900    -5.6160    -0.8140 C.3   1 <1>   0.1200 
 18 C       -5.3490    -7.8740     1.7380 C.3   1 <1>  -0.1600 
 19 O       -5.0400    -5.1580    -1.8890 O.3   1 <1>  -0.6800 
 20 H        0.4520    -2.2800     1.3580 H     1 <1>   0.1500 
 21 H       -1.5430     1.2420     0.9440 H     1 <1>   0.1500 
 22 H       -2.7540    -0.4280    -0.8070 H     1 <1>   0.1500 
 23 H       -0.6270    -3.6750    -0.8960 H     1 <1>   0.0800 
 24 H       -1.9860    -2.9230    -1.7050 H     1 <1>   0.0800 
 25 H       -2.0940    -3.9200     1.0400 H     1 <1>   0.4500 
 26 H       -2.8290    -5.3740    -1.4490 H     1 <1>   0.0800 
 27 H       -1.5690    -5.8310    -0.3360 H     1 <1>   0.0800 
 28 H       -3.7540    -2.3310     0.5600 H     1 <1>   0.0800 
 29 H       -4.2350    -3.2260    -0.8590 H     1 <1>   0.0800 
 30 H       -3.1810    -6.3150     1.3750 H     1 <1>   0.0800 
 31 H       -4.3990    -4.1490     2.0090 H     1 <1>   0.0800 
 32 H       -5.7360    -3.6670     1.0300 H     1 <1>   0.0800 
 33 H       -2.8230    -8.2300     0.3490 H     1 <1>   0.4500 
 34 H       -5.6290    -8.4450    -0.2960 H     1 <1>   0.0800 
 35 H       -4.5930    -9.5260     0.5910 H     1 <1>   0.0800 
 36 H       -4.3450    -7.4840    -2.0750 H     1 <1>   0.0800 
 37 H       -3.5650    -9.0220    -1.7890 H     1 <1>   0.0800 
 38 H       -2.6010    -7.5750    -1.9480 H     1 <1>   0.0800 
 39 H       -5.6750    -5.9370     2.5510 H     1 <1>   0.0800 
 40 H       -6.8260    -6.3580     1.3460 H     1 <1>   0.0800 
 41 H       -6.6520    -4.9750    -0.7140 H     1 <1>   0.0800 
 42 H       -6.1440    -6.6010    -1.0620 H     1 <1>   0.0800 
 43 H       -6.1910    -8.4470     2.0880 H     1 <1>   0.0800 
 44 H       -4.5830    -7.9620     2.4890 H     1 <1>   0.0800 
 45 H       -5.6230    -5.0140    -2.6710 H     1 <1>   0.4000 
@<TRIPOS>BOND
  1   1   2  1   
  2   1   3  1   
  3   2   4  2   
  4   2  20  1   
  5   3   5  2   
  6   3  21  1   
  7   4   5  1   
  8   4   6  1   
  9   5  22  1   
 10   6   7  1   
 11   6  23  1   
 12   6  24  1   
 13   7   8  1   
 14   7   9  1   
 15   7  25  1   
 16   8  10  1   
 17   8  26  1   
 18   8  27  1   
 19   9  11  1   
 20   9  28  1   
 21   9  29  1   
 22  10  12  1   
 23  10  13  1   
 24  10  30  1   
 25  11  13  1   
 26  11  31  1   
 27  11  32  1   
 28  12  14  1   
 29  12  15  1   
 30  12  33  1   
 31  13  16  1   
 32  13  17  1   
 33  14  18  1   
 34  14  34  1   
 35  14  35  1   
 36  15  36  1   
 37  15  37  1   
 38  15  38  1   
 39  16  18  1   
 40  16  39  1   
 41  16  40  1   
 42  17  19  1   
 43  17  41  1   
 44  17  42  1   
 45  18  43  1   
 46  18  44  1   
 47  19  45  1   
@<TRIPOS>SUBSTRUCTURE
  1 ****   7 GROUP 4 **** **** 0

# MOE 2024.06 (io_trps.svl 2023.06)
