@<TRIPOS>MOLECULE
NONAME
43 44 1 0 0 
SMALL
USER_CHARGES


@<TRIPOS>ATOM
  1 S       -0.0980    -0.2780    -0.0950 S.3   1 <1>  -0.4600 
  2 C       -0.2110     1.5300    -0.1050 C.3   1 <1>   0.1500 
  3 C       -1.7730    -0.8310     0.3010 C.3   1 <1>   0.0700 
  4 C        1.0240     2.0440    -0.8390 C.3   1 <1>  -0.2400 
  5 C       -0.2590     2.0070     1.3460 C.3   1 <1>  -0.2400 
  6 C       -1.7400    -2.3610     0.2970 C.3   1 <1>   0.3430 
  7 N       -3.0780    -2.9530     0.6010 N.4   1 <1>  -0.9590 
  8 C       -4.1370    -2.7090    -0.4130 C.3   1 <1>   0.3430 
  9 C       -3.0350    -4.4340     0.7690 C.3   1 <1>   0.3430 
 10 C       -5.2140    -3.7290    -0.0480 C.3   1 <1>   0.2000 
 11 C       -4.4110    -4.9760     0.3350 C.3   1 <1>  -0.0800 
 12 O       -5.8580    -3.2660     1.0940 O.3   1 <1>  -0.6800 
 13 C       -4.2990    -5.9630    -0.8470 C.3   1 <1>  -0.0170 
 14 C       -3.5350    -7.2260    -0.4750 C.ar  1 <1>   0.1670 
 15 N       -2.2270    -7.0950    -0.3190 N.ar  1 <1>  -0.6200 
 16 C       -4.2100    -8.4370    -0.3200 C.ar  1 <1>   0.1600 
 17 C       -1.6440    -8.2450    -0.0130 C.ar  1 <1>   0.1600 
 18 N       -3.6300    -9.5800    -0.0020 N.ar  1 <1>  -0.6200 
 19 C       -2.3240    -9.4470     0.1420 C.ar  1 <1>   0.1600 
 20 H       -1.1070     1.7990    -0.6370 H     1 <1>   0.0800 
 21 H       -2.0200    -0.4400     1.2710 H     1 <1>   0.0800 
 22 H       -2.4220    -0.4330    -0.4580 H     1 <1>   0.0800 
 23 H        1.9210     1.7310    -0.3330 H     1 <1>   0.0800 
 24 H        1.0100     3.1180    -0.8820 H     1 <1>   0.0800 
 25 H        1.0420     1.6630    -1.8450 H     1 <1>   0.0800 
 26 H        0.6070     1.6620     1.8820 H     1 <1>   0.0800 
 27 H       -1.1430     1.6470     1.8370 H     1 <1>   0.0800 
 28 H       -0.2730     3.0820     1.3760 H     1 <1>   0.0800 
 29 H       -1.0260    -2.6870     1.0360 H     1 <1>   0.0800 
 30 H       -1.3990    -2.7030    -0.6660 H     1 <1>   0.0800 
 31 H       -3.4520    -2.5750     1.4860 H     1 <1>   0.4500 
 32 H       -4.5220    -1.7030    -0.3680 H     1 <1>   0.0800 
 33 H       -3.7590    -2.9130    -1.4010 H     1 <1>   0.0800 
 34 H       -2.2630    -4.8440     0.1390 H     1 <1>   0.0800 
 35 H       -2.8220    -4.6990     1.7920 H     1 <1>   0.0800 
 36 H       -5.9420    -3.8760    -0.8290 H     1 <1>   0.0800 
 37 H       -4.8750    -5.4930     1.1580 H     1 <1>   0.0800 
 38 H       -6.6560    -3.8000     1.2990 H     1 <1>   0.4000 
 39 H       -3.7990    -5.4970    -1.6800 H     1 <1>   0.0800 
 40 H       -5.2860    -6.2360    -1.1780 H     1 <1>   0.0800 
 41 H       -5.2760    -8.4670    -0.4640 H     1 <1>   0.1500 
 42 H       -0.5760    -8.2400     0.1230 H     1 <1>   0.1500 
 43 H       -1.7640   -10.3310     0.3940 H     1 <1>   0.1500 
@<TRIPOS>BOND
  1   1   2  1   
  2   1   3  1   
  3   2   4  1   
  4   2   5  1   
  5   2  20  1   
  6   3   6  1   
  7   3  21  1   
  8   3  22  1   
  9   4  23  1   
 10   4  24  1   
 11   4  25  1   
 12   5  26  1   
 13   5  27  1   
 14   5  28  1   
 15   6   7  1   
 16   6  29  1   
 17   6  30  1   
 18   7   8  1   
 19   7   9  1   
 20   7  31  1   
 21   8  10  1   
 22   8  32  1   
 23   8  33  1   
 24   9  11  1   
 25   9  34  1   
 26   9  35  1   
 27  10  11  1   
 28  10  12  1   
 29  10  36  1   
 30  11  13  1   
 31  11  37  1   
 32  12  38  1   
 33  13  14  1   
 34  13  39  1   
 35  13  40  1   
 36  14  15  ar  
 37  14  16  ar  
 38  15  17  ar  
 39  16  18  ar  
 40  16  41  1   
 41  17  19  ar  
 42  17  42  1   
 43  18  19  ar  
 44  19  43  1   
@<TRIPOS>SUBSTRUCTURE
  1 ****   9 GROUP 4 **** **** 0

# MOE 2024.06 (io_trps.svl 2023.06)
