@<TRIPOS>MOLECULE
NONAME
45 47 1 0 0 
SMALL
USER_CHARGES


@<TRIPOS>ATOM
  1 O       -2.1000     0.7780    -3.4070 O.2   1 <1>  -0.5700 
  2 C       -1.3910     0.5730    -2.4520 C.2   1 <1>   0.5690 
  3 N       -1.2450    -0.6660    -1.9210 N.am  1 <1>  -0.7300 
  4 C       -0.6630     1.7300    -1.7930 C.3   1 <1>   0.0440 
  5 C       -2.0270    -1.8650    -2.2920 C.3   1 <1>   0.2200 
  6 C       -0.8220     1.6860    -0.2710 C.ar  1 <1>  -0.1440 
  7 C       -3.0400    -2.2030    -1.2050 C.3   1 <1>  -0.0800 
  8 C       -1.1190    -3.0850    -2.2130 C.3   1 <1>   0.1200 
  9 C       -1.9670     2.1610     0.3640 C.ar  1 <1>  -0.1440 
 10 C        0.1990     1.1310     0.4880 C.ar  1 <1>  -0.1500 
 11 C       -2.2030    -2.9880    -0.1910 C.3   1 <1>   0.1200 
 12 C       -3.8020    -1.0080    -0.6000 C.3   1 <1>  -0.0160 
 13 O       -1.0450    -3.4050    -0.8560 O.3   1 <1>  -0.5600 
 14 C       -2.0710     2.0670     1.7440 C.ar  1 <1>  -0.1500 
 15 C       -3.1220     2.7810    -0.4130 C.3   1 <1>  -0.0970 
 16 C        0.0870     1.0410     1.8630 C.ar  1 <1>  -0.1500 
 17 C       -4.7630    -1.4560     0.4890 C.ar  1 <1>  -0.1440 
 18 C       -1.0510     1.5090     2.4920 C.ar  1 <1>  -0.1500 
 19 C       -4.4750    -1.2730     1.8270 C.ar  1 <1>  -0.1500 
 20 C       -5.9670    -2.0630     0.2010 C.ar  1 <1>  -0.1500 
 21 C       -5.3780    -1.7010     2.7850 C.ar  1 <1>   0.1600 
 22 C       -6.8010    -2.4540     1.2360 C.ar  1 <1>   0.1600 
 23 N       -6.5340    -2.2890     2.5210 N.ar  1 <1>  -0.6200 
 24 H       -0.7090    -0.7760    -1.0560 H     1 <1>   0.3700 
 25 H        0.3750     1.6730    -2.0620 H     1 <1>   0.0800 
 26 H       -1.0420     2.6560    -2.1820 H     1 <1>   0.0800 
 27 H       -2.4740    -1.7450    -3.2650 H     1 <1>   0.0800 
 28 H       -3.7600    -2.8840    -1.6230 H     1 <1>   0.0800 
 29 H       -0.1320    -2.8950    -2.5970 H     1 <1>   0.0800 
 30 H       -1.5590    -3.9220    -2.7260 H     1 <1>   0.0800 
 31 H        1.0930     0.7630     0.0140 H     1 <1>   0.1500 
 32 H       -2.7280    -3.8520     0.1800 H     1 <1>   0.0800 
 33 H       -1.8970    -2.3680     0.6340 H     1 <1>   0.0800 
 34 H       -4.3470    -0.4980    -1.3750 H     1 <1>   0.0800 
 35 H       -3.1110    -0.3050    -0.1740 H     1 <1>   0.0800 
 36 H       -2.9490     2.4320     2.2470 H     1 <1>   0.1500 
 37 H       -3.9660     2.9610     0.2280 H     1 <1>   0.0800 
 38 H       -3.4420     2.1280    -1.2050 H     1 <1>   0.0800 
 39 H       -2.8160     3.7200    -0.8380 H     1 <1>   0.0800 
 40 H        0.8840     0.6090     2.4430 H     1 <1>   0.1500 
 41 H       -1.1410     1.4430     3.5620 H     1 <1>   0.1500 
 42 H       -3.5580    -0.8020     2.1320 H     1 <1>   0.1500 
 43 H       -6.2650    -2.2350    -0.8170 H     1 <1>   0.1500 
 44 H       -5.1370    -1.5520     3.8230 H     1 <1>   0.1500 
 45 H       -7.7370    -2.9260     0.9930 H     1 <1>   0.1500 
@<TRIPOS>BOND
  1   1   2  2   
  2   2   3  am  
  3   2   4  1   
  4   3   5  1   
  5   3  24  1   
  6   4   6  1   
  7   4  25  1   
  8   4  26  1   
  9   5   7  1   
 10   5   8  1   
 11   5  27  1   
 12   6   9  ar  
 13   6  10  ar  
 14   7  11  1   
 15   7  12  1   
 16   7  28  1   
 17   8  13  1   
 18   8  29  1   
 19   8  30  1   
 20   9  14  ar  
 21   9  15  1   
 22  10  16  ar  
 23  10  31  1   
 24  11  13  1   
 25  11  32  1   
 26  11  33  1   
 27  12  17  1   
 28  12  34  1   
 29  12  35  1   
 30  14  18  ar  
 31  14  36  1   
 32  15  37  1   
 33  15  38  1   
 34  15  39  1   
 35  16  18  ar  
 36  16  40  1   
 37  17  19  ar  
 38  17  20  ar  
 39  18  41  1   
 40  19  21  ar  
 41  19  42  1   
 42  20  22  ar  
 43  20  43  1   
 44  21  23  ar  
 45  21  44  1   
 46  22  23  ar  
 47  22  45  1   
@<TRIPOS>SUBSTRUCTURE
  1 ****  12 GROUP 4 **** **** 0

# MOE 2024.06 (io_trps.svl 2023.06)
