@<TRIPOS>MOLECULE
NONAME
52 57 1 0 0 
SMALL
USER_CHARGES


@<TRIPOS>ATOM
  1 O       -1.0210     1.2030    -2.0440 O.2   1 <1>  -0.5700 
  2 C       -2.0220     1.4290    -1.4050 C.2   1 <1>   0.6300 
  3 N       -3.1680     0.6900    -1.5680 N.am  1 <1>  -0.6600 
  4 C       -1.9800     2.5730    -0.3970 C.3   1 <1>  -0.1000 
  5 C       -4.4440     0.9130    -0.8380 C.3   1 <1>   0.1400 
  6 C       -3.2200    -0.4710    -2.4980 C.3   1 <1>   0.1400 
  7 C       -0.7810     2.7920     0.4700 C.3   1 <1>  -0.1520 
  8 C       -2.0510     2.3120     1.0940 C.3   1 <1>  -0.2000 
  9 C       -4.7460    -0.3270     0.0050 C.3   1 <1>  -0.1600 
 10 C       -3.5170    -1.7360    -1.6920 C.3   1 <1>  -0.1600 
 11 C        0.5390     2.0120     0.6730 C.3   1 <1>   0.0760 
 12 C       -0.0760     4.0570     1.0090 C.3   1 <1>   0.0760 
 13 C       -4.7980    -1.5930    -0.8630 C.3   1 <1>   0.4600 
 14 C        0.9000     3.0890     1.7360 C.3   1 <1>   0.0000 
 15 O       -5.8560    -1.4730    -1.7890 O.3   1 <1>  -0.5600 
 16 C       -5.0140    -2.8360    -0.0080 C.2   1 <1>  -0.3320 
 17 C       -7.1600    -1.7780    -1.3540 C.3   1 <1>   0.1200 
 18 N       -4.1350    -3.3620     0.8980 N.pl3 1 <1>   0.0330 
 19 C       -6.1270    -3.5950    -0.0390 C.2   1 <1>  -0.1810 
 20 C       -7.2820    -3.2560    -0.9480 C.3   1 <1>   0.0210 
 21 C       -4.7100    -4.4820     1.4460 C.ar  1 <1>  -0.1520 
 22 C       -5.9670    -4.6580     0.8730 C.ar  1 <1>   0.0000 
 23 C       -4.2310    -5.3740     2.4090 C.ar  1 <1>  -0.1500 
 24 C       -6.7610    -5.7410     1.2640 C.ar  1 <1>  -0.1500 
 25 C       -5.0230    -6.4350     2.7860 C.ar  1 <1>  -0.1500 
 26 C       -6.2880    -6.6180     2.2130 C.ar  1 <1>  -0.1500 
 27 H       -2.4510     3.4560    -0.7870 H     1 <1>   0.1000 
 28 H       -5.2340     1.0700    -1.5530 H     1 <1>   0.0800 
 29 H       -4.3920     1.7820    -0.2070 H     1 <1>   0.0800 
 30 H       -2.2870    -0.5850    -3.0240 H     1 <1>   0.0800 
 31 H       -3.9960    -0.3070    -3.2270 H     1 <1>   0.0800 
 32 H       -2.1040     1.2930     1.4360 H     1 <1>   0.1000 
 33 H       -2.6250     2.9870     1.7040 H     1 <1>   0.1000 
 34 H       -5.6730    -0.2020     0.5310 H     1 <1>   0.0800 
 35 H       -3.9740    -0.4350     0.7430 H     1 <1>   0.0800 
 36 H       -2.6810    -1.9270    -1.0450 H     1 <1>   0.0800 
 37 H       -3.6170    -2.5770    -2.3530 H     1 <1>   0.0800 
 38 H        1.1790     2.0560    -0.1910 H     1 <1>   0.0000 
 39 H        0.4140     1.0200     1.0700 H     1 <1>   0.0000 
 40 H       -0.6780     4.6570     1.6680 H     1 <1>   0.0000 
 41 H        0.4060     4.6210     0.2290 H     1 <1>   0.0000 
 42 H        1.9280     3.4030     1.7040 H     1 <1>   0.0000 
 43 H        0.5610     2.8240     2.7240 H     1 <1>   0.0000 
 44 H       -7.8360    -1.5590    -2.1610 H     1 <1>   0.0800 
 45 H       -7.4010    -1.1420    -0.5200 H     1 <1>   0.0800 
 46 H       -3.2010    -3.0070     1.1250 H     1 <1>   0.2700 
 47 H       -7.2520    -3.8810    -1.8220 H     1 <1>   0.0800 
 48 H       -8.2140    -3.4180    -0.4390 H     1 <1>   0.0800 
 49 H       -3.2590    -5.2270     2.8430 H     1 <1>   0.1500 
 50 H       -7.7280    -5.8700     0.8160 H     1 <1>   0.1500 
 51 H       -4.6770    -7.1350     3.5250 H     1 <1>   0.1500 
 52 H       -6.8860    -7.4560     2.5240 H     1 <1>   0.1500 
@<TRIPOS>BOND
  1   1   2  2   
  2   2   3  am  
  3   2   4  1   
  4   3   5  1   
  5   3   6  1   
  6   4   7  1   
  7   4   8  1   
  8   4  27  1   
  9   5   9  1   
 10   5  28  1   
 11   5  29  1   
 12   6  10  1   
 13   6  30  1   
 14   6  31  1   
 15   7   8  1   
 16   7  11  1   
 17   7  12  1   
 18   8  32  1   
 19   8  33  1   
 20   9  13  1   
 21   9  34  1   
 22   9  35  1   
 23  10  13  1   
 24  10  36  1   
 25  10  37  1   
 26  11  14  1   
 27  11  38  1   
 28  11  39  1   
 29  12  14  1   
 30  12  40  1   
 31  12  41  1   
 32  13  15  1   
 33  13  16  1   
 34  14  42  1   
 35  14  43  1   
 36  15  17  1   
 37  16  18  1   
 38  16  19  2   
 39  17  20  1   
 40  17  44  1   
 41  17  45  1   
 42  18  21  1   
 43  18  46  1   
 44  19  20  1   
 45  19  22  1   
 46  20  47  1   
 47  20  48  1   
 48  21  22  ar  
 49  21  23  ar  
 50  22  24  ar  
 51  23  25  ar  
 52  23  49  1   
 53  24  26  ar  
 54  24  50  1   
 55  25  26  ar  
 56  25  51  1   
 57  26  52  1   
@<TRIPOS>SUBSTRUCTURE
  1 ****   9 GROUP 4 **** **** 0

# MOE 2024.06 (io_trps.svl 2023.06)
