@<TRIPOS>MOLECULE
NONAME
36 38 1 0 0 
SMALL
USER_CHARGES


@<TRIPOS>ATOM
  1 CL       0.6060     0.2140     1.0280 Cl    1 <1>  -0.1770 
  2 C        0.4300     1.9200     0.6970 C.ar  1 <1>   0.1770 
  3 C       -0.7520     2.5810     0.9840 C.ar  1 <1>   0.1770 
  4 C        1.4970     2.6030     0.1440 C.ar  1 <1>  -0.1500 
  5 CL      -2.1100     1.7330     1.6840 Cl    1 <1>  -0.1770 
  6 C       -0.8710     3.9320     0.7170 C.ar  1 <1>  -0.1500 
  7 C        1.4040     3.9640    -0.1310 C.ar  1 <1>  -0.0090 
  8 C        0.2040     4.6110     0.1630 C.ar  1 <1>  -0.1500 
  9 S        2.8110     4.8580    -0.8510 S.o2  1 <1>   1.4470 
 10 O        2.4980     6.2710    -0.8610 O.2   1 <1>  -0.6500 
 11 O        3.1910     4.1670    -2.0630 O.2   1 <1>  -0.6500 
 12 N        4.0250     4.5760     0.3120 N.am  1 <1>  -0.8490 
 13 C        4.2040     5.6340     1.3300 C.3   1 <1>   0.1960 
 14 C        5.2460     3.8960    -0.1620 C.3   1 <1>   0.1960 
 15 C        5.3460     6.6470     1.0630 C.3   1 <1>   0.2200 
 16 C        6.2890     4.7490    -0.9310 C.3   1 <1>  -0.0190 
 17 N        5.4240     6.9970    -0.3820 N.am  1 <1>  -0.7300 
 18 C        6.6920     6.1250     1.6430 C.3   1 <1>   0.1200 
 19 C        5.8280     6.1350    -1.3390 C.2   1 <1>   0.5690 
 20 C        7.6250     4.8470    -0.1710 C.3   1 <1>   0.1200 
 21 O        7.7030     5.9460     0.6910 O.3   1 <1>  -0.5600 
 22 O        5.8240     6.4530    -2.5010 O.2   1 <1>  -0.5700 
 23 H        2.4060     2.0710    -0.0760 H     1 <1>   0.1500 
 24 H       -1.7920     4.4420     0.9380 H     1 <1>   0.1500 
 25 H        0.1080     5.6650    -0.0470 H     1 <1>   0.1500 
 26 H        3.2850     6.1840     1.4420 H     1 <1>   0.0800 
 27 H        4.3760     5.1620     2.2820 H     1 <1>   0.0800 
 28 H        5.7220     3.4460     0.6910 H     1 <1>   0.0800 
 29 H        4.9550     3.0750    -0.7960 H     1 <1>   0.0800 
 30 H        5.1040     7.5420     1.6080 H     1 <1>   0.0800 
 31 H        6.4990     4.2090    -1.8360 H     1 <1>   0.0800 
 32 H        4.9990     7.8690    -0.7020 H     1 <1>   0.3700 
 33 H        6.5670     5.2010     2.1810 H     1 <1>   0.0800 
 34 H        7.0630     6.8520     2.3430 H     1 <1>   0.0800 
 35 H        8.4190     4.9770    -0.8870 H     1 <1>   0.0800 
 36 H        7.8320     3.9540     0.3920 H     1 <1>   0.0800 
@<TRIPOS>BOND
  1   1   2  1   
  2   2   3  ar  
  3   2   4  ar  
  4   3   5  1   
  5   3   6  ar  
  6   4   7  ar  
  7   4  23  1   
  8   6   8  ar  
  9   6  24  1   
 10   7   8  ar  
 11   7   9  1   
 12   8  25  1   
 13   9  10  2   
 14   9  11  2   
 15   9  12  am  
 16  12  13  1   
 17  12  14  1   
 18  13  15  1   
 19  13  26  1   
 20  13  27  1   
 21  14  16  1   
 22  14  28  1   
 23  14  29  1   
 24  15  17  1   
 25  15  18  1   
 26  15  30  1   
 27  16  19  1   
 28  16  20  1   
 29  16  31  1   
 30  17  19  am  
 31  17  32  1   
 32  18  21  1   
 33  18  33  1   
 34  18  34  1   
 35  19  22  2   
 36  20  21  1   
 37  20  35  1   
 38  20  36  1   
@<TRIPOS>SUBSTRUCTURE
  1 ****  12 GROUP 4 **** **** 0

# MOE 2024.06 (io_trps.svl 2023.06)
