@<TRIPOS>MOLECULE
NONAME
51 53 1 0 0 
SMALL
USER_CHARGES


@<TRIPOS>ATOM
  1 CL      -2.8570     2.3730    -1.7110 Cl    1 <1>  -0.1770 
  2 C       -1.2310     2.4880    -1.0790 C.ar  1 <1>   0.1770 
  3 C       -1.0030     2.5960     0.2880 C.ar  1 <1>  -0.1440 
  4 C       -0.1950     2.4710    -1.9970 C.ar  1 <1>  -0.1500 
  5 C        0.3230     2.6930     0.6990 C.ar  1 <1>   0.1770 
  6 C       -2.1590     2.5960     1.2940 C.3   1 <1>   0.0450 
  7 C        1.1150     2.5650    -1.5610 C.ar  1 <1>  -0.1500 
  8 CL       0.7390     2.8510     2.3910 Cl    1 <1>  -0.1770 
  9 C        1.3710     2.6770    -0.2050 C.ar  1 <1>  -0.1500 
 10 C       -2.6070     1.1790     1.6550 C.2   1 <1>   0.5690 
 11 O       -1.7520     0.4630     2.1220 O.2   1 <1>  -0.5700 
 12 N       -3.9030     0.7180     1.5090 N.am  1 <1>  -0.6600 
 13 C       -4.9990     1.4490     0.8010 C.3   1 <1>   0.2200 
 14 C       -4.2310    -0.6400     2.0510 C.3   1 <1>   0.0600 
 15 C       -6.0560     1.9970     1.7550 C.3   1 <1>  -0.1600 
 16 C       -5.7870     0.6060    -0.2030 C.3   1 <1>  -0.1600 
 17 C       -7.2760     2.2510     0.8580 C.3   1 <1>  -0.0800 
 18 C       -7.0970     1.3830    -0.3930 C.3   1 <1>  -0.0800 
 19 C       -8.6320     1.8470     1.4550 C.3   1 <1>  -0.1600 
 20 C       -8.3650     0.5220    -0.4930 C.3   1 <1>  -0.1600 
 21 C       -9.4430     1.2910     0.2790 C.3   1 <1>   0.4230 
 22 N      -10.0030     2.4030    -0.5560 N.4   1 <1>  -0.9590 
 23 C      -10.9570     3.2750     0.2020 C.3   1 <1>   0.2630 
 24 C      -10.6950     1.9070    -1.7900 C.3   1 <1>   0.2630 
 25 H       -0.4160     2.3830    -3.0460 H     1 <1>   0.1500 
 26 H       -2.9550     3.2030     0.9250 H     1 <1>   0.0800 
 27 H       -1.8510     3.0650     2.2090 H     1 <1>   0.0800 
 28 H        1.9270     2.5500    -2.2680 H     1 <1>   0.1500 
 29 H        2.3820     2.7510     0.1560 H     1 <1>   0.1500 
 30 H       -4.6060     2.2770     0.2470 H     1 <1>   0.0800 
 31 H       -5.2530    -0.6900     2.3770 H     1 <1>   0.0800 
 32 H       -3.6030    -0.8730     2.8940 H     1 <1>   0.0800 
 33 H       -4.0640    -1.3800     1.2880 H     1 <1>   0.0800 
 34 H       -6.2830     1.2680     2.5110 H     1 <1>   0.0800 
 35 H       -5.7190     2.9010     2.2290 H     1 <1>   0.0800 
 36 H       -5.2490     0.5060    -1.1300 H     1 <1>   0.0800 
 37 H       -5.9930    -0.3710     0.1900 H     1 <1>   0.0800 
 38 H       -7.2930     3.2880     0.5630 H     1 <1>   0.0800 
 39 H       -7.0090     2.0250    -1.2550 H     1 <1>   0.0800 
 40 H       -9.1000     2.6500     1.9920 H     1 <1>   0.0800 
 41 H       -8.4890     1.0390     2.1520 H     1 <1>   0.0800 
 42 H       -8.2100    -0.4090     0.0250 H     1 <1>   0.0800 
 43 H       -8.6170     0.2810    -1.5080 H     1 <1>   0.0800 
 44 H      -10.2320     0.6370     0.6160 H     1 <1>   0.0800 
 45 H       -9.1960     2.9750    -0.8440 H     1 <1>   0.4500 
 46 H      -11.7690     2.6860     0.5980 H     1 <1>   0.0800 
 47 H      -11.3660     4.0320    -0.4470 H     1 <1>   0.0800 
 48 H      -10.4590     3.7700     1.0180 H     1 <1>   0.0800 
 49 H      -11.4900     1.2280    -1.5260 H     1 <1>   0.0800 
 50 H      -10.0040     1.3960    -2.4390 H     1 <1>   0.0800 
 51 H      -11.1170     2.7340    -2.3380 H     1 <1>   0.0800 
@<TRIPOS>BOND
  1   1   2  1   
  2   2   3  ar  
  3   2   4  ar  
  4   3   5  ar  
  5   3   6  1   
  6   4   7  ar  
  7   4  25  1   
  8   5   8  1   
  9   5   9  ar  
 10   6  10  1   
 11   6  26  1   
 12   6  27  1   
 13   7   9  ar  
 14   7  28  1   
 15   9  29  1   
 16  10  11  2   
 17  10  12  am  
 18  12  13  1   
 19  12  14  1   
 20  13  15  1   
 21  13  16  1   
 22  13  30  1   
 23  14  31  1   
 24  14  32  1   
 25  14  33  1   
 26  15  17  1   
 27  15  34  1   
 28  15  35  1   
 29  16  18  1   
 30  16  36  1   
 31  16  37  1   
 32  17  18  1   
 33  17  19  1   
 34  17  38  1   
 35  18  20  1   
 36  18  39  1   
 37  19  21  1   
 38  19  40  1   
 39  19  41  1   
 40  20  21  1   
 41  20  42  1   
 42  20  43  1   
 43  21  22  1   
 44  21  44  1   
 45  22  23  1   
 46  22  24  1   
 47  22  45  1   
 48  23  46  1   
 49  23  47  1   
 50  23  48  1   
 51  24  49  1   
 52  24  50  1   
 53  24  51  1   
@<TRIPOS>SUBSTRUCTURE
  1 ****  13 GROUP 4 **** **** 0

# MOE 2024.06 (io_trps.svl 2023.06)
