@<TRIPOS>MOLECULE
NONAME
40 41 1 0 0 
SMALL
USER_CHARGES


@<TRIPOS>ATOM
  1 O       -0.1330    -0.0440     1.2390 O.2   1 <1>  -0.5700 
  2 C        0.8710    -0.6180     0.8980 C.2   1 <1>   0.5690 
  3 N        2.0030     0.0110     0.4620 N.am  1 <1>  -0.4940 
  4 C        0.8770    -2.1300     0.9500 C.3   1 <1>  -0.0990 
  5 C        2.3250     1.3840     0.3240 C.2   1 <1>  -0.0880 
  6 C        0.0920    -2.7250    -0.2240 C.3   1 <1>  -0.0160 
  7 N        1.4910     2.4180     0.0110 N.pl3 1 <1>   0.3140 
  8 C        3.5620     1.9240     0.4530 C.2   1 <1>  -0.1810 
  9 C        0.1360    -4.2430    -0.1740 C.ar  1 <1>  -0.1440 
 10 N        2.1640     3.5860    -0.0650 N.2   1 <1>  -0.7070 
 11 C        0.0600     2.3910    -0.3180 C.3   1 <1>   0.0160 
 12 C        3.3940     3.2840     0.2030 C.2   1 <1>   0.1080 
 13 C        4.8710     1.2350     0.7980 C.3   1 <1>  -0.0590 
 14 C        1.0300    -4.9770    -0.9280 C.ar  1 <1>  -0.1500 
 15 C       -0.7170    -4.9660     0.6350 C.ar  1 <1>  -0.1500 
 16 C        4.4880     4.3370     0.2250 C.3   1 <1>   0.0210 
 17 C        1.0280    -6.3590    -0.8370 C.ar  1 <1>   0.1600 
 18 C       -0.6360    -6.3490     0.6530 C.ar  1 <1>   0.1600 
 19 C        5.1550     4.4720    -1.1480 C.3   1 <1>  -0.2400 
 20 N        0.2180    -7.0620    -0.0630 N.ar  1 <1>  -0.6200 
 21 H        2.7950    -0.6060     0.2910 H     1 <1>   0.3700 
 22 H        0.4260    -2.4390     1.8760 H     1 <1>   0.0800 
 23 H        1.8860    -2.4970     0.9370 H     1 <1>   0.0800 
 24 H        0.5060    -2.3790    -1.1550 H     1 <1>   0.0800 
 25 H       -0.9320    -2.3940    -0.1790 H     1 <1>   0.0800 
 26 H       -0.1620     1.5010    -0.8740 H     1 <1>   0.0800 
 27 H       -0.1810     3.2550    -0.9080 H     1 <1>   0.0800 
 28 H       -0.5070     2.4080     0.5930 H     1 <1>   0.0800 
 29 H        4.7210     0.1840     0.9630 H     1 <1>   0.0800 
 30 H        5.2810     1.6640     1.6940 H     1 <1>   0.0800 
 31 H        5.5740     1.3630    -0.0040 H     1 <1>   0.0800 
 32 H        1.7260    -4.4910    -1.5870 H     1 <1>   0.1500 
 33 H       -1.4430    -4.4680     1.2510 H     1 <1>   0.1500 
 34 H        5.2220     4.0810     0.9670 H     1 <1>   0.0800 
 35 H        4.0510     5.2790     0.5050 H     1 <1>   0.0800 
 36 H        1.7310    -6.9160    -1.4330 H     1 <1>   0.1500 
 37 H       -1.3090    -6.8960     1.2900 H     1 <1>   0.1500 
 38 H        5.6040     3.5390    -1.4380 H     1 <1>   0.0800 
 39 H        5.9130     5.2330    -1.1200 H     1 <1>   0.0800 
 40 H        4.4160     4.7420    -1.8820 H     1 <1>   0.0800 
@<TRIPOS>BOND
  1   1   2  2   
  2   2   3  am  
  3   2   4  1   
  4   3   5  1   
  5   3  21  1   
  6   4   6  1   
  7   4  22  1   
  8   4  23  1   
  9   5   7  1   
 10   5   8  2   
 11   6   9  1   
 12   6  24  1   
 13   6  25  1   
 14   7  10  1   
 15   7  11  1   
 16   8  12  1   
 17   8  13  1   
 18   9  14  ar  
 19   9  15  ar  
 20  10  12  2   
 21  11  26  1   
 22  11  27  1   
 23  11  28  1   
 24  12  16  1   
 25  13  29  1   
 26  13  30  1   
 27  13  31  1   
 28  14  17  ar  
 29  14  32  1   
 30  15  18  ar  
 31  15  33  1   
 32  16  19  1   
 33  16  34  1   
 34  16  35  1   
 35  17  20  ar  
 36  17  36  1   
 37  18  20  ar  
 38  18  37  1   
 39  19  38  1   
 40  19  39  1   
 41  19  40  1   
@<TRIPOS>SUBSTRUCTURE
  1 ****   3 GROUP 4 **** **** 0

# MOE 2024.06 (io_trps.svl 2023.06)
