@<TRIPOS>MOLECULE
NONAME
46 48 1 0 0 
SMALL
USER_CHARGES


@<TRIPOS>ATOM
  1 O        0.0310     0.6370    -0.0630 O.3   1 <1>  -0.3630 
  2 C        0.8820    -0.4060    -0.2020 C.ar  1 <1>   0.0830 
  3 C        0.5400     1.9590    -0.1960 C.3   1 <1>   0.1200 
  4 C        1.8060    -0.7040     0.7900 C.ar  1 <1>  -0.1440 
  5 C        0.8310    -1.1780    -1.3500 C.ar  1 <1>  -0.1500 
  6 C        1.2940     2.4360     1.0630 C.3   1 <1>   0.2090 
  7 C        2.6570    -1.7850     0.6440 C.ar  1 <1>  -0.1500 
  8 C        1.9560     0.2300     1.9630 C.3   1 <1>   0.3530 
  9 C        1.7320    -2.2150    -1.5240 C.ar  1 <1>  -0.1500 
 10 N        2.4320     1.5160     1.3820 N.pl3 1 <1>  -0.8380 
 11 C        2.6590    -2.5110    -0.5350 C.ar  1 <1>  -0.1430 
 12 C        3.6490     1.7200     0.8130 C.ar  1 <1>   0.7710 
 13 C        3.7110    -3.5860    -0.7330 C.3   1 <1>   0.2640 
 14 N        4.0830     2.9600     0.6680 N.ar  1 <1>  -0.6200 
 15 N        4.3630     0.6700     0.3680 N.ar  1 <1>  -0.1790 
 16 O        4.9550    -2.9800    -0.5700 O.3   1 <1>  -0.6800 
 17 C        5.2590     3.1540     0.1000 C.ar  1 <1>   0.4100 
 18 C        5.5830     0.8170    -0.1900 C.ar  1 <1>   0.2110 
 19 N        5.6400     4.4480    -0.0550 N.pl3 1 <1>  -0.8380 
 20 C        6.0750     2.0730    -0.3260 C.ar  1 <1>  -0.1430 
 21 C        5.9890     5.0350    -1.3780 C.3   1 <1>   0.1290 
 22 C        5.3850     5.4610     1.0100 C.3   1 <1>   0.1290 
 23 C        7.4770     2.2890    -0.8940 C.3   1 <1>  -0.0970 
 24 H       -0.3010     2.6050    -0.3760 H     1 <1>   0.0800 
 25 H        1.1820     1.9920    -1.0590 H     1 <1>   0.0800 
 26 H        0.0990    -0.9540    -2.1060 H     1 <1>   0.1500 
 27 H        0.6120     2.4870     1.8940 H     1 <1>   0.0800 
 28 H        1.6530     3.4370     0.8920 H     1 <1>   0.0800 
 29 H        3.3520    -2.0530     1.4240 H     1 <1>   0.1500 
 30 H        2.6710    -0.1430     2.6770 H     1 <1>   0.0800 
 31 H        1.0100     0.3550     2.4650 H     1 <1>   0.0800 
 32 H        1.7060    -2.7870    -2.4370 H     1 <1>   0.1500 
 33 H        3.6610    -4.0050    -1.7240 H     1 <1>   0.0800 
 34 H        3.6060    -4.3680     0.0000 H     1 <1>   0.0800 
 35 H        3.8850    -0.2310     0.3820 H     1 <1>   0.4570 
 36 H        5.6600    -3.6410    -0.7280 H     1 <1>   0.4000 
 37 H        6.1150    -0.0680    -0.5040 H     1 <1>   0.1500 
 38 H        5.8240     4.3180    -2.1630 H     1 <1>   0.0800 
 39 H        7.0210     5.3370    -1.3830 H     1 <1>   0.0800 
 40 H        5.3710     5.8950    -1.5720 H     1 <1>   0.0800 
 41 H        5.2230     4.9750     1.9570 H     1 <1>   0.0800 
 42 H        4.5120     6.0390     0.7630 H     1 <1>   0.0800 
 43 H        6.2330     6.1180     1.1020 H     1 <1>   0.0800 
 44 H        8.0050     3.0170    -0.3040 H     1 <1>   0.0800 
 45 H        7.4220     2.6400    -1.9090 H     1 <1>   0.0800 
 46 H        8.0460     1.3770    -0.8830 H     1 <1>   0.0800 
@<TRIPOS>BOND
  1   1   2  1   
  2   1   3  1   
  3   2   4  ar  
  4   2   5  ar  
  5   3   6  1   
  6   3  24  1   
  7   3  25  1   
  8   4   7  ar  
  9   4   8  1   
 10   5   9  ar  
 11   5  26  1   
 12   6  10  1   
 13   6  27  1   
 14   6  28  1   
 15   7  11  ar  
 16   7  29  1   
 17   8  10  1   
 18   8  30  1   
 19   8  31  1   
 20   9  11  ar  
 21   9  32  1   
 22  10  12  1   
 23  11  13  1   
 24  12  14  ar  
 25  12  15  ar  
 26  13  16  1   
 27  13  33  1   
 28  13  34  1   
 29  14  17  ar  
 30  15  18  ar  
 31  15  35  1   
 32  16  36  1   
 33  17  19  1   
 34  17  20  ar  
 35  18  20  ar  
 36  18  37  1   
 37  19  21  1   
 38  19  22  1   
 39  20  23  1   
 40  21  38  1   
 41  21  39  1   
 42  21  40  1   
 43  22  41  1   
 44  22  42  1   
 45  22  43  1   
 46  23  44  1   
 47  23  45  1   
 48  23  46  1   
@<TRIPOS>SUBSTRUCTURE
  1 ****  15 GROUP 4 **** **** 0

# MOE 2024.06 (io_trps.svl 2023.06)
