@<TRIPOS>MOLECULE
NONAME
46 48 1 0 0 
SMALL
USER_CHARGES


@<TRIPOS>ATOM
  1 F       -1.3530    -1.2310     1.3620 F     1 <1>  -0.3400 
  2 C       -1.0820    -2.4600     1.7980 C.3   1 <1>   0.8560 
  3 F        0.0200    -2.3300     2.5350 F     1 <1>  -0.3400 
  4 N       -0.8280    -3.3790     0.6370 N.pl3 1 <1>   0.3140 
  5 N       -1.5720    -4.4860     0.3930 N.2   1 <1>  -0.7070 
  6 C        0.1440    -3.2470    -0.2930 C.2   1 <1>  -0.3020 
  7 C       -1.0590    -5.0410    -0.6940 C.2   1 <1>   0.2030 
  8 C        0.0280    -4.2820    -1.1450 C.2   1 <1>  -0.1500 
  9 C       -1.4930    -6.2730    -1.3480 C.2   1 <1>   0.7160 
 10 O       -0.6730    -6.9600    -1.9360 O.2   1 <1>  -0.5700 
 11 N       -2.7980    -6.7480    -1.3170 N.am  1 <1>  -0.6600 
 12 C       -3.1020    -8.1880    -1.5280 C.3   1 <1>   0.1400 
 13 C       -3.9780    -5.9300    -0.9270 C.3   1 <1>   0.1400 
 14 C       -3.6790    -8.7820    -0.2230 C.3   1 <1>   0.4230 
 15 C       -4.5440    -6.4920     0.3820 C.3   1 <1>  -0.1600 
 16 N       -3.8730   -10.2920    -0.2670 N.4   1 <1>  -0.9590 
 17 C       -4.9260    -7.9980     0.2900 C.3   1 <1>   0.0000 
 18 C       -4.7880   -10.8240     0.7960 C.3   1 <1>   0.3430 
 19 C       -4.2630   -10.8520    -1.6030 C.3   1 <1>   0.2630 
 20 C       -5.2990    -8.5040     1.7150 C.3   1 <1>  -0.1600 
 21 C       -6.1210    -8.1950    -0.6870 C.3   1 <1>   0.1200 
 22 C       -4.7810    -9.9210     2.0280 C.3   1 <1>  -0.1600 
 23 O       -7.1790    -7.3560    -0.3820 O.3   1 <1>  -0.6800 
 24 H       -1.8860    -2.7930     2.4270 H     1 <1>   0.0800 
 25 H        0.8520    -2.4370    -0.2880 H     1 <1>   0.1500 
 26 H        0.6280    -4.5180    -2.0070 H     1 <1>   0.1500 
 27 H       -3.7980    -8.2710    -2.3430 H     1 <1>   0.0800 
 28 H       -2.2080    -8.7240    -1.7920 H     1 <1>   0.0800 
 29 H       -3.7130    -4.8940    -0.8060 H     1 <1>   0.0800 
 30 H       -4.7200    -5.9740    -1.7060 H     1 <1>   0.0800 
 31 H       -2.9180    -8.6010     0.5190 H     1 <1>   0.0800 
 32 H       -3.7950    -6.3440     1.1420 H     1 <1>   0.0800 
 33 H       -5.3950    -5.8990     0.6720 H     1 <1>   0.0800 
 34 H       -2.9400   -10.6770    -0.0510 H     1 <1>   0.4500 
 35 H       -5.7960   -10.8750     0.4170 H     1 <1>   0.0800 
 36 H       -4.4870   -11.8220     1.0720 H     1 <1>   0.0800 
 37 H       -5.2160   -10.4580    -1.9160 H     1 <1>   0.0800 
 38 H       -4.3380   -11.9270    -1.5500 H     1 <1>   0.0800 
 39 H       -3.5250   -10.6040    -2.3490 H     1 <1>   0.0800 
 40 H       -4.8980    -7.8450     2.4670 H     1 <1>   0.0800 
 41 H       -6.3670    -8.4860     1.8450 H     1 <1>   0.0800 
 42 H       -6.4940    -9.2030    -0.6590 H     1 <1>   0.0800 
 43 H       -5.8400    -7.9670    -1.7000 H     1 <1>   0.0800 
 44 H       -5.3990   -10.3610     2.7930 H     1 <1>   0.0800 
 45 H       -3.7800    -9.8720     2.4230 H     1 <1>   0.0800 
 46 H       -7.5610    -7.5430     0.4990 H     1 <1>   0.4000 
@<TRIPOS>BOND
  1   1   2  1   
  2   2   3  1   
  3   2   4  1   
  4   2  24  1   
  5   4   5  1   
  6   4   6  1   
  7   5   7  2   
  8   6   8  2   
  9   6  25  1   
 10   7   8  1   
 11   7   9  1   
 12   8  26  1   
 13   9  10  2   
 14   9  11  am  
 15  11  12  1   
 16  11  13  1   
 17  12  14  1   
 18  12  27  1   
 19  12  28  1   
 20  13  15  1   
 21  13  29  1   
 22  13  30  1   
 23  14  16  1   
 24  14  17  1   
 25  14  31  1   
 26  15  17  1   
 27  15  32  1   
 28  15  33  1   
 29  16  18  1   
 30  16  19  1   
 31  16  34  1   
 32  17  20  1   
 33  17  21  1   
 34  18  22  1   
 35  18  35  1   
 36  18  36  1   
 37  19  37  1   
 38  19  38  1   
 39  19  39  1   
 40  20  22  1   
 41  20  40  1   
 42  20  41  1   
 43  21  23  1   
 44  21  42  1   
 45  21  43  1   
 46  22  44  1   
 47  22  45  1   
 48  23  46  1   
@<TRIPOS>SUBSTRUCTURE
  1 ****  11 GROUP 4 **** **** 0

# MOE 2024.06 (io_trps.svl 2023.06)
