@<TRIPOS>MOLECULE
NONAME
51 53 1 0 0 
SMALL
USER_CHARGES


@<TRIPOS>ATOM
  1 O        1.5130    -0.2200    -2.5560 O.3   1 <1>  -0.6800 
  2 C        2.3120    -0.7480    -1.5610 C.3   1 <1>   0.1200 
  3 C        2.6050     0.3740    -0.5550 C.3   1 <1>   0.3430 
  4 N        3.6790     0.0320     0.4420 N.4   1 <1>  -0.9590 
  5 C        3.3220    -1.0920     1.3340 C.3   1 <1>   0.5230 
  6 C        4.0940     1.2330     1.2170 C.3   1 <1>   0.5240 
  7 C        4.0430    -2.3020     0.8030 C.2   1 <1>  -0.3320 
  8 C        4.5150     2.3450     0.2790 C.2   1 <1>  -0.1810 
  9 N        5.3530    -2.5820     0.9970 N.pl3 1 <1>   0.0480 
 10 C        3.5400    -3.3230     0.0730 C.2   1 <1>   0.0770 
 11 C        5.5620     2.2710    -0.6440 C.2   1 <1>   0.2350 
 12 C        3.9950     3.5820     0.1340 C.2   1 <1>  -0.3020 
 13 C        5.5520    -3.7440     0.3380 C.2   1 <1>   0.0360 
 14 C        6.3560    -1.8840     1.8240 C.3   1 <1>   0.0160 
 15 N        4.4930    -4.2120    -0.2350 N.2   1 <1>  -0.5650 
 16 N        5.6700     3.3860    -1.3120 N.2   1 <1>  -0.7070 
 17 C        6.3940     1.1070    -0.8480 C.ar  1 <1>   0.0540 
 18 N        4.7130     4.1920    -0.8310 N.pl3 1 <1>   0.3000 
 19 C        7.5740     0.8960    -0.1310 C.ar  1 <1>  -0.1430 
 20 C        5.9950     0.1420    -1.7690 C.ar  1 <1>  -0.1500 
 21 C        8.2970    -0.2700    -0.3180 C.ar  1 <1>  -0.1500 
 22 C        8.0920     1.9520     0.8370 C.3   1 <1>  -0.0970 
 23 C        6.7050    -1.0310    -1.9420 C.ar  1 <1>  -0.1430 
 24 C        7.8600    -1.2350    -1.2090 C.ar  1 <1>  -0.1500 
 25 C        6.2370    -2.0750    -2.9410 C.3   1 <1>  -0.0970 
 26 H        1.3170    -0.8810    -3.2550 H     1 <1>   0.4000 
 27 H        3.2170    -1.1130    -2.0170 H     1 <1>   0.0800 
 28 H        1.7690    -1.5530    -1.1000 H     1 <1>   0.0800 
 29 H        1.6930     0.6300    -0.0420 H     1 <1>   0.0800 
 30 H        2.9150     1.2340    -1.1270 H     1 <1>   0.0800 
 31 H        4.5050    -0.2800    -0.0930 H     1 <1>   0.4500 
 32 H        2.2570    -1.2560     1.3280 H     1 <1>   0.0800 
 33 H        3.6370    -0.9010     2.3480 H     1 <1>   0.0800 
 34 H        4.9220     0.9880     1.8620 H     1 <1>   0.0800 
 35 H        3.2760     1.5790     1.8280 H     1 <1>   0.0800 
 36 H        2.5280    -3.4860    -0.2620 H     1 <1>   0.1500 
 37 H        3.1790     4.0700     0.6400 H     1 <1>   0.1500 
 38 H        6.5130    -4.2290     0.3090 H     1 <1>   0.1500 
 39 H        6.3260    -0.8310     1.6270 H     1 <1>   0.0800 
 40 H        7.3360    -2.2570     1.5870 H     1 <1>   0.0800 
 41 H        6.1530    -2.0690     2.8630 H     1 <1>   0.0800 
 42 H        4.5770     5.1500    -1.1830 H     1 <1>   0.2700 
 43 H        5.1220     0.3320    -2.3680 H     1 <1>   0.1500 
 44 H        9.2150    -0.4350     0.2210 H     1 <1>   0.1500 
 45 H        7.4110     2.0820     1.6570 H     1 <1>   0.0800 
 46 H        8.1960     2.8930     0.3230 H     1 <1>   0.0800 
 47 H        9.0550     1.6810     1.2290 H     1 <1>   0.0800 
 48 H        8.4320    -2.1370    -1.3420 H     1 <1>   0.1500 
 49 H        5.7470    -1.6070    -3.7760 H     1 <1>   0.0800 
 50 H        5.5500    -2.7570    -2.4720 H     1 <1>   0.0800 
 51 H        7.0730    -2.6370    -3.3170 H     1 <1>   0.0800 
@<TRIPOS>BOND
  1   1   2  1   
  2   1  26  1   
  3   2   3  1   
  4   2  27  1   
  5   2  28  1   
  6   3   4  1   
  7   3  29  1   
  8   3  30  1   
  9   4   5  1   
 10   4   6  1   
 11   4  31  1   
 12   5   7  1   
 13   5  32  1   
 14   5  33  1   
 15   6   8  1   
 16   6  34  1   
 17   6  35  1   
 18   7   9  1   
 19   7  10  2   
 20   8  11  1   
 21   8  12  2   
 22   9  13  1   
 23   9  14  1   
 24  10  15  1   
 25  10  36  1   
 26  11  16  2   
 27  11  17  1   
 28  12  18  1   
 29  12  37  1   
 30  13  15  2   
 31  13  38  1   
 32  14  39  1   
 33  14  40  1   
 34  14  41  1   
 35  16  18  1   
 36  17  19  ar  
 37  17  20  ar  
 38  18  42  1   
 39  19  21  ar  
 40  19  22  1   
 41  20  23  ar  
 42  20  43  1   
 43  21  24  ar  
 44  21  44  1   
 45  22  45  1   
 46  22  46  1   
 47  22  47  1   
 48  23  24  ar  
 49  23  25  1   
 50  24  48  1   
 51  25  49  1   
 52  25  50  1   
 53  25  51  1   
@<TRIPOS>SUBSTRUCTURE
  1 ****   4 GROUP 4 **** **** 0

# MOE 2024.06 (io_trps.svl 2023.06)
