@<TRIPOS>MOLECULE
NONAME
56 59 1 0 0 
SMALL
USER_CHARGES


@<TRIPOS>ATOM
  1 O        0.8940    -2.6000    -3.0410 O.2   1 <1>  -0.5700 
  2 C        1.0910    -2.7320    -1.8580 C.2   1 <1>   0.5690 
  3 N        1.8470    -1.9250    -1.0790 N.am  1 <1>  -0.6600 
  4 C        0.4980    -3.8490    -1.0490 C.3   1 <1>  -0.0990 
  5 C        1.8900    -2.3810     0.3210 C.3   1 <1>   0.1400 
  6 C        2.6580    -0.7730    -1.5380 C.3   1 <1>   0.0600 
  7 C        0.7270    -3.3880     0.4040 C.3   1 <1>  -0.0190 
  8 C        0.9530    -4.5410     1.3800 C.2   1 <1>   0.5690 
  9 O        2.0760    -4.7240     1.7880 O.2   1 <1>  -0.5700 
 10 N       -0.0880    -5.3490     1.7740 N.am  1 <1>  -0.6600 
 11 C        0.1400    -6.5130     2.6780 C.3   1 <1>   0.1400 
 12 C       -1.5110    -5.2290     1.3470 C.3   1 <1>   0.1400 
 13 C       -0.2400    -7.8010     1.9430 C.3   1 <1>  -0.1600 
 14 C       -1.9070    -6.4920     0.5800 C.3   1 <1>  -0.1600 
 15 C       -1.6850    -7.7620     1.4220 C.3   1 <1>   0.4240 
 16 O       -2.4910    -7.6650     2.5740 O.3   1 <1>  -0.5600 
 17 C       -2.0000    -9.0340     0.6070 C.ar  1 <1>  -0.1430 
 18 C       -3.8210    -8.0700     2.4710 C.3   1 <1>   0.1200 
 19 C       -3.0280    -9.8910     0.9740 C.ar  1 <1>  -0.1430 
 20 C       -1.2570    -9.3470    -0.5240 C.ar  1 <1>  -0.1500 
 21 C       -3.8600    -9.5710     2.2000 C.3   1 <1>  -0.0170 
 22 C       -3.3000   -11.0280     0.2300 C.ar  1 <1>  -0.1500 
 23 C       -1.5100   -10.4810    -1.2770 C.ar  1 <1>   0.0820 
 24 C       -2.5570   -11.3380    -0.9060 C.ar  1 <1>   0.0820 
 25 O       -0.6830   -10.6500    -2.3480 O.3   1 <1>  -0.3630 
 26 O       -2.8410   -12.4380    -1.6640 O.3   1 <1>  -0.3620 
 27 C       -0.3180   -11.9380    -2.7920 C.3   1 <1>   0.0400 
 28 C       -3.9830   -13.2350    -1.4350 C.3   1 <1>   0.0400 
 29 H        1.0410    -4.7530    -1.2610 H     1 <1>   0.0800 
 30 H       -0.5420    -3.9770    -1.2820 H     1 <1>   0.0800 
 31 H        1.7490    -1.5610     1.0030 H     1 <1>   0.0800 
 32 H        2.8440    -2.8470     0.5020 H     1 <1>   0.0800 
 33 H        2.5210    -0.6270    -2.5970 H     1 <1>   0.0800 
 34 H        3.7000    -0.9610    -1.3450 H     1 <1>   0.0800 
 35 H        2.3520     0.1180    -1.0200 H     1 <1>   0.0800 
 36 H       -0.1280    -2.8270     0.7320 H     1 <1>   0.0800 
 37 H       -0.4660    -6.4000     3.5620 H     1 <1>   0.0800 
 38 H        1.1690    -6.5670     2.9880 H     1 <1>   0.0800 
 39 H       -1.6720    -4.3670     0.7290 H     1 <1>   0.0800 
 40 H       -2.1300    -5.1250     2.2230 H     1 <1>   0.0800 
 41 H       -0.1260    -8.6430     2.6000 H     1 <1>   0.0800 
 42 H        0.4470    -7.9330     1.1280 H     1 <1>   0.0800 
 43 H       -1.3130    -6.5450    -0.3130 H     1 <1>   0.0800 
 44 H       -2.9330    -6.4310     0.2720 H     1 <1>   0.0800 
 45 H       -4.2990    -7.5210     1.6790 H     1 <1>   0.0800 
 46 H       -4.3080    -7.8430     3.4020 H     1 <1>   0.0800 
 47 H       -0.4550    -8.7080    -0.8450 H     1 <1>   0.1500 
 48 H       -4.8800    -9.8760     2.0500 H     1 <1>   0.0800 
 49 H       -3.4690   -10.0980     3.0520 H     1 <1>   0.0800 
 50 H       -4.1010   -11.6630     0.5530 H     1 <1>   0.1500 
 51 H        0.5840   -11.8500    -3.3690 H     1 <1>   0.0800 
 52 H       -1.1070   -12.3280    -3.4090 H     1 <1>   0.0800 
 53 H       -0.1510   -12.5710    -1.9380 H     1 <1>   0.0800 
 54 H       -4.0220   -13.9880    -2.2000 H     1 <1>   0.0800 
 55 H       -4.8590   -12.6130    -1.4890 H     1 <1>   0.0800 
 56 H       -3.8960   -13.7000    -0.4690 H     1 <1>   0.0800 
@<TRIPOS>BOND
  1   1   2  2   
  2   2   3  am  
  3   2   4  1   
  4   3   5  1   
  5   3   6  1   
  6   4   7  1   
  7   4  29  1   
  8   4  30  1   
  9   5   7  1   
 10   5  31  1   
 11   5  32  1   
 12   6  33  1   
 13   6  34  1   
 14   6  35  1   
 15   7   8  1   
 16   7  36  1   
 17   8   9  2   
 18   8  10  am  
 19  10  11  1   
 20  10  12  1   
 21  11  13  1   
 22  11  37  1   
 23  11  38  1   
 24  12  14  1   
 25  12  39  1   
 26  12  40  1   
 27  13  15  1   
 28  13  41  1   
 29  13  42  1   
 30  14  15  1   
 31  14  43  1   
 32  14  44  1   
 33  15  16  1   
 34  15  17  1   
 35  16  18  1   
 36  17  19  ar  
 37  17  20  ar  
 38  18  21  1   
 39  18  45  1   
 40  18  46  1   
 41  19  21  1   
 42  19  22  ar  
 43  20  23  ar  
 44  20  47  1   
 45  21  48  1   
 46  21  49  1   
 47  22  24  ar  
 48  22  50  1   
 49  23  24  ar  
 50  23  25  1   
 51  24  26  1   
 52  25  27  1   
 53  26  28  1   
 54  27  51  1   
 55  27  52  1   
 56  27  53  1   
 57  28  54  1   
 58  28  55  1   
 59  28  56  1   
@<TRIPOS>SUBSTRUCTURE
  1 ****  14 GROUP 4 **** **** 0

# MOE 2024.06 (io_trps.svl 2023.06)
