@<TRIPOS>MOLECULE
NONAME
40 42 1 0 0 
SMALL
USER_CHARGES


@<TRIPOS>ATOM
  1 F       -0.0200    -0.4270     0.3210 F     1 <1>  -0.1900 
  2 C       -0.0480    -1.7290     0.2740 C.ar  1 <1>   0.1900 
  3 C       -0.6950    -2.4210     1.2800 C.ar  1 <1>  -0.1500 
  4 C        0.5720    -2.3750    -0.7770 C.ar  1 <1>  -0.1500 
  5 C       -0.7220    -3.8040     1.2220 C.ar  1 <1>  -0.1500 
  6 C        0.5340    -3.7580    -0.8190 C.ar  1 <1>  -0.1500 
  7 C       -0.1190    -4.5010     0.1690 C.ar  1 <1>   0.0860 
  8 C       -0.1550    -5.9500     0.0970 C.2   1 <1>   0.5440 
  9 O        0.8640    -6.5660    -0.1510 O.2   1 <1>  -0.5700 
 10 N       -1.3220    -6.6560     0.2810 N.am  1 <1>  -0.6600 
 11 C       -2.6860    -6.0950     0.1040 C.3   1 <1>   0.1400 
 12 C       -1.3610    -8.1400     0.2230 C.3   1 <1>   0.1400 
 13 C       -3.5350    -7.2770    -0.3600 C.3   1 <1>   0.2000 
 14 C       -2.8460    -8.5100     0.2150 C.3   1 <1>  -0.0800 
 15 O       -4.8350    -7.1870     0.1080 O.3   1 <1>  -0.6800 
 16 C       -3.1530    -9.7970    -0.5640 C.3   1 <1>   0.0210 
 17 C       -2.3750   -10.9690     0.0010 C.2   1 <1>   0.1080 
 18 N       -2.5630   -11.4220     1.2010 N.2   1 <1>  -0.7070 
 19 C       -1.3850   -11.6700    -0.6780 C.2   1 <1>  -0.1500 
 20 N       -1.6880   -12.4390     1.3200 N.pl3 1 <1>   0.3000 
 21 C       -0.9620   -12.6080     0.1950 C.2   1 <1>  -0.3320 
 22 C        0.1080   -13.6690     0.0220 C.3   1 <1>  -0.0600 
 23 H       -1.1590    -1.8840     2.0880 H     1 <1>   0.1500 
 24 H        1.0730    -1.8060    -1.5400 H     1 <1>   0.1500 
 25 H       -1.2100    -4.3600     2.0030 H     1 <1>   0.1500 
 26 H        1.0170    -4.2850    -1.6250 H     1 <1>   0.1500 
 27 H       -3.0410    -5.7240     1.0490 H     1 <1>   0.0800 
 28 H       -2.6880    -5.3100    -0.6330 H     1 <1>   0.0800 
 29 H       -0.8760    -8.4690    -0.6800 H     1 <1>   0.0800 
 30 H       -0.8550    -8.5680     1.0720 H     1 <1>   0.0800 
 31 H       -3.5600    -7.3040    -1.4360 H     1 <1>   0.0800 
 32 H       -3.1410    -8.6440     1.2420 H     1 <1>   0.0800 
 33 H       -4.8630    -7.3710     1.0670 H     1 <1>   0.4000 
 34 H       -2.9050    -9.6710    -1.6020 H     1 <1>   0.0800 
 35 H       -4.2040   -10.0160    -0.4960 H     1 <1>   0.0800 
 36 H       -1.0470   -11.4830    -1.6820 H     1 <1>   0.1500 
 37 H       -1.6120   -12.9960     2.1800 H     1 <1>   0.2700 
 38 H        0.5420   -13.5990    -0.9600 H     1 <1>   0.0800 
 39 H       -0.3170   -14.6500     0.1390 H     1 <1>   0.0800 
 40 H        0.8880   -13.5340     0.7510 H     1 <1>   0.0800 
@<TRIPOS>BOND
  1   1   2  1   
  2   2   3  ar  
  3   2   4  ar  
  4   3   5  ar  
  5   3  23  1   
  6   4   6  ar  
  7   4  24  1   
  8   5   7  ar  
  9   5  25  1   
 10   6   7  ar  
 11   6  26  1   
 12   7   8  1   
 13   8   9  2   
 14   8  10  am  
 15  10  11  1   
 16  10  12  1   
 17  11  13  1   
 18  11  27  1   
 19  11  28  1   
 20  12  14  1   
 21  12  29  1   
 22  12  30  1   
 23  13  14  1   
 24  13  15  1   
 25  13  31  1   
 26  14  16  1   
 27  14  32  1   
 28  15  33  1   
 29  16  17  1   
 30  16  34  1   
 31  16  35  1   
 32  17  18  2   
 33  17  19  1   
 34  18  20  1   
 35  19  21  2   
 36  19  36  1   
 37  20  21  1   
 38  20  37  1   
 39  21  22  1   
 40  22  38  1   
 41  22  39  1   
 42  22  40  1   
@<TRIPOS>SUBSTRUCTURE
  1 ****  10 GROUP 4 **** **** 0

# MOE 2024.06 (io_trps.svl 2023.06)
