@<TRIPOS>MOLECULE
NONAME
46 47 1 0 0 
SMALL
USER_CHARGES


@<TRIPOS>ATOM
  1 O        0.1770     0.1520    -0.1030 O.3   1 <1>  -0.5600 
  2 C        1.2650    -0.5600    -0.6210 C.3   1 <1>   0.3440 
  3 C        0.0780     1.4880    -0.5100 C.3   1 <1>   0.2000 
  4 C        1.2300    -1.9920    -0.1080 C.ar  1 <1>  -0.1440 
  5 C        2.5800     0.1140    -0.1720 C.3   1 <1>   0.3430 
  6 C       -1.2290     2.0740     0.0650 C.3   1 <1>  -0.0800 
  7 C        1.3320     2.2590    -0.0320 C.3   1 <1>   0.3430 
  8 C        0.8210    -2.2830     1.1870 C.ar  1 <1>  -0.1500 
  9 C        1.6290    -3.0310    -0.9380 C.ar  1 <1>  -0.1500 
 10 N        2.6230     1.6010    -0.4680 N.4   1 <1>  -0.9590 
 11 C       -2.4570     1.2770    -0.4060 C.3   1 <1>  -0.2400 
 12 C       -1.4200     3.5500    -0.3260 C.3   1 <1>  -0.2400 
 13 C        0.8210    -3.5880     1.6470 C.ar  1 <1>  -0.1500 
 14 C        1.6290    -4.3370    -0.4780 C.ar  1 <1>  -0.1500 
 15 C        3.8120     2.3130     0.1300 C.3   1 <1>   0.4230 
 16 C        1.2260    -4.6160     0.8160 C.ar  1 <1>  -0.1500 
 17 C        5.1250     1.9220    -0.5920 C.3   1 <1>   0.1200 
 18 C        3.9270     2.1120     1.6620 C.3   1 <1>   0.1200 
 19 O        6.1920     2.6490    -0.0750 O.3   1 <1>  -0.6800 
 20 O        4.5360     3.2200     2.2260 O.3   1 <1>  -0.6800 
 21 H        1.1830    -0.5620    -1.6940 H     1 <1>   0.0800 
 22 H        0.0200     1.5080    -1.5860 H     1 <1>   0.0800 
 23 H        3.4050    -0.3860    -0.6510 H     1 <1>   0.0800 
 24 H        2.6750    -0.0500     0.8890 H     1 <1>   0.0800 
 25 H       -1.1860     2.0170     1.1400 H     1 <1>   0.0800 
 26 H        1.2900     2.3160     1.0430 H     1 <1>   0.0800 
 27 H        1.2910     3.2670    -0.4110 H     1 <1>   0.0800 
 28 H        0.4900    -1.4980     1.8470 H     1 <1>   0.1500 
 29 H        1.9400    -2.8440    -1.9510 H     1 <1>   0.1500 
 30 H        2.6750     1.7180    -1.4880 H     1 <1>   0.4500 
 31 H       -2.5400     1.2950    -1.4790 H     1 <1>   0.0800 
 32 H       -3.3580     1.6900     0.0130 H     1 <1>   0.0800 
 33 H       -2.3890     0.2510    -0.0870 H     1 <1>   0.0800 
 34 H       -1.4330     3.6650    -1.3960 H     1 <1>   0.0800 
 35 H       -0.6470     4.1740     0.0850 H     1 <1>   0.0800 
 36 H       -2.3590     3.9120     0.0570 H     1 <1>   0.0800 
 37 H        0.5000    -3.8060     2.6520 H     1 <1>   0.1500 
 38 H        1.9370    -5.1400    -1.1250 H     1 <1>   0.1500 
 39 H        3.6660     3.3690    -0.0340 H     1 <1>   0.0800 
 40 H        1.2240    -5.6310     1.1730 H     1 <1>   0.1500 
 41 H        5.0580     2.1480    -1.6420 H     1 <1>   0.0800 
 42 H        5.3470     0.8780    -0.4540 H     1 <1>   0.0800 
 43 H        4.5220     1.2480     1.9020 H     1 <1>   0.0800 
 44 H        2.9630     2.0220     2.1280 H     1 <1>   0.0800 
 45 H        7.0300     2.4580    -0.5510 H     1 <1>   0.4000 
 46 H        5.4460     3.3340     1.8620 H     1 <1>   0.4000 
@<TRIPOS>BOND
  1   1   2  1   
  2   1   3  1   
  3   2   4  1   
  4   2   5  1   
  5   2  21  1   
  6   3   6  1   
  7   3   7  1   
  8   3  22  1   
  9   4   8  ar  
 10   4   9  ar  
 11   5  10  1   
 12   5  23  1   
 13   5  24  1   
 14   6  11  1   
 15   6  12  1   
 16   6  25  1   
 17   7  10  1   
 18   7  26  1   
 19   7  27  1   
 20   8  13  ar  
 21   8  28  1   
 22   9  14  ar  
 23   9  29  1   
 24  10  15  1   
 25  10  30  1   
 26  11  31  1   
 27  11  32  1   
 28  11  33  1   
 29  12  34  1   
 30  12  35  1   
 31  12  36  1   
 32  13  16  ar  
 33  13  37  1   
 34  14  16  ar  
 35  14  38  1   
 36  15  17  1   
 37  15  18  1   
 38  15  39  1   
 39  16  40  1   
 40  17  19  1   
 41  17  41  1   
 42  17  42  1   
 43  18  20  1   
 44  18  43  1   
 45  18  44  1   
 46  19  45  1   
 47  20  46  1   
@<TRIPOS>SUBSTRUCTURE
  1 ****   5 GROUP 4 **** **** 0

# MOE 2024.06 (io_trps.svl 2023.06)
