@<TRIPOS>MOLECULE
NONAME
54 58 1 0 0 
SMALL
USER_CHARGES


@<TRIPOS>ATOM
  1 O        0.2000     0.2920    -0.0750 O.2   1 <1>  -0.5700 
  2 C       -0.3210     1.3460     0.2040 C.2   1 <1>   0.5690 
  3 N       -1.6860     1.4690     0.2650 N.am  1 <1>  -0.6600 
  4 C        0.5720     2.5450     0.4940 C.3   1 <1>  -0.0990 
  5 C       -2.4330     2.7240     0.5940 C.3   1 <1>   0.1400 
  6 C       -2.5470     0.2730     0.0050 C.3   1 <1>   0.1400 
  7 C        2.0690     2.2600     0.3030 C.3   1 <1>   0.0210 
  8 C       -3.3880     3.1240    -0.5550 C.3   1 <1>   0.1440 
  9 C       -4.0080     0.6540    -0.2860 C.3   1 <1>  -0.1600 
 10 C        2.9370     3.4790     0.5770 C.2   1 <1>  -0.1810 
 11 C       -4.3800     4.1240     0.0140 C.ar  1 <1>   0.1660 
 12 C       -4.0830     1.8910    -1.1940 C.3   1 <1>  -0.1600 
 13 C       -2.6590     3.9710    -1.6310 C.3   1 <1>  -0.1600 
 14 C        4.3350     3.4830     0.3660 C.ar  1 <1>   0.0000 
 15 C        2.5940     4.7070     1.0420 C.2   1 <1>  -0.3020 
 16 N       -5.3890     3.8340     0.8070 N.ar  1 <1>  -0.6200 
 17 C       -4.0940     5.3970    -0.3800 C.ar  1 <1>  -0.1440 
 18 C       -2.8760     5.4500    -1.2670 C.3   1 <1>  -0.0170 
 19 C        4.7870     4.7500     0.7220 C.ar  1 <1>  -0.1520 
 20 C        5.2510     2.5300    -0.0930 C.ar  1 <1>  -0.1500 
 21 N        3.7100     5.4890     1.1350 N.pl3 1 <1>   0.0330 
 22 C       -6.1140     4.8800     1.1780 C.ar  1 <1>   0.4770 
 23 C       -4.9110     6.4060     0.0650 C.ar  1 <1>   0.1600 
 24 C        6.1410     5.0840     0.6270 C.ar  1 <1>  -0.1500 
 25 C        6.5840     2.8590    -0.1860 C.ar  1 <1>  -0.1500 
 26 N       -5.9360     6.1540     0.8530 N.ar  1 <1>  -0.6200 
 27 C       -7.2900     4.5890     2.0780 C.3   1 <1>  -0.0970 
 28 C        7.0290     4.1370     0.1740 C.ar  1 <1>  -0.1500 
 29 H        0.4050     2.8520     1.5090 H     1 <1>   0.0800 
 30 H        0.2950     3.3470    -0.1630 H     1 <1>   0.0800 
 31 H       -1.7700     3.5390     0.8170 H     1 <1>   0.0800 
 32 H       -3.0120     2.5390     1.4820 H     1 <1>   0.0800 
 33 H       -2.5010    -0.3880     0.8550 H     1 <1>   0.0800 
 34 H       -2.1480    -0.2560    -0.8440 H     1 <1>   0.0800 
 35 H        2.2410     1.9340    -0.7080 H     1 <1>   0.0800 
 36 H        2.3710     1.4650     0.9620 H     1 <1>   0.0800 
 37 H       -4.5230     0.8500     0.6390 H     1 <1>   0.0800 
 38 H       -4.5030    -0.1780    -0.7560 H     1 <1>   0.0800 
 39 H       -3.5960     1.6380    -2.1190 H     1 <1>   0.0800 
 40 H       -5.1100     2.1210    -1.4190 H     1 <1>   0.0800 
 41 H       -3.1200     3.8050    -2.5900 H     1 <1>   0.0800 
 42 H       -1.6160     3.7200    -1.7130 H     1 <1>   0.0800 
 43 H        1.6240     5.0790     1.3180 H     1 <1>   0.1500 
 44 H       -3.0440     6.0530    -2.1420 H     1 <1>   0.0800 
 45 H       -2.0380     5.8340    -0.7110 H     1 <1>   0.0800 
 46 H        4.8980     1.5530    -0.3660 H     1 <1>   0.1500 
 47 H        3.7560     6.4590     1.4620 H     1 <1>   0.2700 
 48 H       -4.7280     7.4270    -0.2220 H     1 <1>   0.1500 
 49 H        6.4740     6.0670     0.9070 H     1 <1>   0.1500 
 50 H        7.2980     2.1350    -0.5370 H     1 <1>   0.1500 
 51 H       -7.1630     3.6400     2.5650 H     1 <1>   0.0800 
 52 H       -8.1880     4.5660     1.4900 H     1 <1>   0.0800 
 53 H       -7.3770     5.3560     2.8250 H     1 <1>   0.0800 
 54 H        8.0760     4.3680     0.0920 H     1 <1>   0.1500 
@<TRIPOS>BOND
  1   1   2  2   
  2   2   3  am  
  3   2   4  1   
  4   3   5  1   
  5   3   6  1   
  6   4   7  1   
  7   4  29  1   
  8   4  30  1   
  9   5   8  1   
 10   5  31  1   
 11   5  32  1   
 12   6   9  1   
 13   6  33  1   
 14   6  34  1   
 15   7  10  1   
 16   7  35  1   
 17   7  36  1   
 18   8  11  1   
 19   8  12  1   
 20   8  13  1   
 21   9  12  1   
 22   9  37  1   
 23   9  38  1   
 24  10  14  1   
 25  10  15  2   
 26  11  16  ar  
 27  11  17  ar  
 28  12  39  1   
 29  12  40  1   
 30  13  18  1   
 31  13  41  1   
 32  13  42  1   
 33  14  19  ar  
 34  14  20  ar  
 35  15  21  1   
 36  15  43  1   
 37  16  22  ar  
 38  17  18  1   
 39  17  23  ar  
 40  18  44  1   
 41  18  45  1   
 42  19  21  1   
 43  19  24  ar  
 44  20  25  ar  
 45  20  46  1   
 46  21  47  1   
 47  22  26  ar  
 48  22  27  1   
 49  23  26  ar  
 50  23  48  1   
 51  24  28  ar  
 52  24  49  1   
 53  25  28  ar  
 54  25  50  1   
 55  27  51  1   
 56  27  52  1   
 57  27  53  1   
 58  28  54  1   
@<TRIPOS>SUBSTRUCTURE
  1 ****   4 GROUP 4 **** **** 0

# MOE 2024.06 (io_trps.svl 2023.06)
