@<TRIPOS>MOLECULE
NONAME
37 37 1 0 0 
SMALL
USER_CHARGES


@<TRIPOS>ATOM
  1 O        0.3750    -0.1880    -1.9430 O.2   1 <1>  -0.5700 
  2 C       -0.2740    -0.3240    -0.9290 C.2   1 <1>   0.7800 
  3 O       -1.0920     0.6660    -0.5750 O.3   1 <1>  -0.4300 
  4 N       -0.1900    -1.4440    -0.1790 N.am  1 <1>  -0.7300 
  5 C       -2.0480     0.7290     0.4610 C.3   1 <1>   0.2800 
  6 C        0.4240    -2.6910    -0.6200 C.3   1 <1>   0.3640 
  7 C       -2.7090     2.0990     0.3030 C.3   1 <1>  -0.2400 
  8 C       -1.3590     0.6610     1.8300 C.3   1 <1>  -0.2400 
  9 C       -3.1090    -0.3640     0.2780 C.3   1 <1>  -0.2400 
 10 C       -0.4570    -3.8310    -0.1230 C.ar  1 <1>  -0.1440 
 11 C        1.8460    -2.7670    -0.0710 C.3   1 <1>  -0.2400 
 12 C       -1.1280    -4.6260    -1.0380 C.ar  1 <1>  -0.1500 
 13 C       -0.6170    -4.0860     1.2350 C.ar  1 <1>  -0.1500 
 14 C       -1.9500    -5.6640    -0.6220 C.ar  1 <1>   0.1000 
 15 C       -1.4300    -5.1220     1.6610 C.ar  1 <1>  -0.1500 
 16 N       -2.6210    -6.4400    -1.5470 N.pl3 1 <1>  -0.9000 
 17 C       -2.0910    -5.9080     0.7360 C.ar  1 <1>  -0.1500 
 18 H       -0.8480    -1.5550     0.5850 H     1 <1>   0.3700 
 19 H        0.4660    -2.7080    -1.6970 H     1 <1>   0.0800 
 20 H       -3.4620     2.2440     1.0550 H     1 <1>   0.0800 
 21 H       -3.1750     2.1780    -0.6640 H     1 <1>   0.0800 
 22 H       -1.9760     2.8800     0.4000 H     1 <1>   0.0800 
 23 H       -2.0700     0.8810     2.6050 H     1 <1>   0.0800 
 24 H       -0.5690     1.3900     1.8820 H     1 <1>   0.0800 
 25 H       -0.9550    -0.3110     2.0330 H     1 <1>   0.0800 
 26 H       -3.9170    -0.2050     0.9700 H     1 <1>   0.0800 
 27 H       -2.7190    -1.3460     0.4620 H     1 <1>   0.0800 
 28 H       -3.5100    -0.3260    -0.7190 H     1 <1>   0.0800 
 29 H        1.8570    -2.6730     0.9990 H     1 <1>   0.0800 
 30 H        2.4410    -1.9820    -0.5010 H     1 <1>   0.0800 
 31 H        2.2850    -3.7110    -0.3400 H     1 <1>   0.0800 
 32 H       -1.0190    -4.4470    -2.0920 H     1 <1>   0.1500 
 33 H       -0.1090    -3.4850     1.9680 H     1 <1>   0.1500 
 34 H       -1.5450    -5.3190     2.7130 H     1 <1>   0.1500 
 35 H       -2.7790    -6.0180    -2.4660 H     1 <1>   0.4000 
 36 H       -3.4480    -6.9390    -1.2070 H     1 <1>   0.4000 
 37 H       -2.7170    -6.7160     1.0660 H     1 <1>   0.1500 
@<TRIPOS>BOND
  1   1   2  2   
  2   2   3  1   
  3   2   4  am  
  4   3   5  1   
  5   4   6  1   
  6   4  18  1   
  7   5   7  1   
  8   5   8  1   
  9   5   9  1   
 10   6  10  1   
 11   6  11  1   
 12   6  19  1   
 13   7  20  1   
 14   7  21  1   
 15   7  22  1   
 16   8  23  1   
 17   8  24  1   
 18   8  25  1   
 19   9  26  1   
 20   9  27  1   
 21   9  28  1   
 22  10  12  ar  
 23  10  13  ar  
 24  11  29  1   
 25  11  30  1   
 26  11  31  1   
 27  12  14  ar  
 28  12  32  1   
 29  13  15  ar  
 30  13  33  1   
 31  14  16  1   
 32  14  17  ar  
 33  15  17  ar  
 34  15  34  1   
 35  16  35  1   
 36  16  36  1   
 37  17  37  1   
@<TRIPOS>SUBSTRUCTURE
  1 ****   4 GROUP 4 **** **** 0

# MOE 2024.06 (io_trps.svl 2023.06)
