@<TRIPOS>MOLECULE
NONAME
47 49 1 0 0 
SMALL
USER_CHARGES


@<TRIPOS>ATOM
  1 O       -2.0350     0.2530     1.6910 O.2   1 <1>  -0.5700 
  2 C       -2.3510     0.6890     0.6100 C.2   1 <1>   0.5690 
  3 N       -2.6920    -0.1240    -0.4370 N.am  1 <1>  -0.6600 
  4 C       -2.3210     2.1970     0.4550 C.3   1 <1>  -0.0990 
  5 C       -2.5150    -1.6120    -0.2870 C.3   1 <1>   0.3640 
  6 C       -3.2870     0.3830    -1.7140 C.3   1 <1>   0.1400 
  7 C       -0.9580     2.6470    -0.0780 C.3   1 <1>   0.0200 
  8 C       -1.0570    -2.0030    -0.5620 C.ar  1 <1>  -0.1440 
  9 C       -3.4730    -2.4860    -1.1560 C.3   1 <1>   0.2000 
 10 C       -3.6370    -0.7330    -2.7050 C.3   1 <1>   0.1200 
 11 C       -0.9050     4.1600    -0.2110 C.2   1 <1>  -0.3320 
 12 C       -0.4720    -2.9830     0.2280 C.ar  1 <1>  -0.1500 
 13 C       -0.2990    -1.4220    -1.5730 C.ar  1 <1>  -0.1500 
 14 O       -4.2950    -1.7510    -2.0290 O.3   1 <1>  -0.5600 
 15 C       -4.4040    -3.3500    -0.2950 C.3   1 <1>   0.1200 
 16 N       -0.7570     5.0300     0.8160 N.pl3 1 <1>   0.3140 
 17 C       -0.9880     4.9010    -1.3370 C.2   1 <1>  -0.1500 
 18 C        0.8350    -3.3800     0.0120 C.ar  1 <1>  -0.1500 
 19 C        1.0090    -1.8180    -1.7910 C.ar  1 <1>  -0.1500 
 20 O       -3.6700    -4.2830     0.4330 O.3   1 <1>  -0.6800 
 21 N       -0.7530     6.3010     0.3820 N.2   1 <1>  -0.7070 
 22 C       -0.6040     4.7250     2.2460 C.3   1 <1>   0.0160 
 23 C       -0.8890     6.2170    -0.9050 C.2   1 <1>   0.1390 
 24 C        1.5770    -2.7990    -1.0000 C.ar  1 <1>  -0.1500 
 25 H       -3.1060     2.5380    -0.1920 H     1 <1>   0.0800 
 26 H       -2.4920     2.6350     1.4200 H     1 <1>   0.0800 
 27 H       -2.7100    -1.8590     0.7430 H     1 <1>   0.0800 
 28 H       -4.1930     0.9170    -1.4820 H     1 <1>   0.0800 
 29 H       -2.6070     1.0700    -2.1840 H     1 <1>   0.0800 
 30 H       -0.7860     2.2010    -1.0420 H     1 <1>   0.0800 
 31 H       -0.1750     2.3050     0.5780 H     1 <1>   0.0800 
 32 H       -2.8860    -3.1430    -1.7740 H     1 <1>   0.0800 
 33 H       -2.7580    -1.1350    -3.1790 H     1 <1>   0.0800 
 34 H       -4.2980    -0.3590    -3.4660 H     1 <1>   0.0800 
 35 H       -1.0360    -3.4420     1.0230 H     1 <1>   0.1500 
 36 H       -0.7140    -0.6530    -2.1950 H     1 <1>   0.1500 
 37 H       -5.1030    -3.8850    -0.9140 H     1 <1>   0.0800 
 38 H       -4.9410    -2.7330     0.4040 H     1 <1>   0.0800 
 39 H       -1.1050     4.5820    -2.3570 H     1 <1>   0.1500 
 40 H        1.2750    -4.1400     0.6340 H     1 <1>   0.1500 
 41 H        1.5870    -1.3610    -2.5760 H     1 <1>   0.1500 
 42 H       -3.3140    -4.9800    -0.1520 H     1 <1>   0.4000 
 43 H        0.0370     3.8730     2.3670 H     1 <1>   0.0800 
 44 H       -1.5700     4.5220     2.6680 H     1 <1>   0.0800 
 45 H       -0.1690     5.5740     2.7400 H     1 <1>   0.0800 
 46 H       -0.9190     7.0770    -1.5530 H     1 <1>   0.1500 
 47 H        2.5950    -3.1070    -1.1670 H     1 <1>   0.1500 
@<TRIPOS>BOND
  1   1   2  2   
  2   2   3  am  
  3   2   4  1   
  4   3   5  1   
  5   3   6  1   
  6   4   7  1   
  7   4  25  1   
  8   4  26  1   
  9   5   8  1   
 10   5   9  1   
 11   5  27  1   
 12   6  10  1   
 13   6  28  1   
 14   6  29  1   
 15   7  11  1   
 16   7  30  1   
 17   7  31  1   
 18   8  12  ar  
 19   8  13  ar  
 20   9  14  1   
 21   9  15  1   
 22   9  32  1   
 23  10  14  1   
 24  10  33  1   
 25  10  34  1   
 26  11  16  1   
 27  11  17  2   
 28  12  18  ar  
 29  12  35  1   
 30  13  19  ar  
 31  13  36  1   
 32  15  20  1   
 33  15  37  1   
 34  15  38  1   
 35  16  21  1   
 36  16  22  1   
 37  17  23  1   
 38  17  39  1   
 39  18  24  ar  
 40  18  40  1   
 41  19  24  ar  
 42  19  41  1   
 43  20  42  1   
 44  21  23  2   
 45  22  43  1   
 46  22  44  1   
 47  22  45  1   
 48  23  46  1   
 49  24  47  1   
@<TRIPOS>SUBSTRUCTURE
  1 ****   3 GROUP 4 **** **** 0

# MOE 2024.06 (io_trps.svl 2023.06)
