@<TRIPOS>MOLECULE
NONAME
41 43 1 0 0 
SMALL
USER_CHARGES


@<TRIPOS>ATOM
  1 O       -0.2240    -0.9610    -0.1500 O.co2 1 <1>  -0.9000 
  2 C       -0.5370    -2.1620    -0.0130 C.2   1 <1>   0.9790 
  3 O        0.3950    -2.9970    -0.0400 O.co2 1 <1>  -0.9000 
  4 C       -1.9300    -2.6190     0.1650 C.ar  1 <1>   0.1310 
  5 N       -2.9710    -1.7870     0.2870 N.ar  1 <1>  -0.6200 
  6 C       -2.1870    -3.9800     0.2090 C.ar  1 <1>  -0.1500 
  7 C       -4.1840    -2.3030     0.4340 C.ar  1 <1>   0.7200 
  8 C       -3.4750    -4.4230     0.3710 C.ar  1 <1>   0.1660 
  9 N       -4.4830    -3.6000     0.4850 N.ar  1 <1>  -0.6200 
 10 N       -5.2360    -1.4120     0.5450 N.pl3 1 <1>  -0.8380 
 11 C       -3.7900    -5.9020     0.4220 C.3   1 <1>  -0.0970 
 12 C       -6.5560    -1.7830     1.1340 C.3   1 <1>   0.2090 
 13 C       -5.1060     0.0190     0.1610 C.3   1 <1>   0.2090 
 14 C       -7.7180    -1.4570     0.1640 C.3   1 <1>   0.0000 
 15 C       -6.2370     0.3930    -0.8020 C.3   1 <1>  -0.1600 
 16 C       -9.0470    -1.8320     0.8520 C.3   1 <1>   0.2000 
 17 C       -7.6260     0.0350    -0.2430 C.3   1 <1>  -0.1600 
 18 C       -7.6820    -2.4050    -1.0520 C.3   1 <1>  -0.1600 
 19 O      -10.1150    -1.2440     0.1960 O.3   1 <1>  -0.6800 
 20 C       -9.1830    -3.3410     0.6610 C.3   1 <1>  -0.1600 
 21 C       -8.4270    -3.6800    -0.6310 C.3   1 <1>  -0.1600 
 22 H       -1.3700    -4.6730     0.1160 H     1 <1>   0.1500 
 23 H       -2.8960    -6.4880     0.3160 H     1 <1>   0.0800 
 24 H       -4.4680    -6.1510    -0.3720 H     1 <1>   0.0800 
 25 H       -4.2520    -6.1360     1.3630 H     1 <1>   0.0800 
 26 H       -6.5760    -2.8230     1.4010 H     1 <1>   0.0800 
 27 H       -6.6830    -1.2200     2.0420 H     1 <1>   0.0800 
 28 H       -5.1570     0.6240     1.0490 H     1 <1>   0.0800 
 29 H       -4.1610     0.2150    -0.3190 H     1 <1>   0.0800 
 30 H       -6.1890     1.4480    -1.0030 H     1 <1>   0.0800 
 31 H       -6.0720    -0.1220    -1.7310 H     1 <1>   0.0800 
 32 H       -9.0890    -1.5350     1.8870 H     1 <1>   0.0800 
 33 H       -8.3710     0.2740    -0.9800 H     1 <1>   0.0800 
 34 H       -7.8200     0.6450     0.6230 H     1 <1>   0.0800 
 35 H       -8.1990    -1.9550    -1.8810 H     1 <1>   0.0800 
 36 H       -6.6750    -2.6250    -1.3660 H     1 <1>   0.0800 
 37 H      -10.0900    -1.5200    -0.7400 H     1 <1>   0.4000 
 38 H       -8.7050    -3.8410     1.4850 H     1 <1>   0.0800 
 39 H      -10.2130    -3.6550     0.6310 H     1 <1>   0.0800 
 40 H       -7.7210    -4.4730    -0.4460 H     1 <1>   0.0800 
 41 H       -9.1040    -3.9930    -1.4070 H     1 <1>   0.0800 
@<TRIPOS>BOND
  1   1   2  ar  
  2   2   3  ar  
  3   2   4  1   
  4   4   5  ar  
  5   4   6  ar  
  6   5   7  ar  
  7   6   8  ar  
  8   6  22  1   
  9   7   9  ar  
 10   7  10  1   
 11   8   9  ar  
 12   8  11  1   
 13  10  12  1   
 14  10  13  1   
 15  11  23  1   
 16  11  24  1   
 17  11  25  1   
 18  12  14  1   
 19  12  26  1   
 20  12  27  1   
 21  13  15  1   
 22  13  28  1   
 23  13  29  1   
 24  14  16  1   
 25  14  17  1   
 26  14  18  1   
 27  15  17  1   
 28  15  30  1   
 29  15  31  1   
 30  16  19  1   
 31  16  20  1   
 32  16  32  1   
 33  17  33  1   
 34  17  34  1   
 35  18  21  1   
 36  18  35  1   
 37  18  36  1   
 38  19  37  1   
 39  20  21  1   
 40  20  38  1   
 41  20  39  1   
 42  21  40  1   
 43  21  41  1   
@<TRIPOS>SUBSTRUCTURE
  1 ****   7 GROUP 4 **** **** 0

# MOE 2024.06 (io_trps.svl 2023.06)
