@<TRIPOS>MOLECULE
NONAME
58 62 1 0 0 
SMALL
USER_CHARGES


@<TRIPOS>ATOM
  1 O       -4.3840     1.8870     2.9480 O.2   1 <1>  -0.5700 
  2 C       -3.7500     2.4830     2.1120 C.2   1 <1>   0.5690 
  3 N       -3.6640     2.1610     0.8020 N.am  1 <1>  -0.6600 
  4 C       -2.9430     3.7150     2.4120 C.3   1 <1>  -0.0990 
  5 C       -2.7980     3.0740     0.0420 C.3   1 <1>   0.1400 
  6 C       -4.2320     0.9440     0.1740 C.3   1 <1>   0.1400 
  7 C       -2.5290     4.2270     1.0200 C.3   1 <1>  -0.1600 
  8 C       -5.7450     1.1050     0.0230 C.3   1 <1>  -0.0990 
  9 C       -6.3940    -0.0540    -0.7140 C.2   1 <1>   0.5690 
 10 O       -5.6760    -0.8350    -1.2950 O.2   1 <1>  -0.5700 
 11 N       -7.7600    -0.1840    -0.7310 N.am  1 <1>  -0.6600 
 12 C       -8.7300     0.7770    -0.1110 C.3   1 <1>   0.1400 
 13 C       -8.4190    -1.3410    -1.4020 C.3   1 <1>   0.1400 
 14 C       -9.7120     1.3270    -1.1640 C.3   1 <1>   0.1430 
 15 C       -9.4030    -0.8410    -2.4670 C.3   1 <1>  -0.1600 
 16 C      -10.6900     2.2560    -0.4680 C.ar  1 <1>   0.1670 
 17 C      -10.4190     0.1570    -1.8810 C.3   1 <1>  -0.1600 
 18 C       -9.0040     2.2800    -2.1670 C.3   1 <1>  -0.1600 
 19 N      -11.6580     1.8780     0.3310 N.ar  1 <1>  -0.6200 
 20 C      -10.4340     3.5610    -0.7540 C.ar  1 <1>  -0.1440 
 21 C       -9.2510     3.7170    -1.6750 C.3   1 <1>  -0.0170 
 22 C      -12.4080     2.8600     0.8480 C.ar  1 <1>   0.6200 
 23 C      -11.2450     4.5090    -0.1850 C.ar  1 <1>   0.1600 
 24 N      -12.2320     4.1690     0.6120 N.ar  1 <1>  -0.6200 
 25 C      -13.4980     2.4760     1.7360 C.ar  1 <1>   0.0000 
 26 C      -13.4450     1.3060     2.4990 C.ar  1 <1>  -0.1500 
 27 C      -14.6480     3.2600     1.8670 C.ar  1 <1>  -0.1500 
 28 C      -14.4780     0.9380     3.3420 C.ar  1 <1>  -0.1500 
 29 C      -15.6850     2.8990     2.7080 C.ar  1 <1>  -0.1500 
 30 C      -15.6020     1.7350     3.4490 C.ar  1 <1>  -0.1500 
 31 H       -2.0860     3.4330     2.9950 H     1 <1>   0.0800 
 32 H       -3.5350     4.4340     2.9470 H     1 <1>   0.0800 
 33 H       -3.2950     3.4200    -0.8490 H     1 <1>   0.0800 
 34 H       -1.8840     2.5670    -0.2190 H     1 <1>   0.0800 
 35 H       -4.0200     0.0900     0.7960 H     1 <1>   0.0800 
 36 H       -3.7740     0.7860    -0.7880 H     1 <1>   0.0800 
 37 H       -1.4980     4.5310     0.9930 H     1 <1>   0.0800 
 38 H       -3.1430     5.0660     0.7460 H     1 <1>   0.0800 
 39 H       -5.9540     2.0090    -0.5160 H     1 <1>   0.0800 
 40 H       -6.1700     1.1690     1.0080 H     1 <1>   0.0800 
 41 H       -8.2270     1.6000     0.3610 H     1 <1>   0.0800 
 42 H       -9.2870     0.2590     0.6510 H     1 <1>   0.0800 
 43 H       -8.9460    -1.9180    -0.6610 H     1 <1>   0.0800 
 44 H       -7.6890    -1.9840    -1.8630 H     1 <1>   0.0800 
 45 H       -9.9270    -1.6830    -2.8840 H     1 <1>   0.0800 
 46 H       -8.8460    -0.3800    -3.2640 H     1 <1>   0.0800 
 47 H      -11.0630     0.5300    -2.6570 H     1 <1>   0.0800 
 48 H      -11.0400    -0.3620    -1.1700 H     1 <1>   0.0800 
 49 H       -9.4600     2.1790    -3.1360 H     1 <1>   0.0800 
 50 H       -7.9550     2.0680    -2.2700 H     1 <1>   0.0800 
 51 H       -9.4670     4.3830    -2.4930 H     1 <1>   0.0800 
 52 H       -8.4040     4.0800    -1.1200 H     1 <1>   0.0800 
 53 H      -11.0830     5.5550    -0.3830 H     1 <1>   0.1500 
 54 H      -12.5780     0.6730     2.4310 H     1 <1>   0.1500 
 55 H      -14.7310     4.1700     1.2970 H     1 <1>   0.1500 
 56 H      -14.4060     0.0300     3.9160 H     1 <1>   0.1500 
 57 H      -16.5570     3.5250     2.7860 H     1 <1>   0.1500 
 58 H      -16.4070     1.4520     4.1040 H     1 <1>   0.1500 
@<TRIPOS>BOND
  1   1   2  2   
  2   2   3  am  
  3   2   4  1   
  4   3   5  1   
  5   3   6  1   
  6   4   7  1   
  7   4  31  1   
  8   4  32  1   
  9   5   7  1   
 10   5  33  1   
 11   5  34  1   
 12   6   8  1   
 13   6  35  1   
 14   6  36  1   
 15   7  37  1   
 16   7  38  1   
 17   8   9  1   
 18   8  39  1   
 19   8  40  1   
 20   9  10  2   
 21   9  11  am  
 22  11  12  1   
 23  11  13  1   
 24  12  14  1   
 25  12  41  1   
 26  12  42  1   
 27  13  15  1   
 28  13  43  1   
 29  13  44  1   
 30  14  16  1   
 31  14  17  1   
 32  14  18  1   
 33  15  17  1   
 34  15  45  1   
 35  15  46  1   
 36  16  19  ar  
 37  16  20  ar  
 38  17  47  1   
 39  17  48  1   
 40  18  21  1   
 41  18  49  1   
 42  18  50  1   
 43  19  22  ar  
 44  20  21  1   
 45  20  23  ar  
 46  21  51  1   
 47  21  52  1   
 48  22  24  ar  
 49  22  25  1   
 50  23  24  ar  
 51  23  53  1   
 52  25  26  ar  
 53  25  27  ar  
 54  26  28  ar  
 55  26  54  1   
 56  27  29  ar  
 57  27  55  1   
 58  28  30  ar  
 59  28  56  1   
 60  29  30  ar  
 61  29  57  1   
 62  30  58  1   
@<TRIPOS>SUBSTRUCTURE
  1 ****  12 GROUP 4 **** **** 0

# MOE 2024.06 (io_trps.svl 2023.06)
