@<TRIPOS>MOLECULE
NONAME
53 56 1 0 0 
SMALL
USER_CHARGES


@<TRIPOS>ATOM
  1 O       -1.1170     0.5420     0.5040 O.2   1 <1>  -0.5700 
  2 C       -1.2600     1.7470     0.5560 C.2   1 <1>   0.5690 
  3 N       -2.5130     2.3090     0.4240 N.am  1 <1>  -0.6600 
  4 C        0.0790     2.5330     0.7900 C.3   1 <1>   0.5640 
  5 C       -2.8700     3.7670     0.3050 C.3   1 <1>   0.1400 
  6 C       -3.7240     1.4380     0.3540 C.3   1 <1>   0.1400 
  7 N        1.1340     1.5680     1.1570 N.4   1 <1>  -0.8530 
  8 C        0.0280     3.5300     1.9540 C.3   1 <1>  -0.2400 
  9 C        0.5800     3.2050    -0.4940 C.3   1 <1>  -0.2400 
 10 C       -3.9430     4.0650    -0.7830 C.3   1 <1>   0.1430 
 11 C       -4.3620     1.5260    -1.0380 C.3   1 <1>  -0.1600 
 12 C       -5.2370     4.4960    -0.0970 C.ar  1 <1>   0.1670 
 13 C       -4.1270     2.8720    -1.7510 C.3   1 <1>  -0.1600 
 14 C       -3.5810     5.3410    -1.5940 C.3   1 <1>  -0.1600 
 15 N       -6.0780     3.7100     0.5300 N.ar  1 <1>  -0.6200 
 16 C       -5.4270     5.8420    -0.1880 C.ar  1 <1>  -0.1440 
 17 C       -4.3130     6.5230    -0.9380 C.3   1 <1>  -0.0170 
 18 C       -7.1570     4.2980     1.0630 C.ar  1 <1>   0.6200 
 19 C       -6.5500     6.3740     0.3890 C.ar  1 <1>   0.1600 
 20 N       -7.4180     5.6120     1.0140 N.ar  1 <1>  -0.6200 
 21 C       -8.1180     3.4440     1.7490 C.ar  1 <1>   0.0000 
 22 C       -7.7300     2.2540     2.3710 C.ar  1 <1>  -0.1500 
 23 C       -9.4750     3.7750     1.8160 C.ar  1 <1>  -0.1500 
 24 C       -8.6410     1.4400     3.0200 C.ar  1 <1>  -0.1500 
 25 C      -10.3910     2.9670     2.4630 C.ar  1 <1>  -0.1500 
 26 C       -9.9760     1.7950     3.0670 C.ar  1 <1>  -0.1500 
 27 H       -1.9930     4.3360     0.0810 H     1 <1>   0.0800 
 28 H       -3.2350     4.1070     1.2600 H     1 <1>   0.0800 
 29 H       -4.4310     1.7730     1.0940 H     1 <1>   0.0800 
 30 H       -3.4930     0.4110     0.5810 H     1 <1>   0.0800 
 31 H        1.1920     1.4630     2.1720 H     1 <1>   0.4500 
 32 H        2.0400     1.8060     0.7530 H     1 <1>   0.4500 
 33 H        0.8020     0.6620     0.7820 H     1 <1>   0.4500 
 34 H       -0.3650     3.0560     2.8370 H     1 <1>   0.0800 
 35 H       -0.6090     4.3620     1.7270 H     1 <1>   0.0800 
 36 H        1.0040     3.9290     2.1690 H     1 <1>   0.0800 
 37 H        0.6760     2.4800    -1.2840 H     1 <1>   0.0800 
 38 H        1.5270     3.6910    -0.3380 H     1 <1>   0.0800 
 39 H       -0.1130     3.9520    -0.8300 H     1 <1>   0.0800 
 40 H       -5.4200     1.3590    -0.9280 H     1 <1>   0.0800 
 41 H       -3.9810     0.7290    -1.6530 H     1 <1>   0.0800 
 42 H       -3.2340     2.7800    -2.3430 H     1 <1>   0.0800 
 43 H       -4.9450     3.0630    -2.4230 H     1 <1>   0.0800 
 44 H       -3.9680     5.2440    -2.5940 H     1 <1>   0.0800 
 45 H       -2.5230     5.5170    -1.6700 H     1 <1>   0.0800 
 46 H       -4.6900     7.2130    -1.6730 H     1 <1>   0.0800 
 47 H       -3.6720     7.0400    -0.2450 H     1 <1>   0.0800 
 48 H       -6.7420     7.4320     0.3400 H     1 <1>   0.1500 
 49 H       -6.6960     1.9600     2.3460 H     1 <1>   0.1500 
 50 H       -9.8180     4.6830     1.3510 H     1 <1>   0.1500 
 51 H       -8.3110     0.5290     3.4880 H     1 <1>   0.1500 
 52 H      -11.4290     3.2510     2.4970 H     1 <1>   0.1500 
 53 H      -10.6870     1.1640     3.5720 H     1 <1>   0.1500 
@<TRIPOS>BOND
  1   1   2  2   
  2   2   3  am  
  3   2   4  1   
  4   3   5  1   
  5   3   6  1   
  6   4   7  1   
  7   4   8  1   
  8   4   9  1   
  9   5  10  1   
 10   5  27  1   
 11   5  28  1   
 12   6  11  1   
 13   6  29  1   
 14   6  30  1   
 15   7  31  1   
 16   7  32  1   
 17   7  33  1   
 18   8  34  1   
 19   8  35  1   
 20   8  36  1   
 21   9  37  1   
 22   9  38  1   
 23   9  39  1   
 24  10  12  1   
 25  10  13  1   
 26  10  14  1   
 27  11  13  1   
 28  11  40  1   
 29  11  41  1   
 30  12  15  ar  
 31  12  16  ar  
 32  13  42  1   
 33  13  43  1   
 34  14  17  1   
 35  14  44  1   
 36  14  45  1   
 37  15  18  ar  
 38  16  17  1   
 39  16  19  ar  
 40  17  46  1   
 41  17  47  1   
 42  18  20  ar  
 43  18  21  1   
 44  19  20  ar  
 45  19  48  1   
 46  21  22  ar  
 47  21  23  ar  
 48  22  24  ar  
 49  22  49  1   
 50  23  25  ar  
 51  23  50  1   
 52  24  26  ar  
 53  24  51  1   
 54  25  26  ar  
 55  25  52  1   
 56  26  53  1   
@<TRIPOS>SUBSTRUCTURE
  1 ****  15 GROUP 4 **** **** 0

# MOE 2024.06 (io_trps.svl 2023.06)
