@<TRIPOS>MOLECULE
NONAME
31 33 1 0 0 
SMALL
USER_CHARGES


@<TRIPOS>ATOM
  1 CL      -0.8890    -0.0160     1.4040 Cl    1 <1>  -0.1770 
  2 C       -2.1190     0.6460     0.3550 C.ar  1 <1>   0.1770 
  3 C       -3.0200    -0.1940    -0.2950 C.ar  1 <1>   0.0860 
  4 C       -2.1630     2.0210     0.2080 C.ar  1 <1>  -0.1500 
  5 C       -2.9750    -1.6290    -0.1500 C.2   1 <1>   0.5440 
  6 C       -3.9830     0.4080    -1.1050 C.ar  1 <1>  -0.1500 
  7 C       -3.1280     2.5930    -0.6030 C.ar  1 <1>  -0.1500 
  8 O       -2.1080    -2.2590    -0.7270 O.2   1 <1>  -0.5700 
  9 N       -3.9160    -2.2920     0.5950 N.am  1 <1>  -0.6600 
 10 C       -4.0400     1.7820    -1.2580 C.ar  1 <1>  -0.1500 
 11 C       -5.0510    -1.6540     1.3220 C.3   1 <1>   0.2350 
 12 C       -4.2120    -3.7430     0.4210 C.3   1 <1>   0.2350 
 13 C       -6.2530    -2.5270     1.0170 C.3   1 <1>  -0.2420 
 14 C       -5.7300    -3.8380     0.4790 C.3   1 <1>  -0.2420 
 15 C       -7.4110    -2.1680     1.9500 C.2   1 <1>   0.9470 
 16 C       -6.5780    -2.9490    -0.3950 C.3   1 <1>  -0.2000 
 17 C       -6.1800    -5.2780     0.7360 C.2   1 <1>   0.9470 
 18 O       -8.4800    -1.7720     1.4650 O.co2 1 <1>  -0.9000 
 19 O       -7.1990    -2.1000     3.1680 O.co2 1 <1>  -0.9000 
 20 O       -5.6660    -5.9090     1.6700 O.co2 1 <1>  -0.9000 
 21 O       -6.9280    -5.8380    -0.0770 O.co2 1 <1>  -0.9000 
 22 H       -1.4490     2.6340     0.7260 H     1 <1>   0.1500 
 23 H       -4.6950    -0.2220    -1.6120 H     1 <1>   0.1500 
 24 H       -3.1720     3.6620    -0.7220 H     1 <1>   0.1500 
 25 H       -4.7970     2.2200    -1.8870 H     1 <1>   0.1500 
 26 H       -4.8480    -1.6730     2.3800 H     1 <1>   0.0800 
 27 H       -5.2350    -0.6440     1.0100 H     1 <1>   0.0800 
 28 H       -3.8400    -4.1160    -0.5170 H     1 <1>   0.0800 
 29 H       -3.7710    -4.2960     1.2330 H     1 <1>   0.0800 
 30 H       -6.1270    -2.4400    -1.2260 H     1 <1>   0.1000 
 31 H       -7.5850    -3.2690    -0.6050 H     1 <1>   0.1000 
@<TRIPOS>BOND
  1   1   2  1   
  2   2   3  ar  
  3   2   4  ar  
  4   3   5  1   
  5   3   6  ar  
  6   4   7  ar  
  7   4  22  1   
  8   5   8  2   
  9   5   9  am  
 10   6  10  ar  
 11   6  23  1   
 12   7  10  ar  
 13   7  24  1   
 14   9  11  1   
 15   9  12  1   
 16  10  25  1   
 17  11  13  1   
 18  11  26  1   
 19  11  27  1   
 20  12  14  1   
 21  12  28  1   
 22  12  29  1   
 23  13  14  1   
 24  13  15  1   
 25  13  16  1   
 26  14  16  1   
 27  14  17  1   
 28  15  18  ar  
 29  15  19  ar  
 30  16  30  1   
 31  16  31  1   
 32  17  20  ar  
 33  17  21  ar  
@<TRIPOS>SUBSTRUCTURE
  1 ****  11 GROUP 4 **** **** 0

# MOE 2024.06 (io_trps.svl 2023.06)
