@<TRIPOS>MOLECULE
NONAME
38 40 1 0 0 
SMALL
USER_CHARGES


@<TRIPOS>ATOM
  1 F       -0.4450    -1.0380    -0.9250 F     1 <1>  -0.1900 
  2 C       -1.6540    -1.3970    -0.5540 C.ar  1 <1>   0.1900 
  3 C       -2.7110    -0.5050    -0.4120 C.ar  1 <1>   0.3920 
  4 C       -1.8820    -2.7210    -0.2940 C.ar  1 <1>   0.1600 
  5 O       -2.6550     0.8310    -0.6270 O.3   1 <1>  -0.3630 
  6 N       -3.8960    -0.9330    -0.0390 N.ar  1 <1>  -0.6200 
  7 N       -3.0650    -3.1560     0.0800 N.ar  1 <1>  -0.6200 
  8 C       -1.4930     1.5350    -1.0060 C.3   1 <1>   0.0400 
  9 C       -4.0270    -2.2370     0.1900 C.ar  1 <1>   0.7200 
 10 N       -5.2760    -2.6820     0.5790 N.pl3 1 <1>  -0.8380 
 11 C       -6.5050    -1.8550     0.4100 C.3   1 <1>   0.2090 
 12 C       -5.4750    -3.9510     1.3330 C.3   1 <1>   0.2090 
 13 C       -7.5860    -2.6870    -0.2810 C.3   1 <1>  -0.1600 
 14 C       -6.5420    -4.7930     0.6340 C.3   1 <1>  -0.1600 
 15 C       -7.8480    -4.0050     0.4620 C.3   1 <1>   0.0630 
 16 C       -8.9050    -4.8390    -0.2560 C.ar  1 <1>  -0.1430 
 17 C      -10.1050    -5.1620     0.3480 C.ar  1 <1>  -0.1500 
 18 C       -8.7300    -5.3180    -1.5400 C.ar  1 <1>  -0.1500 
 19 C      -11.0390    -5.9200    -0.3370 C.ar  1 <1>   0.1600 
 20 C       -9.7290    -6.0690    -2.1370 C.ar  1 <1>   0.1600 
 21 N      -10.8800    -6.3830    -1.5670 N.ar  1 <1>  -0.6200 
 22 H       -1.0830    -3.4330    -0.3960 H     1 <1>   0.1500 
 23 H       -1.7480     2.5770    -1.0880 H     1 <1>   0.0800 
 24 H       -1.1550     1.1690    -1.9600 H     1 <1>   0.0800 
 25 H       -0.7400     1.4040    -0.2500 H     1 <1>   0.0800 
 26 H       -6.3110    -0.9780    -0.1840 H     1 <1>   0.0800 
 27 H       -6.8450    -1.5310     1.3790 H     1 <1>   0.0800 
 28 H       -5.7930    -3.7130     2.3340 H     1 <1>   0.0800 
 29 H       -4.5630    -4.5170     1.4070 H     1 <1>   0.0800 
 30 H       -7.2650    -2.8860    -1.2880 H     1 <1>   0.0800 
 31 H       -8.4950    -2.1150    -0.3330 H     1 <1>   0.0800 
 32 H       -6.7290    -5.6810     1.2110 H     1 <1>   0.0800 
 33 H       -6.1580    -5.0970    -0.3230 H     1 <1>   0.0800 
 34 H       -8.2150    -3.7600     1.4440 H     1 <1>   0.0800 
 35 H      -10.3250    -4.8310     1.3470 H     1 <1>   0.1500 
 36 H       -7.8260    -5.1140    -2.0840 H     1 <1>   0.1500 
 37 H      -11.9670    -6.1600     0.1520 H     1 <1>   0.1500 
 38 H       -9.5700    -6.4310    -3.1380 H     1 <1>   0.1500 
@<TRIPOS>BOND
  1   1   2  1   
  2   2   3  ar  
  3   2   4  ar  
  4   3   5  1   
  5   3   6  ar  
  6   4   7  ar  
  7   4  22  1   
  8   5   8  1   
  9   6   9  ar  
 10   7   9  ar  
 11   8  23  1   
 12   8  24  1   
 13   8  25  1   
 14   9  10  1   
 15  10  11  1   
 16  10  12  1   
 17  11  13  1   
 18  11  26  1   
 19  11  27  1   
 20  12  14  1   
 21  12  28  1   
 22  12  29  1   
 23  13  15  1   
 24  13  30  1   
 25  13  31  1   
 26  14  15  1   
 27  14  32  1   
 28  14  33  1   
 29  15  16  1   
 30  15  34  1   
 31  16  17  ar  
 32  16  18  ar  
 33  17  19  ar  
 34  17  35  1   
 35  18  20  ar  
 36  18  36  1   
 37  19  21  ar  
 38  19  37  1   
 39  20  21  ar  
 40  20  38  1   
@<TRIPOS>SUBSTRUCTURE
  1 ****  10 GROUP 4 **** **** 0

# MOE 2024.06 (io_trps.svl 2023.06)
