@<TRIPOS>MOLECULE
NONAME
62 65 1 0 0 
SMALL
USER_CHARGES


@<TRIPOS>ATOM
  1 O        1.0050     0.4800     1.0000 O.3   1 <1>  -0.6800 
  2 C        1.0240    -0.2140    -0.2070 C.3   1 <1>   0.2000 
  3 C        1.6820    -1.5690     0.0270 C.3   1 <1>  -0.0800 
  4 C        2.0070     0.4820    -1.1500 C.3   1 <1>   0.3430 
  5 C        3.1890    -1.2690    -0.0230 C.3   1 <1>   0.3430 
  6 C        1.2560    -2.6050    -1.0380 C.3   1 <1>  -0.0160 
  7 N        3.3780     0.0600    -0.7020 N.4   1 <1>  -0.9590 
  8 C        2.1340    -3.8520    -0.9870 C.ar  1 <1>  -0.1430 
  9 C        3.9590     1.0480     0.2670 C.3   1 <1>   0.3430 
 10 C        2.0690    -4.7870     0.0750 C.ar  1 <1>   0.0000 
 11 C        3.0400    -4.0900    -1.9810 C.ar  1 <1>  -0.1500 
 12 C        4.8840     2.1140    -0.3840 C.3   1 <1>   0.0000 
 13 C        3.0000    -5.8540     0.0680 C.ar  1 <1>   0.3100 
 14 C        1.1340    -4.7350     1.1360 C.ar  1 <1>  -0.1500 
 15 C        3.8940    -5.1960    -1.9070 C.ar  1 <1>   0.1600 
 16 C        5.3750     3.0270     0.7750 C.3   1 <1>   0.3430 
 17 C        6.0900     1.4180    -1.0540 C.3   1 <1>  -0.2400 
 18 C        4.1310     2.9370    -1.4540 C.3   1 <1>  -0.2400 
 19 N        3.9040    -6.0380    -0.9260 N.ar  1 <1>  -0.6200 
 20 C        2.9940    -6.7710     1.1310 C.ar  1 <1>  -0.1500 
 21 C        1.1500    -5.6490     2.1540 C.ar  1 <1>  -0.1500 
 22 N        6.3010     4.1160     0.3300 N.4   1 <1>  -0.9590 
 23 C        2.0960    -6.6760     2.1580 C.ar  1 <1>  -0.1500 
 24 C        7.4120     4.3650     1.2850 C.3   1 <1>   0.3430 
 25 C        5.6450     5.4390     0.1470 C.3   1 <1>   0.3430 
 26 C        7.9410     5.7400     0.9020 C.3   1 <1>  -0.1600 
 27 C        6.7950     6.4370     0.1650 C.3   1 <1>  -0.1600 
 28 H        0.2590     0.1830     1.5660 H     1 <1>   0.4000 
 29 H        0.0210    -0.2630    -0.6000 H     1 <1>   0.0800 
 30 H        1.4290    -1.9540     0.9990 H     1 <1>   0.0800 
 31 H        1.8740     1.5500    -1.1230 H     1 <1>   0.0800 
 32 H        1.8340     0.1310    -2.1540 H     1 <1>   0.0800 
 33 H        3.7190    -2.0480    -0.5470 H     1 <1>   0.0800 
 34 H        3.5680    -1.2270     0.9850 H     1 <1>   0.0800 
 35 H        1.3230    -2.1740    -2.0220 H     1 <1>   0.0800 
 36 H        0.2270    -2.8860    -0.8940 H     1 <1>   0.0800 
 37 H        4.0060    -0.0490    -1.5090 H     1 <1>   0.4500 
 38 H        3.1570     1.5370     0.7970 H     1 <1>   0.0800 
 39 H        4.5410     0.5110     0.9990 H     1 <1>   0.0800 
 40 H        3.1310    -3.4500    -2.8390 H     1 <1>   0.1500 
 41 H        0.3810    -3.9710     1.1470 H     1 <1>   0.1500 
 42 H        4.5920    -5.3540    -2.7130 H     1 <1>   0.1500 
 43 H        5.8900     2.4070     1.4920 H     1 <1>   0.0800 
 44 H        4.5270     3.4640     1.2780 H     1 <1>   0.0800 
 45 H        6.7640     2.1320    -1.4920 H     1 <1>   0.0800 
 46 H        5.7740     0.7620    -1.8460 H     1 <1>   0.0800 
 47 H        6.6430     0.8330    -0.3380 H     1 <1>   0.0800 
 48 H        4.7740     3.6710    -1.9060 H     1 <1>   0.0800 
 49 H        3.2840     3.4460    -1.0250 H     1 <1>   0.0800 
 50 H        3.7810     2.3090    -2.2540 H     1 <1>   0.0800 
 51 H        3.7230    -7.5610     1.1070 H     1 <1>   0.1500 
 52 H        0.4370    -5.5970     2.9590 H     1 <1>   0.1500 
 53 H        6.7330     3.8600    -0.5670 H     1 <1>   0.4500 
 54 H        2.1020    -7.3880     2.9660 H     1 <1>   0.1500 
 55 H        7.0300     4.3980     2.2940 H     1 <1>   0.0800 
 56 H        8.1800     3.6100     1.2160 H     1 <1>   0.0800 
 57 H        5.0890     5.4940    -0.7750 H     1 <1>   0.0800 
 58 H        4.9860     5.6400     0.9760 H     1 <1>   0.0800 
 59 H        8.2410     6.2850     1.7810 H     1 <1>   0.0800 
 60 H        8.7960     5.6370     0.2570 H     1 <1>   0.0800 
 61 H        7.0870     6.6780    -0.8430 H     1 <1>   0.0800 
 62 H        6.4950     7.3460     0.6590 H     1 <1>   0.0800 
@<TRIPOS>BOND
  1   1   2  1   
  2   1  28  1   
  3   2   3  1   
  4   2   4  1   
  5   2  29  1   
  6   3   5  1   
  7   3   6  1   
  8   3  30  1   
  9   4   7  1   
 10   4  31  1   
 11   4  32  1   
 12   5   7  1   
 13   5  33  1   
 14   5  34  1   
 15   6   8  1   
 16   6  35  1   
 17   6  36  1   
 18   7   9  1   
 19   7  37  1   
 20   8  10  ar  
 21   8  11  ar  
 22   9  12  1   
 23   9  38  1   
 24   9  39  1   
 25  10  13  ar  
 26  10  14  ar  
 27  11  15  ar  
 28  11  40  1   
 29  12  16  1   
 30  12  17  1   
 31  12  18  1   
 32  13  19  ar  
 33  13  20  ar  
 34  14  21  ar  
 35  14  41  1   
 36  15  19  ar  
 37  15  42  1   
 38  16  22  1   
 39  16  43  1   
 40  16  44  1   
 41  17  45  1   
 42  17  46  1   
 43  17  47  1   
 44  18  48  1   
 45  18  49  1   
 46  18  50  1   
 47  20  23  ar  
 48  20  51  1   
 49  21  23  ar  
 50  21  52  1   
 51  22  24  1   
 52  22  25  1   
 53  22  53  1   
 54  23  54  1   
 55  24  26  1   
 56  24  55  1   
 57  24  56  1   
 58  25  27  1   
 59  25  57  1   
 60  25  58  1   
 61  26  27  1   
 62  26  59  1   
 63  26  60  1   
 64  27  61  1   
 65  27  62  1   
@<TRIPOS>SUBSTRUCTURE
  1 ****   5 GROUP 4 **** **** 0

# MOE 2024.06 (io_trps.svl 2023.06)
