@<TRIPOS>MOLECULE
NONAME
50 52 1 0 0 
SMALL
USER_CHARGES


@<TRIPOS>ATOM
  1 O       -0.3290    -2.6800    -0.8870 O.2   1 <1>  -0.5700 
  2 C       -1.5190    -2.8090    -0.6930 C.2   1 <1>   0.6900 
  3 N       -2.3510    -1.7380    -0.4390 N.am  1 <1>  -0.4200 
  4 N       -2.0540    -4.0650    -0.7320 N.am  1 <1>  -0.5390 
  5 C       -3.7090    -1.9440    -0.2580 C.2   1 <1>   0.6160 
  6 C       -1.7920    -0.3570    -0.4000 C.3   1 <1>   0.0600 
  7 C       -3.3960    -4.3210    -0.5430 C.2   1 <1>  -0.0410 
  8 O       -4.4490    -0.9950    -0.0660 O.2   1 <1>  -0.5700 
  9 C       -4.2340    -3.2820    -0.3030 C.2   1 <1>  -0.1240 
 10 C       -5.7420    -3.4260    -0.0770 C.3   1 <1>  -0.0220 
 11 C       -6.1940    -4.8830     0.0390 C.3   1 <1>   0.3430 
 12 N       -7.6500    -5.0310     0.3530 N.4   1 <1>  -0.9590 
 13 C       -8.0040    -6.4290     0.7940 C.3   1 <1>   0.4230 
 14 C       -8.4290    -4.6260    -0.8610 C.3   1 <1>   0.3430 
 15 C       -9.5230    -6.5130     1.0410 C.3   1 <1>  -0.1600 
 16 C       -7.2930    -6.8650     2.1010 C.3   1 <1>  -0.1600 
 17 C       -9.9290    -4.6670    -0.5900 C.3   1 <1>  -0.1600 
 18 C      -10.3590    -6.0670    -0.1600 C.3   1 <1>  -0.1600 
 19 C       -5.8660    -7.4480     1.9920 C.3   1 <1>   0.0960 
 20 N       -5.6800    -8.2450     0.7650 N.pl3 1 <1>   0.3140 
 21 N       -5.3490    -7.6670    -0.4070 N.2   1 <1>  -0.7070 
 22 C       -5.8370    -9.5740     0.6280 C.2   1 <1>  -0.3020 
 23 C       -5.2850    -8.6510    -1.2540 C.2   1 <1>   0.1390 
 24 C       -5.5870    -9.8710    -0.6640 C.2   1 <1>  -0.1500 
 25 H       -1.3710    -4.8010    -0.9290 H     1 <1>   0.3700 
 26 H       -0.7500    -0.3780    -0.1320 H     1 <1>   0.0800 
 27 H       -2.3170     0.2370     0.3280 H     1 <1>   0.0800 
 28 H       -1.8970     0.0990    -1.3680 H     1 <1>   0.0800 
 29 H       -3.6930    -5.3570    -0.6050 H     1 <1>   0.1500 
 30 H       -6.2410    -2.9400    -0.8960 H     1 <1>   0.0800 
 31 H       -5.9990    -2.9110     0.8320 H     1 <1>   0.0800 
 32 H       -5.6080    -5.3310     0.8170 H     1 <1>   0.0800 
 33 H       -5.9680    -5.4020    -0.8790 H     1 <1>   0.0800 
 34 H       -7.9040    -4.3960     1.1180 H     1 <1>   0.4500 
 35 H       -7.7590    -7.1220     0.0030 H     1 <1>   0.0800 
 36 H       -8.1980    -5.2930    -1.6770 H     1 <1>   0.0800 
 37 H       -8.1620    -3.6260    -1.1610 H     1 <1>   0.0800 
 38 H       -9.7830    -5.9150     1.8970 H     1 <1>   0.0800 
 39 H       -9.7890    -7.5310     1.2700 H     1 <1>   0.0800 
 40 H       -7.8760    -7.6560     2.5400 H     1 <1>   0.0800 
 41 H       -7.3030    -6.0620     2.8150 H     1 <1>   0.0800 
 42 H      -10.4560    -4.3920    -1.4880 H     1 <1>   0.0800 
 43 H      -10.1830    -3.9460     0.1680 H     1 <1>   0.0800 
 44 H      -11.4060    -6.0670     0.0980 H     1 <1>   0.0800 
 45 H      -10.2210    -6.7580    -0.9760 H     1 <1>   0.0800 
 46 H       -5.6680    -8.0810     2.8390 H     1 <1>   0.0800 
 47 H       -5.1240    -6.6720     2.0030 H     1 <1>   0.0800 
 48 H       -6.1080   -10.2300     1.4370 H     1 <1>   0.1500 
 49 H       -5.0290    -8.5340    -2.2950 H     1 <1>   0.1500 
 50 H       -5.6050   -10.8300    -1.1550 H     1 <1>   0.1500 
@<TRIPOS>BOND
  1   1   2  2   
  2   2   3  am  
  3   2   4  am  
  4   3   5  am  
  5   3   6  1   
  6   4   7  1   
  7   4  25  1   
  8   5   8  2   
  9   5   9  1   
 10   6  26  1   
 11   6  27  1   
 12   6  28  1   
 13   7   9  2   
 14   7  29  1   
 15   9  10  1   
 16  10  11  1   
 17  10  30  1   
 18  10  31  1   
 19  11  12  1   
 20  11  32  1   
 21  11  33  1   
 22  12  13  1   
 23  12  14  1   
 24  12  34  1   
 25  13  15  1   
 26  13  16  1   
 27  13  35  1   
 28  14  17  1   
 29  14  36  1   
 30  14  37  1   
 31  15  18  1   
 32  15  38  1   
 33  15  39  1   
 34  16  19  1   
 35  16  40  1   
 36  16  41  1   
 37  17  18  1   
 38  17  42  1   
 39  17  43  1   
 40  18  44  1   
 41  18  45  1   
 42  19  20  1   
 43  19  46  1   
 44  19  47  1   
 45  20  21  1   
 46  20  22  1   
 47  21  23  2   
 48  22  24  2   
 49  22  48  1   
 50  23  24  1   
 51  23  49  1   
 52  24  50  1   
@<TRIPOS>SUBSTRUCTURE
  1 ****  11 GROUP 4 **** **** 0

# MOE 2024.06 (io_trps.svl 2023.06)
