@<TRIPOS>MOLECULE
NONAME
47 49 1 0 0 
SMALL
USER_CHARGES


@<TRIPOS>ATOM
  1 CL      -0.9890    -1.7060    -1.0590 Cl    1 <1>  -0.1240 
  2 C       -2.2580    -0.5060    -0.9370 C.2   1 <1>  -0.0280 
  3 N       -2.2200     0.6830    -1.5660 N.pl3 1 <1>   0.3140 
  4 C       -3.4090    -0.5910    -0.2430 C.2   1 <1>  -0.1810 
  5 N       -3.3460     1.3740    -1.3030 N.2   1 <1>  -0.7070 
  6 C       -1.1530     1.2200    -2.4220 C.3   1 <1>   0.0160 
  7 C       -4.0460     0.6190    -0.5110 C.2   1 <1>   0.1080 
  8 C       -3.9110    -1.7240     0.6150 C.3   1 <1>   0.5240 
  9 C       -5.3990     1.0550     0.0280 C.3   1 <1>   0.0210 
 10 N       -3.9580    -2.9500    -0.2240 N.4   1 <1>  -0.9590 
 11 C       -5.2930     1.5320     1.4800 C.3   1 <1>  -0.2400 
 12 C       -4.9910    -2.8020    -1.2990 C.3   1 <1>   0.3430 
 13 C       -4.3450    -4.1400     0.5960 C.3   1 <1>   0.3430 
 14 C       -6.2360    -3.5160    -0.7680 C.3   1 <1>   0.2000 
 15 C       -5.6490    -4.6960     0.0030 C.3   1 <1>  -0.0800 
 16 O       -6.8710    -2.6770     0.1430 O.3   1 <1>  -0.6800 
 17 C       -5.3870    -5.9080    -0.9140 C.3   1 <1>  -0.0170 
 18 C       -4.6180    -6.9910    -0.1750 C.ar  1 <1>  -0.1430 
 19 C       -3.3140    -7.3140    -0.4970 C.ar  1 <1>  -0.1500 
 20 C       -5.1850    -7.7080     0.8610 C.ar  1 <1>  -0.1500 
 21 C       -2.6540    -8.2940     0.2240 C.ar  1 <1>   0.1600 
 22 C       -4.4360    -8.6690     1.5190 C.ar  1 <1>   0.1600 
 23 N       -3.1820    -8.9700     1.2300 N.ar  1 <1>  -0.6200 
 24 H       -1.0020     0.5630    -3.2580 H     1 <1>   0.0800 
 25 H       -0.2470     1.3000    -1.8510 H     1 <1>   0.0800 
 26 H       -1.4410     2.1920    -2.7760 H     1 <1>   0.0800 
 27 H       -4.8930    -1.4940     0.9960 H     1 <1>   0.0800 
 28 H       -3.2400    -1.8650     1.4460 H     1 <1>   0.0800 
 29 H       -5.7680     1.8620    -0.5820 H     1 <1>   0.0800 
 30 H       -6.1010     0.2440    -0.0450 H     1 <1>   0.0800 
 31 H       -3.0220    -3.0560    -0.6410 H     1 <1>   0.4500 
 32 H       -4.5990     2.3520     1.5420 H     1 <1>   0.0800 
 33 H       -4.9520     0.7410     2.1220 H     1 <1>   0.0800 
 34 H       -6.2540     1.8700     1.8270 H     1 <1>   0.0800 
 35 H       -5.2020    -1.7700    -1.5330 H     1 <1>   0.0800 
 36 H       -4.6520    -3.3000    -2.1920 H     1 <1>   0.0800 
 37 H       -3.5660    -4.8860     0.5910 H     1 <1>   0.0800 
 38 H       -4.5240    -3.8400     1.6160 H     1 <1>   0.0800 
 39 H       -6.9320    -3.7860    -1.5450 H     1 <1>   0.0800 
 40 H       -6.3090    -5.0090     0.7930 H     1 <1>   0.0800 
 41 H       -7.7720    -3.0060     0.3580 H     1 <1>   0.4000 
 42 H       -4.8310    -5.6130    -1.7880 H     1 <1>   0.0800 
 43 H       -6.3240    -6.3170    -1.2520 H     1 <1>   0.0800 
 44 H       -2.7990    -6.8230    -1.3020 H     1 <1>   0.1500 
 45 H       -6.2020    -7.5380     1.1660 H     1 <1>   0.1500 
 46 H       -1.6370    -8.5380    -0.0390 H     1 <1>   0.1500 
 47 H       -4.8920    -9.2200     2.3250 H     1 <1>   0.1500 
@<TRIPOS>BOND
  1   1   2  1   
  2   2   3  1   
  3   2   4  2   
  4   3   5  1   
  5   3   6  1   
  6   4   7  1   
  7   4   8  1   
  8   5   7  2   
  9   6  24  1   
 10   6  25  1   
 11   6  26  1   
 12   7   9  1   
 13   8  10  1   
 14   8  27  1   
 15   8  28  1   
 16   9  11  1   
 17   9  29  1   
 18   9  30  1   
 19  10  12  1   
 20  10  13  1   
 21  10  31  1   
 22  11  32  1   
 23  11  33  1   
 24  11  34  1   
 25  12  14  1   
 26  12  35  1   
 27  12  36  1   
 28  13  15  1   
 29  13  37  1   
 30  13  38  1   
 31  14  15  1   
 32  14  16  1   
 33  14  39  1   
 34  15  17  1   
 35  15  40  1   
 36  16  41  1   
 37  17  18  1   
 38  17  42  1   
 39  17  43  1   
 40  18  19  ar  
 41  18  20  ar  
 42  19  21  ar  
 43  19  44  1   
 44  20  22  ar  
 45  20  45  1   
 46  21  23  ar  
 47  21  46  1   
 48  22  23  ar  
 49  22  47  1   
@<TRIPOS>SUBSTRUCTURE
  1 ****  10 GROUP 4 **** **** 0

# MOE 2024.06 (io_trps.svl 2023.06)
