@<TRIPOS>MOLECULE
NONAME
47 49 1 0 0 
SMALL
USER_CHARGES


@<TRIPOS>ATOM
  1 O       -1.0080     1.2800    -2.2000 O.2   1 <1>  -0.5700 
  2 C       -2.0250     1.6000    -1.6320 C.2   1 <1>   0.5690 
  3 N       -3.0380     0.7000    -1.3920 N.am  1 <1>  -0.6600 
  4 C       -2.0820     3.0250    -1.1290 C.3   1 <1>   0.1570 
  5 C       -2.8640    -0.7670    -1.6730 C.3   1 <1>   0.1400 
  6 C       -4.3490     1.0370    -0.7660 C.3   1 <1>   0.1400 
  7 N       -1.8590     2.9860     0.3160 N.pl3 1 <1>   0.3140 
  8 C       -2.9820    -1.6150    -0.3790 C.3   1 <1>   0.0000 
  9 C       -4.4960     0.2660     0.5450 C.3   1 <1>  -0.1600 
 10 N       -2.7680     3.3360     1.2100 N.2   1 <1>  -0.4180 
 11 C       -0.8140     2.4810     0.9710 C.2   1 <1>   0.2700 
 12 C       -4.3340    -1.2310     0.2840 C.3   1 <1>   0.2000 
 13 C       -3.0840    -3.1160    -0.7540 C.3   1 <1>   0.1200 
 14 C       -1.7770    -1.3390     0.5790 C.3   1 <1>  -0.0170 
 15 N       -2.2660     3.0500     2.3550 N.2   1 <1>   0.0000 
 16 N       -1.0520     2.5120     2.2290 N.2   1 <1>  -0.3380 
 17 N        0.3480     1.9670     0.4150 N.pl3 1 <1>  -0.8840 
 18 O       -4.5220    -1.8970     1.4830 O.3   1 <1>  -0.6800 
 19 O       -2.1000    -3.4880    -1.6590 O.3   1 <1>  -0.6800 
 20 C       -0.4770    -2.0620     0.2300 C.ar  1 <1>  -0.1440 
 21 C        0.3870    -1.5690    -0.7340 C.ar  1 <1>  -0.1500 
 22 C       -0.1530    -3.2430     0.8820 C.ar  1 <1>  -0.1500 
 23 C        1.5510    -2.2470    -1.0500 C.ar  1 <1>  -0.1500 
 24 C        1.0100    -3.9240     0.5680 C.ar  1 <1>  -0.1500 
 25 C        1.8630    -3.4270    -0.4000 C.ar  1 <1>  -0.1500 
 26 H       -3.0280     3.4790    -1.3470 H     1 <1>   0.0800 
 27 H       -1.3000     3.6030    -1.5820 H     1 <1>   0.0800 
 28 H       -3.6240    -1.0740    -2.3710 H     1 <1>   0.0800 
 29 H       -1.9170    -0.9530    -2.1480 H     1 <1>   0.0800 
 30 H       -4.4460     2.0890    -0.5730 H     1 <1>   0.0800 
 31 H       -5.1400     0.7550    -1.4420 H     1 <1>   0.0800 
 32 H       -5.4750     0.4570     0.9490 H     1 <1>   0.0800 
 33 H       -3.7640     0.6190     1.2490 H     1 <1>   0.0800 
 34 H       -5.1360    -1.5470    -0.3640 H     1 <1>   0.0800 
 35 H       -4.0310    -3.3270    -1.2200 H     1 <1>   0.0800 
 36 H       -2.9930    -3.7370     0.1210 H     1 <1>   0.0800 
 37 H       -1.5780    -0.2850     0.6280 H     1 <1>   0.0800 
 38 H       -2.0350    -1.6340     1.5780 H     1 <1>   0.0800 
 39 H        0.2840     1.5320    -0.5180 H     1 <1>   0.4000 
 40 H        0.9210     1.4150     1.0610 H     1 <1>   0.4000 
 41 H       -4.0100    -1.4660     2.1950 H     1 <1>   0.4000 
 42 H       -1.2110    -3.3350    -1.2610 H     1 <1>   0.4000 
 43 H        0.1640    -0.6570    -1.2530 H     1 <1>   0.1500 
 44 H       -0.8060    -3.6450     1.6380 H     1 <1>   0.1500 
 45 H        2.2120    -1.8570    -1.8050 H     1 <1>   0.1500 
 46 H        1.2520    -4.8410     1.0770 H     1 <1>   0.1500 
 47 H        2.7670    -3.9560    -0.6470 H     1 <1>   0.1500 
@<TRIPOS>BOND
  1   1   2  2   
  2   2   3  am  
  3   2   4  1   
  4   3   5  1   
  5   3   6  1   
  6   4   7  1   
  7   4  26  1   
  8   4  27  1   
  9   5   8  1   
 10   5  28  1   
 11   5  29  1   
 12   6   9  1   
 13   6  30  1   
 14   6  31  1   
 15   7  10  1   
 16   7  11  1   
 17   8  12  1   
 18   8  13  1   
 19   8  14  1   
 20   9  12  1   
 21   9  32  1   
 22   9  33  1   
 23  10  15  2   
 24  11  16  2   
 25  11  17  1   
 26  12  18  1   
 27  12  34  1   
 28  13  19  1   
 29  13  35  1   
 30  13  36  1   
 31  14  20  1   
 32  14  37  1   
 33  14  38  1   
 34  15  16  1   
 35  17  39  1   
 36  17  40  1   
 37  18  41  1   
 38  19  42  1   
 39  20  21  ar  
 40  20  22  ar  
 41  21  23  ar  
 42  21  43  1   
 43  22  24  ar  
 44  22  44  1   
 45  23  25  ar  
 46  23  45  1   
 47  24  25  ar  
 48  24  46  1   
 49  25  47  1   
@<TRIPOS>SUBSTRUCTURE
  1 ****  14 GROUP 4 **** **** 0

# MOE 2024.06 (io_trps.svl 2023.06)
