@<TRIPOS>MOLECULE
NONAME
57 60 1 0 0 
SMALL
USER_CHARGES


@<TRIPOS>ATOM
  1 O        4.9840     0.6200     1.3180 O.co2 1 <1>  -0.9000 
  2 C        3.8840     0.9910     0.8740 C.2   1 <1>   0.9060 
  3 O        3.1820     1.7620     1.5300 O.co2 1 <1>  -0.9000 
  4 C        3.4630     0.5710    -0.5510 C.3   1 <1>  -0.1060 
  5 C        4.7330     0.4810    -1.4220 C.3   1 <1>   0.4230 
  6 C        2.5100     1.6180    -1.2160 C.3   1 <1>  -0.1600 
  7 C        2.7530    -0.8060    -0.5120 C.3   1 <1>  -0.1600 
  8 N        5.6370    -0.6110    -0.9210 N.4   1 <1>  -0.9590 
  9 C        5.4460     1.8630    -1.5040 C.3   1 <1>   0.1100 
 10 C        3.2070     2.7190    -2.0420 C.3   1 <1>   0.1100 
 11 C        3.7140    -1.9320    -0.1000 C.3   1 <1>  -0.1600 
 12 C        4.9870    -1.9450    -0.9490 C.3   1 <1>   0.3430 
 13 C        7.0140    -0.6360    -1.4870 C.3   1 <1>   0.2630 
 14 N        4.5500     3.0570    -1.5430 N.3   1 <1>  -0.8100 
 15 C        4.5090     3.8330    -0.2560 C.3   1 <1>   0.2540 
 16 C        5.4620     5.0390    -0.1980 C.cat 1 <1>   0.6560 
 17 N        5.1020     6.2950    -0.4330 N.pl3 1 <1>  -0.7000 
 18 N        6.7650     4.9910     0.1020 N.pl3 1 <1>  -0.6370 
 19 C        6.2080     7.0890    -0.2760 C.2   1 <1>   0.2000 
 20 C        7.5220     3.8250     0.3470 C.ar  1 <1>   0.3870 
 21 C        7.2360     6.2830     0.0560 C.2   1 <1>   0.2000 
 22 C        7.2560     3.0230     1.4470 C.ar  1 <1>  -0.1500 
 23 C        8.4920     3.4270    -0.5620 C.ar  1 <1>  -0.1500 
 24 C        7.9020     1.8100     1.6060 C.ar  1 <1>  -0.1500 
 25 C        9.1510     2.2210    -0.4010 C.ar  1 <1>  -0.1500 
 26 C        8.8440     1.3950     0.6700 C.ar  1 <1>   0.0820 
 27 O        9.4770     0.1980     0.7220 O.3   1 <1>  -0.3620 
 28 C        9.3680    -0.6240     1.8660 C.3   1 <1>   0.0400 
 29 H        4.4230     0.2250    -2.4200 H     1 <1>   0.0800 
 30 H        1.8860     2.0810    -0.4710 H     1 <1>   0.0800 
 31 H        1.8270     1.1240    -1.8840 H     1 <1>   0.0800 
 32 H        1.9310    -0.7630     0.1840 H     1 <1>   0.0800 
 33 H        2.3490    -1.0410    -1.4820 H     1 <1>   0.0800 
 34 H        5.7030    -0.3500     0.1000 H     1 <1>   0.4500 
 35 H        6.0470     1.8760    -2.3950 H     1 <1>   0.0800 
 36 H        6.1040     1.9390    -0.6630 H     1 <1>   0.0800 
 37 H        2.5880     3.6000    -2.0710 H     1 <1>   0.0800 
 38 H        3.3070     2.3760    -3.0590 H     1 <1>   0.0800 
 39 H        3.2150    -2.8800    -0.1970 H     1 <1>   0.0800 
 40 H        3.9840    -1.8220     0.9370 H     1 <1>   0.0800 
 41 H        4.7410    -2.2060    -1.9660 H     1 <1>   0.0800 
 42 H        5.6620    -2.6880    -0.5590 H     1 <1>   0.0800 
 43 H        6.9830    -0.8450    -2.5430 H     1 <1>   0.0800 
 44 H        7.6020    -1.3950    -0.9970 H     1 <1>   0.0800 
 45 H        7.5010     0.3120    -1.3310 H     1 <1>   0.0800 
 46 H        3.5090     4.1830    -0.0700 H     1 <1>   0.0800 
 47 H        4.7730     3.2120     0.5710 H     1 <1>   0.0800 
 48 H        4.1600     6.6000    -0.6950 H     1 <1>   0.4500 
 49 H        6.1950     8.1600    -0.4070 H     1 <1>   0.1500 
 50 H        8.2640     6.5380     0.2610 H     1 <1>   0.1500 
 51 H        6.5170     3.3190     2.1710 H     1 <1>   0.1500 
 52 H        8.7180     4.0530    -1.4050 H     1 <1>   0.1500 
 53 H        7.6320     1.2010     2.4510 H     1 <1>   0.1500 
 54 H        9.9020     1.9070    -1.1050 H     1 <1>   0.1500 
 55 H        9.9980    -1.4840     1.7240 H     1 <1>   0.0800 
 56 H        8.3440    -0.9340     1.9830 H     1 <1>   0.0800 
 57 H        9.6990    -0.0690     2.7270 H     1 <1>   0.0800 
@<TRIPOS>BOND
  1   1   2  ar  
  2   2   3  ar  
  3   2   4  1   
  4   4   5  1   
  5   4   6  1   
  6   4   7  1   
  7   5   8  1   
  8   5   9  1   
  9   5  29  1   
 10   6  10  1   
 11   6  30  1   
 12   6  31  1   
 13   7  11  1   
 14   7  32  1   
 15   7  33  1   
 16   8  12  1   
 17   8  13  1   
 18   8  34  1   
 19   9  14  1   
 20   9  35  1   
 21   9  36  1   
 22  10  14  1   
 23  10  37  1   
 24  10  38  1   
 25  11  12  1   
 26  11  39  1   
 27  11  40  1   
 28  12  41  1   
 29  12  42  1   
 30  13  43  1   
 31  13  44  1   
 32  13  45  1   
 33  14  15  1   
 34  15  16  1   
 35  15  46  1   
 36  15  47  1   
 37  16  17  ar  
 38  16  18  ar  
 39  17  19  1   
 40  17  48  1   
 41  18  20  1   
 42  18  21  1   
 43  19  21  2   
 44  19  49  1   
 45  20  22  ar  
 46  20  23  ar  
 47  21  50  1   
 48  22  24  ar  
 49  22  51  1   
 50  23  25  ar  
 51  23  52  1   
 52  24  26  ar  
 53  24  53  1   
 54  25  26  ar  
 55  25  54  1   
 56  26  27  1   
 57  27  28  1   
 58  28  55  1   
 59  28  56  1   
 60  28  57  1   
@<TRIPOS>SUBSTRUCTURE
  1 ****   9 GROUP 4 **** **** 0

# MOE 2024.06 (io_trps.svl 2023.06)
