@<TRIPOS>MOLECULE
NONAME
47 48 1 0 0 
SMALL
USER_CHARGES


@<TRIPOS>ATOM
  1 O       -1.2060    -0.0140    -1.4700 O.2   1 <1>  -0.5700 
  2 C       -1.8660     0.6200    -0.6650 C.2   1 <1>   0.7150 
  3 N       -2.9030    -0.0020    -0.0100 N.am  1 <1>  -0.6600 
  4 C       -1.5390     1.9970    -0.4250 C.2   1 <1>  -0.2370 
  5 C       -3.4740    -1.3060    -0.4730 C.3   1 <1>   0.1400 
  6 C       -3.5110     0.4910     1.2580 C.3   1 <1>   0.1400 
  7 N       -0.2720     2.4710    -0.2920 N.pl3 1 <1>   0.3140 
  8 C       -2.3460     3.0880    -0.3060 C.2   1 <1>  -0.1500 
  9 C       -4.9970    -1.1750    -0.6490 C.3   1 <1>   0.2000 
 10 C       -5.0260     0.6470     1.0630 C.3   1 <1>  -0.1600 
 11 N       -0.2550     3.8040    -0.0940 N.2   1 <1>  -0.7070 
 12 C        0.9780     1.6620    -0.3650 C.3   1 <1>   0.0960 
 13 C       -1.5000     4.1600    -0.1030 C.2   1 <1>   0.1080 
 14 O       -5.5090    -2.3990    -1.0460 O.3   1 <1>  -0.6800 
 15 C       -5.6980    -0.6970     0.6530 C.3   1 <1>  -0.1060 
 16 C        2.1440     2.2690     0.4300 C.3   1 <1>  -0.2400 
 17 C       -1.9250     5.5970     0.0870 C.3   1 <1>  -0.0590 
 18 C       -5.5020    -1.7530     1.7680 C.2   1 <1>   0.9060 
 19 C       -7.2290    -0.4940     0.4600 C.3   1 <1>  -0.1600 
 20 O       -5.5020    -2.9580     1.4730 O.co2 1 <1>  -0.9000 
 21 O       -5.3580    -1.3850     2.9400 O.co2 1 <1>  -0.9000 
 22 C       -7.6630     0.4660    -0.6630 C.3   1 <1>  -0.1600 
 23 C       -9.1890     0.5700    -0.7260 C.3   1 <1>  -0.2400 
 24 H       -3.0390    -1.5950    -1.4130 H     1 <1>   0.0800 
 25 H       -3.2530    -2.0650     0.2570 H     1 <1>   0.0800 
 26 H       -3.3110    -0.2200     2.0420 H     1 <1>   0.0800 
 27 H       -3.0810     1.4270     1.5620 H     1 <1>   0.0800 
 28 H       -3.4190     3.1210    -0.3630 H     1 <1>   0.1500 
 29 H       -5.1780    -0.4850    -1.4530 H     1 <1>   0.0800 
 30 H       -5.4570     0.9960     1.9850 H     1 <1>   0.0800 
 31 H       -5.1900     1.4010     0.3180 H     1 <1>   0.0800 
 32 H        0.7700     0.6810     0.0180 H     1 <1>   0.0800 
 33 H        1.2480     1.5690    -1.4010 H     1 <1>   0.0800 
 34 H       -5.5840    -2.9310    -0.1960 H     1 <1>   0.4000 
 35 H        1.8670     2.3880     1.4630 H     1 <1>   0.0800 
 36 H        2.4120     3.2290     0.0240 H     1 <1>   0.0800 
 37 H        3.0010     1.6240     0.3740 H     1 <1>   0.0800 
 38 H       -2.9950     5.6810     0.0520 H     1 <1>   0.0800 
 39 H       -1.4970     6.2010    -0.6910 H     1 <1>   0.0800 
 40 H       -1.5720     5.9510     1.0380 H     1 <1>   0.0800 
 41 H       -7.6700    -1.4580     0.2710 H     1 <1>   0.0800 
 42 H       -7.6380    -0.1480     1.3950 H     1 <1>   0.0800 
 43 H       -7.2590     1.4480    -0.4970 H     1 <1>   0.0800 
 44 H       -7.3050     0.1050    -1.6110 H     1 <1>   0.0800 
 45 H       -9.5780     0.9450     0.2040 H     1 <1>   0.0800 
 46 H       -9.6200    -0.3970    -0.9170 H     1 <1>   0.0800 
 47 H       -9.4810     1.2380    -1.5170 H     1 <1>   0.0800 
@<TRIPOS>BOND
  1   1   2  2   
  2   2   3  am  
  3   2   4  1   
  4   3   5  1   
  5   3   6  1   
  6   4   7  1   
  7   4   8  2   
  8   5   9  1   
  9   5  24  1   
 10   5  25  1   
 11   6  10  1   
 12   6  26  1   
 13   6  27  1   
 14   7  11  1   
 15   7  12  1   
 16   8  13  1   
 17   8  28  1   
 18   9  14  1   
 19   9  15  1   
 20   9  29  1   
 21  10  15  1   
 22  10  30  1   
 23  10  31  1   
 24  11  13  2   
 25  12  16  1   
 26  12  32  1   
 27  12  33  1   
 28  13  17  1   
 29  14  34  1   
 30  15  18  1   
 31  15  19  1   
 32  16  35  1   
 33  16  36  1   
 34  16  37  1   
 35  17  38  1   
 36  17  39  1   
 37  17  40  1   
 38  18  20  ar  
 39  18  21  ar  
 40  19  22  1   
 41  19  41  1   
 42  19  42  1   
 43  22  23  1   
 44  22  43  1   
 45  22  44  1   
 46  23  45  1   
 47  23  46  1   
 48  23  47  1   
@<TRIPOS>SUBSTRUCTURE
  1 ****   3 GROUP 4 **** **** 0

# MOE 2024.06 (io_trps.svl 2023.06)
