@<TRIPOS>MOLECULE
NONAME
40 42 1 0 0 
SMALL
USER_CHARGES


@<TRIPOS>ATOM
  1 O       -0.5290     0.2050    -0.0880 O.2   1 <1>  -0.5700 
  2 C       -1.5730     0.8300    -0.0130 C.2   1 <1>   0.5440 
  3 N       -2.7440     0.0960    -0.1010 N.am  1 <1>  -0.6600 
  4 C       -1.5140     2.2890     0.1400 C.ar  1 <1>   0.3960 
  5 C       -4.1290     0.6330    -0.1190 C.3   1 <1>   0.1400 
  6 C       -2.7600    -1.3820    -0.2490 C.3   1 <1>   0.1400 
  7 N       -2.5280     2.9860     0.6870 N.ar  1 <1>  -0.6200 
  8 C       -0.3570     2.9460    -0.2970 C.ar  1 <1>   0.1600 
  9 C       -5.0230    -0.5770    -0.3950 C.3   1 <1>   0.2000 
 10 C       -4.2060    -1.7950     0.0290 C.3   1 <1>  -0.0800 
 11 C       -2.3020     4.2850     0.7500 C.ar  1 <1>   0.1600 
 12 N       -0.1340     4.2500    -0.2390 N.ar  1 <1>  -0.6200 
 13 O       -6.2010    -0.5180     0.3340 O.3   1 <1>  -0.6800 
 14 C       -4.6440    -3.0810    -0.6910 C.3   1 <1>  -0.0170 
 15 C       -1.1410     4.9060     0.3010 C.ar  1 <1>   0.1670 
 16 C       -3.8250    -4.2800    -0.2420 C.ar  1 <1>   0.1670 
 17 C       -0.9700     6.4070     0.4140 C.3   1 <1>  -0.0970 
 18 N       -2.6820    -4.4830    -0.8790 N.ar  1 <1>  -0.6200 
 19 C       -4.2930    -5.0830     0.7870 C.ar  1 <1>  -0.1500 
 20 C       -1.9760    -5.5260    -0.4730 C.ar  1 <1>   0.1600 
 21 C       -3.5480    -6.1670     1.2000 C.ar  1 <1>  -0.1500 
 22 C       -2.3560    -6.3850     0.5440 C.ar  1 <1>  -0.1500 
 23 H       -4.3540     1.0620     0.8420 H     1 <1>   0.0800 
 24 H       -4.2360     1.3740    -0.8910 H     1 <1>   0.0800 
 25 H       -2.4730    -1.6370    -1.2560 H     1 <1>   0.0800 
 26 H       -2.0760    -1.8490     0.4400 H     1 <1>   0.0800 
 27 H        0.4300     2.3470    -0.7220 H     1 <1>   0.1500 
 28 H       -5.2700    -0.6150    -1.4420 H     1 <1>   0.0800 
 29 H       -4.2950    -1.9340     1.0920 H     1 <1>   0.0800 
 30 H       -3.0780     4.8930     1.1810 H     1 <1>   0.1500 
 31 H       -6.0040    -0.4580     1.2880 H     1 <1>   0.4000 
 32 H       -4.5370    -2.9630    -1.7550 H     1 <1>   0.0800 
 33 H       -5.6840    -3.2640    -0.4890 H     1 <1>   0.0800 
 34 H       -1.8320     6.8670     0.8610 H     1 <1>   0.0800 
 35 H       -0.8200     6.8260    -0.5640 H     1 <1>   0.0800 
 36 H       -0.1070     6.6260     1.0170 H     1 <1>   0.0800 
 37 H       -5.2310    -4.8630     1.2640 H     1 <1>   0.1500 
 38 H       -1.0430    -5.7060    -0.9780 H     1 <1>   0.1500 
 39 H       -3.8810    -6.8110     1.9960 H     1 <1>   0.1500 
 40 H       -1.7250    -7.2110     0.8160 H     1 <1>   0.1500 
@<TRIPOS>BOND
  1   1   2  2   
  2   2   3  am  
  3   2   4  1   
  4   3   5  1   
  5   3   6  1   
  6   4   7  ar  
  7   4   8  ar  
  8   5   9  1   
  9   5  23  1   
 10   5  24  1   
 11   6  10  1   
 12   6  25  1   
 13   6  26  1   
 14   7  11  ar  
 15   8  12  ar  
 16   8  27  1   
 17   9  10  1   
 18   9  13  1   
 19   9  28  1   
 20  10  14  1   
 21  10  29  1   
 22  11  15  ar  
 23  11  30  1   
 24  12  15  ar  
 25  13  31  1   
 26  14  16  1   
 27  14  32  1   
 28  14  33  1   
 29  15  17  1   
 30  16  18  ar  
 31  16  19  ar  
 32  17  34  1   
 33  17  35  1   
 34  17  36  1   
 35  18  20  ar  
 36  19  21  ar  
 37  19  37  1   
 38  20  22  ar  
 39  20  38  1   
 40  21  22  ar  
 41  21  39  1   
 42  22  40  1   
@<TRIPOS>SUBSTRUCTURE
  1 ****   3 GROUP 4 **** **** 0

# MOE 2024.06 (io_trps.svl 2023.06)
