@<TRIPOS>MOLECULE
NONAME
44 46 1 0 0 
SMALL
USER_CHARGES


@<TRIPOS>ATOM
  1 O        0.9870     0.6210    -0.0830 O.co2 1 <1>  -0.9000 
  2 C        0.3450     1.6270    -0.4500 C.2   1 <1>   1.0330 
  3 O       -0.6550     1.4530    -1.1720 O.co2 1 <1>  -0.9000 
  4 C        0.7980     2.9530    -0.0220 C.2   1 <1>  -0.0060 
  5 N        0.2350     4.1830    -0.2860 N.2   1 <1>  -0.5650 
  6 C        1.8910     3.1830     0.7350 C.2   1 <1>  -0.0100 
  7 C        1.0070     5.0120     0.3090 C.2   1 <1>   0.2980 
  8 O        2.0200     4.4640     0.9380 O.3   1 <1>  -0.2800 
  9 C        0.8450     6.5270     0.3380 C.3   1 <1>   0.2900 
 10 N        1.9470     7.2250    -0.3850 N.3   1 <1>  -0.8100 
 11 C        2.0740     8.6460    -0.0140 C.3   1 <1>   0.1100 
 12 C        1.8120     7.0150    -1.8390 C.3   1 <1>   0.0300 
 13 C        3.4990     9.2050    -0.2740 C.3   1 <1>   0.4230 
 14 N        4.5890     8.6200     0.5970 N.4   1 <1>  -0.9590 
 15 C        3.4860    10.7310    -0.0970 C.3   1 <1>  -0.0170 
 16 C        5.9170     9.0280     0.0640 C.3   1 <1>   0.4860 
 17 C        4.5440     7.1270     0.7510 C.3   1 <1>   0.2630 
 18 C        4.8790    11.3410    -0.1100 C.ar  1 <1>  -0.1430 
 19 C        6.0140    10.5420    -0.0200 C.ar  1 <1>  -0.1430 
 20 C        5.0110    12.7170    -0.1970 C.ar  1 <1>  -0.1500 
 21 C        7.2690    11.1340    -0.0190 C.ar  1 <1>  -0.1500 
 22 C        6.2650    13.3000    -0.1950 C.ar  1 <1>  -0.1500 
 23 C        7.3940    12.5080    -0.1060 C.ar  1 <1>  -0.1500 
 24 H        2.5940     2.4800     1.1460 H     1 <1>   0.1500 
 25 H        0.8340     6.8250     1.3700 H     1 <1>   0.0800 
 26 H       -0.1060     6.7850    -0.0970 H     1 <1>   0.0800 
 27 H        1.8480     8.7730     1.0310 H     1 <1>   0.0800 
 28 H        1.3510     9.2180    -0.5730 H     1 <1>   0.0800 
 29 H        1.7990     5.9590    -2.0610 H     1 <1>   0.0800 
 30 H        2.6400     7.4530    -2.3670 H     1 <1>   0.0800 
 31 H        0.8940     7.4470    -2.2010 H     1 <1>   0.0800 
 32 H        3.7410     8.9990    -1.3030 H     1 <1>   0.0800 
 33 H        4.5070     9.0580     1.5210 H     1 <1>   0.4500 
 34 H        3.0100    10.9850     0.8340 H     1 <1>   0.0800 
 35 H        2.9030    11.1670    -0.8890 H     1 <1>   0.0800 
 36 H        6.0620     8.6100    -0.9190 H     1 <1>   0.0800 
 37 H        6.6980     8.6600     0.7080 H     1 <1>   0.0800 
 38 H        4.5350     6.6500    -0.2160 H     1 <1>   0.0800 
 39 H        3.6480     6.8310     1.2730 H     1 <1>   0.0800 
 40 H        5.3940     6.7740     1.3100 H     1 <1>   0.0800 
 41 H        4.1420    13.3500    -0.2650 H     1 <1>   0.1500 
 42 H        8.1640    10.5380     0.0480 H     1 <1>   0.1500 
 43 H        6.3620    14.3700    -0.2640 H     1 <1>   0.1500 
 44 H        8.3690    12.9650    -0.1050 H     1 <1>   0.1500 
@<TRIPOS>BOND
  1   1   2  ar  
  2   2   3  ar  
  3   2   4  1   
  4   4   5  1   
  5   4   6  2   
  6   5   7  2   
  7   6   8  1   
  8   6  24  1   
  9   7   8  1   
 10   7   9  1   
 11   9  10  1   
 12   9  25  1   
 13   9  26  1   
 14  10  11  1   
 15  10  12  1   
 16  11  13  1   
 17  11  27  1   
 18  11  28  1   
 19  12  29  1   
 20  12  30  1   
 21  12  31  1   
 22  13  14  1   
 23  13  15  1   
 24  13  32  1   
 25  14  16  1   
 26  14  17  1   
 27  14  33  1   
 28  15  18  1   
 29  15  34  1   
 30  15  35  1   
 31  16  19  1   
 32  16  36  1   
 33  16  37  1   
 34  17  38  1   
 35  17  39  1   
 36  17  40  1   
 37  18  19  ar  
 38  18  20  ar  
 39  19  21  ar  
 40  20  22  ar  
 41  20  41  1   
 42  21  23  ar  
 43  21  42  1   
 44  22  23  ar  
 45  22  43  1   
 46  23  44  1   
@<TRIPOS>SUBSTRUCTURE
  1 ****  10 GROUP 4 **** **** 0

# MOE 2024.06 (io_trps.svl 2023.06)
