@<TRIPOS>MOLECULE
NONAME
54 56 1 0 0 
SMALL
USER_CHARGES


@<TRIPOS>ATOM
  1 S       -0.2810     0.0810     1.4640 S.3   1 <1>  -0.0800 
  2 C        0.7120    -1.1230     0.6800 C.2   1 <1>  -0.0450 
  3 C        0.6950     1.3420     0.7520 C.2   1 <1>   0.1980 
  4 C        1.6710    -0.4650    -0.0090 C.2   1 <1>   0.0460 
  5 C        0.3910    -2.5140     0.8480 C.2   1 <1>   0.7150 
  6 N        1.6470     0.9120     0.0230 N.2   1 <1>  -0.5650 
  7 C        0.3000     2.7730     1.0790 C.3   1 <1>   0.0200 
  8 C        2.7880    -1.1000    -0.8120 C.3   1 <1>  -0.0590 
  9 O        0.4410    -3.0210     1.9520 O.2   1 <1>  -0.5700 
 10 N        0.0250    -3.2750    -0.2380 N.am  1 <1>  -0.6600 
 11 C        1.1860     3.8160     0.3840 C.3   1 <1>  -0.2400 
 12 C       -0.0570    -4.7700    -0.1130 C.3   1 <1>   0.3640 
 13 C       -0.5240    -2.6230    -1.4690 C.3   1 <1>   0.1400 
 14 C        1.3190    -5.3790    -0.3990 C.ar  1 <1>  -0.1430 
 15 C       -1.1380    -5.4520    -1.0080 C.3   1 <1>   0.2000 
 16 C       -1.1630    -3.6100    -2.4530 C.3   1 <1>   0.1200 
 17 C        1.8200    -6.3430     0.4650 C.ar  1 <1>  -0.1500 
 18 C        2.0790    -5.0080    -1.5020 C.ar  1 <1>  -0.1500 
 19 O       -1.9120    -4.5470    -1.7530 O.3   1 <1>  -0.5600 
 20 C       -2.1160    -6.3000    -0.1850 C.3   1 <1>   0.1200 
 21 C        3.0510    -6.9360     0.2360 C.ar  1 <1>   0.0830 
 22 C        3.3180    -5.5830    -1.7320 C.ar  1 <1>  -0.1500 
 23 O       -1.4460    -7.3410     0.4530 O.3   1 <1>  -0.6800 
 24 O        3.4510    -7.8990     1.1010 O.3   1 <1>  -0.3630 
 25 C        3.8190    -6.5350    -0.8620 C.ar  1 <1>   0.0830 
 26 C        3.5390    -9.2080     0.5840 C.3   1 <1>   0.0400 
 27 O        5.0530    -7.0320    -1.1250 O.3   1 <1>  -0.3630 
 28 C        6.0570    -6.7580    -0.1720 C.3   1 <1>   0.0400 
 29 H       -0.7230     2.9230     0.7820 H     1 <1>   0.0800 
 30 H        0.3610     2.9090     2.1440 H     1 <1>   0.0800 
 31 H        2.7510    -2.1710    -0.7420 H     1 <1>   0.0800 
 32 H        3.7350    -0.7630    -0.4320 H     1 <1>   0.0800 
 33 H        2.7060    -0.8080    -1.8430 H     1 <1>   0.0800 
 34 H        1.1260     3.6980    -0.6840 H     1 <1>   0.0800 
 35 H        2.2110     3.6880     0.6850 H     1 <1>   0.0800 
 36 H        0.8680     4.8090     0.6430 H     1 <1>   0.0800 
 37 H       -0.3030    -5.0070     0.9080 H     1 <1>   0.0800 
 38 H       -1.2750    -1.9090    -1.1740 H     1 <1>   0.0800 
 39 H        0.2580    -2.0820    -1.9720 H     1 <1>   0.0800 
 40 H       -0.6540    -6.0980    -1.7190 H     1 <1>   0.0800 
 41 H       -0.4190    -4.1210    -3.0390 H     1 <1>   0.0800 
 42 H       -1.8250    -3.0880    -3.1220 H     1 <1>   0.0800 
 43 H        1.2550    -6.6510     1.3270 H     1 <1>   0.1500 
 44 H        1.7180    -4.2660    -2.1890 H     1 <1>   0.1500 
 45 H       -2.8730    -6.7280    -0.8190 H     1 <1>   0.0800 
 46 H       -2.5830    -5.6950     0.5740 H     1 <1>   0.0800 
 47 H        3.9060    -5.2910    -2.5820 H     1 <1>   0.1500 
 48 H       -1.1510    -8.0160    -0.1900 H     1 <1>   0.4000 
 49 H        3.7830    -9.8730     1.3930 H     1 <1>   0.0800 
 50 H        4.3090    -9.2450    -0.1660 H     1 <1>   0.0800 
 51 H        2.5890    -9.4770     0.1580 H     1 <1>   0.0800 
 52 H        6.9980    -7.0920    -0.5690 H     1 <1>   0.0800 
 53 H        5.8380    -7.2830     0.7400 H     1 <1>   0.0800 
 54 H        6.0860    -5.6970     0.0070 H     1 <1>   0.0800 
@<TRIPOS>BOND
  1   1   2  1   
  2   1   3  1   
  3   2   4  2   
  4   2   5  1   
  5   3   6  2   
  6   3   7  1   
  7   4   6  1   
  8   4   8  1   
  9   5   9  2   
 10   5  10  am  
 11   7  11  1   
 12   7  29  1   
 13   7  30  1   
 14   8  31  1   
 15   8  32  1   
 16   8  33  1   
 17  10  12  1   
 18  10  13  1   
 19  11  34  1   
 20  11  35  1   
 21  11  36  1   
 22  12  14  1   
 23  12  15  1   
 24  12  37  1   
 25  13  16  1   
 26  13  38  1   
 27  13  39  1   
 28  14  17  ar  
 29  14  18  ar  
 30  15  19  1   
 31  15  20  1   
 32  15  40  1   
 33  16  19  1   
 34  16  41  1   
 35  16  42  1   
 36  17  21  ar  
 37  17  43  1   
 38  18  22  ar  
 39  18  44  1   
 40  20  23  1   
 41  20  45  1   
 42  20  46  1   
 43  21  24  1   
 44  21  25  ar  
 45  22  25  ar  
 46  22  47  1   
 47  23  48  1   
 48  24  26  1   
 49  25  27  1   
 50  26  49  1   
 51  26  50  1   
 52  26  51  1   
 53  27  28  1   
 54  28  52  1   
 55  28  53  1   
 56  28  54  1   
@<TRIPOS>SUBSTRUCTURE
  1 ****  10 GROUP 4 **** **** 0

# MOE 2024.06 (io_trps.svl 2023.06)
