@<TRIPOS>MOLECULE
NONAME
62 65 1 0 0 
SMALL
USER_CHARGES


@<TRIPOS>ATOM
  1 O        3.0100    -3.9300     1.4330 O.2   1 <1>  -0.5700 
  2 C        3.1500    -2.9960     0.6630 C.2   1 <1>   0.6900 
  3 N        2.5090    -2.8440    -0.5380 N.am  1 <1>  -0.4770 
  4 N        4.0440    -2.0180     0.8710 N.am  1 <1>  -0.7300 
  5 C        1.7160    -3.8110    -1.1790 C.ar  1 <1>   0.1170 
  6 C        3.1070    -1.6930    -1.2630 C.3   1 <1>   0.1400 
  7 C        4.1840    -1.1490    -0.3070 C.3   1 <1>   0.1400 
  8 C        0.4900    -3.5280    -1.7870 C.ar  1 <1>  -0.1430 
  9 C        2.1590    -5.1230    -1.1630 C.ar  1 <1>  -0.1500 
 10 C       -0.2450    -4.5630    -2.3450 C.ar  1 <1>  -0.1500 
 11 C       -0.0880    -2.1200    -1.8360 C.3   1 <1>  -0.0970 
 12 C        1.4000    -6.1850    -1.6380 C.ar  1 <1>   0.0860 
 13 C        0.1980    -5.8700    -2.2680 C.ar  1 <1>  -0.1500 
 14 C        1.8320    -7.5560    -1.4210 C.2   1 <1>   0.5440 
 15 O        1.2810    -8.4980    -1.9580 O.2   1 <1>  -0.5700 
 16 N        2.7870    -7.8630    -0.4820 N.am  1 <1>  -0.6600 
 17 C        2.4660    -7.5330     0.9570 C.3   1 <1>   0.2200 
 18 C        3.7780    -8.9470    -0.7720 C.3   1 <1>   0.1400 
 19 C        3.7070    -7.4270     1.8560 C.3   1 <1>   0.1200 
 20 C        1.4520    -8.5570     1.5230 C.3   1 <1>   0.3430 
 21 C        3.9250   -10.0020     0.3410 C.3   1 <1>  -0.0800 
 22 O        4.0580    -8.6830     2.3620 O.3   1 <1>  -0.5600 
 23 N        1.3890    -9.8190     0.7020 N.4   1 <1>  -0.9590 
 24 C        4.7890    -9.4940     1.5060 C.3   1 <1>   0.1200 
 25 C        2.6170   -10.6670     0.8240 C.3   1 <1>   0.3430 
 26 C        0.1430   -10.5860     0.9540 C.3   1 <1>   0.3430 
 27 C       -0.5470   -10.9710    -0.3670 C.3   1 <1>  -0.0800 
 28 C       -1.8600   -11.7050    -0.0650 C.3   1 <1>  -0.2400 
 29 C        0.3240   -11.8470    -1.2830 C.3   1 <1>  -0.2400 
 30 H        4.7340    -2.0840     1.6200 H     1 <1>   0.3700 
 31 H        3.5420    -2.0200    -2.1910 H     1 <1>   0.0800 
 32 H        2.3650    -0.9400    -1.4530 H     1 <1>   0.0800 
 33 H        3.9930    -0.1220    -0.0470 H     1 <1>   0.0800 
 34 H        5.1670    -1.2460    -0.7360 H     1 <1>   0.0800 
 35 H        3.1240    -5.3210    -0.7360 H     1 <1>   0.1500 
 36 H       -1.1820    -4.3570    -2.8330 H     1 <1>   0.1500 
 37 H       -1.1460    -2.1470    -2.0250 H     1 <1>   0.0800 
 38 H        0.3830    -1.5550    -2.6190 H     1 <1>   0.0800 
 39 H        0.0650    -1.6220    -0.8950 H     1 <1>   0.0800 
 40 H       -0.3990    -6.6610    -2.6890 H     1 <1>   0.1500 
 41 H        1.9980    -6.5650     0.9930 H     1 <1>   0.0800 
 42 H        3.5020    -9.4470    -1.6860 H     1 <1>   0.0800 
 43 H        4.7350    -8.4870    -0.9530 H     1 <1>   0.0800 
 44 H        3.4720    -6.8080     2.7050 H     1 <1>   0.0800 
 45 H        4.5400    -6.9790     1.3410 H     1 <1>   0.0800 
 46 H        0.4830    -8.0890     1.5220 H     1 <1>   0.0800 
 47 H        1.7010    -8.7870     2.5460 H     1 <1>   0.0800 
 48 H        4.5090   -10.7930    -0.0940 H     1 <1>   0.0800 
 49 H        1.3590    -9.4870    -0.2870 H     1 <1>   0.4500 
 50 H        5.6520    -8.9500     1.1580 H     1 <1>   0.0800 
 51 H        5.1360   -10.3270     2.0920 H     1 <1>   0.0800 
 52 H        2.7410   -10.9730     1.8500 H     1 <1>   0.0800 
 53 H        2.4680   -11.5580     0.2380 H     1 <1>   0.0800 
 54 H        0.3620   -11.4750     1.5230 H     1 <1>   0.0800 
 55 H       -0.5420    -9.9860     1.5290 H     1 <1>   0.0800 
 56 H       -0.7960   -10.0650    -0.8960 H     1 <1>   0.0800 
 57 H       -1.6740   -12.6310     0.4530 H     1 <1>   0.0800 
 58 H       -2.3800   -11.9290    -0.9810 H     1 <1>   0.0800 
 59 H       -2.5060   -11.0940     0.5410 H     1 <1>   0.0800 
 60 H        0.6380   -12.7440    -0.7770 H     1 <1>   0.0800 
 61 H        1.1910   -11.3090    -1.6230 H     1 <1>   0.0800 
 62 H       -0.2350   -12.1330    -2.1580 H     1 <1>   0.0800 
@<TRIPOS>BOND
  1   1   2  2   
  2   2   3  am  
  3   2   4  am  
  4   3   5  1   
  5   3   6  1   
  6   4   7  1   
  7   4  30  1   
  8   5   8  ar  
  9   5   9  ar  
 10   6   7  1   
 11   6  31  1   
 12   6  32  1   
 13   7  33  1   
 14   7  34  1   
 15   8  10  ar  
 16   8  11  1   
 17   9  12  ar  
 18   9  35  1   
 19  10  13  ar  
 20  10  36  1   
 21  11  37  1   
 22  11  38  1   
 23  11  39  1   
 24  12  13  ar  
 25  12  14  1   
 26  13  40  1   
 27  14  15  2   
 28  14  16  am  
 29  16  17  1   
 30  16  18  1   
 31  17  19  1   
 32  17  20  1   
 33  17  41  1   
 34  18  21  1   
 35  18  42  1   
 36  18  43  1   
 37  19  22  1   
 38  19  44  1   
 39  19  45  1   
 40  20  23  1   
 41  20  46  1   
 42  20  47  1   
 43  21  24  1   
 44  21  25  1   
 45  21  48  1   
 46  22  24  1   
 47  23  25  1   
 48  23  26  1   
 49  23  49  1   
 50  24  50  1   
 51  24  51  1   
 52  25  52  1   
 53  25  53  1   
 54  26  27  1   
 55  26  54  1   
 56  26  55  1   
 57  27  28  1   
 58  27  29  1   
 59  27  56  1   
 60  28  57  1   
 61  28  58  1   
 62  28  59  1   
 63  29  60  1   
 64  29  61  1   
 65  29  62  1   
@<TRIPOS>SUBSTRUCTURE
  1 ****  16 GROUP 4 **** **** 0

# MOE 2024.06 (io_trps.svl 2023.06)
