@<TRIPOS>MOLECULE
NONAME
40 42 1 0 0 
SMALL
USER_CHARGES


@<TRIPOS>ATOM
  1 CL       1.2730     1.0840    -1.4870 Cl    1 <1>  -0.1770 
  2 C        2.2840    -0.2240    -0.9210 C.ar  1 <1>   0.1770 
  3 C        3.1930    -0.0040     0.1050 C.ar  1 <1>  -0.1440 
  4 C        2.1620    -1.4550    -1.5340 C.ar  1 <1>  -0.1500 
  5 C        4.0010    -1.0590     0.5270 C.ar  1 <1>  -0.1440 
  6 C        3.2770     1.3790     0.7250 C.3   1 <1>   0.4870 
  7 C        2.9680    -2.4960    -1.1170 C.ar  1 <1>  -0.1500 
  8 C        3.8800    -2.2940    -0.0950 C.ar  1 <1>  -0.1500 
  9 C        5.0200    -0.9210     1.6520 C.3   1 <1>  -0.0970 
 10 N        4.5010     2.0640     0.2310 N.4   1 <1>  -0.9590 
 11 C        4.8560     3.2730     1.0600 C.3   1 <1>   0.3430 
 12 C        4.4910     2.2600    -1.2600 C.3   1 <1>   0.3430 
 13 C        6.2570     3.8860     0.7760 C.3   1 <1>   0.2200 
 14 C        5.8650     2.5970    -1.8580 C.3   1 <1>  -0.0190 
 15 N        6.2490     4.6240    -0.5070 N.am  1 <1>  -0.7300 
 16 C        7.4060     2.8470     0.7930 C.3   1 <1>   0.1200 
 17 C        6.0940     4.0780    -1.7250 C.2   1 <1>   0.5690 
 18 C        7.0710     1.7860    -1.3330 C.3   1 <1>   0.1200 
 19 O        7.1040     1.6810     0.0660 O.3   1 <1>  -0.5600 
 20 O        6.1080     4.7680    -2.7060 O.2   1 <1>  -0.5700 
 21 H        1.4470    -1.5970    -2.3260 H     1 <1>   0.1500 
 22 H        3.3190     1.2770     1.7970 H     1 <1>   0.0800 
 23 H        2.4030     1.9590     0.4820 H     1 <1>   0.0800 
 24 H        2.8870    -3.4640    -1.5840 H     1 <1>   0.1500 
 25 H        4.4980    -3.1210     0.2150 H     1 <1>   0.1500 
 26 H        5.2800    -1.8900     2.0420 H     1 <1>   0.0800 
 27 H        4.6260    -0.3440     2.4690 H     1 <1>   0.0800 
 28 H        5.9210    -0.4610     1.2880 H     1 <1>   0.0800 
 29 H        5.2910     1.4040     0.3740 H     1 <1>   0.4500 
 30 H        4.1110     4.0400     0.9210 H     1 <1>   0.0800 
 31 H        4.8350     2.9880     2.0980 H     1 <1>   0.0800 
 32 H        4.1580     1.3480    -1.7260 H     1 <1>   0.0800 
 33 H        3.7860     3.0320    -1.5250 H     1 <1>   0.0800 
 34 H        6.4610     4.6080     1.5480 H     1 <1>   0.0800 
 35 H        5.7980     2.4060    -2.9140 H     1 <1>   0.0800 
 36 H        6.4530     5.6300    -0.4900 H     1 <1>   0.3700 
 37 H        7.5870     2.5370     1.8070 H     1 <1>   0.0800 
 38 H        8.3190     3.2740     0.4110 H     1 <1>   0.0800 
 39 H        8.0000     2.2180    -1.6710 H     1 <1>   0.0800 
 40 H        7.0170     0.7810    -1.7170 H     1 <1>   0.0800 
@<TRIPOS>BOND
  1   1   2  1   
  2   2   3  ar  
  3   2   4  ar  
  4   3   5  ar  
  5   3   6  1   
  6   4   7  ar  
  7   4  21  1   
  8   5   8  ar  
  9   5   9  1   
 10   6  10  1   
 11   6  22  1   
 12   6  23  1   
 13   7   8  ar  
 14   7  24  1   
 15   8  25  1   
 16   9  26  1   
 17   9  27  1   
 18   9  28  1   
 19  10  11  1   
 20  10  12  1   
 21  10  29  1   
 22  11  13  1   
 23  11  30  1   
 24  11  31  1   
 25  12  14  1   
 26  12  32  1   
 27  12  33  1   
 28  13  15  1   
 29  13  16  1   
 30  13  34  1   
 31  14  17  1   
 32  14  18  1   
 33  14  35  1   
 34  15  17  am  
 35  15  36  1   
 36  16  19  1   
 37  16  37  1   
 38  16  38  1   
 39  17  20  2   
 40  18  19  1   
 41  18  39  1   
 42  18  40  1   
@<TRIPOS>SUBSTRUCTURE
  1 ****  10 GROUP 4 **** **** 0

# MOE 2024.06 (io_trps.svl 2023.06)
