@<TRIPOS>MOLECULE
NONAME
54 56 1 0 0 
SMALL
USER_CHARGES


@<TRIPOS>ATOM
  1 O        1.4410    -0.3170    -2.8610 O.2   1 <1>  -0.5700 
  2 C        1.6520    -0.6570    -1.7220 C.2   1 <1>   0.5690 
  3 N        1.9700     0.2830    -0.7620 N.am  1 <1>  -0.6600 
  4 C        1.6060    -2.1580    -1.4420 C.3   1 <1>   0.0440 
  5 C        2.5730    -0.0210     0.5690 C.3   1 <1>   0.1400 
  6 C        1.7530     1.7340    -1.0300 C.3   1 <1>   0.1400 
  7 C        0.7810    -2.5640    -0.2240 C.ar  1 <1>  -0.1440 
  8 C        4.1010    -0.1640     0.4520 C.3   1 <1>   0.3430 
  9 C        3.0640     2.5290    -0.9900 C.3   1 <1>  -0.1600 
 10 C        1.2440    -3.5550     0.6300 C.ar  1 <1>  -0.1500 
 11 C       -0.4330    -1.9490     0.0450 C.ar  1 <1>  -0.1500 
 12 N        4.8160     1.0890     0.0250 N.4   1 <1>  -0.9590 
 13 C        4.3170     1.6930    -1.2540 C.3   1 <1>   0.3430 
 14 C        0.5130    -3.9110     1.7500 C.ar  1 <1>  -0.1500 
 15 C       -1.1640    -2.3050     1.1650 C.ar  1 <1>  -0.1500 
 16 C        6.2730     0.8670    -0.0580 C.3   1 <1>   0.5230 
 17 C       -0.6900    -3.2830     2.0200 C.ar  1 <1>  -0.1500 
 18 C        6.9060     2.2150     0.1770 C.2   1 <1>  -0.3320 
 19 N        7.1850     2.7310     1.4110 N.pl3 1 <1>   0.0480 
 20 C        7.2970     3.1060    -0.7710 C.2   1 <1>  -0.1500 
 21 C        7.7320     3.9490     1.2150 C.2   1 <1>  -0.3020 
 22 C        7.0030     2.0980     2.7330 C.3   1 <1>   0.0160 
 23 C        7.8240     4.2380    -0.1240 C.2   1 <1>  -0.0860 
 24 C        8.3290     5.4050    -0.7990 C.2   1 <1>   0.5950 
 25 O        8.2750     5.5450    -1.9940 O.2   1 <1>  -0.5700 
 26 C        8.9500     6.5150     0.0180 C.3   1 <1>  -0.1790 
 27 H        2.6140    -2.5100    -1.3420 H     1 <1>   0.0800 
 28 H        1.1850    -2.6480    -2.3010 H     1 <1>   0.0800 
 29 H        2.1670    -0.9290     0.9690 H     1 <1>   0.0800 
 30 H        2.3280     0.7590     1.2700 H     1 <1>   0.0800 
 31 H        1.0590     2.1310    -0.3070 H     1 <1>   0.0800 
 32 H        1.2970     1.8650    -1.9980 H     1 <1>   0.0800 
 33 H        4.3090    -0.9530    -0.2510 H     1 <1>   0.0800 
 34 H        4.4820    -0.4760     1.4110 H     1 <1>   0.0800 
 35 H        3.1510     3.0580    -0.0580 H     1 <1>   0.0800 
 36 H        2.9980     3.2800    -1.7580 H     1 <1>   0.0800 
 37 H        2.1720    -4.0630     0.4310 H     1 <1>   0.1500 
 38 H       -0.8200    -1.1900    -0.6140 H     1 <1>   0.1500 
 39 H        4.7070     1.8190     0.7370 H     1 <1>   0.4500 
 40 H        5.0720     2.3490    -1.6560 H     1 <1>   0.0800 
 41 H        4.1110     0.9300    -1.9890 H     1 <1>   0.0800 
 42 H        0.8740    -4.6810     2.4100 H     1 <1>   0.1500 
 43 H       -2.1040    -1.8230     1.3690 H     1 <1>   0.1500 
 44 H        6.5420     0.4850    -1.0310 H     1 <1>   0.0800 
 45 H        6.6050     0.1720     0.6950 H     1 <1>   0.0800 
 46 H       -1.2600    -3.5610     2.8900 H     1 <1>   0.1500 
 47 H        7.2460     3.0250    -1.8460 H     1 <1>   0.1500 
 48 H        8.0480     4.5740     2.0340 H     1 <1>   0.1500 
 49 H        7.5170     1.1550     2.7550 H     1 <1>   0.0800 
 50 H        5.9560     1.9530     2.9270 H     1 <1>   0.0800 
 51 H        7.4150     2.7360     3.4950 H     1 <1>   0.0800 
 52 H        9.7430     6.1210     0.6250 H     1 <1>   0.0800 
 53 H        8.2030     6.9620     0.6480 H     1 <1>   0.0800 
 54 H        9.3520     7.2680    -0.6350 H     1 <1>   0.0800 
@<TRIPOS>BOND
  1   1   2  2   
  2   2   3  am  
  3   2   4  1   
  4   3   5  1   
  5   3   6  1   
  6   4   7  1   
  7   4  27  1   
  8   4  28  1   
  9   5   8  1   
 10   5  29  1   
 11   5  30  1   
 12   6   9  1   
 13   6  31  1   
 14   6  32  1   
 15   7  10  ar  
 16   7  11  ar  
 17   8  12  1   
 18   8  33  1   
 19   8  34  1   
 20   9  13  1   
 21   9  35  1   
 22   9  36  1   
 23  10  14  ar  
 24  10  37  1   
 25  11  15  ar  
 26  11  38  1   
 27  12  13  1   
 28  12  16  1   
 29  12  39  1   
 30  13  40  1   
 31  13  41  1   
 32  14  17  ar  
 33  14  42  1   
 34  15  17  ar  
 35  15  43  1   
 36  16  18  1   
 37  16  44  1   
 38  16  45  1   
 39  17  46  1   
 40  18  19  1   
 41  18  20  2   
 42  19  21  1   
 43  19  22  1   
 44  20  23  1   
 45  20  47  1   
 46  21  23  2   
 47  21  48  1   
 48  22  49  1   
 49  22  50  1   
 50  22  51  1   
 51  23  24  1   
 52  24  25  2   
 53  24  26  1   
 54  26  52  1   
 55  26  53  1   
 56  26  54  1   
@<TRIPOS>SUBSTRUCTURE
  1 ****  12 GROUP 4 **** **** 0

# MOE 2024.06 (io_trps.svl 2023.06)
