@<TRIPOS>MOLECULE
NONAME
46 49 1 0 0 
SMALL
USER_CHARGES


@<TRIPOS>ATOM
  1 O       -0.8700     0.2380    -0.6740 O.2   1 <1>  -0.5700 
  2 C       -1.6970     0.8550    -0.0320 C.2   1 <1>   0.5440 
  3 N       -2.7450     0.1610     0.5310 N.am  1 <1>  -0.6600 
  4 C       -1.5740     2.2920     0.0950 C.ar  1 <1>   0.0860 
  5 C       -2.7310    -1.3330     0.6370 C.3   1 <1>   0.1400 
  6 C       -4.1260     0.7260     0.6470 C.3   1 <1>   0.1400 
  7 C       -1.1620     3.0610    -0.9890 C.ar  1 <1>   0.1600 
  8 C       -1.8510     2.9680     1.2760 C.ar  1 <1>  -0.1500 
  9 C       -3.7730    -1.9630    -0.3050 C.3   1 <1>   0.3440 
 10 C       -5.1020    -0.0190    -0.2870 C.3   1 <1>   0.2950 
 11 N       -1.0390     4.3800    -1.0030 N.ar  1 <1>  -0.6200 
 12 C       -1.7200     4.3400     1.2850 C.ar  1 <1>  -0.1500 
 13 O       -5.0370    -1.3980    -0.0680 O.3   1 <1>  -0.5600 
 14 C       -3.8350    -3.4740    -0.1020 C.ar  1 <1>  -0.1430 
 15 C       -6.5500     0.4180    -0.0480 C.3   1 <1>  -0.1950 
 16 C       -1.3180     4.9960     0.1320 C.ar  1 <1>   0.1670 
 17 C       -4.7100    -4.0530     0.8080 C.ar  1 <1>  -0.1500 
 18 C       -2.9860    -4.2940    -0.8330 C.ar  1 <1>  -0.1500 
 19 C       -7.5950     0.2460    -1.1040 C.3   1 <1>  -0.2000 
 20 C       -7.1170     1.6220    -0.7330 C.3   1 <1>  -0.2000 
 21 C       -1.1710     6.5020     0.1190 C.3   1 <1>  -0.0970 
 22 C       -4.7360    -5.4250     0.9840 C.ar  1 <1>  -0.1500 
 23 C       -3.0110    -5.6670    -0.6580 C.ar  1 <1>  -0.1500 
 24 C       -3.8860    -6.2340     0.2520 C.ar  1 <1>  -0.1500 
 25 H       -1.7570    -1.7230     0.3990 H     1 <1>   0.0800 
 26 H       -2.9550    -1.6210     1.6490 H     1 <1>   0.0800 
 27 H       -4.4640     0.6300     1.6630 H     1 <1>   0.0800 
 28 H       -4.1360     1.7700     0.3890 H     1 <1>   0.0800 
 29 H       -0.9220     2.5440    -1.9040 H     1 <1>   0.1500 
 30 H       -2.1540     2.4300     2.1580 H     1 <1>   0.1500 
 31 H       -3.5040    -1.7560    -1.3270 H     1 <1>   0.0800 
 32 H       -4.8370     0.1680    -1.3140 H     1 <1>   0.0800 
 33 H       -1.9270     4.8960     2.1820 H     1 <1>   0.1500 
 34 H       -6.8570     0.2460     0.9700 H     1 <1>   0.1000 
 35 H       -5.3780    -3.4330     1.3810 H     1 <1>   0.1500 
 36 H       -2.2990    -3.8680    -1.5430 H     1 <1>   0.1500 
 37 H       -7.3050    -0.1750    -2.0510 H     1 <1>   0.1000 
 38 H       -8.5790    -0.0670    -0.8000 H     1 <1>   0.1000 
 39 H       -7.7850     2.2660    -0.1870 H     1 <1>   0.1000 
 40 H       -6.5220     2.1610    -1.4510 H     1 <1>   0.1000 
 41 H       -1.4160     6.9270     1.0750 H     1 <1>   0.0800 
 42 H       -1.8240     6.9200    -0.6260 H     1 <1>   0.0800 
 43 H       -0.1570     6.7610    -0.1270 H     1 <1>   0.0800 
 44 H       -5.4190    -5.8620     1.6910 H     1 <1>   0.1500 
 45 H       -2.3490    -6.2940    -1.2290 H     1 <1>   0.1500 
 46 H       -3.9060    -7.3010     0.3880 H     1 <1>   0.1500 
@<TRIPOS>BOND
  1   1   2  2   
  2   2   3  am  
  3   2   4  1   
  4   3   5  1   
  5   3   6  1   
  6   4   7  ar  
  7   4   8  ar  
  8   5   9  1   
  9   5  25  1   
 10   5  26  1   
 11   6  10  1   
 12   6  27  1   
 13   6  28  1   
 14   7  11  ar  
 15   7  29  1   
 16   8  12  ar  
 17   8  30  1   
 18   9  13  1   
 19   9  14  1   
 20   9  31  1   
 21  10  13  1   
 22  10  15  1   
 23  10  32  1   
 24  11  16  ar  
 25  12  16  ar  
 26  12  33  1   
 27  14  17  ar  
 28  14  18  ar  
 29  15  19  1   
 30  15  20  1   
 31  15  34  1   
 32  16  21  1   
 33  17  22  ar  
 34  17  35  1   
 35  18  23  ar  
 36  18  36  1   
 37  19  20  1   
 38  19  37  1   
 39  19  38  1   
 40  20  39  1   
 41  20  40  1   
 42  21  41  1   
 43  21  42  1   
 44  21  43  1   
 45  22  24  ar  
 46  22  44  1   
 47  23  24  ar  
 48  23  45  1   
 49  24  46  1   
@<TRIPOS>SUBSTRUCTURE
  1 ****   3 GROUP 4 **** **** 0

# MOE 2024.06 (io_trps.svl 2023.06)
