@<TRIPOS>MOLECULE
NONAME
39 40 1 0 0 
SMALL
USER_CHARGES


@<TRIPOS>ATOM
  1 CL      -0.4220    -0.5770     2.6420 Cl    1 <1>  -0.1230 
  2 C       -1.1250    -1.9020     1.7330 C.2   1 <1>   0.1230 
  3 C       -0.4400    -2.9980     1.2310 C.2   1 <1>   0.1390 
  4 C       -2.4140    -2.0650     1.3850 C.2   1 <1>  -0.3020 
  5 N       -1.2480    -3.8060     0.6040 N.2   1 <1>  -0.7070 
  6 N       -2.4660    -3.2260     0.7000 N.pl3 1 <1>   0.3140 
  7 C       -3.6620    -3.8400     0.1000 C.3   1 <1>   0.0960 
  8 C       -3.4100    -5.3410    -0.0850 C.3   1 <1>   0.3430 
  9 N       -4.5810    -6.0610    -0.6790 N.4   1 <1>  -0.9590 
 10 C       -4.4580    -7.5440    -0.5130 C.3   1 <1>   0.4860 
 11 C       -4.8730    -5.7020    -2.1020 C.3   1 <1>   0.2630 
 12 C       -5.8610    -8.1390    -0.4170 C.ar  1 <1>   0.1670 
 13 N       -6.7700    -7.3910     0.2020 N.ar  1 <1>  -0.6200 
 14 C       -6.1210    -9.3850    -0.9670 C.ar  1 <1>  -0.1500 
 15 C       -7.9840    -7.9200     0.2820 C.ar  1 <1>   0.1600 
 16 C       -7.3910    -9.9120    -0.8790 C.ar  1 <1>  -0.1500 
 17 C       -8.3470    -9.1550    -0.2350 C.ar  1 <1>  -0.1430 
 18 C       -9.7710    -9.6710    -0.0900 C.3   1 <1>  -0.0170 
 19 C       -9.9220   -10.4750     1.2020 C.3   1 <1>  -0.2400 
 20 H        0.6190    -3.1580     1.3450 H     1 <1>   0.1500 
 21 H       -3.2590    -1.4320     1.5840 H     1 <1>   0.1500 
 22 H       -3.8390    -3.3630    -0.8440 H     1 <1>   0.0800 
 23 H       -4.4950    -3.6770     0.7580 H     1 <1>   0.0800 
 24 H       -3.1830    -5.7620     0.8820 H     1 <1>   0.0800 
 25 H       -2.5450    -5.4760    -0.7150 H     1 <1>   0.0800 
 26 H       -5.4430    -5.8790    -0.1240 H     1 <1>   0.4500 
 27 H       -3.9400    -7.7670     0.4060 H     1 <1>   0.0800 
 28 H       -3.9130    -7.9800    -1.3330 H     1 <1>   0.0800 
 29 H       -4.0310    -5.9400    -2.7320 H     1 <1>   0.0800 
 30 H       -5.0850    -4.6490    -2.1890 H     1 <1>   0.0800 
 31 H       -5.7340    -6.2500    -2.4520 H     1 <1>   0.0800 
 32 H       -5.3500    -9.9500    -1.4600 H     1 <1>   0.1500 
 33 H       -8.7360    -7.3390     0.7900 H     1 <1>   0.1500 
 34 H       -7.6270   -10.8790    -1.2930 H     1 <1>   0.1500 
 35 H      -10.0190   -10.2950    -0.9320 H     1 <1>   0.0800 
 36 H      -10.4620    -8.8450    -0.0840 H     1 <1>   0.0800 
 37 H       -9.2520   -11.3170     1.1990 H     1 <1>   0.0800 
 38 H      -10.9300   -10.8380     1.2960 H     1 <1>   0.0800 
 39 H       -9.6970    -9.8590     2.0560 H     1 <1>   0.0800 
@<TRIPOS>BOND
  1   1   2  1   
  2   2   3  1   
  3   2   4  2   
  4   3   5  2   
  5   3  20  1   
  6   4   6  1   
  7   4  21  1   
  8   5   6  1   
  9   6   7  1   
 10   7   8  1   
 11   7  22  1   
 12   7  23  1   
 13   8   9  1   
 14   8  24  1   
 15   8  25  1   
 16   9  10  1   
 17   9  11  1   
 18   9  26  1   
 19  10  12  1   
 20  10  27  1   
 21  10  28  1   
 22  11  29  1   
 23  11  30  1   
 24  11  31  1   
 25  12  13  ar  
 26  12  14  ar  
 27  13  15  ar  
 28  14  16  ar  
 29  14  32  1   
 30  15  17  ar  
 31  15  33  1   
 32  16  17  ar  
 33  16  34  1   
 34  17  18  1   
 35  18  19  1   
 36  18  35  1   
 37  18  36  1   
 38  19  37  1   
 39  19  38  1   
 40  19  39  1   
@<TRIPOS>SUBSTRUCTURE
  1 ****   9 GROUP 4 **** **** 0

# MOE 2024.06 (io_trps.svl 2023.06)
