@<TRIPOS>MOLECULE
NONAME
42 43 1 0 0 
SMALL
USER_CHARGES


@<TRIPOS>ATOM
  1 CL       0.6350     0.6090     1.4640 Cl    1 <1>  -0.1770 
  2 C       -0.8650     1.3540     0.9420 C.ar  1 <1>   0.1770 
  3 C       -0.8650     2.3610    -0.0410 C.ar  1 <1>   0.4100 
  4 C       -2.0330     0.9360     1.5320 C.ar  1 <1>  -0.1500 
  5 N       -1.9800     2.9800    -0.4330 N.ar  1 <1>  -0.6200 
  6 N        0.3110     2.7670    -0.6670 N.pl3 1 <1>  -0.8380 
  7 C       -3.1770     1.5710     1.1000 C.ar  1 <1>   0.1770 
  8 C       -3.1060     2.5650     0.1390 C.ar  1 <1>   0.1600 
  9 C        0.4920     4.1970    -1.0270 C.3   1 <1>   0.2090 
 10 C        0.8850     1.8130    -1.6570 C.3   1 <1>   0.1290 
 11 CL      -4.7220     1.1160     1.7790 Cl    1 <1>  -0.1770 
 12 C        0.5450     5.0530     0.2480 C.3   1 <1>  -0.0800 
 13 C        0.8750     6.5140    -0.0510 C.3   1 <1>   0.3430 
 14 C        1.6070     4.5880     1.2520 C.3   1 <1>  -0.1600 
 15 N        2.1350     6.8150     0.6920 N.4   1 <1>  -0.9590 
 16 C        2.1770     5.8660     1.8320 C.3   1 <1>   0.3430 
 17 C        2.2550     8.2390     1.1470 C.3   1 <1>   0.3430 
 18 C        2.3920     9.2250    -0.0180 C.3   1 <1>   0.1200 
 19 O        2.5230    10.4910     0.5320 O.3   1 <1>  -0.5600 
 20 C        2.6810    11.5150    -0.4020 C.3   1 <1>   0.0400 
 21 H       -2.0570     0.1660     2.2810 H     1 <1>   0.1500 
 22 H       -4.0220     3.0380    -0.1710 H     1 <1>   0.1500 
 23 H       -0.3170     4.5150    -1.6640 H     1 <1>   0.0800 
 24 H        1.4130     4.3070    -1.5750 H     1 <1>   0.0800 
 25 H        0.5610     0.8080    -1.4460 H     1 <1>   0.0800 
 26 H        1.9590     1.8420    -1.6130 H     1 <1>   0.0800 
 27 H        0.5610     2.0730    -2.6510 H     1 <1>   0.0800 
 28 H       -0.4270     5.0310     0.7110 H     1 <1>   0.0800 
 29 H        0.0730     7.1370     0.3110 H     1 <1>   0.0800 
 30 H        1.0000     6.6810    -1.1090 H     1 <1>   0.0800 
 31 H        2.3930     4.0420     0.7570 H     1 <1>   0.0800 
 32 H        1.1870     3.9550     2.0150 H     1 <1>   0.0800 
 33 H        2.9330     6.5830     0.0850 H     1 <1>   0.4500 
 34 H        3.1790     5.7250     2.2060 H     1 <1>   0.0800 
 35 H        1.5400     6.2160     2.6280 H     1 <1>   0.0800 
 36 H        3.1250     8.3410     1.7740 H     1 <1>   0.0800 
 37 H        1.3880     8.5080     1.7270 H     1 <1>   0.0800 
 38 H        1.5150     9.2170    -0.6410 H     1 <1>   0.0800 
 39 H        3.2750     9.0140    -0.5970 H     1 <1>   0.0800 
 40 H        2.7690    12.4450     0.1330 H     1 <1>   0.0800 
 41 H        1.8180    11.5510    -1.0450 H     1 <1>   0.0800 
 42 H        3.5760    11.3440    -0.9750 H     1 <1>   0.0800 
@<TRIPOS>BOND
  1   1   2  1   
  2   2   3  ar  
  3   2   4  ar  
  4   3   5  ar  
  5   3   6  1   
  6   4   7  ar  
  7   4  21  1   
  8   5   8  ar  
  9   6   9  1   
 10   6  10  1   
 11   7   8  ar  
 12   7  11  1   
 13   8  22  1   
 14   9  12  1   
 15   9  23  1   
 16   9  24  1   
 17  10  25  1   
 18  10  26  1   
 19  10  27  1   
 20  12  13  1   
 21  12  14  1   
 22  12  28  1   
 23  13  15  1   
 24  13  29  1   
 25  13  30  1   
 26  14  16  1   
 27  14  31  1   
 28  14  32  1   
 29  15  16  1   
 30  15  17  1   
 31  15  33  1   
 32  16  34  1   
 33  16  35  1   
 34  17  18  1   
 35  17  36  1   
 36  17  37  1   
 37  18  19  1   
 38  18  38  1   
 39  18  39  1   
 40  19  20  1   
 41  20  40  1   
 42  20  41  1   
 43  20  42  1   
@<TRIPOS>SUBSTRUCTURE
  1 ****  12 GROUP 4 **** **** 0

# MOE 2024.06 (io_trps.svl 2023.06)
