@<TRIPOS>MOLECULE
NONAME
47 50 1 0 0 
SMALL
USER_CHARGES


@<TRIPOS>ATOM
  1 O       -3.1110    -0.1920    -0.8740 O.2   1 <1>  -0.5700 
  2 C       -2.7860     0.4910     0.0920 C.2   1 <1>   0.6160 
  3 N       -2.5700     1.8540    -0.0950 N.am  1 <1>  -0.4690 
  4 C       -2.6450    -0.0550     1.4080 C.2   1 <1>   0.0290 
  5 C       -2.2150     2.6590     0.9620 C.2   1 <1>  -0.0410 
  6 C       -2.7030     2.4360    -1.4570 C.3   1 <1>   0.0600 
  7 C       -2.8640    -1.4600     1.6040 C.2   1 <1>   0.6160 
  8 C       -2.2810     0.7730     2.4400 C.2   1 <1>  -0.1500 
  9 C       -2.0680     2.1460     2.2130 C.2   1 <1>  -0.1500 
 10 O       -1.9390    -2.1400     2.0070 O.2   1 <1>  -0.5700 
 11 N       -4.0900    -2.0690     1.4130 N.am  1 <1>  -0.6600 
 12 C       -4.2340    -3.5590     1.3590 C.3   1 <1>   0.1400 
 13 C       -5.3410    -1.3660     0.9900 C.3   1 <1>   0.1400 
 14 C       -4.8210    -4.0090     0.0060 C.3   1 <1>   0.3430 
 15 C       -5.8480    -1.9260    -0.3540 C.3   1 <1>   0.2950 
 16 O       -6.0110    -3.3120    -0.2650 O.3   1 <1>  -0.5600 
 17 C       -5.0980    -5.5100     0.0150 C.ar  1 <1>  -0.1440 
 18 C       -7.2010    -1.3210    -0.7370 C.3   1 <1>  -0.1950 
 19 C       -4.1150    -6.3900    -0.4190 C.ar  1 <1>  -0.1500 
 20 C       -6.3080    -6.0210     0.4630 C.ar  1 <1>  -0.1500 
 21 C       -7.6600    -1.2890    -2.1600 C.3   1 <1>  -0.2000 
 22 C       -7.2730    -0.0140    -1.4640 C.3   1 <1>  -0.2000 
 23 C       -4.3390    -7.7560    -0.4040 C.ar  1 <1>  -0.1500 
 24 C       -6.5330    -7.3870     0.4780 C.ar  1 <1>  -0.1500 
 25 C       -5.5480    -8.2560     0.0450 C.ar  1 <1>  -0.1500 
 26 H       -2.0550     3.7080     0.7670 H     1 <1>   0.1500 
 27 H       -2.4890     3.4900    -1.4430 H     1 <1>   0.0800 
 28 H       -3.7060     2.2840    -1.8160 H     1 <1>   0.0800 
 29 H       -2.0160     1.9460    -2.1250 H     1 <1>   0.0800 
 30 H       -2.1480     0.3820     3.4350 H     1 <1>   0.1500 
 31 H       -1.7870     2.7710     3.0430 H     1 <1>   0.1500 
 32 H       -3.2830    -4.0420     1.5010 H     1 <1>   0.0800 
 33 H       -4.8850    -3.8830     2.1510 H     1 <1>   0.0800 
 34 H       -6.0980    -1.5170     1.7390 H     1 <1>   0.0800 
 35 H       -5.1840    -0.3080     0.8960 H     1 <1>   0.0800 
 36 H       -4.1210    -3.7830    -0.7800 H     1 <1>   0.0800 
 37 H       -5.1320    -1.7210    -1.1320 H     1 <1>   0.0800 
 38 H       -7.9520    -1.5060     0.0120 H     1 <1>   0.1000 
 39 H       -3.1690    -6.0150    -0.7700 H     1 <1>   0.1500 
 40 H       -7.0830    -5.3520     0.7980 H     1 <1>   0.1500 
 41 H       -7.0100    -1.6910    -2.9180 H     1 <1>   0.1000 
 42 H       -8.6990    -1.4810    -2.3660 H     1 <1>   0.1000 
 43 H       -8.0490     0.6850    -1.2030 H     1 <1>   0.1000 
 44 H       -6.3620     0.4740    -1.7660 H     1 <1>   0.1000 
 45 H       -3.5710    -8.4300    -0.7430 H     1 <1>   0.1500 
 46 H       -7.4760    -7.7710     0.8250 H     1 <1>   0.1500 
 47 H       -5.7220    -9.3170     0.0560 H     1 <1>   0.1500 
@<TRIPOS>BOND
  1   1   2  2   
  2   2   3  am  
  3   2   4  1   
  4   3   5  1   
  5   3   6  1   
  6   4   7  1   
  7   4   8  2   
  8   5   9  2   
  9   5  26  1   
 10   6  27  1   
 11   6  28  1   
 12   6  29  1   
 13   7  10  2   
 14   7  11  am  
 15   8   9  1   
 16   8  30  1   
 17   9  31  1   
 18  11  12  1   
 19  11  13  1   
 20  12  14  1   
 21  12  32  1   
 22  12  33  1   
 23  13  15  1   
 24  13  34  1   
 25  13  35  1   
 26  14  16  1   
 27  14  17  1   
 28  14  36  1   
 29  15  16  1   
 30  15  18  1   
 31  15  37  1   
 32  17  19  ar  
 33  17  20  ar  
 34  18  21  1   
 35  18  22  1   
 36  18  38  1   
 37  19  23  ar  
 38  19  39  1   
 39  20  24  ar  
 40  20  40  1   
 41  21  22  1   
 42  21  41  1   
 43  21  42  1   
 44  22  43  1   
 45  22  44  1   
 46  23  25  ar  
 47  23  45  1   
 48  24  25  ar  
 49  24  46  1   
 50  25  47  1   
@<TRIPOS>SUBSTRUCTURE
  1 ****  11 GROUP 4 **** **** 0

# MOE 2024.06 (io_trps.svl 2023.06)
