@<TRIPOS>MOLECULE
NONAME
53 56 1 0 0 
SMALL
USER_CHARGES


@<TRIPOS>ATOM
  1 CL       0.5790    -0.7470    -1.1170 Cl    1 <1>  -0.1230 
  2 C       -1.1670    -0.7680    -0.9220 C.2   1 <1>   0.1230 
  3 C       -1.9410    -1.8010    -0.3860 C.2   1 <1>   0.2030 
  4 C       -2.0020     0.2170    -1.2890 C.2   1 <1>  -0.3020 
  5 N       -3.2200    -1.4450    -0.4400 N.2   1 <1>  -0.7070 
  6 C       -1.3870    -3.0410     0.1380 C.2   1 <1>   0.7160 
  7 N       -3.2380    -0.2180    -0.9830 N.pl3 1 <1>   0.3140 
  8 O       -0.3310    -3.0380     0.7500 O.2   1 <1>  -0.5700 
  9 N       -2.0110    -4.2580    -0.0310 N.am  1 <1>  -0.6600 
 10 C       -4.4890     0.5210    -1.1940 C.3   1 <1>   0.0160 
 11 C       -1.7090    -5.5050     0.6640 C.3   1 <1>   0.2200 
 12 C       -3.3380    -4.5680    -0.5200 C.3   1 <1>   0.2200 
 13 C       -1.9010    -6.5410    -0.4790 C.3   1 <1>   0.0610 
 14 C       -2.8970    -5.4980     1.6480 C.3   1 <1>  -0.1600 
 15 C       -3.0600    -5.8690    -1.2850 C.3   1 <1>  -0.1600 
 16 C       -4.0390    -4.9000     0.8030 C.3   1 <1>  -0.1600 
 17 C       -2.2470    -7.9340     0.0790 C.2   1 <1>   0.5690 
 18 C       -0.6240    -6.7320    -1.3530 C.3   1 <1>  -0.1600 
 19 O       -1.7060    -8.3220     1.0890 O.2   1 <1>  -0.5700 
 20 N       -3.1180    -8.7410    -0.5870 N.am  1 <1>  -0.7300 
 21 C        0.0590    -5.4810    -1.9320 C.3   1 <1>  -0.2400 
 22 C       -3.4750   -10.1190    -0.1730 C.3   1 <1>   0.1400 
 23 C       -4.5560   -10.0810     0.9100 C.3   1 <1>   0.0200 
 24 C       -5.0380   -11.4740     1.2910 C.2   1 <1>  -0.3320 
 25 N       -5.9350   -11.6880     2.2730 N.pl3 1 <1>   0.0330 
 26 C       -4.7240   -12.6970     0.8030 C.2   1 <1>   0.0770 
 27 C       -6.1090   -13.0250     2.3120 C.2   1 <1>   0.0360 
 28 N       -5.4000   -13.6680     1.4440 N.2   1 <1>  -0.5650 
 29 H       -1.7910     1.1690    -1.7370 H     1 <1>   0.1500 
 30 H       -4.4380     1.4570    -0.6710 H     1 <1>   0.0800 
 31 H       -5.3100    -0.0590    -0.8160 H     1 <1>   0.0800 
 32 H       -4.6230     0.6940    -2.2450 H     1 <1>   0.0800 
 33 H       -0.7410    -5.5300     1.1360 H     1 <1>   0.0800 
 34 H       -3.8080    -3.7970    -1.1060 H     1 <1>   0.0800 
 35 H       -3.1400    -6.4650     2.0480 H     1 <1>   0.0800 
 36 H       -2.6630    -4.8450     2.4710 H     1 <1>   0.0800 
 37 H       -3.9580    -6.4550    -1.3360 H     1 <1>   0.0800 
 38 H       -2.7610    -5.6340    -2.2900 H     1 <1>   0.0800 
 39 H       -4.4110    -3.9960     1.2540 H     1 <1>   0.0800 
 40 H       -4.8540    -5.5880     0.6650 H     1 <1>   0.0800 
 41 H        0.1120    -7.2480    -0.7580 H     1 <1>   0.0800 
 42 H       -0.8710    -7.3860    -2.1710 H     1 <1>   0.0800 
 43 H       -3.5200    -8.4210    -1.4690 H     1 <1>   0.3700 
 44 H        0.4650    -4.8730    -1.1430 H     1 <1>   0.0800 
 45 H       -0.6230    -4.8860    -2.5110 H     1 <1>   0.0800 
 46 H        0.8740    -5.7740    -2.5700 H     1 <1>   0.0800 
 47 H       -3.8290   -10.6660    -1.0290 H     1 <1>   0.0800 
 48 H       -2.6000   -10.6160     0.2130 H     1 <1>   0.0800 
 49 H       -5.3940    -9.5080     0.5540 H     1 <1>   0.0800 
 50 H       -4.1520    -9.5980     1.7830 H     1 <1>   0.0800 
 51 H       -6.3900   -10.9920     2.8710 H     1 <1>   0.2700 
 52 H       -4.0350   -12.9440     0.0110 H     1 <1>   0.1500 
 53 H       -6.7800   -13.4950     3.0110 H     1 <1>   0.1500 
@<TRIPOS>BOND
  1   1   2  1   
  2   2   3  1   
  3   2   4  2   
  4   3   5  2   
  5   3   6  1   
  6   4   7  1   
  7   4  29  1   
  8   5   7  1   
  9   6   8  2   
 10   6   9  am  
 11   7  10  1   
 12   9  11  1   
 13   9  12  1   
 14  10  30  1   
 15  10  31  1   
 16  10  32  1   
 17  11  13  1   
 18  11  14  1   
 19  11  33  1   
 20  12  15  1   
 21  12  16  1   
 22  12  34  1   
 23  13  15  1   
 24  13  17  1   
 25  13  18  1   
 26  14  16  1   
 27  14  35  1   
 28  14  36  1   
 29  15  37  1   
 30  15  38  1   
 31  16  39  1   
 32  16  40  1   
 33  17  19  2   
 34  17  20  am  
 35  18  21  1   
 36  18  41  1   
 37  18  42  1   
 38  20  22  1   
 39  20  43  1   
 40  21  44  1   
 41  21  45  1   
 42  21  46  1   
 43  22  23  1   
 44  22  47  1   
 45  22  48  1   
 46  23  24  1   
 47  23  49  1   
 48  23  50  1   
 49  24  25  1   
 50  24  26  2   
 51  25  27  1   
 52  25  51  1   
 53  26  28  1   
 54  26  52  1   
 55  27  28  2   
 56  27  53  1   
@<TRIPOS>SUBSTRUCTURE
  1 ****  13 GROUP 4 **** **** 0

# MOE 2024.06 (io_trps.svl 2023.06)
