@<TRIPOS>MOLECULE
NONAME
50 52 1 0 0 
SMALL
USER_CHARGES


@<TRIPOS>ATOM
  1 O        2.0280    -0.9460    -2.3870 O.2   1 <1>  -0.5700 
  2 C        2.2910    -1.2390    -1.2370 C.2   1 <1>   0.5440 
  3 N        3.0640    -0.3530    -0.5090 N.am  1 <1>  -0.6600 
  4 C        1.8180    -2.5010    -0.7100 C.ar  1 <1>   0.0860 
  5 C        3.7680    -0.7650     0.7670 C.3   1 <1>   0.2200 
  6 C        3.2130     1.0570    -1.0080 C.3   1 <1>   0.1400 
  7 C        1.0240    -2.5900     0.4420 C.ar  1 <1>   0.0830 
  8 C        2.1500    -3.6950    -1.3510 C.ar  1 <1>  -0.1500 
  9 C        3.4080     0.1500     1.9480 C.3   1 <1>   0.1200 
 10 C        5.2990    -0.8690     0.5720 C.3   1 <1>   0.3430 
 11 C        4.3160     1.8970    -0.3360 C.3   1 <1>  -0.0800 
 12 O        0.6310    -1.4830     1.1030 O.3   1 <1>  -0.3630 
 13 C        0.6280    -3.8150     0.9530 C.ar  1 <1>  -0.1500 
 14 C        1.7470    -4.9180    -0.8520 C.ar  1 <1>  -0.1500 
 15 O        4.2360     1.2710     2.0000 O.3   1 <1>  -0.5600 
 16 N        5.7680    -0.1550    -0.6640 N.4   1 <1>  -0.9590 
 17 C        3.9530     2.2910     1.1030 C.3   1 <1>   0.1200 
 18 C        5.7420     1.3230    -0.4530 C.3   1 <1>   0.3430 
 19 C       -0.4480    -0.7620     0.5460 C.3   1 <1>   0.0400 
 20 C        0.9900    -4.9900     0.3070 C.ar  1 <1>   0.0830 
 21 C        7.1930    -0.5890    -0.9750 C.3   1 <1>   0.2370 
 22 O        0.6440    -6.2250     0.7370 O.3   1 <1>  -0.3620 
 23 C        8.2000    -0.3060     0.1440 C.2   1 <1>   0.9060 
 24 C       -0.1560    -6.4150     1.8820 C.3   1 <1>   0.0400 
 25 O        8.2980    -1.1370     1.0500 O.co2 1 <1>  -0.9000 
 26 O        8.7620     0.7920     0.1490 O.co2 1 <1>  -0.9000 
 27 H        3.4350    -1.7440     1.0540 H     1 <1>   0.0800 
 28 H        3.4140     1.0280    -2.0670 H     1 <1>   0.0800 
 29 H        2.2660     1.5550    -0.8870 H     1 <1>   0.0800 
 30 H        2.7320    -3.6560    -2.2570 H     1 <1>   0.1500 
 31 H        3.5700    -0.3870     2.8670 H     1 <1>   0.0800 
 32 H        2.3750     0.4530     1.9150 H     1 <1>   0.0800 
 33 H        5.5620    -1.9110     0.4970 H     1 <1>   0.0800 
 34 H        5.8110    -0.4820     1.4400 H     1 <1>   0.0800 
 35 H        4.3340     2.8280    -0.8730 H     1 <1>   0.0800 
 36 H        0.0380    -3.8260     1.8490 H     1 <1>   0.1500 
 37 H        2.0120    -5.8310    -1.3560 H     1 <1>   0.1500 
 38 H        5.1140    -0.4000    -1.4190 H     1 <1>   0.4500 
 39 H        2.9150     2.5630     1.1950 H     1 <1>   0.0800 
 40 H        4.5490     3.1360     1.4050 H     1 <1>   0.0800 
 41 H        6.3090     1.5740     0.4320 H     1 <1>   0.0800 
 42 H        6.2350     1.7950    -1.2870 H     1 <1>   0.0800 
 43 H       -0.6890     0.0510     1.2070 H     1 <1>   0.0800 
 44 H       -1.2940    -1.4200     0.4490 H     1 <1>   0.0800 
 45 H       -0.1620    -0.3790    -0.4180 H     1 <1>   0.0800 
 46 H        7.2190    -1.6470    -1.1600 H     1 <1>   0.0800 
 47 H        7.5460    -0.0810    -1.8540 H     1 <1>   0.0800 
 48 H       -0.3030    -7.4720     2.0150 H     1 <1>   0.0800 
 49 H       -1.1050    -5.9320     1.7310 H     1 <1>   0.0800 
 50 H        0.3530    -6.0070     2.7370 H     1 <1>   0.0800 
@<TRIPOS>BOND
  1   1   2  2   
  2   2   3  am  
  3   2   4  1   
  4   3   5  1   
  5   3   6  1   
  6   4   7  ar  
  7   4   8  ar  
  8   5   9  1   
  9   5  10  1   
 10   5  27  1   
 11   6  11  1   
 12   6  28  1   
 13   6  29  1   
 14   7  12  1   
 15   7  13  ar  
 16   8  14  ar  
 17   8  30  1   
 18   9  15  1   
 19   9  31  1   
 20   9  32  1   
 21  10  16  1   
 22  10  33  1   
 23  10  34  1   
 24  11  17  1   
 25  11  18  1   
 26  11  35  1   
 27  12  19  1   
 28  13  20  ar  
 29  13  36  1   
 30  14  20  ar  
 31  14  37  1   
 32  15  17  1   
 33  16  18  1   
 34  16  21  1   
 35  16  38  1   
 36  17  39  1   
 37  17  40  1   
 38  18  41  1   
 39  18  42  1   
 40  19  43  1   
 41  19  44  1   
 42  19  45  1   
 43  20  22  1   
 44  21  23  1   
 45  21  46  1   
 46  21  47  1   
 47  22  24  1   
 48  23  25  ar  
 49  23  26  ar  
 50  24  48  1   
 51  24  49  1   
 52  24  50  1   
@<TRIPOS>SUBSTRUCTURE
  1 ****   5 GROUP 4 **** **** 0

# MOE 2024.06 (io_trps.svl 2023.06)
