@<TRIPOS>MOLECULE
NONAME
54 57 1 0 0 
SMALL
USER_CHARGES


@<TRIPOS>ATOM
  1 O       -0.5550     0.3790    -1.3980 O.2   1 <1>  -0.5700 
  2 C       -1.5120     0.9970    -0.9710 C.2   1 <1>   0.6900 
  3 N       -2.7880     0.5580    -1.2190 N.am  1 <1>  -0.6600 
  4 N       -1.3480     2.1500    -0.2570 N.am  1 <1>  -0.5470 
  5 C       -3.0570    -0.4660    -2.2670 C.3   1 <1>   0.1400 
  6 C       -3.9510     0.8210    -0.3280 C.3   1 <1>   0.1400 
  7 C       -0.2070     2.7740     0.2670 C.ar  1 <1>   0.1170 
  8 C       -3.4550    -1.7820    -1.5970 C.3   1 <1>  -0.1600 
  9 C       -4.3500    -0.4840     0.3660 C.3   1 <1>  -0.1600 
 10 C       -0.2650     4.1300     0.5600 C.ar  1 <1>  -0.1500 
 11 C        0.9770     2.0920     0.5290 C.ar  1 <1>  -0.1500 
 12 C       -4.6480    -1.6050    -0.6450 C.3   1 <1>   0.4240 
 13 C        0.8230     4.7980     1.0940 C.ar  1 <1>   0.0820 
 14 C        2.0720     2.7490     1.0610 C.ar  1 <1>  -0.1500 
 15 O       -5.7150    -1.1800    -1.4620 O.3   1 <1>  -0.5600 
 16 C       -4.9660    -2.9350     0.0720 C.ar  1 <1>  -0.1430 
 17 O        0.6620     6.1230     1.3430 O.3   1 <1>  -0.3630 
 18 C        2.0010     4.1010     1.3460 C.ar  1 <1>  -0.1500 
 19 C       -7.0100    -1.3790    -0.9860 C.3   1 <1>   0.1200 
 20 C       -6.2130    -3.5400    -0.0500 C.ar  1 <1>  -0.1430 
 21 C       -4.0050    -3.5540     0.8650 C.ar  1 <1>  -0.1500 
 22 C        1.7180     6.9020     1.8580 C.3   1 <1>   0.0400 
 23 C       -7.2790    -2.8780    -0.8990 C.3   1 <1>  -0.0170 
 24 C       -6.4870    -4.7350     0.5960 C.ar  1 <1>  -0.1500 
 25 C       -4.2780    -4.7450     1.5120 C.ar  1 <1>  -0.1500 
 26 C       -5.5170    -5.3460     1.3830 C.ar  1 <1>   0.0820 
 27 O       -5.7040    -6.5140     2.0480 O.3   1 <1>  -0.3630 
 28 C       -6.9230    -7.2170     1.9660 C.3   1 <1>   0.0400 
 29 H       -2.1990     2.6990    -0.2190 H     1 <1>   0.3700 
 30 H       -2.1860    -0.6170    -2.8820 H     1 <1>   0.0800 
 31 H       -3.8540    -0.1190    -2.9020 H     1 <1>   0.0800 
 32 H       -4.7710     1.1910    -0.9200 H     1 <1>   0.0800 
 33 H       -3.7110     1.5570     0.4170 H     1 <1>   0.0800 
 34 H       -2.6010    -2.1510    -1.0620 H     1 <1>   0.0800 
 35 H       -3.7070    -2.5110    -2.3450 H     1 <1>   0.0800 
 36 H       -5.2030    -0.3210     0.9970 H     1 <1>   0.0800 
 37 H       -3.5400    -0.7830     1.0040 H     1 <1>   0.0800 
 38 H       -1.1630     4.6850     0.3690 H     1 <1>   0.1500 
 39 H        1.0470     1.0400     0.3170 H     1 <1>   0.1500 
 40 H        2.9800     2.2040     1.2530 H     1 <1>   0.1500 
 41 H        2.8640     4.5870     1.7580 H     1 <1>   0.1500 
 42 H       -7.6900    -0.9150    -1.6790 H     1 <1>   0.0800 
 43 H       -7.1120    -0.9110    -0.0230 H     1 <1>   0.0800 
 44 H       -3.0300    -3.1150     0.9870 H     1 <1>   0.1500 
 45 H        1.3670     7.9130     1.9620 H     1 <1>   0.0800 
 46 H        2.5440     6.8700     1.1700 H     1 <1>   0.0800 
 47 H        2.0010     6.5130     2.8210 H     1 <1>   0.0800 
 48 H       -7.2700    -3.3010    -1.8880 H     1 <1>   0.0800 
 49 H       -8.2510    -3.0380    -0.4700 H     1 <1>   0.0800 
 50 H       -7.4570    -5.1790     0.4770 H     1 <1>   0.1500 
 51 H       -3.5300    -5.2190     2.1210 H     1 <1>   0.1500 
 52 H       -6.8350    -8.1070     2.5620 H     1 <1>   0.0800 
 53 H       -7.1050    -7.4810     0.9390 H     1 <1>   0.0800 
 54 H       -7.7110    -6.5950     2.3520 H     1 <1>   0.0800 
@<TRIPOS>BOND
  1   1   2  2   
  2   2   3  am  
  3   2   4  am  
  4   3   5  1   
  5   3   6  1   
  6   4   7  1   
  7   4  29  1   
  8   5   8  1   
  9   5  30  1   
 10   5  31  1   
 11   6   9  1   
 12   6  32  1   
 13   6  33  1   
 14   7  10  ar  
 15   7  11  ar  
 16   8  12  1   
 17   8  34  1   
 18   8  35  1   
 19   9  12  1   
 20   9  36  1   
 21   9  37  1   
 22  10  13  ar  
 23  10  38  1   
 24  11  14  ar  
 25  11  39  1   
 26  12  15  1   
 27  12  16  1   
 28  13  17  1   
 29  13  18  ar  
 30  14  18  ar  
 31  14  40  1   
 32  15  19  1   
 33  16  20  ar  
 34  16  21  ar  
 35  17  22  1   
 36  18  41  1   
 37  19  23  1   
 38  19  42  1   
 39  19  43  1   
 40  20  23  1   
 41  20  24  ar  
 42  21  25  ar  
 43  21  44  1   
 44  22  45  1   
 45  22  46  1   
 46  22  47  1   
 47  23  48  1   
 48  23  49  1   
 49  24  26  ar  
 50  24  50  1   
 51  25  26  ar  
 52  25  51  1   
 53  26  27  1   
 54  27  28  1   
 55  28  52  1   
 56  28  53  1   
 57  28  54  1   
@<TRIPOS>SUBSTRUCTURE
  1 ****   9 GROUP 4 **** **** 0

# MOE 2024.06 (io_trps.svl 2023.06)
