@<TRIPOS>MOLECULE
NONAME
44 46 1 0 0 
SMALL
USER_CHARGES


@<TRIPOS>ATOM
  1 O        3.2740    -1.9110    -2.2820 O.2   1 <1>  -0.5700 
  2 C        2.5080    -1.9970    -1.3350 C.2   1 <1>   0.5440 
  3 N        1.9380    -0.8220    -0.8770 N.am  1 <1>  -0.6600 
  4 C        2.2730    -3.3130    -0.7380 C.ar  1 <1>   0.3960 
  5 C        2.2720     0.5040    -1.4430 C.3   1 <1>   0.1400 
  6 C        1.0940    -0.6790     0.3330 C.3   1 <1>   0.1400 
  7 N        1.0830    -3.6340    -0.2020 N.ar  1 <1>  -0.6200 
  8 C        3.3310    -4.2280    -0.7540 C.ar  1 <1>   0.1600 
  9 C        1.9210     1.4940    -0.3400 C.3   1 <1>  -0.1600 
 10 C        0.8010     0.8140     0.4420 C.3   1 <1>  -0.1600 
 11 C        1.0250    -4.8590     0.2930 C.ar  1 <1>   0.4100 
 12 N        3.2990    -5.4580    -0.2600 N.ar  1 <1>  -0.6200 
 13 N       -0.1850    -5.2340     0.8560 N.pl3 1 <1>  -0.8380 
 14 C        2.1190    -5.7380     0.2530 C.ar  1 <1>   0.1600 
 15 C       -1.4560    -4.6300     0.3640 C.3   1 <1>   0.3900 
 16 C       -0.2460    -5.9380     2.1690 C.3   1 <1>   0.1290 
 17 C       -2.5710    -5.6580     0.4050 C.2   1 <1>  -0.1810 
 18 C       -2.7040    -6.7910    -0.3020 C.2   1 <1>  -0.0400 
 19 C       -3.7130    -5.6430     1.2040 C.2   1 <1>   0.1080 
 20 O       -3.8170    -7.3660     0.0650 O.3   1 <1>  -0.0190 
 21 C       -1.8310    -7.4400    -1.3550 C.3   1 <1>  -0.0600 
 22 N       -4.4380    -6.6790     0.9790 N.2   1 <1>  -0.4100 
 23 C       -4.0820    -4.5720     2.2090 C.3   1 <1>  -0.0590 
 24 H        1.6640     0.6740    -2.3150 H     1 <1>   0.0800 
 25 H        3.3130     0.5630    -1.7120 H     1 <1>   0.0800 
 26 H        1.6430    -1.0230     1.1930 H     1 <1>   0.0800 
 27 H        0.1810    -1.2410     0.2330 H     1 <1>   0.0800 
 28 H        4.2580    -3.9160    -1.2040 H     1 <1>   0.1500 
 29 H        1.6250     2.4480    -0.7390 H     1 <1>   0.0800 
 30 H        2.7810     1.6290     0.2930 H     1 <1>   0.0800 
 31 H        0.7610     1.1400     1.4670 H     1 <1>   0.0800 
 32 H       -0.1450     1.0180    -0.0270 H     1 <1>   0.0800 
 33 H        1.9820    -6.7190     0.6670 H     1 <1>   0.1500 
 34 H       -1.3350    -4.2950    -0.6520 H     1 <1>   0.0800 
 35 H       -1.7030    -3.7770     0.9700 H     1 <1>   0.0800 
 36 H        0.7380    -6.0420     2.5930 H     1 <1>   0.0800 
 37 H       -0.6760    -6.9170     2.0370 H     1 <1>   0.0800 
 38 H       -0.8560    -5.3800     2.8580 H     1 <1>   0.0800 
 39 H       -0.9510    -6.8470    -1.5290 H     1 <1>   0.0800 
 40 H       -2.3790    -7.5330    -2.2750 H     1 <1>   0.0800 
 41 H       -1.5310    -8.4170    -1.0250 H     1 <1>   0.0800 
 42 H       -3.2960    -4.4590     2.9320 H     1 <1>   0.0800 
 43 H       -4.9860    -4.8490     2.7210 H     1 <1>   0.0800 
 44 H       -4.2430    -3.6380     1.7040 H     1 <1>   0.0800 
@<TRIPOS>BOND
  1   1   2  2   
  2   2   3  am  
  3   2   4  1   
  4   3   5  1   
  5   3   6  1   
  6   4   7  ar  
  7   4   8  ar  
  8   5   9  1   
  9   5  24  1   
 10   5  25  1   
 11   6  10  1   
 12   6  26  1   
 13   6  27  1   
 14   7  11  ar  
 15   8  12  ar  
 16   8  28  1   
 17   9  10  1   
 18   9  29  1   
 19   9  30  1   
 20  10  31  1   
 21  10  32  1   
 22  11  13  1   
 23  11  14  ar  
 24  12  14  ar  
 25  13  15  1   
 26  13  16  1   
 27  14  33  1   
 28  15  17  1   
 29  15  34  1   
 30  15  35  1   
 31  16  36  1   
 32  16  37  1   
 33  16  38  1   
 34  17  18  2   
 35  17  19  1   
 36  18  20  1   
 37  18  21  1   
 38  19  22  2   
 39  19  23  1   
 40  20  22  1   
 41  21  39  1   
 42  21  40  1   
 43  21  41  1   
 44  23  42  1   
 45  23  43  1   
 46  23  44  1   
@<TRIPOS>SUBSTRUCTURE
  1 ****   7 GROUP 4 **** **** 0

# MOE 2024.06 (io_trps.svl 2023.06)
