@<TRIPOS>MOLECULE
NONAME
44 45 1 0 0 
SMALL
USER_CHARGES


@<TRIPOS>ATOM
  1 O       -4.7100     2.8380    -2.3260 O.2   1 <1>  -0.5700 
  2 C       -3.7290     2.1870    -2.0180 C.2   1 <1>   0.5440 
  3 N       -3.7290     0.8320    -2.2740 N.am  1 <1>  -0.6600 
  4 C       -2.5960     2.8500    -1.4070 C.ar  1 <1>   0.0860 
  5 C       -2.6830    -0.0750    -1.7330 C.3   1 <1>   0.3200 
  6 C       -4.8210     0.2160    -3.0900 C.3   1 <1>   0.1400 
  7 C       -2.6360     3.2650    -0.0790 C.ar  1 <1>  -0.1500 
  8 C       -1.4270     3.0900    -2.1260 C.ar  1 <1>  -0.1500 
  9 C       -2.7470    -0.0880    -0.2210 C.2   1 <1>  -0.3320 
 10 C       -6.0670    -0.1100    -2.2490 C.3   1 <1>   0.1200 
 11 C       -1.5500     3.8740     0.5300 C.ar  1 <1>   0.0820 
 12 C       -0.3420     3.7120    -1.5370 C.ar  1 <1>  -0.1500 
 13 N       -3.8770    -0.3490     0.4560 N.pl3 1 <1>   0.0330 
 14 C       -1.7950     0.1410     0.7110 C.2   1 <1>   0.0770 
 15 O       -5.8460    -1.2090    -1.4190 O.3   1 <1>  -0.6800 
 16 O       -1.6610     4.2140     1.8390 O.3   1 <1>  -0.3630 
 17 C       -0.3810     4.1170    -0.2130 C.ar  1 <1>   0.0820 
 18 C       -3.5430    -0.2630     1.7600 C.2   1 <1>   0.0070 
 19 N       -2.2990     0.0280     1.9550 N.2   1 <1>  -0.5650 
 20 C       -1.8660     3.1590     2.7560 C.3   1 <1>   0.0400 
 21 O        0.7540     4.7220     0.2310 O.3   1 <1>  -0.3630 
 22 C       -4.5440    -0.4900     2.8710 C.3   1 <1>  -0.0600 
 23 C        0.8160     5.4410     1.4410 C.3   1 <1>   0.0400 
 24 H       -1.7120     0.2560    -2.0580 H     1 <1>   0.0800 
 25 H       -2.8360    -1.0750    -2.1010 H     1 <1>   0.0800 
 26 H       -4.4680    -0.6650    -3.5940 H     1 <1>   0.0800 
 27 H       -5.1110     0.9210    -3.8510 H     1 <1>   0.0800 
 28 H       -3.5370     3.0970     0.4800 H     1 <1>   0.1500 
 29 H       -1.3770     2.7890    -3.1570 H     1 <1>   0.1500 
 30 H       -6.9010    -0.3400    -2.8890 H     1 <1>   0.0800 
 31 H       -6.3280     0.7360    -1.6350 H     1 <1>   0.0800 
 32 H        0.5510     3.8940    -2.1070 H     1 <1>   0.1500 
 33 H       -4.7950    -0.5640     0.0370 H     1 <1>   0.2700 
 34 H       -0.7590     0.3900     0.5510 H     1 <1>   0.1500 
 35 H       -5.8450    -2.0370    -1.9410 H     1 <1>   0.4000 
 36 H       -1.8180     3.5610     3.7510 H     1 <1>   0.0800 
 37 H       -1.0920     2.4230     2.6190 H     1 <1>   0.0800 
 38 H       -2.8310     2.7170     2.5870 H     1 <1>   0.0800 
 39 H       -4.9510    -1.4820     2.8020 H     1 <1>   0.0800 
 40 H       -5.3410     0.2280     2.7990 H     1 <1>   0.0800 
 41 H       -4.0610    -0.3790     3.8250 H     1 <1>   0.0800 
 42 H        1.7580     5.9570     1.4770 H     1 <1>   0.0800 
 43 H        0.7470     4.7490     2.2610 H     1 <1>   0.0800 
 44 H        0.0070     6.1500     1.4690 H     1 <1>   0.0800 
@<TRIPOS>BOND
  1   1   2  2   
  2   2   3  am  
  3   2   4  1   
  4   3   5  1   
  5   3   6  1   
  6   4   7  ar  
  7   4   8  ar  
  8   5   9  1   
  9   5  24  1   
 10   5  25  1   
 11   6  10  1   
 12   6  26  1   
 13   6  27  1   
 14   7  11  ar  
 15   7  28  1   
 16   8  12  ar  
 17   8  29  1   
 18   9  13  1   
 19   9  14  2   
 20  10  15  1   
 21  10  30  1   
 22  10  31  1   
 23  11  16  1   
 24  11  17  ar  
 25  12  17  ar  
 26  12  32  1   
 27  13  18  1   
 28  13  33  1   
 29  14  19  1   
 30  14  34  1   
 31  15  35  1   
 32  16  20  1   
 33  17  21  1   
 34  18  19  2   
 35  18  22  1   
 36  20  36  1   
 37  20  37  1   
 38  20  38  1   
 39  21  23  1   
 40  22  39  1   
 41  22  40  1   
 42  22  41  1   
 43  23  42  1   
 44  23  43  1   
 45  23  44  1   
@<TRIPOS>SUBSTRUCTURE
  1 ****   7 GROUP 4 **** **** 0

# MOE 2024.06 (io_trps.svl 2023.06)
