@<TRIPOS>MOLECULE
NONAME
49 52 1 0 0 
SMALL
USER_CHARGES


@<TRIPOS>ATOM
  1 S        2.1560    -0.7710    -1.2150 S.3   1 <1>  -0.0800 
  2 C        0.8690    -1.6310    -0.4090 C.2   1 <1>   0.1980 
  3 C        2.0810     0.4460     0.0270 C.2   1 <1>  -0.1400 
  4 N        0.4400    -1.0740     0.6550 N.2   1 <1>  -0.5650 
  5 C        0.3940    -2.9330    -1.0350 C.3   1 <1>   0.5230 
  6 C        1.1240     0.1050     0.9090 C.2   1 <1>   0.0460 
  7 C        3.0520     1.6060    -0.0980 C.3   1 <1>  -0.0600 
  8 N       -0.8610    -3.3790    -0.3490 N.4   1 <1>  -0.9590 
  9 C        0.7090     0.8660     2.1520 C.3   1 <1>  -0.0590 
 10 C       -2.0550    -2.5530    -0.7210 C.3   1 <1>   0.3430 
 11 C       -1.2130    -4.8170    -0.5450 C.3   1 <1>   0.3430 
 12 C       -3.2510    -3.4970    -0.5860 C.3   1 <1>   0.2000 
 13 C       -2.6730    -4.8470    -1.0120 C.3   1 <1>  -0.0800 
 14 O       -3.6640    -3.5440     0.7410 O.3   1 <1>  -0.6800 
 15 C       -3.4590    -6.1000    -0.5710 C.3   1 <1>  -0.0160 
 16 C       -2.6780    -7.3530    -0.9510 C.ar  1 <1>  -0.1440 
 17 C       -1.7850    -8.0120    -0.0690 C.ar  1 <1>   0.0000 
 18 C       -2.8100    -7.8620    -2.2110 C.ar  1 <1>  -0.1500 
 19 C       -1.0480    -9.1080    -0.5830 C.ar  1 <1>   0.3100 
 20 C       -1.5740    -7.6570     1.2860 C.ar  1 <1>  -0.1500 
 21 C       -2.0520    -8.9680    -2.6100 C.ar  1 <1>   0.1600 
 22 N       -1.1900    -9.5640    -1.8510 N.ar  1 <1>  -0.6200 
 23 C       -0.1220    -9.7580     0.2470 C.ar  1 <1>  -0.1500 
 24 C       -0.6670    -8.3150     2.0700 C.ar  1 <1>  -0.1500 
 25 C        0.0750    -9.3760     1.5460 C.ar  1 <1>  -0.1500 
 26 H        1.1670    -3.6720    -0.9110 H     1 <1>   0.0800 
 27 H        0.2180    -2.7890    -2.0880 H     1 <1>   0.0800 
 28 H        2.9290     2.3000     0.7120 H     1 <1>   0.0800 
 29 H        2.8850     2.1260    -1.0240 H     1 <1>   0.0800 
 30 H        4.0630     1.2390    -0.0850 H     1 <1>   0.0800 
 31 H       -0.6770    -3.1800     0.6490 H     1 <1>   0.4500 
 32 H        1.2900     1.7610     2.2690 H     1 <1>   0.0800 
 33 H        0.8500     0.2470     3.0190 H     1 <1>   0.0800 
 34 H       -0.3290     1.1350     2.0830 H     1 <1>   0.0800 
 35 H       -2.1600    -1.6830    -0.0910 H     1 <1>   0.0800 
 36 H       -1.9740    -2.2380    -1.7480 H     1 <1>   0.0800 
 37 H       -0.5770    -5.2910    -1.2750 H     1 <1>   0.0800 
 38 H       -1.1140    -5.3420     0.3910 H     1 <1>   0.0800 
 39 H       -4.0910    -3.1880    -1.1870 H     1 <1>   0.0800 
 40 H       -2.6440    -4.8560    -2.0880 H     1 <1>   0.0800 
 41 H       -2.9420    -3.7540     1.3630 H     1 <1>   0.4000 
 42 H       -4.4110    -6.1080    -1.0750 H     1 <1>   0.0800 
 43 H       -3.6800    -6.0900     0.4800 H     1 <1>   0.0800 
 44 H       -3.4850    -7.4320    -2.9290 H     1 <1>   0.1500 
 45 H       -2.1420    -6.8630     1.7300 H     1 <1>   0.1500 
 46 H       -2.1870    -9.3420    -3.6110 H     1 <1>   0.1500 
 47 H        0.4290   -10.5800    -0.1740 H     1 <1>   0.1500 
 48 H       -0.5150    -8.0380     3.1000 H     1 <1>   0.1500 
 49 H        0.7870    -9.8870     2.1710 H     1 <1>   0.1500 
@<TRIPOS>BOND
  1   1   2  1   
  2   1   3  1   
  3   2   4  2   
  4   2   5  1   
  5   3   6  2   
  6   3   7  1   
  7   4   6  1   
  8   5   8  1   
  9   5  26  1   
 10   5  27  1   
 11   6   9  1   
 12   7  28  1   
 13   7  29  1   
 14   7  30  1   
 15   8  10  1   
 16   8  11  1   
 17   8  31  1   
 18   9  32  1   
 19   9  33  1   
 20   9  34  1   
 21  10  12  1   
 22  10  35  1   
 23  10  36  1   
 24  11  13  1   
 25  11  37  1   
 26  11  38  1   
 27  12  13  1   
 28  12  14  1   
 29  12  39  1   
 30  13  15  1   
 31  13  40  1   
 32  14  41  1   
 33  15  16  1   
 34  15  42  1   
 35  15  43  1   
 36  16  17  ar  
 37  16  18  ar  
 38  17  19  ar  
 39  17  20  ar  
 40  18  21  ar  
 41  18  44  1   
 42  19  22  ar  
 43  19  23  ar  
 44  20  24  ar  
 45  20  45  1   
 46  21  22  ar  
 47  21  46  1   
 48  23  25  ar  
 49  23  47  1   
 50  24  25  ar  
 51  24  48  1   
 52  25  49  1   
@<TRIPOS>SUBSTRUCTURE
  1 ****  11 GROUP 4 **** **** 0

# MOE 2024.06 (io_trps.svl 2023.06)
