@<TRIPOS>MOLECULE
NONAME
54 57 1 0 0 
SMALL
USER_CHARGES


@<TRIPOS>ATOM
  1 CL       1.2680    -0.6110    -0.2760 Cl    1 <1>  -0.1770 
  2 C        0.0230    -1.8320    -0.3310 C.ar  1 <1>   0.1770 
  3 C       -1.3030    -1.4570    -0.2350 C.ar  1 <1>  -0.1500 
  4 C        0.3790    -3.1600    -0.4710 C.ar  1 <1>  -0.1500 
  5 C       -2.2850    -2.4310    -0.2770 C.ar  1 <1>  -0.1500 
  6 C       -0.6120    -4.1250    -0.5130 C.ar  1 <1>  -0.1500 
  7 C       -1.9600    -3.7790    -0.4140 C.ar  1 <1>   0.0530 
  8 C       -2.9950    -4.7810    -0.4510 C.2   1 <1>  -0.2050 
  9 N       -2.8890    -5.9960     0.1630 N.pl3 1 <1>   0.0330 
 10 C       -4.2210    -4.7350    -1.0560 C.2   1 <1>  -0.1500 
 11 C       -4.0280    -6.7030    -0.0570 C.2   1 <1>  -0.3320 
 12 C       -4.8700    -5.9440    -0.8100 C.2   1 <1>  -0.1500 
 13 C       -4.2050    -8.1060     0.5080 C.3   1 <1>   0.0200 
 14 C       -5.5600    -8.7180     0.1290 C.3   1 <1>  -0.0990 
 15 C       -5.7890   -10.1100     0.7050 C.2   1 <1>   0.5690 
 16 O       -4.8520   -10.6700     1.2260 O.2   1 <1>  -0.5700 
 17 N       -7.0300   -10.7020     0.6330 N.am  1 <1>  -0.6600 
 18 C       -8.1840   -10.0940    -0.0980 C.3   1 <1>   0.2200 
 19 C       -7.2550   -12.0120     1.3210 C.3   1 <1>   0.0600 
 20 C       -9.0150   -11.0750    -0.9240 C.3   1 <1>  -0.1600 
 21 C       -9.1920    -9.4520     0.8480 C.3   1 <1>  -0.1600 
 22 C      -10.3390   -10.3350    -1.1590 C.3   1 <1>  -0.0800 
 23 C      -10.4820    -9.3430     0.0240 C.3   1 <1>  -0.0800 
 24 C      -11.5290   -11.2900    -1.3850 C.3   1 <1>   0.1400 
 25 C      -11.7550    -9.5460     0.8680 C.3   1 <1>  -0.0990 
 26 N      -12.7960   -10.5920    -1.0850 N.am  1 <1>  -0.7300 
 27 C      -12.9530    -9.7680    -0.0280 C.2   1 <1>   0.5690 
 28 O      -14.0040    -9.2300     0.2030 O.2   1 <1>  -0.5700 
 29 H       -1.5580    -0.4180    -0.1270 H     1 <1>   0.1500 
 30 H        1.4180    -3.4280    -0.5480 H     1 <1>   0.1500 
 31 H       -3.3200    -2.1490    -0.1990 H     1 <1>   0.1500 
 32 H       -0.3400    -5.1580    -0.6350 H     1 <1>   0.1500 
 33 H       -2.0830    -6.3060     0.7140 H     1 <1>   0.2700 
 34 H       -4.6290    -3.9220    -1.6300 H     1 <1>   0.1500 
 35 H       -5.8540    -6.1900    -1.1680 H     1 <1>   0.1500 
 36 H       -3.4150    -8.7370     0.1360 H     1 <1>   0.0800 
 37 H       -4.1220    -8.0690     1.5800 H     1 <1>   0.0800 
 38 H       -5.6220    -8.7800    -0.9410 H     1 <1>   0.0800 
 39 H       -6.3340    -8.0680     0.4880 H     1 <1>   0.0800 
 40 H       -7.8360    -9.3360    -0.7770 H     1 <1>   0.0800 
 41 H       -8.2240   -12.0360     1.7850 H     1 <1>   0.0800 
 42 H       -6.5160   -12.1720     2.0890 H     1 <1>   0.0800 
 43 H       -7.1800   -12.8130     0.6070 H     1 <1>   0.0800 
 44 H       -8.5260   -11.3210    -1.8500 H     1 <1>   0.0800 
 45 H       -9.2110   -11.9730    -0.3690 H     1 <1>   0.0800 
 46 H       -9.3490   -10.0870     1.7010 H     1 <1>   0.0800 
 47 H       -8.8570    -8.4860     1.1840 H     1 <1>   0.0800 
 48 H      -10.2280    -9.7470    -2.0550 H     1 <1>   0.0800 
 49 H      -10.5320    -8.3530    -0.3990 H     1 <1>   0.0800 
 50 H      -11.4550   -12.1440    -0.7330 H     1 <1>   0.0800 
 51 H      -11.5350   -11.6390    -2.4040 H     1 <1>   0.0800 
 52 H      -11.9270    -8.6890     1.4930 H     1 <1>   0.0800 
 53 H      -11.6570   -10.4100     1.4990 H     1 <1>   0.0800 
 54 H      -13.6160   -10.7730    -1.6690 H     1 <1>   0.3700 
@<TRIPOS>BOND
  1   1   2  1   
  2   2   3  ar  
  3   2   4  ar  
  4   3   5  ar  
  5   3  29  1   
  6   4   6  ar  
  7   4  30  1   
  8   5   7  ar  
  9   5  31  1   
 10   6   7  ar  
 11   6  32  1   
 12   7   8  1   
 13   8   9  1   
 14   8  10  2   
 15   9  11  1   
 16   9  33  1   
 17  10  12  1   
 18  10  34  1   
 19  11  12  2   
 20  11  13  1   
 21  12  35  1   
 22  13  14  1   
 23  13  36  1   
 24  13  37  1   
 25  14  15  1   
 26  14  38  1   
 27  14  39  1   
 28  15  16  2   
 29  15  17  am  
 30  17  18  1   
 31  17  19  1   
 32  18  20  1   
 33  18  21  1   
 34  18  40  1   
 35  19  41  1   
 36  19  42  1   
 37  19  43  1   
 38  20  22  1   
 39  20  44  1   
 40  20  45  1   
 41  21  23  1   
 42  21  46  1   
 43  21  47  1   
 44  22  23  1   
 45  22  24  1   
 46  22  48  1   
 47  23  25  1   
 48  23  49  1   
 49  24  26  1   
 50  24  50  1   
 51  24  51  1   
 52  25  27  1   
 53  25  52  1   
 54  25  53  1   
 55  26  27  am  
 56  26  54  1   
 57  27  28  2   
@<TRIPOS>SUBSTRUCTURE
  1 ****  14 GROUP 4 **** **** 0

# MOE 2024.06 (io_trps.svl 2023.06)
