@<TRIPOS>MOLECULE
NONAME
50 53 1 0 0 
SMALL
USER_CHARGES


@<TRIPOS>ATOM
  1 O        1.5130    -0.0830     2.1600 O.2   1 <1>  -0.5700 
  2 C        1.8880     0.3120     1.0690 C.2   1 <1>   0.5440 
  3 N        1.3970     1.5090     0.6010 N.am  1 <1>  -0.6600 
  4 C        2.8230    -0.4560     0.2890 C.ar  1 <1>   0.0860 
  5 C        0.3860     2.3030     1.3330 C.3   1 <1>   0.1400 
  6 C        1.6310     2.0570    -0.7520 C.3   1 <1>   0.1400 
  7 C        2.4270    -1.6340    -0.3730 C.ar  1 <1>   0.4100 
  8 C        4.1430    -0.0480     0.1620 C.ar  1 <1>  -0.1500 
  9 C        0.0730     3.4810     0.4150 C.3   1 <1>  -0.1600 
 10 C        0.4600     3.0040    -0.9830 C.3   1 <1>  -0.1600 
 11 N        3.2460    -2.3740    -1.1150 N.ar  1 <1>  -0.6200 
 12 N        1.1420    -2.1240    -0.2930 N.pl3 1 <1>  -0.8380 
 13 C        4.9870    -0.8170    -0.6060 C.ar  1 <1>  -0.1500 
 14 C        4.4910    -1.9570    -1.2150 C.ar  1 <1>   0.1600 
 15 C        0.0130    -1.3470    -0.8590 C.3   1 <1>   0.2090 
 16 C        0.8440    -3.0580     0.8190 C.3   1 <1>   0.2090 
 17 C       -1.1020    -2.3030    -1.2740 C.3   1 <1>  -0.1600 
 18 C       -0.2840    -4.0020     0.4060 C.3   1 <1>  -0.1600 
 19 C       -1.5040    -3.2500    -0.1380 C.3   1 <1>   0.4240 
 20 O       -1.9820    -2.4610     0.8930 O.3   1 <1>  -0.6800 
 21 C       -2.6010    -4.2240    -0.5970 C.ar  1 <1>  -0.1440 
 22 C       -3.8700    -4.2420    -0.0250 C.ar  1 <1>   0.1600 
 23 C       -2.3450    -5.1260    -1.6170 C.ar  1 <1>  -0.1500 
 24 N       -4.8600    -5.0510    -0.3750 N.ar  1 <1>  -0.6200 
 25 C       -3.3620    -5.9760    -1.9940 C.ar  1 <1>  -0.1500 
 26 C       -4.5820    -5.8980    -1.3490 C.ar  1 <1>   0.1600 
 27 H        0.7740     2.6270     2.2830 H     1 <1>   0.0800 
 28 H       -0.4900     1.6970     1.4900 H     1 <1>   0.0800 
 29 H        1.6640     1.2790    -1.4960 H     1 <1>   0.0800 
 30 H        2.5600     2.6030    -0.7540 H     1 <1>   0.0800 
 31 H        4.4870     0.8430     0.6560 H     1 <1>   0.1500 
 32 H        0.6890     4.3160     0.7010 H     1 <1>   0.0800 
 33 H       -0.9600     3.7720     0.4790 H     1 <1>   0.0800 
 34 H       -0.3550     2.4540    -1.4200 H     1 <1>   0.0800 
 35 H        0.7250     3.8170    -1.6350 H     1 <1>   0.0800 
 36 H        6.0200    -0.5440    -0.7330 H     1 <1>   0.1500 
 37 H        5.1570    -2.5550    -1.8130 H     1 <1>   0.1500 
 38 H        0.3520    -0.7920    -1.7170 H     1 <1>   0.0800 
 39 H       -0.3520    -0.6480    -0.1260 H     1 <1>   0.0800 
 40 H        0.5670    -2.4960     1.6960 H     1 <1>   0.0800 
 41 H        1.7260    -3.6290     1.0560 H     1 <1>   0.0800 
 42 H       -0.7480    -2.8750    -2.1120 H     1 <1>   0.0800 
 43 H       -1.9610    -1.7480    -1.6020 H     1 <1>   0.0800 
 44 H       -0.5770    -4.6130     1.2400 H     1 <1>   0.0800 
 45 H        0.1040    -4.6560    -0.3520 H     1 <1>   0.0800 
 46 H       -1.2520    -1.9020     1.2190 H     1 <1>   0.4000 
 47 H       -4.0970    -3.5510     0.7690 H     1 <1>   0.1500 
 48 H       -1.3880    -5.1730    -2.1090 H     1 <1>   0.1500 
 49 H       -3.2120    -6.6930    -2.7800 H     1 <1>   0.1500 
 50 H       -5.3710    -6.5660    -1.6510 H     1 <1>   0.1500 
@<TRIPOS>BOND
  1   1   2  2   
  2   2   3  am  
  3   2   4  1   
  4   3   5  1   
  5   3   6  1   
  6   4   7  ar  
  7   4   8  ar  
  8   5   9  1   
  9   5  27  1   
 10   5  28  1   
 11   6  10  1   
 12   6  29  1   
 13   6  30  1   
 14   7  11  ar  
 15   7  12  1   
 16   8  13  ar  
 17   8  31  1   
 18   9  10  1   
 19   9  32  1   
 20   9  33  1   
 21  10  34  1   
 22  10  35  1   
 23  11  14  ar  
 24  12  15  1   
 25  12  16  1   
 26  13  14  ar  
 27  13  36  1   
 28  14  37  1   
 29  15  17  1   
 30  15  38  1   
 31  15  39  1   
 32  16  18  1   
 33  16  40  1   
 34  16  41  1   
 35  17  19  1   
 36  17  42  1   
 37  17  43  1   
 38  18  19  1   
 39  18  44  1   
 40  18  45  1   
 41  19  20  1   
 42  19  21  1   
 43  20  46  1   
 44  21  22  ar  
 45  21  23  ar  
 46  22  24  ar  
 47  22  47  1   
 48  23  25  ar  
 49  23  48  1   
 50  24  26  ar  
 51  25  26  ar  
 52  25  49  1   
 53  26  50  1   
@<TRIPOS>SUBSTRUCTURE
  1 ****  15 GROUP 4 **** **** 0

# MOE 2024.06 (io_trps.svl 2023.06)
