@<TRIPOS>MOLECULE
NONAME
50 52 1 0 0 
SMALL
USER_CHARGES


@<TRIPOS>ATOM
  1 O       -1.0690     1.0030    -1.8930 O.2   1 <1>  -0.5700 
  2 C       -0.8210     2.0410    -1.3330 C.2   1 <1>   0.5690 
  3 N       -1.6670     2.5460    -0.4090 N.am  1 <1>  -0.7300 
  4 C        0.4500     2.8210    -1.6890 C.3   1 <1>   0.1810 
  5 C       -1.4120     3.8020     0.3360 C.3   1 <1>   0.3640 
  6 O        0.8060     3.7780    -0.7140 O.3   1 <1>  -0.5600 
  7 C       -2.6970     4.6250     0.3660 C.ar  1 <1>  -0.1440 
  8 C       -0.2570     4.6200    -0.2970 C.3   1 <1>   0.2610 
  9 C       -3.4390     4.8440    -0.7860 C.ar  1 <1>  -0.1500 
 10 C       -3.1360     5.1840     1.5550 C.ar  1 <1>  -0.1500 
 11 C        0.2610     5.7060     0.6560 C.2   1 <1>   0.5690 
 12 C       -4.5950     5.6050    -0.7700 C.ar  1 <1>   0.0830 
 13 C       -4.2850     5.9540     1.5910 C.ar  1 <1>  -0.1500 
 14 O        0.0090     5.6660     1.8400 O.2   1 <1>  -0.5700 
 15 N        1.0060     6.7220     0.1480 N.am  1 <1>  -0.7300 
 16 O       -5.2150     5.7230    -1.9780 O.3   1 <1>  -0.3630 
 17 C       -5.0260     6.1860     0.4340 C.ar  1 <1>   0.0830 
 18 C        1.5330     7.8310     0.9460 C.3   1 <1>   0.2010 
 19 C       -6.6180     5.8330    -2.0700 C.3   1 <1>   0.0400 
 20 O       -6.1390     6.9770     0.4520 O.3   1 <1>  -0.3630 
 21 C        2.2970     8.8770     0.1120 C.2   1 <1>   0.5690 
 22 C       -6.4920     7.7490     1.5800 C.3   1 <1>   0.0400 
 23 O        2.4610     8.7000    -1.0940 O.2   1 <1>  -0.5700 
 24 N        2.7740     9.9830     0.7490 N.am  1 <1>  -0.5790 
 25 C        3.5200    11.0750     0.1100 C.3   1 <1>   0.0490 
 26 C        4.5950    11.7460     0.8980 C.3   1 <1>  -0.2000 
 27 C        3.3070    12.4620     0.6200 C.3   1 <1>  -0.2000 
 28 H       -2.5240     2.0360    -0.1890 H     1 <1>   0.3700 
 29 H        0.3060     3.3280    -2.6260 H     1 <1>   0.0800 
 30 H        1.2710     2.1350    -1.7890 H     1 <1>   0.0800 
 31 H       -1.1380     3.5340     1.3430 H     1 <1>   0.0800 
 32 H       -0.6300     5.1170    -1.1740 H     1 <1>   0.0800 
 33 H       -3.1280     4.4190    -1.7250 H     1 <1>   0.1500 
 34 H       -2.5770     5.0320     2.4640 H     1 <1>   0.1500 
 35 H       -4.5800     6.3670     2.5360 H     1 <1>   0.1500 
 36 H        1.2830     6.7150    -0.8250 H     1 <1>   0.3700 
 37 H        0.7090     8.3320     1.4540 H     1 <1>   0.0800 
 38 H        2.2090     7.4370     1.7060 H     1 <1>   0.0800 
 39 H       -6.9120     5.5480    -3.0640 H     1 <1>   0.0800 
 40 H       -6.8990     6.8550    -1.8870 H     1 <1>   0.0800 
 41 H       -7.0710     5.1770    -1.3480 H     1 <1>   0.0800 
 42 H       -7.3450     8.3480     1.3190 H     1 <1>   0.0800 
 43 H       -5.6650     8.3850     1.8410 H     1 <1>   0.0800 
 44 H       -6.7450     7.0890     2.3900 H     1 <1>   0.0800 
 45 H        2.6290    10.1020     1.7520 H     1 <1>   0.3700 
 46 H        3.6690    10.9310    -0.9500 H     1 <1>   0.1000 
 47 H        4.8010    11.4050     1.8970 H     1 <1>   0.1000 
 48 H        5.4810    12.0750     0.3830 H     1 <1>   0.1000 
 49 H        3.3210    13.2760    -0.0830 H     1 <1>   0.1000 
 50 H        2.6130    12.6230     1.4250 H     1 <1>   0.1000 
@<TRIPOS>BOND
  1   1   2  2   
  2   2   3  am  
  3   2   4  1   
  4   3   5  1   
  5   3  28  1   
  6   4   6  1   
  7   4  29  1   
  8   4  30  1   
  9   5   7  1   
 10   5   8  1   
 11   5  31  1   
 12   6   8  1   
 13   7   9  ar  
 14   7  10  ar  
 15   8  11  1   
 16   8  32  1   
 17   9  12  ar  
 18   9  33  1   
 19  10  13  ar  
 20  10  34  1   
 21  11  14  2   
 22  11  15  am  
 23  12  16  1   
 24  12  17  ar  
 25  13  17  ar  
 26  13  35  1   
 27  15  18  1   
 28  15  36  1   
 29  16  19  1   
 30  17  20  1   
 31  18  21  1   
 32  18  37  1   
 33  18  38  1   
 34  19  39  1   
 35  19  40  1   
 36  19  41  1   
 37  20  22  1   
 38  21  23  2   
 39  21  24  am  
 40  22  42  1   
 41  22  43  1   
 42  22  44  1   
 43  24  25  1   
 44  24  45  1   
 45  25  26  1   
 46  25  27  1   
 47  25  46  1   
 48  26  27  1   
 49  26  47  1   
 50  26  48  1   
 51  27  49  1   
 52  27  50  1   
@<TRIPOS>SUBSTRUCTURE
  1 ****  11 GROUP 4 **** **** 0

# MOE 2024.06 (io_trps.svl 2023.06)
