@<TRIPOS>MOLECULE
NONAME
49 51 1 0 0 
SMALL
USER_CHARGES


@<TRIPOS>ATOM
  1 S        0.7560     0.4260    -1.4990 S.o2  1 <1>   1.3330 
  2 O        1.0510    -0.9420    -1.8620 O.2   1 <1>  -0.6500 
  3 O       -0.0210     1.2540    -2.3930 O.2   1 <1>  -0.6500 
  4 N       -0.0560     0.4050    -0.0050 N.am  1 <1>  -0.8490 
  5 C        2.3060     1.2490    -1.1230 C.3   1 <1>  -0.0550 
  6 C       -0.7630     1.6560     0.2890 C.3   1 <1>   0.1160 
  7 C       -0.9860    -0.7240     0.1020 C.3   1 <1>   0.1160 
  8 C        3.2680     0.4170    -0.2470 C.3   1 <1>  -0.0800 
  9 C        4.6450     1.0320    -0.0470 C.3   1 <1>   0.2200 
 10 C        2.8000     0.1650     1.1920 C.3   1 <1>   0.1200 
 11 N        4.5370     2.4790     0.2560 N.am  1 <1>  -0.7300 
 12 C        5.0850     0.3070     1.2160 C.3   1 <1>   0.1200 
 13 O        3.9370     0.2440     2.0060 O.3   1 <1>  -0.5600 
 14 C        4.7560     3.4950    -0.6290 C.2   1 <1>   0.5440 
 15 O        4.9850     3.1960    -1.7840 O.2   1 <1>  -0.5700 
 16 C        4.7060     4.8860    -0.2100 C.ar  1 <1>   0.0860 
 17 C        5.2770     5.8900    -0.9840 C.ar  1 <1>  -0.1500 
 18 C        4.0830     5.2830     0.9810 C.ar  1 <1>  -0.1500 
 19 C        5.2530     7.2280    -0.6120 C.ar  1 <1>   0.1790 
 20 C        4.0480     6.6050     1.3690 C.ar  1 <1>  -0.1500 
 21 N        5.8460     8.1650    -1.4340 N.2   1 <1>  -0.6290 
 22 C        4.6300     7.6010     0.5830 C.ar  1 <1>   0.0860 
 23 C        5.8220     9.3970    -1.0900 C.2   1 <1>   0.4500 
 24 C        4.6300     8.9950     0.9260 C.2   1 <1>   0.5440 
 25 N        5.2390     9.8740     0.0600 N.am  1 <1>  -0.4200 
 26 O        4.1100     9.4100     1.9490 O.2   1 <1>  -0.5700 
 27 C        5.2640    11.3280     0.3700 C.3   1 <1>   0.0600 
 28 H        2.8050     1.4620    -2.0490 H     1 <1>   0.0800 
 29 H        2.1010     2.1890    -0.6510 H     1 <1>   0.0800 
 30 H       -1.1790     1.6210     1.2810 H     1 <1>   0.0800 
 31 H       -1.5600     1.8140    -0.4190 H     1 <1>   0.0800 
 32 H       -0.0840     2.4890     0.2340 H     1 <1>   0.0800 
 33 H       -1.4770    -0.7150     1.0600 H     1 <1>   0.0800 
 34 H       -0.4510    -1.6540     0.0080 H     1 <1>   0.0800 
 35 H       -1.7280    -0.6720    -0.6790 H     1 <1>   0.0800 
 36 H        3.4040    -0.5430    -0.7160 H     1 <1>   0.0800 
 37 H        5.3090     0.8590    -0.8780 H     1 <1>   0.0800 
 38 H        2.3550    -0.8100     1.3030 H     1 <1>   0.0800 
 39 H        2.1100     0.9190     1.5270 H     1 <1>   0.0800 
 40 H        4.3580     2.6720     1.2430 H     1 <1>   0.3700 
 41 H        5.8670     0.8220     1.7460 H     1 <1>   0.0800 
 42 H        5.3920    -0.7010     0.9940 H     1 <1>   0.0800 
 43 H        5.7610     5.6320    -1.9100 H     1 <1>   0.1500 
 44 H        3.6150     4.5470     1.6110 H     1 <1>   0.1500 
 45 H        3.5640     6.8900     2.2890 H     1 <1>   0.1500 
 46 H        6.2840    10.1290    -1.7300 H     1 <1>   0.0600 
 47 H        5.7750    11.8750    -0.4020 H     1 <1>   0.0800 
 48 H        5.7670    11.4860     1.3080 H     1 <1>   0.0800 
 49 H        4.2550    11.6930     0.4530 H     1 <1>   0.0800 
@<TRIPOS>BOND
  1   1   2  2   
  2   1   3  2   
  3   1   4  am  
  4   1   5  1   
  5   4   6  1   
  6   4   7  1   
  7   5   8  1   
  8   5  28  1   
  9   5  29  1   
 10   6  30  1   
 11   6  31  1   
 12   6  32  1   
 13   7  33  1   
 14   7  34  1   
 15   7  35  1   
 16   8   9  1   
 17   8  10  1   
 18   8  36  1   
 19   9  11  1   
 20   9  12  1   
 21   9  37  1   
 22  10  13  1   
 23  10  38  1   
 24  10  39  1   
 25  11  14  am  
 26  11  40  1   
 27  12  13  1   
 28  12  41  1   
 29  12  42  1   
 30  14  15  2   
 31  14  16  1   
 32  16  17  ar  
 33  16  18  ar  
 34  17  19  ar  
 35  17  43  1   
 36  18  20  ar  
 37  18  44  1   
 38  19  21  1   
 39  19  22  ar  
 40  20  22  ar  
 41  20  45  1   
 42  21  23  2   
 43  22  24  1   
 44  23  25  1   
 45  23  46  1   
 46  24  25  am  
 47  24  26  2   
 48  25  27  1   
 49  27  47  1   
 50  27  48  1   
 51  27  49  1   
@<TRIPOS>SUBSTRUCTURE
  1 ****  14 GROUP 4 **** **** 0

# MOE 2024.06 (io_trps.svl 2023.06)
