@<TRIPOS>MOLECULE
NONAME
45 46 1 0 0 
SMALL
USER_CHARGES


@<TRIPOS>ATOM
  1 S       -0.3840     0.0780     0.1010 S.o2  1 <1>   1.3330 
  2 O       -0.9760     1.3400    -0.2780 O.2   1 <1>  -0.6500 
  3 O       -0.5440    -0.4090     1.4520 O.2   1 <1>  -0.6500 
  4 N       -0.9620    -1.1210    -0.9540 N.am  1 <1>  -0.8490 
  5 C        1.3590     0.1590    -0.3180 C.3   1 <1>  -0.0550 
  6 C       -0.7790    -2.4840    -0.4420 C.3   1 <1>   0.1160 
  7 C       -2.3670    -0.9100    -1.3170 C.3   1 <1>   0.1160 
  8 C        2.1380     1.2300     0.4750 C.3   1 <1>  -0.0800 
  9 C        3.5340     1.4300    -0.0920 C.3   1 <1>   0.2200 
 10 C        2.4450     0.7640     1.9020 C.3   1 <1>   0.1200 
 11 N        4.0470     2.7540     0.3250 N.am  1 <1>  -0.7300 
 12 C        4.3200     0.3340     0.6210 C.3   1 <1>   0.1200 
 13 O        3.6970     0.1440     1.8580 O.3   1 <1>  -0.5600 
 14 C        4.5330     3.7240    -0.4930 C.2   1 <1>   0.7150 
 15 O        4.5140     3.5370    -1.6940 O.2   1 <1>  -0.5700 
 16 C        5.0670     4.9310     0.0810 C.2   1 <1>  -0.2370 
 17 N        5.7170     5.9360    -0.6200 N.pl3 1 <1>   0.0480 
 18 C        5.0350     5.2980     1.4030 C.2   1 <1>  -0.1500 
 19 C        6.0780     6.8940     0.2930 C.2   1 <1>  -0.3320 
 20 C        5.9930     5.9650    -2.1040 C.3   1 <1>   0.8560 
 21 C        5.6690     6.5250     1.5330 C.2   1 <1>  -0.1500 
 22 C        6.8260     8.1750    -0.0480 C.3   1 <1>  -0.0600 
 23 F        7.3060     5.9920    -2.3190 F     1 <1>  -0.3400 
 24 F        5.5350     7.0970    -2.6340 F     1 <1>  -0.3400 
 25 H        1.8090    -0.8030    -0.1630 H     1 <1>   0.0800 
 26 H        1.4320     0.3880    -1.3640 H     1 <1>   0.0800 
 27 H       -1.0750    -3.2010    -1.1880 H     1 <1>   0.0800 
 28 H       -1.3710    -2.6360     0.4460 H     1 <1>   0.0800 
 29 H        0.2560    -2.6540    -0.2000 H     1 <1>   0.0800 
 30 H       -2.6960    -1.6770    -1.9980 H     1 <1>   0.0800 
 31 H       -2.4830     0.0430    -1.8060 H     1 <1>   0.0800 
 32 H       -2.9880    -0.9250    -0.4370 H     1 <1>   0.0800 
 33 H        1.5780     2.1500     0.4670 H     1 <1>   0.0800 
 34 H        3.5770     1.3260    -1.1640 H     1 <1>   0.0800 
 35 H        1.7260     0.0680     2.2980 H     1 <1>   0.0800 
 36 H        2.5240     1.6060     2.5670 H     1 <1>   0.0800 
 37 H        4.1710     2.8710     1.3300 H     1 <1>   0.3700 
 38 H        5.3520     0.5960     0.7730 H     1 <1>   0.0800 
 39 H        4.2560    -0.5930     0.0800 H     1 <1>   0.0800 
 40 H        4.6020     4.7590     2.2280 H     1 <1>   0.1500 
 41 H        5.5800     5.1480    -2.6600 H     1 <1>   0.0800 
 42 H        5.7990     7.0640     2.4560 H     1 <1>   0.1500 
 43 H        7.0150     8.7430     0.8450 H     1 <1>   0.0800 
 44 H        6.2450     8.7830    -0.7180 H     1 <1>   0.0800 
 45 H        7.7700     7.9460    -0.5100 H     1 <1>   0.0800 
@<TRIPOS>BOND
  1   1   2  2   
  2   1   3  2   
  3   1   4  am  
  4   1   5  1   
  5   4   6  1   
  6   4   7  1   
  7   5   8  1   
  8   5  25  1   
  9   5  26  1   
 10   6  27  1   
 11   6  28  1   
 12   6  29  1   
 13   7  30  1   
 14   7  31  1   
 15   7  32  1   
 16   8   9  1   
 17   8  10  1   
 18   8  33  1   
 19   9  11  1   
 20   9  12  1   
 21   9  34  1   
 22  10  13  1   
 23  10  35  1   
 24  10  36  1   
 25  11  14  am  
 26  11  37  1   
 27  12  13  1   
 28  12  38  1   
 29  12  39  1   
 30  14  15  2   
 31  14  16  1   
 32  16  17  1   
 33  16  18  2   
 34  17  19  1   
 35  17  20  1   
 36  18  21  1   
 37  18  40  1   
 38  19  21  2   
 39  19  22  1   
 40  20  23  1   
 41  20  24  1   
 42  20  41  1   
 43  21  42  1   
 44  22  43  1   
 45  22  44  1   
 46  22  45  1   
@<TRIPOS>SUBSTRUCTURE
  1 ****  11 GROUP 4 **** **** 0

# MOE 2024.06 (io_trps.svl 2023.06)
