@<TRIPOS>MOLECULE
NONAME
50 53 1 0 0 
SMALL
USER_CHARGES


@<TRIPOS>ATOM
  1 S        0.2230     0.1580     2.0000 S.o2  1 <1>   1.4470 
  2 O        0.6030     1.5090     2.3540 O.2   1 <1>  -0.6500 
  3 O       -0.3370    -0.7120     3.0120 O.2   1 <1>  -0.6500 
  4 N       -0.9250     0.2850     0.7600 N.am  1 <1>  -0.8490 
  5 C        1.6020    -0.6960     1.1890 C.ar  1 <1>  -0.0090 
  6 C       -2.2480     0.6460     1.2950 C.3   1 <1>   0.1960 
  7 C       -0.5170     1.2420    -0.2730 C.3   1 <1>   0.1960 
  8 C        2.8580    -0.1080     1.0890 C.ar  1 <1>  -0.1500 
  9 C        1.4320    -1.9630     0.6420 C.ar  1 <1>  -0.1500 
 10 C       -3.3360     0.5620     0.2060 C.3   1 <1>   0.0000 
 11 C       -1.4970     1.2060    -1.4490 C.3   1 <1>  -0.1600 
 12 C        3.9130    -0.7510     0.4650 C.ar  1 <1>   0.0830 
 13 C        2.4720    -2.6160     0.0020 C.ar  1 <1>  -0.1500 
 14 C       -4.7190     0.8970     0.7990 C.3   1 <1>   0.2000 
 15 C       -2.9400     1.4730    -0.9890 C.3   1 <1>  -0.1600 
 16 C       -3.5650    -0.8870    -0.2650 C.3   1 <1>  -0.1600 
 17 O        5.1100    -0.1100     0.4730 O.3   1 <1>  -0.3630 
 18 C        3.7120    -2.0140    -0.1100 C.ar  1 <1>   0.0830 
 19 O       -4.9660     2.2550     0.8680 O.3   1 <1>  -0.6800 
 20 C       -5.7500     0.2140    -0.0980 C.3   1 <1>  -0.1600 
 21 C       -5.0040    -0.9340    -0.7910 C.3   1 <1>  -0.1600 
 22 C        6.2720    -0.8950     0.6280 C.3   1 <1>   0.1200 
 23 O        4.6640    -2.6900    -0.8040 O.3   1 <1>  -0.3630 
 24 C        6.7240    -1.4370    -0.7300 C.3   1 <1>  -0.1600 
 25 C        5.5640    -1.9410    -1.5920 C.3   1 <1>   0.1200 
 26 H       -2.5100    -0.0240     2.0970 H     1 <1>   0.0800 
 27 H       -2.2160     1.6450     1.7020 H     1 <1>   0.0800 
 28 H       -0.4820     2.2380     0.1420 H     1 <1>   0.0800 
 29 H        0.4680     0.9950    -0.6330 H     1 <1>   0.0800 
 30 H        3.0270     0.8680     1.5120 H     1 <1>   0.1500 
 31 H        0.4690    -2.4400     0.7180 H     1 <1>   0.1500 
 32 H       -1.2090     1.9510    -2.1690 H     1 <1>   0.0800 
 33 H       -1.4240     0.2490    -1.9340 H     1 <1>   0.0800 
 34 H        2.3220    -3.5930    -0.4230 H     1 <1>   0.1500 
 35 H       -4.7970     0.4970     1.7970 H     1 <1>   0.0800 
 36 H       -3.6160     1.3400    -1.8150 H     1 <1>   0.0800 
 37 H       -2.9890     2.5040    -0.6850 H     1 <1>   0.0800 
 38 H       -2.8560    -1.2130    -1.0040 H     1 <1>   0.0800 
 39 H       -3.4870    -1.5510     0.5790 H     1 <1>   0.0800 
 40 H       -4.9810     2.6290    -0.0320 H     1 <1>   0.4000 
 41 H       -6.5660    -0.1610     0.4950 H     1 <1>   0.0800 
 42 H       -6.1300     0.8950    -0.8400 H     1 <1>   0.0800 
 43 H       -5.4590    -1.8870    -0.5780 H     1 <1>   0.0800 
 44 H       -5.0100    -0.7800    -1.8560 H     1 <1>   0.0800 
 45 H        7.0360    -0.2730     1.0600 H     1 <1>   0.0800 
 46 H        6.0510    -1.6970     1.3120 H     1 <1>   0.0800 
 47 H        7.2440    -0.6640    -1.2640 H     1 <1>   0.0800 
 48 H        7.4210    -2.2390    -0.5700 H     1 <1>   0.0800 
 49 H        5.9270    -2.5800    -2.3760 H     1 <1>   0.0800 
 50 H        5.0250    -1.1200    -2.0340 H     1 <1>   0.0800 
@<TRIPOS>BOND
  1   1   2  2   
  2   1   3  2   
  3   1   4  am  
  4   1   5  1   
  5   4   6  1   
  6   4   7  1   
  7   5   8  ar  
  8   5   9  ar  
  9   6  10  1   
 10   6  26  1   
 11   6  27  1   
 12   7  11  1   
 13   7  28  1   
 14   7  29  1   
 15   8  12  ar  
 16   8  30  1   
 17   9  13  ar  
 18   9  31  1   
 19  10  14  1   
 20  10  15  1   
 21  10  16  1   
 22  11  15  1   
 23  11  32  1   
 24  11  33  1   
 25  12  17  1   
 26  12  18  ar  
 27  13  18  ar  
 28  13  34  1   
 29  14  19  1   
 30  14  20  1   
 31  14  35  1   
 32  15  36  1   
 33  15  37  1   
 34  16  21  1   
 35  16  38  1   
 36  16  39  1   
 37  17  22  1   
 38  18  23  1   
 39  19  40  1   
 40  20  21  1   
 41  20  41  1   
 42  20  42  1   
 43  21  43  1   
 44  21  44  1   
 45  22  24  1   
 46  22  45  1   
 47  22  46  1   
 48  23  25  1   
 49  24  25  1   
 50  24  47  1   
 51  24  48  1   
 52  25  49  1   
 53  25  50  1   
@<TRIPOS>SUBSTRUCTURE
  1 ****   4 GROUP 4 **** **** 0

# MOE 2024.06 (io_trps.svl 2023.06)
