@<TRIPOS>MOLECULE
NONAME
53 56 1 0 0 
SMALL
USER_CHARGES


@<TRIPOS>ATOM
  1 N       -0.0250    -0.1910     0.1270 N.ar  1 <1>  -0.6200 
  2 C        1.1250     0.4650     0.1630 C.ar  1 <1>   0.7710 
  3 C       -0.0110    -1.4980     0.3130 C.ar  1 <1>   0.4100 
  4 N        2.2900    -0.1580     0.4000 N.ar  1 <1>  -0.1790 
  5 N        1.1300     1.8040    -0.0420 N.pl3 1 <1>  -0.8380 
  6 N       -1.2020    -2.1530     0.2510 N.pl3 1 <1>  -0.8380 
  7 C        1.1930    -2.1830     0.5710 C.ar  1 <1>  -0.1500 
  8 C        2.3580    -1.4930     0.6120 C.ar  1 <1>   0.2180 
  9 C        2.2930     2.7310    -0.1060 C.3   1 <1>   0.2090 
 10 C       -0.1320     2.5570    -0.2900 C.3   1 <1>   0.2090 
 11 C       -1.3420    -3.6320     0.0120 C.3   1 <1>   0.2090 
 12 C       -2.5090    -1.4060     0.3200 C.3   1 <1>   0.2090 
 13 C        3.7140    -2.1330     0.8880 C.3   1 <1>  -0.0170 
 14 C        1.7370     4.0250    -0.6830 C.3   1 <1>  -0.1600 
 15 C        0.2680     4.0260    -0.2770 C.3   1 <1>  -0.1600 
 16 C       -2.6600    -4.0040    -0.7000 C.3   1 <1>   0.2090 
 17 C       -3.6660    -2.2770     0.8500 C.3   1 <1>   0.2090 
 18 C        4.6730    -1.9930    -0.3020 C.3   1 <1>  -0.2400 
 19 N       -3.8830    -3.5310     0.0420 N.pl3 1 <1>  -0.8380 
 20 C       -5.0860    -4.1650    -0.0260 C.ar  1 <1>   0.1000 
 21 C       -6.0360    -4.0570     1.0010 C.ar  1 <1>  -0.1500 
 22 C       -5.4450    -4.9600    -1.1250 C.ar  1 <1>  -0.1500 
 23 C       -7.2440    -4.6980     0.9210 C.ar  1 <1>   0.2110 
 24 C       -6.6600    -5.5910    -1.1780 C.ar  1 <1>   0.2110 
 25 N       -7.5480    -5.4570    -0.1610 N.ar  1 <1>  -0.1790 
 26 H        3.1090     0.4340     0.4120 H     1 <1>   0.4570 
 27 H        1.1660    -3.2410     0.7430 H     1 <1>   0.1500 
 28 H        3.0800     2.3480    -0.7340 H     1 <1>   0.0800 
 29 H        2.6640     2.9120     0.8910 H     1 <1>   0.0800 
 30 H       -0.8700     2.3470     0.4670 H     1 <1>   0.0800 
 31 H       -0.5240     2.2850    -1.2570 H     1 <1>   0.0800 
 32 H       -1.3060    -4.1470     0.9570 H     1 <1>   0.0800 
 33 H       -0.5240    -3.9800    -0.5930 H     1 <1>   0.0800 
 34 H       -2.7610    -1.0470    -0.6620 H     1 <1>   0.0800 
 35 H       -2.4040    -0.5520     0.9660 H     1 <1>   0.0800 
 36 H        3.5770    -3.1800     1.0980 H     1 <1>   0.0800 
 37 H        4.1540    -1.6870     1.7640 H     1 <1>   0.0800 
 38 H        1.8180     3.9980    -1.7560 H     1 <1>   0.0800 
 39 H        2.2620     4.8890    -0.3150 H     1 <1>   0.0800 
 40 H        0.1610     4.4100     0.7230 H     1 <1>   0.0800 
 41 H       -0.3420     4.6110    -0.9420 H     1 <1>   0.0800 
 42 H       -2.6980    -5.0740    -0.8090 H     1 <1>   0.0800 
 43 H       -2.6540    -3.5680    -1.6840 H     1 <1>   0.0800 
 44 H       -4.5650    -1.6880     0.8440 H     1 <1>   0.0800 
 45 H       -3.4490    -2.5470     1.8690 H     1 <1>   0.0800 
 46 H        4.2450    -2.4350    -1.1860 H     1 <1>   0.0800 
 47 H        5.5960    -2.5060    -0.0870 H     1 <1>   0.0800 
 48 H        4.9060    -0.9630    -0.5050 H     1 <1>   0.0800 
 49 H       -5.8030    -3.4680     1.8690 H     1 <1>   0.1500 
 50 H       -4.7560    -5.0640    -1.9430 H     1 <1>   0.1500 
 51 H       -7.9690    -4.6120     1.7150 H     1 <1>   0.1500 
 52 H       -6.9310    -6.1990    -2.0270 H     1 <1>   0.1500 
 53 H       -8.4550    -5.9330    -0.2110 H     1 <1>   0.4570 
@<TRIPOS>BOND
  1   1   2  ar  
  2   1   3  ar  
  3   2   4  ar  
  4   2   5  1   
  5   3   6  1   
  6   3   7  ar  
  7   4   8  ar  
  8   4  26  1   
  9   5   9  1   
 10   5  10  1   
 11   6  11  1   
 12   6  12  1   
 13   7   8  ar  
 14   7  27  1   
 15   8  13  1   
 16   9  14  1   
 17   9  28  1   
 18   9  29  1   
 19  10  15  1   
 20  10  30  1   
 21  10  31  1   
 22  11  16  1   
 23  11  32  1   
 24  11  33  1   
 25  12  17  1   
 26  12  34  1   
 27  12  35  1   
 28  13  18  1   
 29  13  36  1   
 30  13  37  1   
 31  14  15  1   
 32  14  38  1   
 33  14  39  1   
 34  15  40  1   
 35  15  41  1   
 36  16  19  1   
 37  16  42  1   
 38  16  43  1   
 39  17  19  1   
 40  17  44  1   
 41  17  45  1   
 42  18  46  1   
 43  18  47  1   
 44  18  48  1   
 45  19  20  1   
 46  20  21  ar  
 47  20  22  ar  
 48  21  23  ar  
 49  21  49  1   
 50  22  24  ar  
 51  22  50  1   
 52  23  25  ar  
 53  23  51  1   
 54  24  25  ar  
 55  24  52  1   
 56  25  53  1   
@<TRIPOS>SUBSTRUCTURE
  1 ****   6 GROUP 4 **** **** 0

# MOE 2024.06 (io_trps.svl 2023.06)
