@<TRIPOS>MOLECULE
NONAME
44 45 1 0 0 
SMALL
USER_CHARGES


@<TRIPOS>ATOM
  1 O       -2.2780    -0.4730     1.1680 O.3   1 <1>  -0.6800 
  2 C       -1.6980    -1.7130     0.9780 C.3   1 <1>   0.1200 
  3 C       -2.8060    -2.7240     0.6420 C.3   1 <1>  -0.0800 
  4 C       -2.2240    -4.1510     0.6030 C.3   1 <1>   0.3430 
  5 C       -3.5430    -2.3720    -0.6670 C.3   1 <1>  -0.1600 
  6 N       -2.9230    -5.0460    -0.3790 N.4   1 <1>  -0.9590 
  7 C       -4.6610    -3.3910    -0.9580 C.3   1 <1>  -0.1600 
  8 C       -4.3930    -4.7860    -0.3830 C.3   1 <1>   0.3430 
  9 C       -2.6370    -6.4900    -0.0720 C.3   1 <1>   0.3430 
 10 C       -3.0900    -7.4710    -1.1750 C.3   1 <1>   0.2090 
 11 N       -3.6350    -8.7090    -0.5610 N.pl3 1 <1>  -0.8690 
 12 C       -4.8920    -8.7640     0.0300 C.ar  1 <1>   0.4100 
 13 N       -5.4550    -7.5930     0.3090 N.ar  1 <1>  -0.6200 
 14 C       -5.5220    -9.9990     0.3120 C.ar  1 <1>   0.1670 
 15 C       -6.6520    -7.7170     0.8590 C.ar  1 <1>   0.1670 
 16 N       -6.7150   -10.1130     0.8550 N.ar  1 <1>  -0.6200 
 17 C       -4.8290   -11.3140    -0.0100 C.3   1 <1>  -0.0970 
 18 C       -7.2610    -8.9380     1.1200 C.ar  1 <1>   0.1600 
 19 C       -7.3650    -6.4250     1.2060 C.3   1 <1>  -0.0970 
 20 H       -1.6090     0.2080     1.3870 H     1 <1>   0.4000 
 21 H       -1.1910    -1.9820     1.8900 H     1 <1>   0.0800 
 22 H       -0.9840    -1.6320     0.1760 H     1 <1>   0.0800 
 23 H       -3.5160    -2.6920     1.4510 H     1 <1>   0.0800 
 24 H       -2.2930    -4.5720     1.5940 H     1 <1>   0.0800 
 25 H       -1.1790    -4.1000     0.3420 H     1 <1>   0.0800 
 26 H       -2.8380    -2.3640    -1.4810 H     1 <1>   0.0800 
 27 H       -3.9710    -1.3840    -0.6040 H     1 <1>   0.0800 
 28 H       -2.5790    -4.8120    -1.3180 H     1 <1>   0.4500 
 29 H       -4.8120    -3.4620    -2.0210 H     1 <1>   0.0800 
 30 H       -5.5850    -3.0350    -0.5360 H     1 <1>   0.0800 
 31 H       -4.7650    -4.8430     0.6280 H     1 <1>   0.0800 
 32 H       -4.9170    -5.5250    -0.9670 H     1 <1>   0.0800 
 33 H       -3.1480    -6.7580     0.8380 H     1 <1>   0.0800 
 34 H       -1.5810    -6.6270     0.0910 H     1 <1>   0.0800 
 35 H       -2.2490    -7.7250    -1.7980 H     1 <1>   0.0800 
 36 H       -3.8520    -7.0350    -1.7960 H     1 <1>   0.0800 
 37 H       -3.3590    -9.5750    -1.0360 H     1 <1>   0.4000 
 38 H       -3.8160   -11.3010     0.3460 H     1 <1>   0.0800 
 39 H       -4.8390   -11.4800    -1.0710 H     1 <1>   0.0800 
 40 H       -5.3410   -12.1310     0.4670 H     1 <1>   0.0800 
 41 H       -8.2390    -8.9540     1.5680 H     1 <1>   0.1500 
 42 H       -6.7720    -5.8590     1.9010 H     1 <1>   0.0800 
 43 H       -8.3220    -6.6210     1.6550 H     1 <1>   0.0800 
 44 H       -7.5170    -5.8440     0.3160 H     1 <1>   0.0800 
@<TRIPOS>BOND
  1   1   2  1   
  2   1  20  1   
  3   2   3  1   
  4   2  21  1   
  5   2  22  1   
  6   3   4  1   
  7   3   5  1   
  8   3  23  1   
  9   4   6  1   
 10   4  24  1   
 11   4  25  1   
 12   5   7  1   
 13   5  26  1   
 14   5  27  1   
 15   6   8  1   
 16   6   9  1   
 17   6  28  1   
 18   7   8  1   
 19   7  29  1   
 20   7  30  1   
 21   8  31  1   
 22   8  32  1   
 23   9  10  1   
 24   9  33  1   
 25   9  34  1   
 26  10  11  1   
 27  10  35  1   
 28  10  36  1   
 29  11  12  1   
 30  11  37  1   
 31  12  13  ar  
 32  12  14  ar  
 33  13  15  ar  
 34  14  16  ar  
 35  14  17  1   
 36  15  18  ar  
 37  15  19  1   
 38  16  18  ar  
 39  17  38  1   
 40  17  39  1   
 41  17  40  1   
 42  18  41  1   
 43  19  42  1   
 44  19  43  1   
 45  19  44  1   
@<TRIPOS>SUBSTRUCTURE
  1 ****   8 GROUP 4 **** **** 0

# MOE 2024.06 (io_trps.svl 2023.06)
