@<TRIPOS>MOLECULE
NONAME
44 46 1 0 0 
SMALL
USER_CHARGES


@<TRIPOS>ATOM
  1 O       -0.5610     0.3190    -0.2320 O.2   1 <1>  -0.5700 
  2 C       -1.6220     0.8780    -0.0660 C.2   1 <1>   0.5690 
  3 N       -2.7750     0.1630     0.1450 N.am  1 <1>  -0.6600 
  4 C       -1.6460     2.4140    -0.1070 C.3   1 <1>   0.2010 
  5 C       -2.7530    -1.3280     0.3070 C.3   1 <1>   0.1400 
  6 C       -4.1620     0.7260     0.2010 C.3   1 <1>   0.1400 
  7 N       -0.2910     3.0300    -0.0230 N.am  1 <1>  -0.7300 
  8 C       -3.7920    -2.0100    -0.6020 C.3   1 <1>   0.3440 
  9 C       -5.1220    -0.0660    -0.7170 C.3   1 <1>   0.2950 
 10 C        0.0530     4.3090     0.2370 C.2   1 <1>   0.5690 
 11 O       -5.0560    -1.4270    -0.4130 O.3   1 <1>  -0.5600 
 12 C       -3.8680    -3.5030    -0.3000 C.ar  1 <1>  -0.1440 
 13 C       -6.6020     0.3430    -0.6040 C.3   1 <1>  -0.1950 
 14 O        1.2090     4.6270     0.3190 O.2   1 <1>  -0.5700 
 15 C       -1.0140     5.3590     0.4270 C.3   1 <1>  -0.1790 
 16 C       -4.7140    -4.0010     0.6830 C.ar  1 <1>  -0.1500 
 17 C       -3.0670    -4.3880    -1.0080 C.ar  1 <1>  -0.1500 
 18 C       -7.0640     1.7350    -0.2930 C.3   1 <1>  -0.2000 
 19 C       -7.2920     0.6240     0.6940 C.3   1 <1>  -0.2000 
 20 C       -4.7570    -5.3570     0.9540 C.ar  1 <1>  -0.1500 
 21 C       -3.1090    -5.7450    -0.7390 C.ar  1 <1>  -0.1500 
 22 C       -3.9530    -6.2310     0.2430 C.ar  1 <1>  -0.1500 
 23 H       -2.2400     2.7700     0.7150 H     1 <1>   0.0800 
 24 H       -2.1070     2.7210    -1.0280 H     1 <1>   0.0800 
 25 H       -1.7790    -1.7230     0.0760 H     1 <1>   0.0800 
 26 H       -2.9690    -1.5760     1.3310 H     1 <1>   0.0800 
 27 H       -4.5150     0.6730     1.2150 H     1 <1>   0.0800 
 28 H       -4.1670     1.7560    -0.1020 H     1 <1>   0.0800 
 29 H        0.4770     2.3540    -0.1250 H     1 <1>   0.3700 
 30 H       -3.5150    -1.8730    -1.6330 H     1 <1>   0.0800 
 31 H       -4.8140     0.0620    -1.7410 H     1 <1>   0.0800 
 32 H       -7.1830    -0.1880    -1.3390 H     1 <1>   0.1000 
 33 H       -1.6660     5.3780    -0.4250 H     1 <1>   0.0800 
 34 H       -0.5530     6.3240     0.5310 H     1 <1>   0.0800 
 35 H       -1.5770     5.1470     1.3150 H     1 <1>   0.0800 
 36 H       -5.3460    -3.3300     1.2400 H     1 <1>   0.1500 
 37 H       -2.4040    -4.0270    -1.7750 H     1 <1>   0.1500 
 38 H       -6.3680     2.5090    -0.0220 H     1 <1>   0.1000 
 39 H       -7.9140     2.1250    -0.8270 H     1 <1>   0.1000 
 40 H       -8.2900     0.2420     0.8280 H     1 <1>   0.1000 
 41 H       -6.7310     0.6120     1.6120 H     1 <1>   0.1000 
 42 H       -5.4170    -5.7310     1.7170 H     1 <1>   0.1500 
 43 H       -2.4840    -6.4240    -1.2930 H     1 <1>   0.1500 
 44 H       -3.9870    -7.2860     0.4530 H     1 <1>   0.1500 
@<TRIPOS>BOND
  1   1   2  2   
  2   2   3  am  
  3   2   4  1   
  4   3   5  1   
  5   3   6  1   
  6   4   7  1   
  7   4  23  1   
  8   4  24  1   
  9   5   8  1   
 10   5  25  1   
 11   5  26  1   
 12   6   9  1   
 13   6  27  1   
 14   6  28  1   
 15   7  10  am  
 16   7  29  1   
 17   8  11  1   
 18   8  12  1   
 19   8  30  1   
 20   9  11  1   
 21   9  13  1   
 22   9  31  1   
 23  10  14  2   
 24  10  15  1   
 25  12  16  ar  
 26  12  17  ar  
 27  13  18  1   
 28  13  19  1   
 29  13  32  1   
 30  15  33  1   
 31  15  34  1   
 32  15  35  1   
 33  16  20  ar  
 34  16  36  1   
 35  17  21  ar  
 36  17  37  1   
 37  18  19  1   
 38  18  38  1   
 39  18  39  1   
 40  19  40  1   
 41  19  41  1   
 42  20  22  ar  
 43  20  42  1   
 44  21  22  ar  
 45  21  43  1   
 46  22  44  1   
@<TRIPOS>SUBSTRUCTURE
  1 ****   3 GROUP 4 **** **** 0

# MOE 2024.06 (io_trps.svl 2023.06)
