@<TRIPOS>MOLECULE
NONAME
54 57 1 0 0 
SMALL
USER_CHARGES


@<TRIPOS>ATOM
  1 O       -4.5120     2.2890     0.8570 O.2   1 <1>  -0.5700 
  2 C       -3.6400     1.5120     0.5310 C.2   1 <1>   0.5690 
  3 N       -3.8510     0.1670     0.7490 N.am  1 <1>  -0.6600 
  4 C       -2.3220     2.0570    -0.1060 C.3   1 <1>   0.2040 
  5 C       -5.1720    -0.3600     1.1800 C.3   1 <1>   0.1400 
  6 C       -2.8620    -0.9430     0.6800 C.3   1 <1>   0.1400 
  7 C       -1.1210     1.5330     0.7220 C.ar  1 <1>  -0.1440 
  8 C       -2.2550     1.6400    -1.6040 C.3   1 <1>  -0.1600 
  9 C       -2.2260     3.6130    -0.0700 C.3   1 <1>  -0.1600 
 10 C       -4.9110    -1.8120     1.5840 C.3   1 <1>   0.2000 
 11 C       -3.6920    -2.2290     0.7580 C.3   1 <1>  -0.0800 
 12 C       -0.0510     0.8260     0.1770 C.ar  1 <1>  -0.1500 
 13 C       -1.1130     1.7650     2.0940 C.ar  1 <1>  -0.1500 
 14 C       -3.3300     2.3150    -2.4680 C.3   1 <1>  -0.1600 
 15 C       -3.2070     4.3600    -0.9980 C.3   1 <1>  -0.1600 
 16 O       -4.5480    -1.8400     2.9200 O.3   1 <1>  -0.6800 
 17 C       -4.1130    -2.7240    -0.6420 C.3   1 <1>  -0.0170 
 18 C        0.9840     0.3700     0.9770 C.ar  1 <1>  -0.1500 
 19 C       -0.0810     1.3120     2.8960 C.ar  1 <1>  -0.1500 
 20 C       -3.1560     3.8350    -2.4350 C.3   1 <1>  -0.1600 
 21 C       -2.9260    -3.2120    -1.4610 C.ar  1 <1>   0.1670 
 22 C        0.9710     0.6130     2.3370 C.ar  1 <1>  -0.1500 
 23 N       -2.3960    -2.3510    -2.3160 N.ar  1 <1>  -0.6200 
 24 C       -2.4560    -4.5130    -1.2890 C.ar  1 <1>   0.1600 
 25 C       -1.3780    -2.8730    -2.9800 C.ar  1 <1>   0.1600 
 26 N       -1.4350    -5.0350    -1.9490 N.ar  1 <1>  -0.6200 
 27 C       -0.9140    -4.1710    -2.8030 C.ar  1 <1>   0.1600 
 28 H       -5.5830     0.2160     1.9920 H     1 <1>   0.0800 
 29 H       -5.8460    -0.3220     0.3420 H     1 <1>   0.0800 
 30 H       -2.2630    -0.8990    -0.2070 H     1 <1>   0.0800 
 31 H       -2.2110    -0.8810     1.5360 H     1 <1>   0.0800 
 32 H       -1.3010     1.9220    -2.0100 H     1 <1>   0.0800 
 33 H       -2.3550     0.5770    -1.7080 H     1 <1>   0.0800 
 34 H       -2.3810     3.9620     0.9350 H     1 <1>   0.0800 
 35 H       -1.2260     3.8940    -0.3510 H     1 <1>   0.0800 
 36 H       -5.7680    -2.4500     1.4540 H     1 <1>   0.0800 
 37 H       -3.1420    -3.0110     1.2520 H     1 <1>   0.0800 
 38 H        0.0050     0.6060    -0.8720 H     1 <1>   0.1500 
 39 H       -1.9240     2.3040     2.5550 H     1 <1>   0.1500 
 40 H       -3.2450     1.9670    -3.4830 H     1 <1>   0.0800 
 41 H       -4.3120     2.0520    -2.1110 H     1 <1>   0.0800 
 42 H       -4.2110     4.2590    -0.6260 H     1 <1>   0.0800 
 43 H       -2.9720     5.4100    -0.9920 H     1 <1>   0.0800 
 44 H       -3.9160    -1.1120     3.0910 H     1 <1>   0.4000 
 45 H       -4.6110    -1.9370    -1.1820 H     1 <1>   0.0800 
 46 H       -4.8120    -3.5340    -0.5370 H     1 <1>   0.0800 
 47 H        1.8020    -0.1740     0.5380 H     1 <1>   0.1500 
 48 H       -0.0970     1.5060     3.9540 H     1 <1>   0.1500 
 49 H       -3.9320     4.3020    -3.0160 H     1 <1>   0.0800 
 50 H       -2.2090     4.0970    -2.8770 H     1 <1>   0.0800 
 51 H        1.7760     0.2590     2.9570 H     1 <1>   0.1500 
 52 H       -2.9430    -5.1490    -0.5730 H     1 <1>   0.1500 
 53 H       -0.8870    -2.2450    -3.7020 H     1 <1>   0.1500 
 54 H       -0.0780    -4.5060    -3.3910 H     1 <1>   0.1500 
@<TRIPOS>BOND
  1   1   2  2   
  2   2   3  am  
  3   2   4  1   
  4   3   5  1   
  5   3   6  1   
  6   4   7  1   
  7   4   8  1   
  8   4   9  1   
  9   5  10  1   
 10   5  28  1   
 11   5  29  1   
 12   6  11  1   
 13   6  30  1   
 14   6  31  1   
 15   7  12  ar  
 16   7  13  ar  
 17   8  14  1   
 18   8  32  1   
 19   8  33  1   
 20   9  15  1   
 21   9  34  1   
 22   9  35  1   
 23  10  11  1   
 24  10  16  1   
 25  10  36  1   
 26  11  17  1   
 27  11  37  1   
 28  12  18  ar  
 29  12  38  1   
 30  13  19  ar  
 31  13  39  1   
 32  14  20  1   
 33  14  40  1   
 34  14  41  1   
 35  15  20  1   
 36  15  42  1   
 37  15  43  1   
 38  16  44  1   
 39  17  21  1   
 40  17  45  1   
 41  17  46  1   
 42  18  22  ar  
 43  18  47  1   
 44  19  22  ar  
 45  19  48  1   
 46  20  49  1   
 47  20  50  1   
 48  21  23  ar  
 49  21  24  ar  
 50  22  51  1   
 51  23  25  ar  
 52  24  26  ar  
 53  24  52  1   
 54  25  27  ar  
 55  25  53  1   
 56  26  27  ar  
 57  27  54  1   
@<TRIPOS>SUBSTRUCTURE
  1 ****   6 GROUP 4 **** **** 0

# MOE 2024.06 (io_trps.svl 2023.06)
