@<TRIPOS>MOLECULE
NONAME
51 53 1 0 0 
SMALL
USER_CHARGES


@<TRIPOS>ATOM
  1 O       -1.4200    -0.1230     0.6270 O.2   1 <1>  -0.5700 
  2 C       -2.1430     0.7440     1.0570 C.2   1 <1>   0.5690 
  3 N       -3.4000     0.4300     1.5190 N.am  1 <1>  -0.6600 
  4 C       -1.6360     2.1810     1.0640 C.3   1 <1>  -0.0990 
  5 C       -3.6980    -0.9930     1.8560 C.3   1 <1>   0.3200 
  6 C       -4.4960     1.4160     1.8290 C.3   1 <1>   0.1400 
  7 C       -0.3540     2.4270     0.2490 C.3   1 <1>   0.0630 
  8 C       -4.2120    -1.6560     0.5990 C.2   1 <1>  -0.3320 
  9 C       -5.7290     1.2740     0.9030 C.3   1 <1>   0.3430 
 10 C       -0.0070     3.9000     0.2160 C.ar  1 <1>  -0.1440 
 11 C       -0.4950     2.0720    -1.2500 C.3   1 <1>  -0.1600 
 12 N       -3.4210    -1.8660    -0.4700 N.pl3 1 <1>   0.0330 
 13 C       -5.4330    -2.1310     0.2750 C.2   1 <1>   0.0770 
 14 N       -5.3740     0.9620    -0.5200 N.4   1 <1>  -0.9590 
 15 C        0.2900     4.3150    -1.0590 C.ar  1 <1>  -0.1440 
 16 C        0.0350     4.7980     1.2700 C.ar  1 <1>  -0.1500 
 17 C        0.2180     3.1780    -2.0430 C.3   1 <1>  -0.0170 
 18 C       -4.2300    -2.4120    -1.4000 C.2   1 <1>   0.0360 
 19 N       -5.4520    -2.5630    -0.9980 N.2   1 <1>  -0.5650 
 20 C       -4.6920     2.0810    -1.2340 C.3   1 <1>   0.2630 
 21 C       -6.5610     0.4850    -1.2960 C.3   1 <1>   0.2630 
 22 C        0.6180     5.6320    -1.3210 C.ar  1 <1>  -0.1500 
 23 C        0.3630     6.1210     1.0180 C.ar  1 <1>  -0.1500 
 24 C        0.6500     6.5370    -0.2730 C.ar  1 <1>  -0.1500 
 25 H       -1.4490     2.4520     2.0860 H     1 <1>   0.0800 
 26 H       -2.3840     2.8420     0.6790 H     1 <1>   0.0800 
 27 H       -4.4310    -1.0500     2.6430 H     1 <1>   0.0800 
 28 H       -2.8060    -1.4930     2.1990 H     1 <1>   0.0800 
 29 H       -4.1350     2.4250     1.7600 H     1 <1>   0.0800 
 30 H       -4.8110     1.2810     2.8500 H     1 <1>   0.0800 
 31 H        0.4750     1.8850     0.6750 H     1 <1>   0.0800 
 32 H       -6.3210     2.1740     0.9490 H     1 <1>   0.0800 
 33 H       -6.3360     0.4720     1.2890 H     1 <1>   0.0800 
 34 H       -1.5310     2.0680    -1.5320 H     1 <1>   0.0800 
 35 H       -0.0730     1.1050    -1.4630 H     1 <1>   0.0800 
 36 H       -2.4150    -1.6420    -0.5330 H     1 <1>   0.2700 
 37 H       -6.3200    -2.1780     0.8880 H     1 <1>   0.1500 
 38 H       -4.7190     0.1540    -0.4580 H     1 <1>   0.4500 
 39 H       -0.1770     4.4820     2.2760 H     1 <1>   0.1500 
 40 H       -0.3270     3.4520    -2.9290 H     1 <1>   0.0800 
 41 H        1.2160     2.8730    -2.3070 H     1 <1>   0.0800 
 42 H       -3.8710    -2.6910    -2.3780 H     1 <1>   0.1500 
 43 H       -5.3380     2.9420    -1.2870 H     1 <1>   0.0800 
 44 H       -4.4360     1.7800    -2.2370 H     1 <1>   0.0800 
 45 H       -3.7870     2.3570    -0.7230 H     1 <1>   0.0800 
 46 H       -7.2930     1.2700    -1.3910 H     1 <1>   0.0800 
 47 H       -7.0170    -0.3590    -0.8030 H     1 <1>   0.0800 
 48 H       -6.2580     0.1690    -2.2810 H     1 <1>   0.0800 
 49 H        0.8500     5.9490    -2.3230 H     1 <1>   0.1500 
 50 H        0.3980     6.8280     1.8280 H     1 <1>   0.1500 
 51 H        0.9040     7.5660    -0.4610 H     1 <1>   0.1500 
@<TRIPOS>BOND
  1   1   2  2   
  2   2   3  am  
  3   2   4  1   
  4   3   5  1   
  5   3   6  1   
  6   4   7  1   
  7   4  25  1   
  8   4  26  1   
  9   5   8  1   
 10   5  27  1   
 11   5  28  1   
 12   6   9  1   
 13   6  29  1   
 14   6  30  1   
 15   7  10  1   
 16   7  11  1   
 17   7  31  1   
 18   8  12  1   
 19   8  13  2   
 20   9  14  1   
 21   9  32  1   
 22   9  33  1   
 23  10  15  ar  
 24  10  16  ar  
 25  11  17  1   
 26  11  34  1   
 27  11  35  1   
 28  12  18  1   
 29  12  36  1   
 30  13  19  1   
 31  13  37  1   
 32  14  20  1   
 33  14  21  1   
 34  14  38  1   
 35  15  17  1   
 36  15  22  ar  
 37  16  23  ar  
 38  16  39  1   
 39  17  40  1   
 40  17  41  1   
 41  18  19  2   
 42  18  42  1   
 43  20  43  1   
 44  20  44  1   
 45  20  45  1   
 46  21  46  1   
 47  21  47  1   
 48  21  48  1   
 49  22  24  ar  
 50  22  49  1   
 51  23  24  ar  
 52  23  50  1   
 53  24  51  1   
@<TRIPOS>SUBSTRUCTURE
  1 ****   2 GROUP 4 **** **** 0

# MOE 2024.06 (io_trps.svl 2023.06)
