@<TRIPOS>MOLECULE
NONAME
59 62 1 0 0 
SMALL
USER_CHARGES


@<TRIPOS>ATOM
  1 O       -1.0150    -0.4230    -1.6490 O.2   1 <1>  -0.5700 
  2 C       -1.9170    -0.9550    -1.0470 C.2   1 <1>   0.5690 
  3 N       -1.7650    -2.1870    -0.4560 N.am  1 <1>  -0.6600 
  4 C       -3.2110    -0.1650    -0.9550 C.3   1 <1>  -0.0990 
  5 C       -2.9030    -3.0230     0.0540 C.3   1 <1>   0.2200 
  6 C       -0.4010    -2.8040    -0.4330 C.3   1 <1>   0.1400 
  7 C       -3.0500     1.0090     0.0190 C.3   1 <1>   0.0210 
  8 C       -3.3130    -2.5720     1.4720 C.3   1 <1>  -0.1600 
  9 C       -2.5460    -4.5200    -0.0230 C.3   1 <1>  -0.1600 
 10 C       -0.2430    -3.7440     0.7650 C.3   1 <1>  -0.1600 
 11 C       -4.3830     1.3620     0.6450 C.2   1 <1>   0.0460 
 12 C       -4.8320    -2.5160     1.6660 C.3   1 <1>   0.1400 
 13 C       -1.2610    -4.8950     0.7370 C.3   1 <1>  -0.1600 
 14 N       -4.8130     0.7380     1.7450 N.2   1 <1>  -0.2270 
 15 C       -5.2940     2.2650     0.2560 C.2   1 <1>  -0.3020 
 16 N       -5.4250    -3.8700     1.5660 N.am  1 <1>  -0.7300 
 17 N       -5.9640     1.2220     2.0500 N.2   1 <1>  -0.4180 
 18 N       -6.2850     2.1510     1.1440 N.pl3 1 <1>   0.3140 
 19 C       -6.2860    -4.3910     0.6550 C.2   1 <1>   0.5690 
 20 C       -7.5250     2.9440     1.2050 C.3   1 <1>   0.0960 
 21 O       -6.7230    -5.4980     0.8460 O.2   1 <1>  -0.5700 
 22 C       -6.6960    -3.6660    -0.6230 C.3   1 <1>   0.0440 
 23 C       -8.4800     2.6290     0.0480 C.3   1 <1>   0.1200 
 24 C       -7.3500    -2.3030    -0.4150 C.ar  1 <1>  -0.1440 
 25 O       -9.1170     1.3810     0.2440 O.3   1 <1>  -0.3620 
 26 C       -6.9920    -1.2270    -1.2160 C.ar  1 <1>  -0.1500 
 27 C       -8.3070    -2.1240     0.5720 C.ar  1 <1>  -0.1500 
 28 C       -8.5140     0.1960    -0.0190 C.ar  1 <1>   0.0820 
 29 C       -7.5690     0.0160    -1.0230 C.ar  1 <1>  -0.1500 
 30 C       -8.8840    -0.8830     0.7670 C.ar  1 <1>  -0.1500 
 31 H       -4.0270    -0.7800    -0.6430 H     1 <1>   0.0800 
 32 H       -3.4550     0.2140    -1.9290 H     1 <1>   0.0800 
 33 H       -3.7360    -2.8750    -0.6080 H     1 <1>   0.0800 
 34 H        0.3460    -2.0300    -0.3750 H     1 <1>   0.0800 
 35 H       -0.2470    -3.3470    -1.3500 H     1 <1>   0.0800 
 36 H       -2.6450     1.8580    -0.5020 H     1 <1>   0.0800 
 37 H       -2.3640     0.7500     0.8070 H     1 <1>   0.0800 
 38 H       -2.9370    -1.5810     1.6520 H     1 <1>   0.0800 
 39 H       -2.8840    -3.2090     2.2220 H     1 <1>   0.0800 
 40 H       -2.4200    -4.7690    -1.0620 H     1 <1>   0.0800 
 41 H       -3.3630    -5.1170     0.3400 H     1 <1>   0.0800 
 42 H       -0.3680    -3.1660     1.6630 H     1 <1>   0.0800 
 43 H        0.7550    -4.1450     0.7780 H     1 <1>   0.0800 
 44 H       -5.2700    -1.8540     0.9430 H     1 <1>   0.0800 
 45 H       -5.0550    -2.1110     2.6390 H     1 <1>   0.0800 
 46 H       -0.8220    -5.7550     0.2630 H     1 <1>   0.0800 
 47 H       -1.5010    -5.1720     1.7500 H     1 <1>   0.0800 
 48 H       -5.2950     2.9490    -0.5700 H     1 <1>   0.1500 
 49 H       -5.2490    -4.4740     2.3720 H     1 <1>   0.3700 
 50 H       -7.2490     3.9810     1.1700 H     1 <1>   0.0800 
 51 H       -8.0150     2.7560     2.1430 H     1 <1>   0.0800 
 52 H       -7.3910    -4.2910    -1.1540 H     1 <1>   0.0800 
 53 H       -5.8250    -3.5690    -1.2410 H     1 <1>   0.0800 
 54 H       -7.9880     2.6540    -0.9060 H     1 <1>   0.0800 
 55 H       -9.2640     3.3650     0.0350 H     1 <1>   0.0800 
 56 H       -6.2630    -1.3500    -1.9960 H     1 <1>   0.1500 
 57 H       -8.6050    -2.9480     1.1980 H     1 <1>   0.1500 
 58 H       -7.2770     0.8250    -1.6620 H     1 <1>   0.1500 
 59 H       -9.6200    -0.7430     1.5370 H     1 <1>   0.1500 
@<TRIPOS>BOND
  1   1   2  2   
  2   2   3  am  
  3   2   4  1   
  4   3   5  1   
  5   3   6  1   
  6   4   7  1   
  7   4  31  1   
  8   4  32  1   
  9   5   8  1   
 10   5   9  1   
 11   5  33  1   
 12   6  10  1   
 13   6  34  1   
 14   6  35  1   
 15   7  11  1   
 16   7  36  1   
 17   7  37  1   
 18   8  12  1   
 19   8  38  1   
 20   8  39  1   
 21   9  13  1   
 22   9  40  1   
 23   9  41  1   
 24  10  13  1   
 25  10  42  1   
 26  10  43  1   
 27  11  14  1   
 28  11  15  2   
 29  12  16  1   
 30  12  44  1   
 31  12  45  1   
 32  13  46  1   
 33  13  47  1   
 34  14  17  2   
 35  15  18  1   
 36  15  48  1   
 37  16  19  am  
 38  16  49  1   
 39  17  18  1   
 40  18  20  1   
 41  19  21  2   
 42  19  22  1   
 43  20  23  1   
 44  20  50  1   
 45  20  51  1   
 46  22  24  1   
 47  22  52  1   
 48  22  53  1   
 49  23  25  1   
 50  23  54  1   
 51  23  55  1   
 52  24  26  ar  
 53  24  27  ar  
 54  25  28  1   
 55  26  29  ar  
 56  26  56  1   
 57  27  30  ar  
 58  27  57  1   
 59  28  29  ar  
 60  28  30  ar  
 61  29  58  1   
 62  30  59  1   
@<TRIPOS>SUBSTRUCTURE
  1 ****  12 GROUP 4 **** **** 0

# MOE 2024.06 (io_trps.svl 2023.06)
