@<TRIPOS>MOLECULE
NONAME
58 61 1 0 0 
SMALL
USER_CHARGES


@<TRIPOS>ATOM
  1 CL      -0.0010    -0.9790     2.3900 Cl    1 <1>  -0.1770 
  2 C        1.0690    -1.3980     1.0650 C.ar  1 <1>   0.1770 
  3 C        0.6660    -2.3070     0.0790 C.ar  1 <1>   0.1000 
  4 C        2.3140    -0.7980     1.0350 C.ar  1 <1>  -0.1500 
  5 N       -0.5790    -2.9480     0.0510 N.pl3 1 <1>  -0.8380 
  6 C        1.5670    -2.5890    -0.9400 C.ar  1 <1>  -0.1500 
  7 C        3.1940    -1.0970     0.0080 C.ar  1 <1>  -0.1500 
  8 C       -1.7460    -2.0940    -0.2370 C.3   1 <1>   0.2090 
  9 C       -0.8250    -3.9460     1.1080 C.3   1 <1>   0.2090 
 10 C        2.8160    -1.9930    -0.9780 C.ar  1 <1>  -0.1500 
 11 C       -2.8480    -2.9920    -0.7870 C.3   1 <1>  -0.1600 
 12 C       -1.8970    -4.9020     0.5970 C.3   1 <1>  -0.1600 
 13 C       -3.1730    -4.1430     0.1840 C.3   1 <1>   0.4230 
 14 N       -4.1670    -5.0800    -0.4480 N.4   1 <1>  -0.9590 
 15 C       -4.4270    -6.2920     0.4360 C.3   1 <1>   0.3430 
 16 C       -5.4350    -4.3200    -0.7550 C.3   1 <1>   0.3430 
 17 C       -5.5930    -7.1990    -0.0620 C.3   1 <1>   0.4230 
 18 C       -6.6110    -5.2330    -1.1430 C.3   1 <1>  -0.1600 
 19 N       -5.8540    -8.4510     0.7350 N.4   1 <1>  -0.9590 
 20 C       -6.8750    -6.3510    -0.1000 C.3   1 <1>  -0.1060 
 21 C       -6.9040    -9.3400     0.1420 C.3   1 <1>   0.3430 
 22 C       -4.6750    -9.2270     1.2160 C.3   1 <1>   0.2630 
 23 C       -7.0390    -5.7900     1.3220 C.2   1 <1>   0.9060 
 24 C       -8.1210    -7.1920    -0.5030 C.3   1 <1>  -0.1600 
 25 C       -7.7520    -8.6240    -0.9190 C.3   1 <1>  -0.1600 
 26 O       -6.9120    -6.5840     2.2600 O.co2 1 <1>  -0.9000 
 27 O       -7.0820    -4.5770     1.4990 O.co2 1 <1>  -0.9000 
 28 H        2.5910    -0.1050     1.8080 H     1 <1>   0.1500 
 29 H        1.2790    -3.2830    -1.7080 H     1 <1>   0.1500 
 30 H        4.1660    -0.6350    -0.0240 H     1 <1>   0.1500 
 31 H       -2.0730    -1.5970     0.6620 H     1 <1>   0.0800 
 32 H       -1.4770    -1.3440    -0.9630 H     1 <1>   0.0800 
 33 H        0.0870    -4.4820     1.3200 H     1 <1>   0.0800 
 34 H       -1.1500    -3.4560     2.0110 H     1 <1>   0.0800 
 35 H        3.4970    -2.2280    -1.7790 H     1 <1>   0.1500 
 36 H       -2.5170    -3.3800    -1.7330 H     1 <1>   0.0800 
 37 H       -3.7060    -2.3660    -0.9470 H     1 <1>   0.0800 
 38 H       -2.0990    -5.5920     1.3940 H     1 <1>   0.0800 
 39 H       -1.4900    -5.4370    -0.2420 H     1 <1>   0.0800 
 40 H       -3.6100    -3.7170     1.0750 H     1 <1>   0.0800 
 41 H       -3.7570    -5.3810    -1.3400 H     1 <1>   0.4500 
 42 H       -3.5340    -6.8870     0.4850 H     1 <1>   0.0800 
 43 H       -4.6590    -5.9520     1.4330 H     1 <1>   0.0800 
 44 H       -5.7130    -3.7330     0.1060 H     1 <1>   0.0800 
 45 H       -5.2620    -3.6270    -1.5620 H     1 <1>   0.0800 
 46 H       -5.3550    -7.5020    -1.0670 H     1 <1>   0.0800 
 47 H       -7.4880    -4.6100    -1.2120 H     1 <1>   0.0800 
 48 H       -6.4400    -5.6510    -2.1190 H     1 <1>   0.0800 
 49 H       -6.3200    -8.0370     1.5910 H     1 <1>   0.4500 
 50 H       -6.4460   -10.2070    -0.3060 H     1 <1>   0.0800 
 51 H       -7.5520    -9.6820     0.9340 H     1 <1>   0.0800 
 52 H       -4.1240    -9.6320     0.3830 H     1 <1>   0.0800 
 53 H       -5.0040   -10.0410     1.8420 H     1 <1>   0.0800 
 54 H       -4.0250    -8.5980     1.8020 H     1 <1>   0.0800 
 55 H       -8.7950    -7.2500     0.3370 H     1 <1>   0.0800 
 56 H       -8.6690    -6.7150    -1.2980 H     1 <1>   0.0800 
 57 H       -7.2170    -8.6080    -1.8530 H     1 <1>   0.0800 
 58 H       -8.6510    -9.1920    -1.0850 H     1 <1>   0.0800 
@<TRIPOS>BOND
  1   1   2  1   
  2   2   3  ar  
  3   2   4  ar  
  4   3   5  1   
  5   3   6  ar  
  6   4   7  ar  
  7   4  28  1   
  8   5   8  1   
  9   5   9  1   
 10   6  10  ar  
 11   6  29  1   
 12   7  10  ar  
 13   7  30  1   
 14   8  11  1   
 15   8  31  1   
 16   8  32  1   
 17   9  12  1   
 18   9  33  1   
 19   9  34  1   
 20  10  35  1   
 21  11  13  1   
 22  11  36  1   
 23  11  37  1   
 24  12  13  1   
 25  12  38  1   
 26  12  39  1   
 27  13  14  1   
 28  13  40  1   
 29  14  15  1   
 30  14  16  1   
 31  14  41  1   
 32  15  17  1   
 33  15  42  1   
 34  15  43  1   
 35  16  18  1   
 36  16  44  1   
 37  16  45  1   
 38  17  19  1   
 39  17  20  1   
 40  17  46  1   
 41  18  20  1   
 42  18  47  1   
 43  18  48  1   
 44  19  21  1   
 45  19  22  1   
 46  19  49  1   
 47  20  23  1   
 48  20  24  1   
 49  21  25  1   
 50  21  50  1   
 51  21  51  1   
 52  22  52  1   
 53  22  53  1   
 54  22  54  1   
 55  23  26  ar  
 56  23  27  ar  
 57  24  25  1   
 58  24  55  1   
 59  24  56  1   
 60  25  57  1   
 61  25  58  1   
@<TRIPOS>SUBSTRUCTURE
  1 ****  13 GROUP 4 **** **** 0

# MOE 2024.06 (io_trps.svl 2023.06)
