@<TRIPOS>MOLECULE
NONAME
48 50 1 0 0 
SMALL
USER_CHARGES


@<TRIPOS>ATOM
  1 O       -1.4560    -0.9370    -2.5540 O.2   1 <1>  -0.5700 
  2 C       -1.8690    -1.1620    -1.4400 C.2   1 <1>   0.5690 
  3 N       -1.8920    -0.2050    -0.4690 N.am  1 <1>  -0.6600 
  4 C       -2.3640    -2.5580    -1.1430 C.3   1 <1>  -0.0190 
  5 C       -2.4580    -0.4710     0.8840 C.3   1 <1>   0.2200 
  6 C       -1.4050     1.1830    -0.7160 C.3   1 <1>   0.0600 
  7 C       -1.5040    -3.2270    -0.0550 C.3   1 <1>   0.1200 
  8 C       -3.8930    -2.5780    -0.9610 C.3   1 <1>   0.1400 
  9 C       -1.6400    -1.5430     1.6460 C.3   1 <1>   0.1200 
 10 C       -3.9820    -0.7200     0.8120 C.3   1 <1>   0.1400 
 11 O       -1.8610    -2.8670     1.2440 O.3   1 <1>  -0.5600 
 12 N       -4.4040    -2.0890     0.3610 N.am  1 <1>  -0.6600 
 13 C       -5.2790    -2.8310     1.1320 C.2   1 <1>   0.5440 
 14 O       -5.9300    -2.2700     1.9950 O.2   1 <1>  -0.5700 
 15 C       -5.4690    -4.2510     0.9240 C.ar  1 <1>   0.0860 
 16 C       -4.4370    -5.1620     1.1470 C.ar  1 <1>  -0.1500 
 17 C       -6.6930    -4.7550     0.4850 C.ar  1 <1>  -0.1500 
 18 C       -4.6100    -6.5130     0.9140 C.ar  1 <1>  -0.1500 
 19 C       -6.8760    -6.1060     0.2510 C.ar  1 <1>  -0.1500 
 20 C       -5.8270    -6.9970     0.4600 C.ar  1 <1>   0.0820 
 21 O       -5.9150    -8.3290     0.2500 O.3   1 <1>  -0.3630 
 22 C       -7.1180    -8.9370    -0.1570 C.3   1 <1>   0.1200 
 23 C       -6.8780   -10.4430    -0.2720 C.3   1 <1>  -0.1600 
 24 C       -8.1480   -11.1790    -0.7140 C.3   1 <1>  -0.2400 
 25 H       -2.1730    -3.1180    -2.0410 H     1 <1>   0.0800 
 26 H       -2.3410     0.4370     1.4490 H     1 <1>   0.0800 
 27 H       -0.6240     1.4250    -0.0170 H     1 <1>   0.0800 
 28 H       -2.2170     1.8800    -0.6010 H     1 <1>   0.0800 
 29 H       -1.0110     1.2800    -1.7130 H     1 <1>   0.0800 
 30 H       -0.4610    -3.0000    -0.1990 H     1 <1>   0.0800 
 31 H       -1.6260    -4.2940    -0.1200 H     1 <1>   0.0800 
 32 H       -4.2300    -3.5850    -1.1310 H     1 <1>   0.0800 
 33 H       -4.3360    -1.9730    -1.7340 H     1 <1>   0.0800 
 34 H       -1.9110    -1.5000     2.6860 H     1 <1>   0.0800 
 35 H       -0.5880    -1.3330     1.5680 H     1 <1>   0.0800 
 36 H       -4.4290     0.0120     0.1620 H     1 <1>   0.0800 
 37 H       -4.3720    -0.5400     1.7980 H     1 <1>   0.0800 
 38 H       -3.4930    -4.7970     1.5110 H     1 <1>   0.1500 
 39 H       -7.5050    -4.0660     0.3300 H     1 <1>   0.1500 
 40 H       -3.8050    -7.2040     1.0870 H     1 <1>   0.1500 
 41 H       -7.8360    -6.4450    -0.0900 H     1 <1>   0.1500 
 42 H       -7.8710    -8.7280     0.5830 H     1 <1>   0.0800 
 43 H       -7.4030    -8.5240    -1.1090 H     1 <1>   0.0800 
 44 H       -6.0960   -10.6220    -0.9900 H     1 <1>   0.0800 
 45 H       -6.5610   -10.8240     0.6830 H     1 <1>   0.0800 
 46 H       -8.4730   -10.8260    -1.6770 H     1 <1>   0.0800 
 47 H       -8.9390   -11.0280    -0.0010 H     1 <1>   0.0800 
 48 H       -7.9520   -12.2350    -0.7870 H     1 <1>   0.0800 
@<TRIPOS>BOND
  1   1   2  2   
  2   2   3  am  
  3   2   4  1   
  4   3   5  1   
  5   3   6  1   
  6   4   7  1   
  7   4   8  1   
  8   4  25  1   
  9   5   9  1   
 10   5  10  1   
 11   5  26  1   
 12   6  27  1   
 13   6  28  1   
 14   6  29  1   
 15   7  11  1   
 16   7  30  1   
 17   7  31  1   
 18   8  12  1   
 19   8  32  1   
 20   8  33  1   
 21   9  11  1   
 22   9  34  1   
 23   9  35  1   
 24  10  12  1   
 25  10  36  1   
 26  10  37  1   
 27  12  13  am  
 28  13  14  2   
 29  13  15  1   
 30  15  16  ar  
 31  15  17  ar  
 32  16  18  ar  
 33  16  38  1   
 34  17  19  ar  
 35  17  39  1   
 36  18  20  ar  
 37  18  40  1   
 38  19  20  ar  
 39  19  41  1   
 40  20  21  1   
 41  21  22  1   
 42  22  23  1   
 43  22  42  1   
 44  22  43  1   
 45  23  24  1   
 46  23  44  1   
 47  23  45  1   
 48  24  46  1   
 49  24  47  1   
 50  24  48  1   
@<TRIPOS>SUBSTRUCTURE
  1 ****  15 GROUP 4 **** **** 0

# MOE 2024.06 (io_trps.svl 2023.06)
