@<TRIPOS>MOLECULE
NONAME
55 57 1 0 0 
SMALL
USER_CHARGES


@<TRIPOS>ATOM
  1 O       -1.4050     0.1340    -1.4790 O.2   1 <1>  -0.5700 
  2 C       -1.7070     0.6090    -0.4020 C.2   1 <1>   0.5440 
  3 N       -2.3110    -0.2060     0.5110 N.am  1 <1>  -0.7300 
  4 C       -1.4340     2.0020    -0.0920 C.ar  1 <1>   0.0860 
  5 C       -2.6530    -1.6290     0.2870 C.3   1 <1>   0.2200 
  6 C       -2.1840     2.7140     0.8460 C.ar  1 <1>  -0.1500 
  7 C       -0.4000     2.6870    -0.7310 C.ar  1 <1>  -0.1500 
  8 C       -4.1310    -1.7350    -0.0440 C.3   1 <1>  -0.0800 
  9 C       -2.5750    -2.3880     1.6060 C.3   1 <1>   0.1200 
 10 C       -1.9080     4.0380     1.1390 C.ar  1 <1>  -0.1500 
 11 C       -0.1200     4.0090    -0.4430 C.ar  1 <1>  -0.1500 
 12 C       -4.7770    -1.7570     1.3460 C.3   1 <1>   0.1200 
 13 C       -4.4380    -3.0090    -0.8540 C.3   1 <1>  -0.0160 
 14 O       -3.7910    -2.1610     2.2550 O.3   1 <1>  -0.5600 
 15 C       -0.8720     4.6940     0.4970 C.ar  1 <1>  -0.1430 
 16 C       -5.9130    -3.0920    -1.2180 C.ar  1 <1>  -0.1430 
 17 C       -0.5650     6.1500     0.8070 C.3   1 <1>  -0.0170 
 18 C       -6.7790    -3.9630    -0.5890 C.ar  1 <1>  -0.1500 
 19 C       -6.4590    -2.2940    -2.2030 C.ar  1 <1>  -0.1500 
 20 C       -1.3140     7.0690    -0.1730 C.3   1 <1>  -0.1600 
 21 C       -8.1130    -3.9900    -0.9610 C.ar  1 <1>   0.1600 
 22 C       -7.8080    -2.3990    -2.4990 C.ar  1 <1>   0.1600 
 23 C       -1.0500     8.5740     0.0070 C.3   1 <1>   0.2800 
 24 N       -8.6490    -3.2270    -1.8990 N.ar  1 <1>  -0.6200 
 25 O        0.3000     8.7880    -0.0880 O.3   1 <1>  -0.6800 
 26 C       -1.7020     9.3770    -1.1160 C.3   1 <1>  -0.2400 
 27 C       -1.4890     9.1030     1.3720 C.3   1 <1>  -0.2400 
 28 H       -2.5500     0.1440     1.4400 H     1 <1>   0.3700 
 29 H       -2.0130    -2.0550    -0.4680 H     1 <1>   0.0800 
 30 H       -3.0020     2.2340     1.3510 H     1 <1>   0.1500 
 31 H        0.1910     2.1680    -1.4660 H     1 <1>   0.1500 
 32 H       -4.4620    -0.8810    -0.6090 H     1 <1>   0.0800 
 33 H       -1.7630    -2.0570     2.2300 H     1 <1>   0.0800 
 34 H       -2.4920    -3.4460     1.4310 H     1 <1>   0.0800 
 35 H       -2.5040     4.5600     1.8670 H     1 <1>   0.1500 
 36 H        0.6850     4.5080    -0.9550 H     1 <1>   0.1500 
 37 H       -5.6120    -2.4320     1.4140 H     1 <1>   0.0800 
 38 H       -5.0940    -0.7690     1.6320 H     1 <1>   0.0800 
 39 H       -4.1530    -3.8850    -0.2970 H     1 <1>   0.0800 
 40 H       -3.8610    -3.0000    -1.7630 H     1 <1>   0.0800 
 41 H       -0.8520     6.3660     1.8200 H     1 <1>   0.0800 
 42 H        0.4960     6.3150     0.7270 H     1 <1>   0.0800 
 43 H       -6.4310    -4.6210     0.1860 H     1 <1>   0.1500 
 44 H       -5.8490    -1.5920    -2.7420 H     1 <1>   0.1500 
 45 H       -2.3690     6.8890    -0.0750 H     1 <1>   0.0800 
 46 H       -1.0400     6.7920    -1.1760 H     1 <1>   0.0800 
 47 H       -8.7740    -4.6750    -0.4590 H     1 <1>   0.1500 
 48 H       -8.2170    -1.7680    -3.2690 H     1 <1>   0.1500 
 49 H        0.4810     9.7410    -0.0130 H     1 <1>   0.4000 
 50 H       -2.7670     9.2380    -1.0940 H     1 <1>   0.0800 
 51 H       -1.3400     9.0440    -2.0730 H     1 <1>   0.0800 
 52 H       -1.4970    10.4270    -1.0080 H     1 <1>   0.0800 
 53 H       -2.5330     8.8970     1.5250 H     1 <1>   0.0800 
 54 H       -1.3470    10.1670     1.4310 H     1 <1>   0.0800 
 55 H       -0.9310     8.6370     2.1640 H     1 <1>   0.0800 
@<TRIPOS>BOND
  1   1   2  2   
  2   2   3  am  
  3   2   4  1   
  4   3   5  1   
  5   3  28  1   
  6   4   6  ar  
  7   4   7  ar  
  8   5   8  1   
  9   5   9  1   
 10   5  29  1   
 11   6  10  ar  
 12   6  30  1   
 13   7  11  ar  
 14   7  31  1   
 15   8  12  1   
 16   8  13  1   
 17   8  32  1   
 18   9  14  1   
 19   9  33  1   
 20   9  34  1   
 21  10  15  ar  
 22  10  35  1   
 23  11  15  ar  
 24  11  36  1   
 25  12  14  1   
 26  12  37  1   
 27  12  38  1   
 28  13  16  1   
 29  13  39  1   
 30  13  40  1   
 31  15  17  1   
 32  16  18  ar  
 33  16  19  ar  
 34  17  20  1   
 35  17  41  1   
 36  17  42  1   
 37  18  21  ar  
 38  18  43  1   
 39  19  22  ar  
 40  19  44  1   
 41  20  23  1   
 42  20  45  1   
 43  20  46  1   
 44  21  24  ar  
 45  21  47  1   
 46  22  24  ar  
 47  22  48  1   
 48  23  25  1   
 49  23  26  1   
 50  23  27  1   
 51  25  49  1   
 52  26  50  1   
 53  26  51  1   
 54  26  52  1   
 55  27  53  1   
 56  27  54  1   
 57  27  55  1   
@<TRIPOS>SUBSTRUCTURE
  1 ****   2 GROUP 4 **** **** 0

# MOE 2024.06 (io_trps.svl 2023.06)
