@<TRIPOS>MOLECULE
NONAME
55 57 1 0 0 
SMALL
USER_CHARGES


@<TRIPOS>ATOM
  1 O       -0.0110     1.6950    -1.7890 O.2   1 <1>  -0.5700 
  2 C       -0.3220     2.8290    -1.5070 C.2   1 <1>   0.5690 
  3 N       -1.0640     3.1580    -0.4040 N.am  1 <1>  -0.5090 
  4 C        0.1040     3.9490    -2.4500 C.3   1 <1>   0.1810 
  5 C       -1.6280     4.5330    -0.2400 C.3   1 <1>   0.3640 
  6 C       -1.4870     2.1670     0.6120 C.3   1 <1>   0.0490 
  7 O        0.2370     5.1690    -1.7690 O.3   1 <1>  -0.5600 
  8 C       -3.1340     4.5050    -0.5070 C.ar  1 <1>  -0.1440 
  9 C       -0.9490     5.6190    -1.1230 C.3   1 <1>   0.2610 
 10 C       -1.0720     2.3850     2.0340 C.3   1 <1>  -0.2000 
 11 C       -0.4680     1.2700     1.2410 C.3   1 <1>  -0.2000 
 12 C       -3.9850     5.2580     0.2920 C.ar  1 <1>   0.1600 
 13 C       -3.6890     3.7530    -1.5290 C.ar  1 <1>  -0.1500 
 14 C       -0.6480     6.8400    -0.2510 C.2   1 <1>   0.5690 
 15 N       -5.3010     5.3110     0.1630 N.ar  1 <1>  -0.6200 
 16 C       -5.0580     3.8010    -1.6790 C.ar  1 <1>  -0.1500 
 17 O       -1.5530     7.3430     0.3720 O.2   1 <1>  -0.5700 
 18 N        0.6360     7.2860    -0.1800 N.am  1 <1>  -0.7300 
 19 C       -5.8060     4.5830    -0.8180 C.ar  1 <1>   0.1600 
 20 C        1.2370     8.3410     0.6520 C.3   1 <1>   0.3000 
 21 C        1.0180     8.0370     2.1610 C.3   1 <1>  -0.1600 
 22 C        2.7380     8.4060     0.2670 C.3   1 <1>  -0.1600 
 23 C        0.5630     9.6830     0.2650 C.3   1 <1>  -0.1600 
 24 C        1.0580     6.5650     2.6260 C.3   1 <1>  -0.2400 
 25 C        3.5740     7.1190     0.3990 C.3   1 <1>  -0.2400 
 26 C        1.1070    10.9430     0.9660 C.3   1 <1>  -0.2400 
 27 H       -0.6170     4.0650    -3.2380 H     1 <1>   0.0800 
 28 H        1.0590     3.7070    -2.8810 H     1 <1>   0.0800 
 29 H       -1.4830     4.8090     0.7910 H     1 <1>   0.0800 
 30 H       -2.4670     1.7620     0.4150 H     1 <1>   0.1000 
 31 H       -1.6310     5.9310    -1.8930 H     1 <1>   0.0800 
 32 H       -0.4360     3.2140     2.2900 H     1 <1>   0.1000 
 33 H       -1.7600     2.1290     2.8210 H     1 <1>   0.1000 
 34 H       -0.7510     0.2590     1.4730 H     1 <1>   0.1000 
 35 H        0.5530     1.3470     0.9120 H     1 <1>   0.1000 
 36 H       -3.5650     5.8560     1.0850 H     1 <1>   0.1500 
 37 H       -3.0920     3.1430    -2.1860 H     1 <1>   0.1500 
 38 H       -5.5440     3.2360    -2.4530 H     1 <1>   0.1500 
 39 H        1.3200     6.7660    -0.7340 H     1 <1>   0.3700 
 40 H       -6.8760     4.6120    -0.9420 H     1 <1>   0.1500 
 41 H        1.7430     8.5930     2.7270 H     1 <1>   0.0800 
 42 H        0.0550     8.4240     2.4440 H     1 <1>   0.0800 
 43 H        2.8050     8.7390    -0.7540 H     1 <1>   0.0800 
 44 H        3.2200     9.1570     0.8650 H     1 <1>   0.0800 
 45 H        0.6520     9.8250    -0.7980 H     1 <1>   0.0800 
 46 H       -0.4870     9.6250     0.4880 H     1 <1>   0.0800 
 47 H        1.9620     6.0710     2.3360 H     1 <1>   0.0800 
 48 H        0.2260     6.0180     2.2230 H     1 <1>   0.0800 
 49 H        0.9840     6.5270     3.6980 H     1 <1>   0.0800 
 50 H        3.0910     6.2760    -0.0600 H     1 <1>   0.0800 
 51 H        3.7670     6.9000     1.4330 H     1 <1>   0.0800 
 52 H        4.5270     7.2610    -0.0810 H     1 <1>   0.0800 
 53 H        2.1260    11.1380     0.6880 H     1 <1>   0.0800 
 54 H        1.0460    10.8460     2.0350 H     1 <1>   0.0800 
 55 H        0.5180    11.7950     0.6760 H     1 <1>   0.0800 
@<TRIPOS>BOND
  1   1   2  2   
  2   2   3  am  
  3   2   4  1   
  4   3   5  1   
  5   3   6  1   
  6   4   7  1   
  7   4  27  1   
  8   4  28  1   
  9   5   8  1   
 10   5   9  1   
 11   5  29  1   
 12   6  10  1   
 13   6  11  1   
 14   6  30  1   
 15   7   9  1   
 16   8  12  ar  
 17   8  13  ar  
 18   9  14  1   
 19   9  31  1   
 20  10  11  1   
 21  10  32  1   
 22  10  33  1   
 23  11  34  1   
 24  11  35  1   
 25  12  15  ar  
 26  12  36  1   
 27  13  16  ar  
 28  13  37  1   
 29  14  17  2   
 30  14  18  am  
 31  15  19  ar  
 32  16  19  ar  
 33  16  38  1   
 34  18  20  1   
 35  18  39  1   
 36  19  40  1   
 37  20  21  1   
 38  20  22  1   
 39  20  23  1   
 40  21  24  1   
 41  21  41  1   
 42  21  42  1   
 43  22  25  1   
 44  22  43  1   
 45  22  44  1   
 46  23  26  1   
 47  23  45  1   
 48  23  46  1   
 49  24  47  1   
 50  24  48  1   
 51  24  49  1   
 52  25  50  1   
 53  25  51  1   
 54  25  52  1   
 55  26  53  1   
 56  26  54  1   
 57  26  55  1   
@<TRIPOS>SUBSTRUCTURE
  1 ****   9 GROUP 4 **** **** 0

# MOE 2024.06 (io_trps.svl 2023.06)
