@<TRIPOS>MOLECULE
Untitled Document
53 57 1 0 0 
SMALL
USER_CHARGES


@<TRIPOS>ATOM
  1 CL      -0.2590     0.0080    -0.2140 Cl    1 <1>  -0.1770 
  2 C        0.0370     1.7450    -0.1380 C.ar  1 <1>   0.1770 
  3 C       -1.0840     2.5660    -0.0150 C.ar  1 <1>   0.4610 
  4 C        1.3370     2.2480    -0.2240 C.ar  1 <1>   0.1000 
  5 N       -0.8910     3.9010     0.0070 N.ar  1 <1>  -0.1790 
  6 N       -2.3580     2.1000     0.0780 N.pl3 1 <1>  -0.9000 
  7 N        2.4400     1.4250    -0.3080 N.pl3 1 <1>  -0.8380 
  8 C        1.4770     3.6690    -0.2130 C.ar  1 <1>   0.0000 
  9 C        0.3530     4.4450    -0.0920 C.ar  1 <1>   0.2110 
 10 C        2.7000     0.3430     0.6830 C.3   1 <1>   0.2090 
 11 C        3.3700     1.4290    -1.4740 C.3   1 <1>   0.2090 
 12 C        2.7540     4.3380    -0.3010 C.ar  1 <1>   0.0000 
 13 C        4.1240     0.4810     1.2120 C.3   1 <1>  -0.1600 
 14 C        4.8290     1.4870    -1.0060 C.3   1 <1>  -0.1600 
 15 C        3.6760     4.2790     0.7260 C.ar  1 <1>  -0.1500 
 16 C        3.0680     5.0950    -1.4500 C.ar  1 <1>  -0.1500 
 17 C        5.1720     0.4450     0.0810 C.3   1 <1>   0.0610 
 18 C        4.8970     4.9540     0.6190 C.ar  1 <1>   0.0000 
 19 C        4.2550     5.7750    -1.5590 C.ar  1 <1>  -0.1500 
 20 C        6.5700     0.7060     0.6230 C.2   1 <1>   0.5690 
 21 C        5.3250    -0.9730    -0.5340 C.3   1 <1>  -0.1600 
 22 C        5.1720     5.7020    -0.5050 C.ar  1 <1>  -0.1520 
 23 C        6.0480     5.0940     1.4120 C.2   1 <1>   0.1390 
 24 O        6.8650     1.5980     1.3800 O.2   1 <1>  -0.5700 
 25 N        7.4370    -0.2020     0.1520 N.am  1 <1>  -0.7300 
 26 C        6.8320    -1.2070    -0.7250 C.3   1 <1>   0.1400 
 27 N        6.4100     6.2420    -0.3040 N.pl3 1 <1>   0.3140 
 28 N        6.9350     5.8660     0.8780 N.2   1 <1>  -0.7070 
 29 C        7.1470     7.1100    -1.2300 C.3   1 <1>   0.0160 
 30 H       -1.7160     4.4960     0.1010 H     1 <1>   0.4570 
 31 H       -3.2290     2.6340     0.1680 H     1 <1>   0.4000 
 32 H       -2.5340     1.0830     0.0520 H     1 <1>   0.4000 
 33 H        0.4400     5.5210    -0.0680 H     1 <1>   0.1500 
 34 H        2.5680    -0.6160     0.2110 H     1 <1>   0.0800 
 35 H        2.0060     0.4180     1.5020 H     1 <1>   0.0800 
 36 H        3.1610     2.2690    -2.1130 H     1 <1>   0.0800 
 37 H        3.2080     0.5320    -2.0470 H     1 <1>   0.0800 
 38 H        4.3220    -0.3010     1.9230 H     1 <1>   0.0800 
 39 H        4.2020     1.4140     1.7390 H     1 <1>   0.0800 
 40 H        5.0260     2.4680    -0.6200 H     1 <1>   0.0800 
 41 H        5.4780     1.3590    -1.8530 H     1 <1>   0.0800 
 42 H        3.4820     3.7060     1.6140 H     1 <1>   0.1500 
 43 H        2.3620     5.1350    -2.2600 H     1 <1>   0.1500 
 44 H        4.4910     6.3530    -2.4350 H     1 <1>   0.1500 
 45 H        4.7940    -1.0930    -1.4600 H     1 <1>   0.0800 
 46 H        4.9630    -1.7170     0.1530 H     1 <1>   0.0800 
 47 H        6.1760     4.6030     2.3620 H     1 <1>   0.1500 
 48 H        8.4320    -0.1720     0.3830 H     1 <1>   0.3700 
 49 H        7.1290    -1.0210    -1.7440 H     1 <1>   0.0800 
 50 H        7.1210    -2.2010    -0.4280 H     1 <1>   0.0800 
 51 H        6.5750     7.9990    -1.4100 H     1 <1>   0.0800 
 52 H        7.3120     6.5820    -2.1500 H     1 <1>   0.0800 
 53 H        8.0920     7.3710    -0.7890 H     1 <1>   0.0800 
@<TRIPOS>BOND
  1   1   2  1   
  2   2   3  ar  
  3   2   4  ar  
  4   3   5  ar  
  5   3   6  1   
  6   4   7  1   
  7   4   8  ar  
  8   5   9  ar  
  9   5  30  1   
 10   6  31  1   
 11   6  32  1   
 12   7  10  1   
 13   7  11  1   
 14   8   9  ar  
 15   8  12  1   
 16   9  33  1   
 17  10  13  1   
 18  10  34  1   
 19  10  35  1   
 20  11  14  1   
 21  11  36  1   
 22  11  37  1   
 23  12  15  ar  
 24  12  16  ar  
 25  13  17  1   
 26  13  38  1   
 27  13  39  1   
 28  14  17  1   
 29  14  40  1   
 30  14  41  1   
 31  15  18  ar  
 32  15  42  1   
 33  16  19  ar  
 34  16  43  1   
 35  17  20  1   
 36  17  21  1   
 37  18  22  ar  
 38  18  23  1   
 39  19  22  ar  
 40  19  44  1   
 41  20  24  2   
 42  20  25  am  
 43  21  26  1   
 44  21  45  1   
 45  21  46  1   
 46  22  27  1   
 47  23  28  2   
 48  23  47  1   
 49  25  26  1   
 50  25  48  1   
 51  26  49  1   
 52  26  50  1   
 53  27  28  1   
 54  27  29  1   
 55  29  51  1   
 56  29  52  1   
 57  29  53  1   
@<TRIPOS>SUBSTRUCTURE
  1 ****  15 GROUP 4 **** **** 0

# MOE 2024.06 (io_trps.svl 2023.06)
