@<TRIPOS>MOLECULE
NONAME
47 50 1 0 0 
SMALL
USER_CHARGES


@<TRIPOS>ATOM
  1 O        1.3020    -1.2520     2.4510 O.2   1 <1>  -0.5700 
  2 C        1.4580    -1.5620     1.2810 C.2   1 <1>   0.5440 
  3 N        1.8580    -0.6140     0.3670 N.am  1 <1>  -0.4200 
  4 C        1.2370    -2.9000     0.8120 C.ar  1 <1>   0.0860 
  5 C        2.0320    -0.9730    -0.9490 C.2   1 <1>   0.4500 
  6 C        2.0970     0.7870     0.8030 C.3   1 <1>   0.0600 
  7 C        1.4450    -3.1530    -0.5480 C.ar  1 <1>   0.1790 
  8 C        0.8280    -3.9560     1.6290 C.ar  1 <1>  -0.1500 
  9 N        1.8480    -2.1520    -1.4100 N.2   1 <1>  -0.6290 
 10 C        1.2440    -4.4340    -1.0460 C.ar  1 <1>  -0.1500 
 11 C        0.6350    -5.2200     1.1150 C.ar  1 <1>  -0.1500 
 12 C        0.8430    -5.4950    -0.2430 C.ar  1 <1>   0.0860 
 13 C        0.6490    -6.8250    -0.7970 C.2   1 <1>   0.5440 
 14 O        0.4470    -6.9840    -1.9840 O.2   1 <1>  -0.5700 
 15 N        0.6810    -7.9330    -0.0010 N.am  1 <1>  -0.7300 
 16 C        0.5290    -9.3320    -0.4670 C.3   1 <1>   0.2200 
 17 C       -0.8540    -9.8760    -0.1360 C.3   1 <1>  -0.0800 
 18 C        1.3940   -10.2300     0.4060 C.3   1 <1>   0.1200 
 19 C       -0.7030   -10.3520     1.3140 C.3   1 <1>   0.1200 
 20 C       -2.0310    -8.9100    -0.3690 C.3   1 <1>  -0.0170 
 21 O        0.6690   -10.3830     1.5880 O.3   1 <1>  -0.5600 
 22 C       -3.3600    -9.6000    -0.1020 C.ar  1 <1>  -0.1430 
 23 C       -4.0350    -9.4570     1.0930 C.ar  1 <1>  -0.1500 
 24 C       -3.9580   -10.4090    -1.0460 C.ar  1 <1>  -0.1500 
 25 C       -5.2390   -10.1160     1.2820 C.ar  1 <1>   0.1600 
 26 C       -5.1650   -11.0230    -0.7570 C.ar  1 <1>   0.1600 
 27 N       -5.8190   -10.8980     0.3870 N.ar  1 <1>  -0.6200 
 28 H        2.3450    -0.1920    -1.6190 H     1 <1>   0.0600 
 29 H        2.4020     1.3990    -0.0260 H     1 <1>   0.0800 
 30 H        2.8680     0.8010     1.5550 H     1 <1>   0.0800 
 31 H        1.1930     1.1890     1.2270 H     1 <1>   0.0800 
 32 H        0.6640    -3.7640     2.6770 H     1 <1>   0.1500 
 33 H        1.4070    -4.6000    -2.0970 H     1 <1>   0.1500 
 34 H        0.3100    -6.0040     1.7750 H     1 <1>   0.1500 
 35 H        0.8820    -7.8580     0.9980 H     1 <1>   0.3700 
 36 H        0.7730    -9.4180    -1.5130 H     1 <1>   0.0800 
 37 H       -1.0150   -10.7490    -0.7440 H     1 <1>   0.0800 
 38 H        2.3590    -9.8040     0.6200 H     1 <1>   0.0800 
 39 H        1.5110   -11.2020    -0.0400 H     1 <1>   0.0800 
 40 H       -1.1110   -11.3390     1.4540 H     1 <1>   0.0800 
 41 H       -1.1580    -9.6690     2.0090 H     1 <1>   0.0800 
 42 H       -2.0090    -8.5620    -1.3880 H     1 <1>   0.0800 
 43 H       -1.9430    -8.0480     0.2670 H     1 <1>   0.0800 
 44 H       -3.6410    -8.8400     1.8790 H     1 <1>   0.1500 
 45 H       -3.4970   -10.5670    -2.0040 H     1 <1>   0.1500 
 46 H       -5.7520    -9.9930     2.2210 H     1 <1>   0.1500 
 47 H       -5.6170   -11.6510    -1.5060 H     1 <1>   0.1500 
@<TRIPOS>BOND
  1   1   2  2   
  2   2   3  am  
  3   2   4  1   
  4   3   5  1   
  5   3   6  1   
  6   4   7  ar  
  7   4   8  ar  
  8   5   9  2   
  9   5  28  1   
 10   6  29  1   
 11   6  30  1   
 12   6  31  1   
 13   7   9  1   
 14   7  10  ar  
 15   8  11  ar  
 16   8  32  1   
 17  10  12  ar  
 18  10  33  1   
 19  11  12  ar  
 20  11  34  1   
 21  12  13  1   
 22  13  14  2   
 23  13  15  am  
 24  15  16  1   
 25  15  35  1   
 26  16  17  1   
 27  16  18  1   
 28  16  36  1   
 29  17  19  1   
 30  17  20  1   
 31  17  37  1   
 32  18  21  1   
 33  18  38  1   
 34  18  39  1   
 35  19  21  1   
 36  19  40  1   
 37  19  41  1   
 38  20  22  1   
 39  20  42  1   
 40  20  43  1   
 41  22  23  ar  
 42  22  24  ar  
 43  23  25  ar  
 44  23  44  1   
 45  24  26  ar  
 46  24  45  1   
 47  25  27  ar  
 48  25  46  1   
 49  26  27  ar  
 50  26  47  1   
@<TRIPOS>SUBSTRUCTURE
  1 ****  13 GROUP 4 **** **** 0

# MOE 2024.06 (io_trps.svl 2023.06)
