@<TRIPOS>MOLECULE
NONAME
45 48 1 0 0 
SMALL
USER_CHARGES


@<TRIPOS>ATOM
  1 S       -0.2790    -0.3950     1.7370 S.3   1 <1>  -0.0800 
  2 C       -1.1470     0.8450     0.8440 C.2   1 <1>  -0.1400 
  3 C       -1.7280    -1.3880     1.8280 C.2   1 <1>  -0.1100 
  4 C       -2.4270     0.4930     0.6680 C.2   1 <1>  -0.1810 
  5 C       -0.4850     2.1310     0.3590 C.3   1 <1>   0.4600 
  6 C       -2.7660    -0.7830     1.2200 C.2   1 <1>  -0.1500 
  7 C       -3.3640     1.4260    -0.0660 C.3   1 <1>   0.0210 
  8 O       -1.4050     2.8240    -0.4630 O.3   1 <1>  -0.5600 
  9 C        0.7280     1.8200    -0.5250 C.3   1 <1>  -0.1600 
 10 C       -0.0790     3.0320     1.5340 C.3   1 <1>  -0.1600 
 11 C       -2.7590     2.8440    -0.0740 C.3   1 <1>   0.1200 
 12 C        1.4290     3.1010    -0.9720 C.3   1 <1>   0.2090 
 13 C        0.6410     4.2870     1.0450 C.3   1 <1>   0.2090 
 14 N        1.8150     3.8800     0.2310 N.pl3 1 <1>  -0.8380 
 15 C        2.8370     4.8050     0.0580 C.ar  1 <1>   0.4100 
 16 N        2.4820     6.0780    -0.0450 N.ar  1 <1>  -0.6200 
 17 C        4.1710     4.3770    -0.0150 C.ar  1 <1>   0.1600 
 18 C        3.5170     6.8840    -0.2300 C.ar  1 <1>   0.4100 
 19 N        5.2200     5.1610    -0.2020 N.ar  1 <1>  -0.6200 
 20 N        3.2400     8.2420    -0.3340 N.pl3 1 <1>  -0.8380 
 21 C        4.8400     6.4240    -0.3080 C.ar  1 <1>   0.1600 
 22 C        3.3910     9.0290     0.9160 C.3   1 <1>   0.1290 
 23 C        2.0500     8.6340    -1.1390 C.3   1 <1>   0.1290 
 24 H       -1.6470    -2.3340     2.3340 H     1 <1>   0.1500 
 25 H       -3.7620    -1.1810     1.1350 H     1 <1>   0.1500 
 26 H       -4.3210     1.4500     0.4240 H     1 <1>   0.0800 
 27 H       -3.5040     1.0820    -1.0740 H     1 <1>   0.0800 
 28 H        0.4080     1.2560    -1.3810 H     1 <1>   0.0800 
 29 H        1.4320     1.2210     0.0210 H     1 <1>   0.0800 
 30 H        0.5880     2.4910     2.1790 H     1 <1>   0.0800 
 31 H       -0.9390     3.3000     2.1160 H     1 <1>   0.0800 
 32 H       -2.8260     3.2850     0.9050 H     1 <1>   0.0800 
 33 H       -3.2900     3.4700    -0.7690 H     1 <1>   0.0800 
 34 H        0.7700     3.6940    -1.5850 H     1 <1>   0.0800 
 35 H        2.3020     2.8570    -1.5520 H     1 <1>   0.0800 
 36 H        0.9700     4.8740     1.8860 H     1 <1>   0.0800 
 37 H       -0.0200     4.8920     0.4460 H     1 <1>   0.0800 
 38 H        4.3500     3.3240     0.0920 H     1 <1>   0.1500 
 39 H        5.6030     7.1610    -0.4670 H     1 <1>   0.1500 
 40 H        4.2330     8.6680     1.4820 H     1 <1>   0.0800 
 41 H        2.5030     8.9340     1.5170 H     1 <1>   0.0800 
 42 H        3.5520    10.0660     0.6780 H     1 <1>   0.0800 
 43 H        1.9720     7.9980    -2.0040 H     1 <1>   0.0800 
 44 H        2.1460     9.6540    -1.4640 H     1 <1>   0.0800 
 45 H        1.1560     8.5260    -0.5500 H     1 <1>   0.0800 
@<TRIPOS>BOND
  1   1   2  1   
  2   1   3  1   
  3   2   4  2   
  4   2   5  1   
  5   3   6  2   
  6   3  24  1   
  7   4   6  1   
  8   4   7  1   
  9   5   8  1   
 10   5   9  1   
 11   5  10  1   
 12   6  25  1   
 13   7  11  1   
 14   7  26  1   
 15   7  27  1   
 16   8  11  1   
 17   9  12  1   
 18   9  28  1   
 19   9  29  1   
 20  10  13  1   
 21  10  30  1   
 22  10  31  1   
 23  11  32  1   
 24  11  33  1   
 25  12  14  1   
 26  12  34  1   
 27  12  35  1   
 28  13  14  1   
 29  13  36  1   
 30  13  37  1   
 31  14  15  1   
 32  15  16  ar  
 33  15  17  ar  
 34  16  18  ar  
 35  17  19  ar  
 36  17  38  1   
 37  18  20  1   
 38  18  21  ar  
 39  19  21  ar  
 40  20  22  1   
 41  20  23  1   
 42  21  39  1   
 43  22  40  1   
 44  22  41  1   
 45  22  42  1   
 46  23  43  1   
 47  23  44  1   
 48  23  45  1   
@<TRIPOS>SUBSTRUCTURE
  1 ****  14 GROUP 4 **** **** 0

# MOE 2024.06 (io_trps.svl 2023.06)
