@<TRIPOS>MOLECULE
NONAME
38 39 1 0 0 
SMALL
USER_CHARGES


@<TRIPOS>ATOM
  1 F       -0.8850     0.6190    -1.9760 F     1 <1>  -0.1900 
  2 C       -1.6020     1.1740    -1.0260 C.ar  1 <1>   0.1900 
  3 C       -1.1200     2.3160    -0.3950 C.ar  1 <1>   0.1000 
  4 C       -2.8170     0.6150    -0.6850 C.ar  1 <1>   0.1600 
  5 N        0.1040     2.9000    -0.7220 N.pl3 1 <1>  -0.8690 
  6 C       -1.9520     2.8120     0.5960 C.ar  1 <1>  -0.1500 
  7 N       -3.6150     1.1040     0.2580 N.ar  1 <1>  -0.6200 
  8 C        0.2100     4.3610    -0.9880 C.3   1 <1>   0.2090 
  9 C       -3.1560     2.1850     0.8750 C.ar  1 <1>   0.1600 
 10 C        1.0650     5.0910     0.0880 C.3   1 <1>   0.4230 
 11 N        1.1970     6.5790    -0.1540 N.4   1 <1>  -0.9590 
 12 C        2.4760     4.4740     0.1630 C.3   1 <1>  -0.1600 
 13 C        1.9820     7.2350     0.9410 C.3   1 <1>   0.3430 
 14 C       -0.1120     7.2740    -0.3350 C.3   1 <1>   0.3430 
 15 C        3.3640     5.1450     1.2150 C.3   1 <1>  -0.1600 
 16 C        3.3940     6.6590     0.9970 C.3   1 <1>  -0.1600 
 17 C        0.1070     8.6360    -0.9850 C.3   1 <1>  -0.2400 
 18 H       -3.1460    -0.2670    -1.2060 H     1 <1>   0.1500 
 19 H        0.6340     2.3320    -1.4030 H     1 <1>   0.4000 
 20 H       -1.6640     3.6750     1.1610 H     1 <1>   0.1500 
 21 H       -0.7850     4.7670    -1.0110 H     1 <1>   0.0800 
 22 H        0.6560     4.4990    -1.9580 H     1 <1>   0.0800 
 23 H       -3.7820     2.5920     1.6520 H     1 <1>   0.1500 
 24 H        0.5810     4.9400     1.0390 H     1 <1>   0.0800 
 25 H        1.7420     6.6950    -1.0170 H     1 <1>   0.4500 
 26 H        2.9490     4.5330    -0.8030 H     1 <1>   0.0800 
 27 H        2.3970     3.4300     0.4140 H     1 <1>   0.0800 
 28 H        1.4910     7.0760     1.8880 H     1 <1>   0.0800 
 29 H        2.0480     8.2970     0.7700 H     1 <1>   0.0800 
 30 H       -0.6090     7.3890     0.6160 H     1 <1>   0.0800 
 31 H       -0.7540     6.7000    -0.9820 H     1 <1>   0.0800 
 32 H        4.3640     4.7460     1.1600 H     1 <1>   0.0800 
 33 H        2.9810     4.9290     2.2000 H     1 <1>   0.0800 
 34 H        3.9320     7.1230     1.8050 H     1 <1>   0.0800 
 35 H        3.9180     6.8930     0.0860 H     1 <1>   0.0800 
 36 H        0.6370     9.3090    -0.3360 H     1 <1>   0.0800 
 37 H       -0.8510     9.0800    -1.1940 H     1 <1>   0.0800 
 38 H        0.6340     8.5380    -1.9170 H     1 <1>   0.0800 
@<TRIPOS>BOND
  1   1   2  1   
  2   2   3  ar  
  3   2   4  ar  
  4   3   5  1   
  5   3   6  ar  
  6   4   7  ar  
  7   4  18  1   
  8   5   8  1   
  9   5  19  1   
 10   6   9  ar  
 11   6  20  1   
 12   7   9  ar  
 13   8  10  1   
 14   8  21  1   
 15   8  22  1   
 16   9  23  1   
 17  10  11  1   
 18  10  12  1   
 19  10  24  1   
 20  11  13  1   
 21  11  14  1   
 22  11  25  1   
 23  12  15  1   
 24  12  26  1   
 25  12  27  1   
 26  13  16  1   
 27  13  28  1   
 28  13  29  1   
 29  14  17  1   
 30  14  30  1   
 31  14  31  1   
 32  15  16  1   
 33  15  32  1   
 34  15  33  1   
 35  16  34  1   
 36  16  35  1   
 37  17  36  1   
 38  17  37  1   
 39  17  38  1   
@<TRIPOS>SUBSTRUCTURE
  1 ****   8 GROUP 4 **** **** 0

# MOE 2024.06 (io_trps.svl 2023.06)
