@<TRIPOS>MOLECULE
NONAME
47 50 1 0 0 
SMALL
USER_CHARGES


@<TRIPOS>ATOM
  1 F        3.1810     4.3210     2.2760 F     1 <1>  -0.1900 
  2 C        3.3070     4.0440     1.0070 C.ar  1 <1>   0.1900 
  3 C        4.1240     2.9970     0.6360 C.ar  1 <1>  -0.1500 
  4 C        2.6280     4.8170     0.0850 C.ar  1 <1>  -0.1500 
  5 C        4.2980     2.7050    -0.7130 C.ar  1 <1>   0.0530 
  6 C        2.7830     4.5220    -1.2590 C.ar  1 <1>  -0.1500 
  7 C        5.1810     1.6480    -1.1220 C.2   1 <1>  -0.2050 
  8 C        3.6090     3.4780    -1.6480 C.ar  1 <1>  -0.1500 
  9 N        4.7990     0.6230    -1.9140 N.pl3 1 <1>   0.3000 
 10 C        6.5020     1.4230    -0.8200 C.2   1 <1>  -0.0860 
 11 N        5.7930    -0.2490    -2.1410 N.2   1 <1>  -0.7070 
 12 C        7.4490     2.1650    -0.0300 C.2   1 <1>   0.7160 
 13 C        6.7970     0.2290    -1.4780 C.2   1 <1>   0.1390 
 14 O        8.4990     1.6660     0.3310 O.2   1 <1>  -0.5700 
 15 N        7.2670     3.4880     0.2880 N.am  1 <1>  -0.6600 
 16 C        7.6660     3.9730     1.6610 C.3   1 <1>   0.2200 
 17 C        7.1050     4.4770    -0.8150 C.3   1 <1>   0.1400 
 18 C        6.8930     5.2280     2.0990 C.3   1 <1>   0.1200 
 19 C        9.1920     4.2200     1.7580 C.3   1 <1>   0.3430 
 20 C        7.9550     5.7500    -0.6460 C.3   1 <1>  -0.0800 
 21 O        7.5440     6.3820     1.6530 O.3   1 <1>  -0.5600 
 22 N        9.8430     4.3180     0.4070 N.4   1 <1>  -0.9590 
 23 C        7.3060     6.7410     0.3350 C.3   1 <1>   0.1200 
 24 C        9.4650     5.5460    -0.3710 C.3   1 <1>   0.3430 
 25 C       11.3210     4.1630     0.5140 C.3   1 <1>   0.2630 
 26 H        4.6240     2.4140     1.3880 H     1 <1>   0.1500 
 27 H        1.9950     5.6220     0.4130 H     1 <1>   0.1500 
 28 H        2.2600     5.1040    -2.0000 H     1 <1>   0.1500 
 29 H        3.7250     3.2650    -2.6970 H     1 <1>   0.1500 
 30 H        3.8560     0.4840    -2.2990 H     1 <1>   0.2700 
 31 H        7.7620    -0.2520    -1.4460 H     1 <1>   0.1500 
 32 H        7.4130     3.1980     2.3640 H     1 <1>   0.0800 
 33 H        7.3670     4.0050    -1.7480 H     1 <1>   0.0800 
 34 H        6.0670     4.7540    -0.8820 H     1 <1>   0.0800 
 35 H        6.8850     5.2800     3.1740 H     1 <1>   0.0800 
 36 H        5.8720     5.2180     1.7570 H     1 <1>   0.0800 
 37 H        9.6210     3.3890     2.2920 H     1 <1>   0.0800 
 38 H        9.3840     5.1110     2.3340 H     1 <1>   0.0800 
 39 H        7.9010     6.2540    -1.5950 H     1 <1>   0.0800 
 40 H        9.4620     3.4900    -0.0890 H     1 <1>   0.4500 
 41 H        6.2420     6.8190     0.1800 H     1 <1>   0.0800 
 42 H        7.7320     7.7210     0.2000 H     1 <1>   0.0800 
 43 H        9.8370     6.4190     0.1420 H     1 <1>   0.0800 
 44 H        9.9660     5.5010    -1.3240 H     1 <1>   0.0800 
 45 H       11.7440     4.9810     1.0730 H     1 <1>   0.0800 
 46 H       11.7670     4.1450    -0.4670 H     1 <1>   0.0800 
 47 H       11.5610     3.2380     1.0140 H     1 <1>   0.0800 
@<TRIPOS>BOND
  1   1   2  1   
  2   2   3  ar  
  3   2   4  ar  
  4   3   5  ar  
  5   3  26  1   
  6   4   6  ar  
  7   4  27  1   
  8   5   7  1   
  9   5   8  ar  
 10   6   8  ar  
 11   6  28  1   
 12   7   9  1   
 13   7  10  2   
 14   8  29  1   
 15   9  11  1   
 16   9  30  1   
 17  10  12  1   
 18  10  13  1   
 19  11  13  2   
 20  12  14  2   
 21  12  15  am  
 22  13  31  1   
 23  15  16  1   
 24  15  17  1   
 25  16  18  1   
 26  16  19  1   
 27  16  32  1   
 28  17  20  1   
 29  17  33  1   
 30  17  34  1   
 31  18  21  1   
 32  18  35  1   
 33  18  36  1   
 34  19  22  1   
 35  19  37  1   
 36  19  38  1   
 37  20  23  1   
 38  20  24  1   
 39  20  39  1   
 40  21  23  1   
 41  22  24  1   
 42  22  25  1   
 43  22  40  1   
 44  23  41  1   
 45  23  42  1   
 46  24  43  1   
 47  24  44  1   
 48  25  45  1   
 49  25  46  1   
 50  25  47  1   
@<TRIPOS>SUBSTRUCTURE
  1 ****  15 GROUP 4 **** **** 0

# MOE 2024.06 (io_trps.svl 2023.06)
