@<TRIPOS>MOLECULE
NONAME
55 58 1 0 0 
SMALL
USER_CHARGES


@<TRIPOS>ATOM
  1 O        0.4280    -0.1250     0.6480 O.2   1 <1>  -0.5700 
  2 C        1.2990    -0.7590     0.0840 C.2   1 <1>   0.5440 
  3 N        2.3060    -0.0990    -0.5830 N.am  1 <1>  -0.4940 
  4 C        1.2880    -2.2060     0.1000 C.ar  1 <1>   0.0860 
  5 C        2.5500     1.2900    -0.6860 C.2   1 <1>  -0.0880 
  6 C        0.0870    -2.9160     0.1680 C.ar  1 <1>  -0.1500 
  7 C        2.4650    -2.9570     0.0480 C.ar  1 <1>  -0.1500 
  8 N        3.7410     1.8900    -0.4100 N.pl3 1 <1>   0.3140 
  9 C        1.7070     2.2770    -1.0750 C.2   1 <1>  -0.1810 
 10 C        0.0420    -4.2980     0.1660 C.ar  1 <1>  -0.1430 
 11 C        2.4340    -4.3350     0.0450 C.ar  1 <1>  -0.1500 
 12 N        3.6830     3.2270    -0.6360 N.2   1 <1>  -0.7070 
 13 C        4.9610     1.2140     0.1180 C.3   1 <1>   0.1760 
 14 C        2.4640     3.4410    -1.0220 C.2   1 <1>   0.1390 
 15 C        0.2500     2.1830    -1.4880 C.3   1 <1>  -0.0590 
 16 C        1.2330    -5.0280     0.1030 C.ar  1 <1>   0.1000 
 17 C       -1.3140    -4.9870     0.2350 C.3   1 <1>  -0.0970 
 18 C        5.5330     1.8690     1.3760 C.3   1 <1>  -0.1600 
 19 C        6.1290     1.2300    -0.8690 C.3   1 <1>  -0.1600 
 20 N        1.2860    -6.4110     0.0980 N.pl3 1 <1>  -0.8380 
 21 C        6.9780     1.3740     1.4380 C.3   1 <1>  -0.1600 
 22 C        7.3920     1.0840    -0.0110 C.3   1 <1>  -0.1600 
 23 C        0.9200    -7.2050     1.3040 C.3   1 <1>   0.2090 
 24 C        1.1970    -7.1720    -1.1770 C.3   1 <1>   0.2090 
 25 C        1.6610    -8.5540     1.2950 C.3   1 <1>   0.1200 
 26 C        1.9150    -8.5280    -1.0410 C.3   1 <1>   0.1200 
 27 O        1.4580    -9.2330     0.0830 O.3   1 <1>  -0.5600 
 28 H        2.9330    -0.7000    -1.1160 H     1 <1>   0.3700 
 29 H       -0.8280    -2.3510     0.2250 H     1 <1>   0.1500 
 30 H        3.4190    -2.4630     0.0210 H     1 <1>   0.1500 
 31 H        3.3450    -4.9030     0.0060 H     1 <1>   0.1500 
 32 H        4.7200     0.1950     0.3550 H     1 <1>   0.0800 
 33 H        2.0900     4.4190    -1.2720 H     1 <1>   0.1500 
 34 H        0.0110     1.1790    -1.7860 H     1 <1>   0.0800 
 35 H        0.0520     2.8460    -2.3100 H     1 <1>   0.0800 
 36 H       -0.3760     2.4510    -0.6560 H     1 <1>   0.0800 
 37 H       -2.1090    -4.2970     0.0160 H     1 <1>   0.0800 
 38 H       -1.4690    -5.3840     1.2210 H     1 <1>   0.0800 
 39 H       -1.3620    -5.7890    -0.4780 H     1 <1>   0.0800 
 40 H        4.9750     1.6020     2.2560 H     1 <1>   0.0800 
 41 H        5.5340     2.9410     1.2620 H     1 <1>   0.0800 
 42 H        6.1580     2.1820    -1.3740 H     1 <1>   0.0800 
 43 H        6.0470     0.4420    -1.5960 H     1 <1>   0.0800 
 44 H        7.0230     0.4640     2.0120 H     1 <1>   0.0800 
 45 H        7.6210     2.1060     1.8960 H     1 <1>   0.0800 
 46 H        8.1450     1.7810    -0.3400 H     1 <1>   0.0800 
 47 H        7.7900     0.0860    -0.0870 H     1 <1>   0.0800 
 48 H       -0.1390    -7.3870     1.3090 H     1 <1>   0.0800 
 49 H        1.1750    -6.6510     2.1910 H     1 <1>   0.0800 
 50 H        1.6430    -6.6000    -1.9720 H     1 <1>   0.0800 
 51 H        0.1640    -7.3430    -1.4230 H     1 <1>   0.0800 
 52 H        1.2980    -9.1820     2.0880 H     1 <1>   0.0800 
 53 H        2.7170    -8.4000     1.4300 H     1 <1>   0.0800 
 54 H        2.9760    -8.3780    -0.9430 H     1 <1>   0.0800 
 55 H        1.7290    -9.1350    -1.9080 H     1 <1>   0.0800 
@<TRIPOS>BOND
  1   1   2  2   
  2   2   3  am  
  3   2   4  1   
  4   3   5  1   
  5   3  28  1   
  6   4   6  ar  
  7   4   7  ar  
  8   5   8  1   
  9   5   9  2   
 10   6  10  ar  
 11   6  29  1   
 12   7  11  ar  
 13   7  30  1   
 14   8  12  1   
 15   8  13  1   
 16   9  14  1   
 17   9  15  1   
 18  10  16  ar  
 19  10  17  1   
 20  11  16  ar  
 21  11  31  1   
 22  12  14  2   
 23  13  18  1   
 24  13  19  1   
 25  13  32  1   
 26  14  33  1   
 27  15  34  1   
 28  15  35  1   
 29  15  36  1   
 30  16  20  1   
 31  17  37  1   
 32  17  38  1   
 33  17  39  1   
 34  18  21  1   
 35  18  40  1   
 36  18  41  1   
 37  19  22  1   
 38  19  42  1   
 39  19  43  1   
 40  20  23  1   
 41  20  24  1   
 42  21  22  1   
 43  21  44  1   
 44  21  45  1   
 45  22  46  1   
 46  22  47  1   
 47  23  25  1   
 48  23  48  1   
 49  23  49  1   
 50  24  26  1   
 51  24  50  1   
 52  24  51  1   
 53  25  27  1   
 54  25  52  1   
 55  25  53  1   
 56  26  27  1   
 57  26  54  1   
 58  26  55  1   
@<TRIPOS>SUBSTRUCTURE
  1 ****   7 GROUP 4 **** **** 0

# MOE 2024.06 (io_trps.svl 2023.06)
