@<TRIPOS>MOLECULE
NONAME
45 47 1 0 0 
SMALL
USER_CHARGES


@<TRIPOS>ATOM
  1 S        0.2570     0.8440    -1.1220 S.o2  1 <1>   1.3330 
  2 O        0.0390     1.7210    -2.2500 O.2   1 <1>  -0.6500 
  3 O        0.3550    -0.5780    -1.3560 O.2   1 <1>  -0.6500 
  4 N        1.6950     1.3180    -0.3490 N.am  1 <1>  -0.8490 
  5 C       -1.0530     1.1150     0.0880 C.3   1 <1>  -0.0550 
  6 C        2.2670     0.2720     0.5060 C.3   1 <1>   0.1160 
  7 C        2.7120     1.7800    -1.3030 C.3   1 <1>   0.1160 
  8 C       -1.3350     2.5440     0.6170 C.3   1 <1>  -0.0800 
  9 C       -1.5180     3.6050    -0.4700 C.3   1 <1>   0.2000 
 10 C       -0.2370     3.1090     1.5370 C.3   1 <1>   0.1100 
 11 O       -2.4970     4.4780    -0.0320 O.3   1 <1>  -0.6800 
 12 C       -0.1960     4.3640    -0.4500 C.3   1 <1>   0.1100 
 13 N        0.1910     4.3990     0.9710 N.3   1 <1>  -0.8100 
 14 C        1.6490     4.5950     1.1320 C.3   1 <1>   0.2900 
 15 C        2.0940     5.9490     0.6060 C.2   1 <1>   0.0060 
 16 N        3.1960     6.1740    -0.0250 N.2   1 <1>  -0.5650 
 17 N        1.3250     7.0500     0.7800 N.pl3 1 <1>   0.0330 
 18 C        3.1610     7.5110    -0.2910 C.ar  1 <1>   0.2270 
 19 C        1.9990     8.0740     0.2020 C.ar  1 <1>  -0.1520 
 20 C        4.0920     8.3110    -0.9520 C.ar  1 <1>  -0.1500 
 21 C        1.7280     9.4360     0.0490 C.ar  1 <1>  -0.1500 
 22 C        3.8360     9.6570    -1.1060 C.ar  1 <1>  -0.1500 
 23 C        2.6530    10.2180    -0.6060 C.ar  1 <1>  -0.1500 
 24 H       -1.9640     0.7650    -0.3570 H     1 <1>   0.0800 
 25 H       -0.8690     0.4800     0.9320 H     1 <1>   0.0800 
 26 H        3.1190     0.6560     1.0410 H     1 <1>   0.0800 
 27 H        2.5800    -0.5720    -0.0880 H     1 <1>   0.0800 
 28 H        1.5370    -0.0630     1.2230 H     1 <1>   0.0800 
 29 H        3.6040     2.0850    -0.7830 H     1 <1>   0.0800 
 30 H        2.3460     2.6270    -1.8590 H     1 <1>   0.0800 
 31 H        2.9590     0.9940    -1.9980 H     1 <1>   0.0800 
 32 H       -2.2420     2.4690     1.1920 H     1 <1>   0.0800 
 33 H       -1.7990     3.2280    -1.4390 H     1 <1>   0.0800 
 34 H        0.5900     2.4260     1.6120 H     1 <1>   0.0800 
 35 H       -0.6260     3.2720     2.5280 H     1 <1>   0.0800 
 36 H       -2.1210     4.9550     0.7360 H     1 <1>   0.4000 
 37 H       -0.3000     5.3520    -0.8640 H     1 <1>   0.0800 
 38 H        0.5400     3.8300    -1.0230 H     1 <1>   0.0800 
 39 H        1.9020     4.5380     2.1760 H     1 <1>   0.0800 
 40 H        2.1900     3.8220     0.6140 H     1 <1>   0.0800 
 41 H        0.3980     7.0610     1.2120 H     1 <1>   0.2700 
 42 H        4.9890     7.8550    -1.3260 H     1 <1>   0.1500 
 43 H        0.8150     9.8530     0.4360 H     1 <1>   0.1500 
 44 H        4.5440    10.2890    -1.6130 H     1 <1>   0.1500 
 45 H        2.4760    11.2710    -0.7400 H     1 <1>   0.1500 
@<TRIPOS>BOND
  1   1   2  2   
  2   1   3  2   
  3   1   4  am  
  4   1   5  1   
  5   4   6  1   
  6   4   7  1   
  7   5   8  1   
  8   5  24  1   
  9   5  25  1   
 10   6  26  1   
 11   6  27  1   
 12   6  28  1   
 13   7  29  1   
 14   7  30  1   
 15   7  31  1   
 16   8   9  1   
 17   8  10  1   
 18   8  32  1   
 19   9  11  1   
 20   9  12  1   
 21   9  33  1   
 22  10  13  1   
 23  10  34  1   
 24  10  35  1   
 25  11  36  1   
 26  12  13  1   
 27  12  37  1   
 28  12  38  1   
 29  13  14  1   
 30  14  15  1   
 31  14  39  1   
 32  14  40  1   
 33  15  16  2   
 34  15  17  1   
 35  16  18  1   
 36  17  19  1   
 37  17  41  1   
 38  18  19  ar  
 39  18  20  ar  
 40  19  21  ar  
 41  20  22  ar  
 42  20  42  1   
 43  21  23  ar  
 44  21  43  1   
 45  22  23  ar  
 46  22  44  1   
 47  23  45  1   
@<TRIPOS>SUBSTRUCTURE
  1 ****  14 GROUP 4 **** **** 0

# MOE 2024.06 (io_trps.svl 2023.06)
