@<TRIPOS>MOLECULE
NONAME
48 50 1 0 0 
SMALL
USER_CHARGES


@<TRIPOS>ATOM
  1 O        0.7210    -1.7780     1.8720 O.3   1 <1>  -0.2170 
  2 N        0.1350    -0.8630     1.1240 N.2   1 <1>  -0.5130 
  3 C        1.7780    -2.4170     1.1800 C.3   1 <1>   0.2000 
  4 C        0.8160    -0.6140     0.0990 C.2   1 <1>   0.3280 
  5 C        2.0460    -1.4660     0.0090 C.3   1 <1>  -0.0990 
  6 C        1.2580    -3.8150     0.7740 C.3   1 <1>   0.3430 
  7 C        0.5190     0.3920    -1.0040 C.3   1 <1>  -0.0990 
  8 N       -0.1760    -3.7520     0.3330 N.4   1 <1>  -0.9590 
  9 C       -0.8520     1.0690    -0.8600 C.3   1 <1>  -0.2400 
 10 C       -1.0210    -4.7730     1.0130 C.3   1 <1>   0.3430 
 11 C       -0.3550    -3.7430    -1.1460 C.3   1 <1>   0.3430 
 12 C       -2.4890    -4.5050     0.7030 C.3   1 <1>  -0.1600 
 13 C       -1.8140    -3.4610    -1.4810 C.3   1 <1>  -0.1600 
 14 C       -2.7210    -4.4860    -0.8080 C.3   1 <1>   0.2000 
 15 O       -4.0330    -4.0980    -1.0420 O.3   1 <1>  -0.5600 
 16 C       -4.8950    -5.1130    -1.4930 C.3   1 <1>   0.2630 
 17 C       -5.0840    -6.2100    -0.4470 C.ar  1 <1>   0.1660 
 18 N       -4.3000    -7.2810    -0.5390 N.ar  1 <1>  -0.6200 
 19 C       -6.0480    -6.0420     0.5360 C.ar  1 <1>  -0.1500 
 20 C       -4.5050    -8.2210     0.3700 C.ar  1 <1>   0.1600 
 21 C       -6.2410    -7.0260     1.4820 C.ar  1 <1>  -0.1500 
 22 C       -5.4440    -8.1450     1.3850 C.ar  1 <1>  -0.1500 
 23 H        2.6300    -2.4890     1.8340 H     1 <1>   0.0800 
 24 H        2.1340    -1.9750    -0.9320 H     1 <1>   0.0800 
 25 H        2.9230    -0.8710     0.1900 H     1 <1>   0.0800 
 26 H        1.3390    -4.4550     1.6360 H     1 <1>   0.0800 
 27 H        1.8790    -4.2340    -0.0010 H     1 <1>   0.0800 
 28 H        0.5610    -0.1070    -1.9550 H     1 <1>   0.0800 
 29 H        1.2850     1.1480    -0.9920 H     1 <1>   0.0800 
 30 H       -0.5060    -2.8260     0.6900 H     1 <1>   0.4500 
 31 H       -1.6410     0.3380    -0.8830 H     1 <1>   0.0800 
 32 H       -1.0080     1.7690    -1.6630 H     1 <1>   0.0800 
 33 H       -0.9080     1.6030     0.0730 H     1 <1>   0.0800 
 34 H       -0.8710    -4.7260     2.0800 H     1 <1>   0.0800 
 35 H       -0.7550    -5.7610     0.6710 H     1 <1>   0.0800 
 36 H       -0.0690    -4.6990    -1.5540 H     1 <1>   0.0800 
 37 H        0.2630    -2.9810    -1.5900 H     1 <1>   0.0800 
 38 H       -2.7810    -3.5640     1.1350 H     1 <1>   0.0800 
 39 H       -3.0810    -5.2800     1.1550 H     1 <1>   0.0800 
 40 H       -1.9490    -3.5130    -2.5470 H     1 <1>   0.0800 
 41 H       -2.0730    -2.4680    -1.1550 H     1 <1>   0.0800 
 42 H       -2.5400    -5.4610    -1.2330 H     1 <1>   0.0800 
 43 H       -4.5010    -5.5250    -2.4060 H     1 <1>   0.0800 
 44 H       -5.8420    -4.6540    -1.7120 H     1 <1>   0.0800 
 45 H       -6.6420    -5.1460     0.5620 H     1 <1>   0.1500 
 46 H       -3.8930    -9.1050     0.3040 H     1 <1>   0.1500 
 47 H       -6.9820    -6.9260     2.2570 H     1 <1>   0.1500 
 48 H       -5.5490    -8.9530     2.0860 H     1 <1>   0.1500 
@<TRIPOS>BOND
  1   1   2  1   
  2   1   3  1   
  3   2   4  2   
  4   3   5  1   
  5   3   6  1   
  6   3  23  1   
  7   4   5  1   
  8   4   7  1   
  9   5  24  1   
 10   5  25  1   
 11   6   8  1   
 12   6  26  1   
 13   6  27  1   
 14   7   9  1   
 15   7  28  1   
 16   7  29  1   
 17   8  10  1   
 18   8  11  1   
 19   8  30  1   
 20   9  31  1   
 21   9  32  1   
 22   9  33  1   
 23  10  12  1   
 24  10  34  1   
 25  10  35  1   
 26  11  13  1   
 27  11  36  1   
 28  11  37  1   
 29  12  14  1   
 30  12  38  1   
 31  12  39  1   
 32  13  14  1   
 33  13  40  1   
 34  13  41  1   
 35  14  15  1   
 36  14  42  1   
 37  15  16  1   
 38  16  17  1   
 39  16  43  1   
 40  16  44  1   
 41  17  18  ar  
 42  17  19  ar  
 43  18  20  ar  
 44  19  21  ar  
 45  19  45  1   
 46  20  22  ar  
 47  20  46  1   
 48  21  22  ar  
 49  21  47  1   
 50  22  48  1   
@<TRIPOS>SUBSTRUCTURE
  1 ****  12 GROUP 4 **** **** 0

# MOE 2024.06 (io_trps.svl 2023.06)
