@<TRIPOS>MOLECULE
NONAME
47 48 1 0 0 
SMALL
USER_CHARGES


@<TRIPOS>ATOM
  1 O       -1.5510     1.0230    -1.0790 O.2   1 <1>  -0.5700 
  2 C       -1.0650     2.1210    -1.0030 C.2   1 <1>   0.5690 
  3 N       -0.8350     2.8500    -2.1190 N.am  1 <1>  -0.7300 
  4 C       -0.6930     2.6810     0.3600 C.3   1 <1>  -0.0990 
  5 C       -0.3810     4.2630    -2.1590 C.3   1 <1>   0.1400 
  6 C       -0.4870     4.2080     0.3600 C.3   1 <1>  -0.1600 
  7 C        0.3520     4.6430    -0.8590 C.3   1 <1>  -0.0190 
  8 C        0.6690     6.1400    -0.8170 C.2   1 <1>   0.5690 
  9 O       -0.0490     6.8870    -1.4410 O.2   1 <1>  -0.5700 
 10 N        1.7370     6.6220    -0.0990 N.am  1 <1>  -0.6600 
 11 C        2.7060     5.8100     0.7080 C.3   1 <1>   0.1400 
 12 C        2.0220     8.0830    -0.0630 C.3   1 <1>   0.1400 
 13 C        4.0580     5.6430    -0.0030 C.3   1 <1>   0.1400 
 14 C        2.8890     8.5130    -1.2540 C.3   1 <1>  -0.1600 
 15 N        4.6580     6.9590    -0.3910 N.am  1 <1>  -0.6600 
 16 C        4.0490     7.5700    -1.6060 C.3   1 <1>   0.1400 
 17 C        5.6440     7.5300     0.3710 C.2   1 <1>   0.5690 
 18 O        6.0140     7.0160     1.4010 O.2   1 <1>  -0.5700 
 19 C        6.2910     8.8360    -0.0720 C.3   1 <1>  -0.0990 
 20 C        7.3140     9.3980     0.9250 C.3   1 <1>  -0.0220 
 21 C        7.8910    10.7050     0.4100 C.2   1 <1>  -0.2880 
 22 C        7.7370    11.8920     1.0040 C.2   1 <1>  -0.3000 
 23 H       -1.1490     2.4340    -2.9980 H     1 <1>   0.3700 
 24 H        0.2140     2.1960     0.6700 H     1 <1>   0.0800 
 25 H       -1.4630     2.4190     1.0620 H     1 <1>   0.0800 
 26 H       -1.2460     4.8920    -2.2930 H     1 <1>   0.0800 
 27 H        0.2740     4.4100    -3.0010 H     1 <1>   0.0800 
 28 H       -0.0120     4.5090     1.2760 H     1 <1>   0.0800 
 29 H       -1.4470     4.6950     0.3120 H     1 <1>   0.0800 
 30 H        1.2800     4.1050    -0.8640 H     1 <1>   0.0800 
 31 H        2.3030     4.8390     0.9270 H     1 <1>   0.0800 
 32 H        2.8750     6.2940     1.6550 H     1 <1>   0.0800 
 33 H        2.5300     8.3260     0.8540 H     1 <1>   0.0800 
 34 H        1.0970     8.6360    -0.0740 H     1 <1>   0.0800 
 35 H        3.9290     5.0340    -0.8800 H     1 <1>   0.0800 
 36 H        4.7300     5.1150     0.6520 H     1 <1>   0.0800 
 37 H        3.2780     9.4930    -1.0500 H     1 <1>   0.0800 
 38 H        2.2560     8.6080    -2.1180 H     1 <1>   0.0800 
 39 H        4.7930     8.1010    -2.1740 H     1 <1>   0.0800 
 40 H        3.6730     6.7840    -2.2390 H     1 <1>   0.0800 
 41 H        5.5230     9.5710    -0.2140 H     1 <1>   0.0800 
 42 H        6.7810     8.6680    -1.0130 H     1 <1>   0.0800 
 43 H        8.1100     8.6880     1.0730 H     1 <1>   0.0800 
 44 H        6.8340     9.5590     1.8760 H     1 <1>   0.0800 
 45 H        8.4530    10.5850    -0.5020 H     1 <1>   0.1500 
 46 H        8.1540    12.8100     0.6270 H     1 <1>   0.1500 
 47 H        7.1850    12.0470     1.9150 H     1 <1>   0.1500 
@<TRIPOS>BOND
  1   1   2  2   
  2   2   3  am  
  3   2   4  1   
  4   3   5  1   
  5   3  23  1   
  6   4   6  1   
  7   4  24  1   
  8   4  25  1   
  9   5   7  1   
 10   5  26  1   
 11   5  27  1   
 12   6   7  1   
 13   6  28  1   
 14   6  29  1   
 15   7   8  1   
 16   7  30  1   
 17   8   9  2   
 18   8  10  am  
 19  10  11  1   
 20  10  12  1   
 21  11  13  1   
 22  11  31  1   
 23  11  32  1   
 24  12  14  1   
 25  12  33  1   
 26  12  34  1   
 27  13  15  1   
 28  13  35  1   
 29  13  36  1   
 30  14  16  1   
 31  14  37  1   
 32  14  38  1   
 33  15  16  1   
 34  15  17  am  
 35  16  39  1   
 36  16  40  1   
 37  17  18  2   
 38  17  19  1   
 39  19  20  1   
 40  19  41  1   
 41  19  42  1   
 42  20  21  1   
 43  20  43  1   
 44  20  44  1   
 45  21  22  2   
 46  21  45  1   
 47  22  46  1   
 48  22  47  1   
@<TRIPOS>SUBSTRUCTURE
  1 ****  10 GROUP 4 **** **** 0

# MOE 2024.06 (io_trps.svl 2023.06)
