@<TRIPOS>MOLECULE
NONAME
49 51 1 0 0 
SMALL
USER_CHARGES


@<TRIPOS>ATOM
  1 O       -1.8170     0.5650    -1.9390 O.2   1 <1>  -0.5700 
  2 C       -1.8150     0.9240    -0.7770 C.2   1 <1>   0.5440 
  3 N       -2.0640    -0.0150     0.1820 N.am  1 <1>  -0.7300 
  4 C       -1.5530     2.3060    -0.4180 C.ar  1 <1>   0.0860 
  5 C       -2.3520    -1.4430    -0.0780 C.3   1 <1>   0.2200 
  6 C       -0.7880     3.1270    -1.2480 C.ar  1 <1>  -0.1500 
  7 C       -2.0450     2.8710     0.7620 C.ar  1 <1>  -0.1500 
  8 C       -3.8500    -1.6730     0.0230 C.3   1 <1>  -0.0800 
  9 C       -1.8280    -2.2920     1.0750 C.3   1 <1>   0.1200 
 10 C       -0.5150     4.4440    -0.9290 C.ar  1 <1>  -0.1440 
 11 C       -1.7880     4.1850     1.1070 C.ar  1 <1>  -0.1440 
 12 C       -4.0470    -1.8600     1.5320 C.3   1 <1>   0.1200 
 13 C       -4.2880    -2.9100    -0.7840 C.3   1 <1>  -0.0160 
 14 O       -2.8150    -2.2560     2.0640 O.3   1 <1>  -0.5600 
 15 C       -1.0310     4.9790     0.2480 C.ar  1 <1>   0.0820 
 16 C        0.3480     5.2760    -1.8680 C.3   1 <1>  -0.0970 
 17 C       -2.3310     4.7420     2.4160 C.3   1 <1>  -0.0970 
 18 C       -5.7930    -3.1130    -0.7120 C.ar  1 <1>  -0.1440 
 19 O       -0.7870     6.2650     0.5690 O.3   1 <1>  -0.3630 
 20 C       -6.6660    -2.3100    -1.4160 C.ar  1 <1>  -0.1500 
 21 C       -6.3650    -4.1070     0.0570 C.ar  1 <1>  -0.1500 
 22 C       -1.6970     7.2210     0.0760 C.3   1 <1>   0.0400 
 23 C       -8.0300    -2.5280    -1.3170 C.ar  1 <1>   0.1600 
 24 C       -7.7440    -4.2410     0.0870 C.ar  1 <1>   0.1600 
 25 N       -8.5900    -3.4730    -0.5800 N.ar  1 <1>  -0.6200 
 26 H       -2.0310     0.2370     1.1710 H     1 <1>   0.3700 
 27 H       -1.9370    -1.7430    -1.0260 H     1 <1>   0.0800 
 28 H       -0.4030     2.7060    -2.1610 H     1 <1>   0.1500 
 29 H       -2.6450     2.2680     1.4170 H     1 <1>   0.1500 
 30 H       -4.3960    -0.8180    -0.3340 H     1 <1>   0.0800 
 31 H       -0.9000    -1.9230     1.4740 H     1 <1>   0.0800 
 32 H       -1.7110    -3.3170     0.7700 H     1 <1>   0.0800 
 33 H       -4.7870    -2.6020     1.7740 H     1 <1>   0.0800 
 34 H       -4.3140    -0.9270     1.9960 H     1 <1>   0.0800 
 35 H       -3.7860    -3.7900    -0.4220 H     1 <1>   0.0800 
 36 H       -4.0090    -2.7770    -1.8150 H     1 <1>   0.0800 
 37 H        0.9310     4.6430    -2.5130 H     1 <1>   0.0800 
 38 H        1.0250     5.8920    -1.3030 H     1 <1>   0.0800 
 39 H       -0.2740     5.9070    -2.4750 H     1 <1>   0.0800 
 40 H       -2.6430     3.9510     3.0730 H     1 <1>   0.0800 
 41 H       -3.1720     5.3820     2.2210 H     1 <1>   0.0800 
 42 H       -1.5690     5.3130     2.9160 H     1 <1>   0.0800 
 43 H       -6.2980    -1.5160    -2.0420 H     1 <1>   0.1500 
 44 H       -5.7550    -4.7780     0.6340 H     1 <1>   0.1500 
 45 H       -1.3820     8.1920     0.4130 H     1 <1>   0.0800 
 46 H       -2.6780     6.9970     0.4550 H     1 <1>   0.0800 
 47 H       -1.6970     7.1840    -0.9980 H     1 <1>   0.0800 
 48 H       -8.6960    -1.8910    -1.8740 H     1 <1>   0.1500 
 49 H       -8.1730    -5.0200     0.6930 H     1 <1>   0.1500 
@<TRIPOS>BOND
  1   1   2  2   
  2   2   3  am  
  3   2   4  1   
  4   3   5  1   
  5   3  26  1   
  6   4   6  ar  
  7   4   7  ar  
  8   5   8  1   
  9   5   9  1   
 10   5  27  1   
 11   6  10  ar  
 12   6  28  1   
 13   7  11  ar  
 14   7  29  1   
 15   8  12  1   
 16   8  13  1   
 17   8  30  1   
 18   9  14  1   
 19   9  31  1   
 20   9  32  1   
 21  10  15  ar  
 22  10  16  1   
 23  11  15  ar  
 24  11  17  1   
 25  12  14  1   
 26  12  33  1   
 27  12  34  1   
 28  13  18  1   
 29  13  35  1   
 30  13  36  1   
 31  15  19  1   
 32  16  37  1   
 33  16  38  1   
 34  16  39  1   
 35  17  40  1   
 36  17  41  1   
 37  17  42  1   
 38  18  20  ar  
 39  18  21  ar  
 40  19  22  1   
 41  20  23  ar  
 42  20  43  1   
 43  21  24  ar  
 44  21  44  1   
 45  22  45  1   
 46  22  46  1   
 47  22  47  1   
 48  23  25  ar  
 49  23  48  1   
 50  24  25  ar  
 51  24  49  1   
@<TRIPOS>SUBSTRUCTURE
  1 ****   3 GROUP 4 **** **** 0

# MOE 2024.06 (io_trps.svl 2023.06)
