@<TRIPOS>MOLECULE
NONAME
58 60 1 0 0 
SMALL
USER_CHARGES


@<TRIPOS>ATOM
  1 O       -2.9950     1.1400    -0.5050 O.2   1 <1>  -0.5700 
  2 C       -2.1940     1.9110    -0.0390 C.2   1 <1>   0.5690 
  3 N       -2.3900     2.7190     1.0290 N.am  1 <1>  -0.6600 
  4 C       -0.8250     2.0930    -0.6200 C.3   1 <1>  -0.0990 
  5 C       -1.2150     3.5530     1.3370 C.3   1 <1>   0.3000 
  6 C       -3.6580     2.7730     1.8090 C.3   1 <1>   0.0600 
  7 C       -0.1010     2.9090     0.4700 C.3   1 <1>  -0.0190 
  8 C       -0.8830     3.4690     2.8320 C.3   1 <1>  -0.2400 
  9 C       -1.5550     4.9980     0.9520 C.3   1 <1>  -0.2400 
 10 C        1.0080     3.8500     0.0060 C.2   1 <1>   0.5690 
 11 O        1.6980     4.3930     0.8390 O.2   1 <1>  -0.5700 
 12 N        1.2760     4.0740    -1.3170 N.am  1 <1>  -0.6600 
 13 C        2.6540     3.8210    -1.8580 C.3   1 <1>   0.1400 
 14 C        0.4450     5.0020    -2.1290 C.3   1 <1>   0.1400 
 15 C        3.6760     4.9360    -1.5340 C.3   1 <1>   0.3430 
 16 C        0.7300     6.4650    -1.7580 C.3   1 <1>  -0.1600 
 17 N        3.0320     6.1290    -0.9050 N.4   1 <1>  -0.9590 
 18 C        2.1950     6.8970    -1.8680 C.3   1 <1>   0.3430 
 19 C        4.0260     6.9760    -0.1770 C.3   1 <1>   0.3430 
 20 C        3.3660     7.7850     0.9410 C.3   1 <1>   0.0960 
 21 N        4.3720     8.6940     1.5020 N.pl3 1 <1>   0.3140 
 22 N        5.2310     9.3350     0.6900 N.2   1 <1>  -0.7070 
 23 C        4.5860     9.0130     2.7980 C.2   1 <1>  -0.3320 
 24 C        5.9700    10.0490     1.4840 C.2   1 <1>   0.1390 
 25 C        5.6140     9.8880     2.8160 C.2   1 <1>  -0.1500 
 26 C        3.8000     8.4760     3.9840 C.3   1 <1>  -0.0600 
 27 H       -0.9310     2.6160    -1.5490 H     1 <1>   0.0800 
 28 H       -0.3560     1.1410    -0.7870 H     1 <1>   0.0800 
 29 H       -4.3960     2.1330     1.3550 H     1 <1>   0.0800 
 30 H       -4.0410     3.7770     1.8300 H     1 <1>   0.0800 
 31 H       -3.4860     2.4330     2.8150 H     1 <1>   0.0800 
 32 H        0.3910     2.1830     1.0920 H     1 <1>   0.0800 
 33 H       -0.7750     2.4440     3.1390 H     1 <1>   0.0800 
 34 H       -1.6550     3.9290     3.4230 H     1 <1>   0.0800 
 35 H        0.0380     3.9840     3.0350 H     1 <1>   0.0800 
 36 H       -1.8350     5.0610    -0.0820 H     1 <1>   0.0800 
 37 H       -0.7180     5.6450     1.1360 H     1 <1>   0.0800 
 38 H       -2.3740     5.3600     1.5470 H     1 <1>   0.0800 
 39 H        2.6010     3.6870    -2.9240 H     1 <1>   0.0800 
 40 H        3.0230     2.8950    -1.4490 H     1 <1>   0.0800 
 41 H       -0.5980     4.7940    -1.9660 H     1 <1>   0.0800 
 42 H        0.6420     4.8410    -3.1760 H     1 <1>   0.0800 
 43 H        4.2040     5.2210    -2.4290 H     1 <1>   0.0800 
 44 H        4.4000     4.5260    -0.8500 H     1 <1>   0.0800 
 45 H        0.3730     6.6650    -0.7640 H     1 <1>   0.0800 
 46 H        0.1540     7.0880    -2.4200 H     1 <1>   0.0800 
 47 H        2.3920     5.6980    -0.2020 H     1 <1>   0.4500 
 48 H        2.2610     7.9500    -1.6460 H     1 <1>   0.0800 
 49 H        2.5530     6.7480    -2.8740 H     1 <1>   0.0800 
 50 H        4.5080     7.6460    -0.8710 H     1 <1>   0.0800 
 51 H        4.7830     6.3500     0.2670 H     1 <1>   0.0800 
 52 H        3.0070     7.1320     1.7140 H     1 <1>   0.0800 
 53 H        2.5620     8.3840     0.5610 H     1 <1>   0.0800 
 54 H        6.7650    10.6910     1.1420 H     1 <1>   0.1500 
 55 H        6.0790    10.3740     3.6560 H     1 <1>   0.1500 
 56 H        2.7580     8.7250     3.8880 H     1 <1>   0.0800 
 57 H        4.1680     8.9120     4.8970 H     1 <1>   0.0800 
 58 H        3.9050     7.4080     4.0540 H     1 <1>   0.0800 
@<TRIPOS>BOND
  1   1   2  2   
  2   2   3  am  
  3   2   4  1   
  4   3   5  1   
  5   3   6  1   
  6   4   7  1   
  7   4  27  1   
  8   4  28  1   
  9   5   7  1   
 10   5   8  1   
 11   5   9  1   
 12   6  29  1   
 13   6  30  1   
 14   6  31  1   
 15   7  10  1   
 16   7  32  1   
 17   8  33  1   
 18   8  34  1   
 19   8  35  1   
 20   9  36  1   
 21   9  37  1   
 22   9  38  1   
 23  10  11  2   
 24  10  12  am  
 25  12  13  1   
 26  12  14  1   
 27  13  15  1   
 28  13  39  1   
 29  13  40  1   
 30  14  16  1   
 31  14  41  1   
 32  14  42  1   
 33  15  17  1   
 34  15  43  1   
 35  15  44  1   
 36  16  18  1   
 37  16  45  1   
 38  16  46  1   
 39  17  18  1   
 40  17  19  1   
 41  17  47  1   
 42  18  48  1   
 43  18  49  1   
 44  19  20  1   
 45  19  50  1   
 46  19  51  1   
 47  20  21  1   
 48  20  52  1   
 49  20  53  1   
 50  21  22  1   
 51  21  23  1   
 52  22  24  2   
 53  23  25  2   
 54  23  26  1   
 55  24  25  1   
 56  24  54  1   
 57  25  55  1   
 58  26  56  1   
 59  26  57  1   
 60  26  58  1   
@<TRIPOS>SUBSTRUCTURE
  1 ****  11 GROUP 4 **** **** 0

# MOE 2024.06 (io_trps.svl 2023.06)
