@<TRIPOS>MOLECULE
NONAME
49 52 1 0 0 
SMALL
USER_CHARGES


@<TRIPOS>ATOM
  1 CL       0.6270     0.4660     2.2150 Cl    1 <1>  -0.1770 
  2 C        1.7840     0.9630     0.9920 C.ar  1 <1>   0.1770 
  3 C        2.4180     0.0120     0.1810 C.ar  1 <1>   0.1000 
  4 C        2.0400     2.3120     0.8820 C.ar  1 <1>  -0.1500 
  5 N        2.1610    -1.3580     0.2890 N.pl3 1 <1>  -0.8380 
  6 C        3.3220     0.5030    -0.7590 C.ar  1 <1>  -0.1500 
  7 C        2.9590     2.7970    -0.0470 C.ar  1 <1>   0.0860 
  8 C        0.8040    -1.8780    -0.0040 C.3   1 <1>   0.2090 
  9 C        3.1800    -2.4170     0.0750 C.3   1 <1>   0.2090 
 10 C        3.5830     1.8560    -0.8700 C.ar  1 <1>  -0.1500 
 11 C        3.2400     4.2140    -0.1490 C.2   1 <1>   0.5440 
 12 C        1.0370    -3.2300    -0.6650 C.3   1 <1>  -0.1600 
 13 C        2.3760    -3.6980    -0.1070 C.3   1 <1>  -0.1600 
 14 O        2.3310     5.0200    -0.0930 O.2   1 <1>  -0.5700 
 15 N        4.5260     4.6870    -0.2840 N.am  1 <1>  -0.6600 
 16 C        4.8430     6.1290    -0.5000 C.3   1 <1>   0.1400 
 17 C        5.7090     4.0140     0.3070 C.3   1 <1>   0.1400 
 18 C        5.9900     6.4330     0.4690 C.3   1 <1>   0.4240 
 19 C        6.7590     5.1140     0.4810 C.3   1 <1>  -0.1600 
 20 O        5.4390     6.5880     1.7290 O.3   1 <1>  -0.6800 
 21 C        6.8690     7.6530     0.1620 C.ar  1 <1>  -0.1430 
 22 C        7.9850     7.8990     0.9540 C.ar  1 <1>  -0.1500 
 23 C        6.5950     8.5330    -0.8810 C.ar  1 <1>  -0.1500 
 24 C        8.8150     8.9780     0.7040 C.ar  1 <1>  -0.1500 
 25 C        7.4250     9.6130    -1.1330 C.ar  1 <1>  -0.1500 
 26 C        8.5370     9.8350    -0.3430 C.ar  1 <1>  -0.1500 
 27 H        1.5240     3.0040     1.5230 H     1 <1>   0.1500 
 28 H        3.8170    -0.1780    -1.4230 H     1 <1>   0.1500 
 29 H        0.2590    -1.2070    -0.6460 H     1 <1>   0.0800 
 30 H        0.2710    -2.0040     0.9230 H     1 <1>   0.0800 
 31 H        3.8410    -2.4830     0.9230 H     1 <1>   0.0800 
 32 H        3.7480    -2.2170    -0.8150 H     1 <1>   0.0800 
 33 H        4.2770     2.2010    -1.6160 H     1 <1>   0.1500 
 34 H        1.1100    -3.0880    -1.7280 H     1 <1>   0.0800 
 35 H        0.2390    -3.9190    -0.4540 H     1 <1>   0.0800 
 36 H        2.2320    -4.1560     0.8560 H     1 <1>   0.0800 
 37 H        2.8740    -4.3950    -0.7580 H     1 <1>   0.0800 
 38 H        3.9990     6.7750    -0.3240 H     1 <1>   0.0800 
 39 H        5.1750     6.2470    -1.5150 H     1 <1>   0.0800 
 40 H        6.0710     3.2350    -0.3410 H     1 <1>   0.0800 
 41 H        5.4440     3.5940     1.2640 H     1 <1>   0.0800 
 42 H        7.4250     5.0900    -0.3630 H     1 <1>   0.0800 
 43 H        7.3400     4.9840     1.3760 H     1 <1>   0.0800 
 44 H        4.6460     6.0200     1.7760 H     1 <1>   0.4000 
 45 H        8.2070     7.2490     1.7820 H     1 <1>   0.1500 
 46 H        5.7360     8.4030    -1.5120 H     1 <1>   0.1500 
 47 H        9.6740     9.1500     1.3280 H     1 <1>   0.1500 
 48 H        7.2020    10.2840    -1.9450 H     1 <1>   0.1500 
 49 H        9.1810    10.6740    -0.5400 H     1 <1>   0.1500 
@<TRIPOS>BOND
  1   1   2  1   
  2   2   3  ar  
  3   2   4  ar  
  4   3   5  1   
  5   3   6  ar  
  6   4   7  ar  
  7   4  27  1   
  8   5   8  1   
  9   5   9  1   
 10   6  10  ar  
 11   6  28  1   
 12   7  10  ar  
 13   7  11  1   
 14   8  12  1   
 15   8  29  1   
 16   8  30  1   
 17   9  13  1   
 18   9  31  1   
 19   9  32  1   
 20  10  33  1   
 21  11  14  2   
 22  11  15  am  
 23  12  13  1   
 24  12  34  1   
 25  12  35  1   
 26  13  36  1   
 27  13  37  1   
 28  15  16  1   
 29  15  17  1   
 30  16  18  1   
 31  16  38  1   
 32  16  39  1   
 33  17  19  1   
 34  17  40  1   
 35  17  41  1   
 36  18  19  1   
 37  18  20  1   
 38  18  21  1   
 39  19  42  1   
 40  19  43  1   
 41  20  44  1   
 42  21  22  ar  
 43  21  23  ar  
 44  22  24  ar  
 45  22  45  1   
 46  23  25  ar  
 47  23  46  1   
 48  24  26  ar  
 49  24  47  1   
 50  25  26  ar  
 51  25  48  1   
 52  26  49  1   
@<TRIPOS>SUBSTRUCTURE
  1 ****  15 GROUP 4 **** **** 0

# MOE 2024.06 (io_trps.svl 2023.06)
