@<TRIPOS>MOLECULE
NONAME
39 40 1 0 0 
SMALL
USER_CHARGES


@<TRIPOS>ATOM
  1 O        0.4010     3.2280     0.9590 O.2   1 <1>  -0.5700 
  2 C       -0.7340     2.8760     0.7360 C.2   1 <1>   0.5690 
  3 N       -1.2690     2.9630    -0.5210 N.am  1 <1>  -0.6600 
  4 C       -1.5660     2.3760     1.9050 C.3   1 <1>  -0.0990 
  5 C       -2.6830     2.6350    -0.8540 C.3   1 <1>   0.1400 
  6 C       -0.4250     3.4060    -1.6830 C.3   1 <1>   0.2010 
  7 C       -2.8720     1.6910     1.4820 C.3   1 <1>  -0.1600 
  8 C       -3.5580     2.5270     0.3990 C.3   1 <1>  -0.1600 
  9 C       -0.2420     4.9210    -1.7550 C.2   1 <1>   0.5690 
 10 O       -0.6260     5.5050    -2.7430 O.2   1 <1>  -0.5700 
 11 N        0.3560     5.5400    -0.6990 N.am  1 <1>  -0.4930 
 12 C        0.6560     6.9110    -0.5080 C.2   1 <1>   0.0630 
 13 C        0.4360     7.9950    -1.3580 C.2   1 <1>   0.1390 
 14 C        1.2370     7.4490     0.5820 C.2   1 <1>  -0.3020 
 15 N        0.8450     9.1180    -0.8430 N.2   1 <1>  -0.7070 
 16 N        1.3430     8.7810     0.3630 N.pl3 1 <1>   0.3140 
 17 C        1.9200     9.8010     1.2810 C.3   1 <1>   0.1760 
 18 C        3.4070     9.5200     1.5420 C.3   1 <1>  -0.2400 
 19 C        1.1320     9.8570     2.5970 C.3   1 <1>  -0.2400 
 20 H       -1.7940     3.2250     2.5240 H     1 <1>   0.0800 
 21 H       -0.9720     1.6960     2.4880 H     1 <1>   0.0800 
 22 H       -2.7000     1.6970    -1.3830 H     1 <1>   0.0800 
 23 H       -3.0850     3.3960    -1.5030 H     1 <1>   0.0800 
 24 H       -0.8660     3.0670    -2.6030 H     1 <1>   0.0800 
 25 H        0.5470     2.9530    -1.6040 H     1 <1>   0.0800 
 26 H       -3.5190     1.5790     2.3350 H     1 <1>   0.0800 
 27 H       -2.6550     0.7100     1.0940 H     1 <1>   0.0800 
 28 H       -4.5000     2.0800     0.1330 H     1 <1>   0.0800 
 29 H       -3.7630     3.5160     0.7730 H     1 <1>   0.0800 
 30 H        0.5840     4.9180     0.0890 H     1 <1>   0.3700 
 31 H       -0.0210     7.9150    -2.3290 H     1 <1>   0.1500 
 32 H        1.5740     6.9710     1.4810 H     1 <1>   0.1500 
 33 H        1.8330    10.7530     0.7880 H     1 <1>   0.0800 
 34 H        3.5360     8.5810     2.0500 H     1 <1>   0.0800 
 35 H        3.8280    10.3000     2.1500 H     1 <1>   0.0800 
 36 H        3.9420     9.4930     0.6080 H     1 <1>   0.0800 
 37 H        1.2080     8.9260     3.1300 H     1 <1>   0.0800 
 38 H        0.0960    10.0640     2.3930 H     1 <1>   0.0800 
 39 H        1.5160    10.6420     3.2230 H     1 <1>   0.0800 
@<TRIPOS>BOND
  1   1   2  2   
  2   2   3  am  
  3   2   4  1   
  4   3   5  1   
  5   3   6  1   
  6   4   7  1   
  7   4  20  1   
  8   4  21  1   
  9   5   8  1   
 10   5  22  1   
 11   5  23  1   
 12   6   9  1   
 13   6  24  1   
 14   6  25  1   
 15   7   8  1   
 16   7  26  1   
 17   7  27  1   
 18   8  28  1   
 19   8  29  1   
 20   9  10  2   
 21   9  11  am  
 22  11  12  1   
 23  11  30  1   
 24  12  13  1   
 25  12  14  2   
 26  13  15  2   
 27  13  31  1   
 28  14  16  1   
 29  14  32  1   
 30  15  16  1   
 31  16  17  1   
 32  17  18  1   
 33  17  19  1   
 34  17  33  1   
 35  18  34  1   
 36  18  35  1   
 37  18  36  1   
 38  19  37  1   
 39  19  38  1   
 40  19  39  1   
@<TRIPOS>SUBSTRUCTURE
  1 ****  11 GROUP 4 **** **** 0

# MOE 2024.06 (io_trps.svl 2023.06)
