@<TRIPOS>MOLECULE
NONAME
44 46 1 0 0 
SMALL
USER_CHARGES


@<TRIPOS>ATOM
  1 S       -0.9060    -0.8590     0.9740 S.3   1 <1>  -0.0800 
  2 C       -2.3790    -0.1650     0.3290 C.2   1 <1>   0.1980 
  3 C        0.0080     0.1730    -0.0860 C.2   1 <1>  -0.1100 
  4 N       -2.1940     0.7230    -0.5630 N.2   1 <1>  -0.5650 
  5 C       -3.6980    -0.6700     0.8800 C.3   1 <1>   0.0200 
  6 C       -0.8450     0.9190    -0.8030 C.2   1 <1>   0.0460 
  7 C       -4.0280    -2.0740     0.3540 C.3   1 <1>  -0.1600 
  8 C       -0.4810     1.9520    -1.8460 C.3   1 <1>  -0.0590 
  9 C       -5.3930    -2.5420     0.8530 C.3   1 <1>   0.1400 
 10 N       -5.6440    -3.9080     0.3590 N.am  1 <1>  -0.7300 
 11 C       -5.9130    -5.0000     1.1210 C.2   1 <1>   0.5690 
 12 O       -5.9690    -4.9490     2.3270 O.2   1 <1>  -0.5700 
 13 C       -6.1610    -6.3400     0.4320 C.3   1 <1>   0.1810 
 14 O       -5.7240    -6.3330    -0.9090 O.3   1 <1>  -0.5600 
 15 C       -5.8030    -7.5560    -1.5880 C.3   1 <1>   0.3000 
 16 C       -7.2280    -8.1040    -1.6210 C.2   1 <1>   0.0070 
 17 N       -8.1460    -7.6960    -2.4280 N.2   1 <1>  -0.5650 
 18 N       -7.6400    -9.0920    -0.7830 N.pl3 1 <1>   0.0330 
 19 C       -9.2390    -8.4410    -2.1110 C.ar  1 <1>   0.2270 
 20 C       -8.9430    -9.3210    -1.0840 C.ar  1 <1>  -0.1520 
 21 C      -10.5180    -8.4130    -2.6630 C.ar  1 <1>  -0.1500 
 22 C       -9.8990   -10.2040    -0.5690 C.ar  1 <1>  -0.1500 
 23 C      -11.4470    -9.2830    -2.1480 C.ar  1 <1>   0.1900 
 24 C      -11.1650   -10.1790    -1.1120 C.ar  1 <1>  -0.1500 
 25 F      -12.6590    -9.2820    -2.6410 F     1 <1>  -0.1900 
 26 H        1.0800     0.1090    -0.0560 H     1 <1>   0.1500 
 27 H       -4.4700     0.0170     0.5840 H     1 <1>   0.0800 
 28 H       -3.6490    -0.6770     1.9540 H     1 <1>   0.0800 
 29 H       -3.2730    -2.7640     0.6870 H     1 <1>   0.0800 
 30 H       -4.0260    -2.0530    -0.7220 H     1 <1>   0.0800 
 31 H        0.5860     2.0230    -1.9500 H     1 <1>   0.0800 
 32 H       -0.8710     2.9100    -1.5550 H     1 <1>   0.0800 
 33 H       -0.9090     1.6750    -2.7920 H     1 <1>   0.0800 
 34 H       -6.1690    -1.8880     0.4920 H     1 <1>   0.0800 
 35 H       -5.4150    -2.5360     1.9310 H     1 <1>   0.0800 
 36 H       -5.5950    -4.0590    -0.6540 H     1 <1>   0.3700 
 37 H       -7.2180    -6.5370     0.4520 H     1 <1>   0.0800 
 38 H       -5.6330    -7.1090     0.9660 H     1 <1>   0.0800 
 39 H       -5.1270    -8.2520    -1.1230 H     1 <1>   0.0800 
 40 H       -5.4720    -7.3790    -2.5970 H     1 <1>   0.0800 
 41 H       -7.0940    -9.5770    -0.0680 H     1 <1>   0.2700 
 42 H      -10.7460    -7.7300    -3.4570 H     1 <1>   0.1500 
 43 H       -9.6470   -10.8800     0.2290 H     1 <1>   0.1500 
 44 H      -11.9420   -10.8330    -0.7590 H     1 <1>   0.1500 
@<TRIPOS>BOND
  1   1   2  1   
  2   1   3  1   
  3   2   4  2   
  4   2   5  1   
  5   3   6  2   
  6   3  26  1   
  7   4   6  1   
  8   5   7  1   
  9   5  27  1   
 10   5  28  1   
 11   6   8  1   
 12   7   9  1   
 13   7  29  1   
 14   7  30  1   
 15   8  31  1   
 16   8  32  1   
 17   8  33  1   
 18   9  10  1   
 19   9  34  1   
 20   9  35  1   
 21  10  11  am  
 22  10  36  1   
 23  11  12  2   
 24  11  13  1   
 25  13  14  1   
 26  13  37  1   
 27  13  38  1   
 28  14  15  1   
 29  15  16  1   
 30  15  39  1   
 31  15  40  1   
 32  16  17  2   
 33  16  18  1   
 34  17  19  1   
 35  18  20  1   
 36  18  41  1   
 37  19  20  ar  
 38  19  21  ar  
 39  20  22  ar  
 40  21  23  ar  
 41  21  42  1   
 42  22  24  ar  
 43  22  43  1   
 44  23  24  ar  
 45  23  25  1   
 46  24  44  1   
@<TRIPOS>SUBSTRUCTURE
  1 ****  14 GROUP 4 **** **** 0

# MOE 2024.06 (io_trps.svl 2023.06)
