@<TRIPOS>MOLECULE
NONAME
51 52 1 0 0 
SMALL
USER_CHARGES


@<TRIPOS>ATOM
  1 O       -0.6240    -1.2540    -0.9960 O.2   1 <1>  -0.5700 
  2 C       -1.2740    -0.3550    -0.5180 C.2   1 <1>   0.5690 
  3 N       -1.9960    -0.5420     0.6370 N.am  1 <1>  -0.6600 
  4 C       -1.2920     0.9520    -1.3020 C.3   1 <1>   0.0440 
  5 C       -2.1470    -1.9290     1.1910 C.3   1 <1>   0.3210 
  6 C       -2.6890     0.5020     1.4550 C.3   1 <1>   0.1400 
  7 C       -0.8570     2.2030    -0.5350 C.ar  1 <1>  -0.1440 
  8 C       -3.5660    -2.4490     0.9680 C.2   1 <1>   0.0460 
  9 C       -4.1110     0.7810     0.9390 C.3   1 <1>   0.3430 
 10 C       -1.4950     3.4260    -0.7250 C.ar  1 <1>   0.0820 
 11 C        0.2090     2.1310     0.3500 C.ar  1 <1>  -0.1500 
 12 N       -4.5970    -2.0520     1.7500 N.2   1 <1>  -0.5650 
 13 C       -3.9880    -3.3330     0.0330 C.2   1 <1>  -0.3320 
 14 N       -4.2520     2.1200     0.2790 N.4   1 <1>  -0.9590 
 15 O       -2.5310     3.5010    -1.5940 O.3   1 <1>  -0.3630 
 16 C       -1.0830     4.5500    -0.0190 C.ar  1 <1>  -0.1500 
 17 C        0.6180     3.2510     1.0520 C.ar  1 <1>  -0.1500 
 18 C       -5.6060    -2.7200     1.2930 C.2   1 <1>   0.0360 
 19 N       -5.3030    -3.5160     0.2470 N.pl3 1 <1>   0.0330 
 20 C       -3.2270    -4.0450    -1.0750 C.3   1 <1>  -0.0600 
 21 C       -4.2210     3.2370     1.2710 C.3   1 <1>   0.2630 
 22 C       -5.4970     2.1680    -0.5390 C.3   1 <1>   0.2630 
 23 C       -2.4970     4.5260    -2.5680 C.3   1 <1>   0.0400 
 24 C       -0.0280     4.4600     0.8700 C.ar  1 <1>  -0.1500 
 25 H       -2.2790     1.0610    -1.7040 H     1 <1>   0.0800 
 26 H       -0.6300     0.8440    -2.1430 H     1 <1>   0.0800 
 27 H       -1.9330    -1.9270     2.2450 H     1 <1>   0.0800 
 28 H       -1.4490    -2.6040     0.7330 H     1 <1>   0.0800 
 29 H       -2.1060     1.4010     1.5030 H     1 <1>   0.0800 
 30 H       -2.7740     0.1380     2.4650 H     1 <1>   0.0800 
 31 H       -4.7970     0.7180     1.7680 H     1 <1>   0.0800 
 32 H       -4.3730    -0.0030     0.2470 H     1 <1>   0.0800 
 33 H        0.7360     1.2020     0.4980 H     1 <1>   0.1500 
 34 H       -3.4480     2.2660    -0.3640 H     1 <1>   0.4500 
 35 H       -1.5740     5.4960    -0.1560 H     1 <1>   0.1500 
 36 H        1.4470     3.1820     1.7370 H     1 <1>   0.1500 
 37 H       -6.6030    -2.6680     1.6960 H     1 <1>   0.1500 
 38 H       -5.9370    -4.1390    -0.2620 H     1 <1>   0.2700 
 39 H       -2.2080    -3.7040    -1.1210 H     1 <1>   0.0800 
 40 H       -3.6870    -3.8500    -2.0270 H     1 <1>   0.0800 
 41 H       -3.2240    -5.1060    -0.9010 H     1 <1>   0.0800 
 42 H       -5.0300     3.1390     1.9760 H     1 <1>   0.0800 
 43 H       -4.3130     4.1840     0.7640 H     1 <1>   0.0800 
 44 H       -3.2870     3.2330     1.8090 H     1 <1>   0.0800 
 45 H       -6.3640     2.0430     0.0880 H     1 <1>   0.0800 
 46 H       -5.4870     1.3810    -1.2760 H     1 <1>   0.0800 
 47 H       -5.5690     3.1140    -1.0500 H     1 <1>   0.0800 
 48 H       -3.2350     4.3060    -3.3190 H     1 <1>   0.0800 
 49 H       -1.5190     4.5510    -3.0170 H     1 <1>   0.0800 
 50 H       -2.7210     5.4700    -2.1030 H     1 <1>   0.0800 
 51 H        0.2980     5.3300     1.4160 H     1 <1>   0.1500 
@<TRIPOS>BOND
  1   1   2  2   
  2   2   3  am  
  3   2   4  1   
  4   3   5  1   
  5   3   6  1   
  6   4   7  1   
  7   4  25  1   
  8   4  26  1   
  9   5   8  1   
 10   5  27  1   
 11   5  28  1   
 12   6   9  1   
 13   6  29  1   
 14   6  30  1   
 15   7  10  ar  
 16   7  11  ar  
 17   8  12  1   
 18   8  13  2   
 19   9  14  1   
 20   9  31  1   
 21   9  32  1   
 22  10  15  1   
 23  10  16  ar  
 24  11  17  ar  
 25  11  33  1   
 26  12  18  2   
 27  13  19  1   
 28  13  20  1   
 29  14  21  1   
 30  14  22  1   
 31  14  34  1   
 32  15  23  1   
 33  16  24  ar  
 34  16  35  1   
 35  17  24  ar  
 36  17  36  1   
 37  18  19  1   
 38  18  37  1   
 39  19  38  1   
 40  20  39  1   
 41  20  40  1   
 42  20  41  1   
 43  21  42  1   
 44  21  43  1   
 45  21  44  1   
 46  22  45  1   
 47  22  46  1   
 48  22  47  1   
 49  23  48  1   
 50  23  49  1   
 51  23  50  1   
 52  24  51  1   
@<TRIPOS>SUBSTRUCTURE
  1 ****   6 GROUP 4 **** **** 0

# MOE 2024.06 (io_trps.svl 2023.06)
