@<TRIPOS>MOLECULE
NONAME
54 57 1 0 0 
SMALL
USER_CHARGES


@<TRIPOS>ATOM
  1 O       -1.9830     1.5000     2.2650 O.2   1 <1>  -0.5700 
  2 C       -2.3690     1.5870     1.1140 C.2   1 <1>   0.6900 
  3 N       -3.5470     0.9940     0.7280 N.am  1 <1>  -0.6600 
  4 N       -1.6570     2.2990     0.1900 N.am  1 <1>  -0.5470 
  5 C       -4.4680     0.3830     1.7280 C.3   1 <1>   0.1400 
  6 C       -3.9620     0.7500    -0.6830 C.3   1 <1>   0.1400 
  7 C       -0.3970     2.9100     0.2400 C.ar  1 <1>   0.1170 
  8 C       -4.5380    -1.1290     1.5020 C.3   1 <1>  -0.1600 
  9 C       -4.0310    -0.7580    -0.9420 C.3   1 <1>  -0.1600 
 10 C       -0.1100     3.9190    -0.6700 C.ar  1 <1>  -0.1500 
 11 C        0.5920     2.5400     1.1470 C.ar  1 <1>  -0.1500 
 12 C       -4.9530    -1.4770     0.0580 C.3   1 <1>   0.4240 
 13 C        1.1210     4.5500    -0.6820 C.ar  1 <1>   0.0820 
 14 C        1.8260     3.1640     1.1460 C.ar  1 <1>  -0.1500 
 15 O       -6.2130    -0.8780    -0.1620 O.3   1 <1>  -0.5600 
 16 C       -4.9970    -3.0110    -0.2030 C.ar  1 <1>  -0.1440 
 17 O        1.2980     5.5220    -1.6130 O.3   1 <1>  -0.3630 
 18 C        2.0970     4.1690     0.2350 C.ar  1 <1>  -0.1500 
 19 C       -7.3420    -1.5700     0.2590 C.3   1 <1>   0.1200 
 20 C       -3.8520    -3.8160    -0.1170 C.ar  1 <1>   0.0820 
 21 C       -6.2060    -3.6250    -0.5300 C.ar  1 <1>  -0.1440 
 22 C        2.5050     6.2480    -1.6900 C.3   1 <1>   0.0400 
 23 C       -7.4820    -2.8120    -0.6060 C.3   1 <1>  -0.0170 
 24 O       -2.6690    -3.2420     0.2270 O.3   1 <1>  -0.3620 
 25 C       -3.9340    -5.1830    -0.3750 C.ar  1 <1>  -0.1500 
 26 C       -6.2740    -4.9840    -0.7850 C.ar  1 <1>  -0.1500 
 27 C       -1.4910    -3.9850     0.4480 C.3   1 <1>   0.0400 
 28 C       -5.1390    -5.7640    -0.7100 C.ar  1 <1>  -0.1500 
 29 H       -2.1990     2.4920    -0.6420 H     1 <1>   0.3700 
 30 H       -5.4450     0.8190     1.6160 H     1 <1>   0.0800 
 31 H       -4.1310     0.5830     2.7310 H     1 <1>   0.0800 
 32 H       -3.2710     1.1900    -1.3780 H     1 <1>   0.0800 
 33 H       -4.9290     1.1950    -0.8460 H     1 <1>   0.0800 
 34 H       -5.2180    -1.5760     2.2000 H     1 <1>   0.0800 
 35 H       -3.5670    -1.5300     1.7170 H     1 <1>   0.0800 
 36 H       -3.0330    -1.1410    -0.8870 H     1 <1>   0.0800 
 37 H       -4.3880    -0.9420    -1.9380 H     1 <1>   0.0800 
 38 H       -0.8500     4.2270    -1.3820 H     1 <1>   0.1500 
 39 H        0.4000     1.7570     1.8580 H     1 <1>   0.1500 
 40 H        2.5760     2.8650     1.8580 H     1 <1>   0.1500 
 41 H        3.0620     4.6380     0.2550 H     1 <1>   0.1500 
 42 H       -8.1930    -0.9240     0.1340 H     1 <1>   0.0800 
 43 H       -7.2400    -1.8260     1.2990 H     1 <1>   0.0800 
 44 H        2.4120     6.9650    -2.4850 H     1 <1>   0.0800 
 45 H        3.3090     5.5660    -1.9050 H     1 <1>   0.0800 
 46 H        2.6670     6.7550    -0.7560 H     1 <1>   0.0800 
 47 H       -7.6690    -2.5230    -1.6240 H     1 <1>   0.0800 
 48 H       -8.3170    -3.3920    -0.2570 H     1 <1>   0.0800 
 49 H       -3.0700    -5.8160    -0.3230 H     1 <1>   0.1500 
 50 H       -7.2130    -5.4430    -1.0440 H     1 <1>   0.1500 
 51 H       -0.7200    -3.3010     0.7560 H     1 <1>   0.0800 
 52 H       -1.2050    -4.4670    -0.4690 H     1 <1>   0.0800 
 53 H       -1.6720    -4.7040     1.2260 H     1 <1>   0.0800 
 54 H       -5.1960    -6.8200    -0.9110 H     1 <1>   0.1500 
@<TRIPOS>BOND
  1   1   2  2   
  2   2   3  am  
  3   2   4  am  
  4   3   5  1   
  5   3   6  1   
  6   4   7  1   
  7   4  29  1   
  8   5   8  1   
  9   5  30  1   
 10   5  31  1   
 11   6   9  1   
 12   6  32  1   
 13   6  33  1   
 14   7  10  ar  
 15   7  11  ar  
 16   8  12  1   
 17   8  34  1   
 18   8  35  1   
 19   9  12  1   
 20   9  36  1   
 21   9  37  1   
 22  10  13  ar  
 23  10  38  1   
 24  11  14  ar  
 25  11  39  1   
 26  12  15  1   
 27  12  16  1   
 28  13  17  1   
 29  13  18  ar  
 30  14  18  ar  
 31  14  40  1   
 32  15  19  1   
 33  16  20  ar  
 34  16  21  ar  
 35  17  22  1   
 36  18  41  1   
 37  19  23  1   
 38  19  42  1   
 39  19  43  1   
 40  20  24  1   
 41  20  25  ar  
 42  21  23  1   
 43  21  26  ar  
 44  22  44  1   
 45  22  45  1   
 46  22  46  1   
 47  23  47  1   
 48  23  48  1   
 49  24  27  1   
 50  25  28  ar  
 51  25  49  1   
 52  26  28  ar  
 53  26  50  1   
 54  27  51  1   
 55  27  52  1   
 56  27  53  1   
 57  28  54  1   
@<TRIPOS>SUBSTRUCTURE
  1 ****   3 GROUP 4 **** **** 0

# MOE 2024.06 (io_trps.svl 2023.06)
