@<TRIPOS>MOLECULE
NONAME
46 47 1 0 0 
SMALL
USER_CHARGES


@<TRIPOS>ATOM
  1 O       -2.4620     0.8740     0.9310 O.3   1 <1>  -0.3630 
  2 C       -2.5000    -0.4730     0.7760 C.ar  1 <1>   0.0830 
  3 C       -1.6160     1.7200     0.1810 C.3   1 <1>   0.1200 
  4 C       -3.3890    -1.1610     1.5830 C.ar  1 <1>  -0.1500 
  5 C       -1.7090    -1.1830    -0.1210 C.ar  1 <1>  -0.1500 
  6 C       -2.2480     1.9900    -1.1850 C.3   1 <1>  -0.2400 
  7 C       -3.5040    -2.5360     1.4950 C.ar  1 <1>  -0.1500 
  8 C       -1.8240    -2.5590    -0.2130 C.ar  1 <1>  -0.1500 
  9 C       -2.7350    -3.2440     0.5830 C.ar  1 <1>  -0.1430 
 10 C       -2.8950    -4.7490     0.4730 C.3   1 <1>   0.4860 
 11 N       -3.2490    -5.1050    -0.9360 N.4   1 <1>  -0.9590 
 12 C       -4.5650    -4.5040    -1.3500 C.3   1 <1>   0.4810 
 13 C       -3.1780    -6.5680    -1.1730 C.3   1 <1>   0.3430 
 14 C       -5.7320    -5.0100    -0.4970 C.2   1 <1>  -0.0380 
 15 C       -1.7210    -7.0160    -1.2110 C.3   1 <1>  -0.2400 
 16 N       -6.2580    -6.2750    -0.6670 N.pl3 1 <1>  -0.5500 
 17 C       -6.3170    -4.2430     0.4530 C.2   1 <1>  -0.1360 
 18 C       -7.2860    -6.7240     0.1160 C.2   1 <1>   0.4390 
 19 C       -7.3700    -4.7610     1.2490 C.2   1 <1>   0.7670 
 20 N       -7.8260    -6.0310     1.0430 N.2   1 <1>  -0.6610 
 21 C       -7.7860    -8.1210    -0.1590 C.3   1 <1>  -0.1790 
 22 O       -7.8570    -4.0850     2.1370 O.2   1 <1>  -0.5700 
 23 H       -0.6390     1.2760     0.1060 H     1 <1>   0.0800 
 24 H       -1.5280     2.6420     0.7290 H     1 <1>   0.0800 
 25 H       -3.9880    -0.6070     2.2860 H     1 <1>   0.1500 
 26 H       -0.9990    -0.6790    -0.7490 H     1 <1>   0.1500 
 27 H       -2.3580     1.0810    -1.7470 H     1 <1>   0.0800 
 28 H       -1.6230     2.6620    -1.7450 H     1 <1>   0.0800 
 29 H       -3.2120     2.4490    -1.0580 H     1 <1>   0.0800 
 30 H       -4.1970    -3.0360     2.1520 H     1 <1>   0.1500 
 31 H       -1.1860    -3.0780    -0.9070 H     1 <1>   0.1500 
 32 H       -3.6640    -5.0890     1.1480 H     1 <1>   0.0800 
 33 H       -1.9670    -5.2160     0.7580 H     1 <1>   0.0800 
 34 H       -2.5330    -4.6600    -1.5200 H     1 <1>   0.4500 
 35 H       -4.7610    -4.7230    -2.3860 H     1 <1>   0.0800 
 36 H       -4.5080    -3.4310    -1.2500 H     1 <1>   0.0800 
 37 H       -3.6330    -6.8040    -2.1220 H     1 <1>   0.0800 
 38 H       -3.7110    -7.0990    -0.3990 H     1 <1>   0.0800 
 39 H       -1.1720    -6.4800    -1.9640 H     1 <1>   0.0800 
 40 H       -1.6840    -8.0630    -1.4600 H     1 <1>   0.0800 
 41 H       -1.2410    -6.8970    -0.2560 H     1 <1>   0.0800 
 42 H       -5.9810    -6.8970    -1.4300 H     1 <1>   0.4000 
 43 H       -6.0360    -3.2290     0.6620 H     1 <1>   0.1500 
 44 H       -8.1590    -8.1900    -1.1640 H     1 <1>   0.0800 
 45 H       -8.5880    -8.3620     0.5170 H     1 <1>   0.0800 
 46 H       -6.9960    -8.8340    -0.0160 H     1 <1>   0.0800 
@<TRIPOS>BOND
  1   1   2  1   
  2   1   3  1   
  3   2   4  ar  
  4   2   5  ar  
  5   3   6  1   
  6   3  23  1   
  7   3  24  1   
  8   4   7  ar  
  9   4  25  1   
 10   5   8  ar  
 11   5  26  1   
 12   6  27  1   
 13   6  28  1   
 14   6  29  1   
 15   7   9  ar  
 16   7  30  1   
 17   8   9  ar  
 18   8  31  1   
 19   9  10  1   
 20  10  11  1   
 21  10  32  1   
 22  10  33  1   
 23  11  12  1   
 24  11  13  1   
 25  11  34  1   
 26  12  14  1   
 27  12  35  1   
 28  12  36  1   
 29  13  15  1   
 30  13  37  1   
 31  13  38  1   
 32  14  16  1   
 33  14  17  2   
 34  15  39  1   
 35  15  40  1   
 36  15  41  1   
 37  16  18  1   
 38  16  42  1   
 39  17  19  1   
 40  17  43  1   
 41  18  20  2   
 42  18  21  1   
 43  19  20  1   
 44  19  22  2   
 45  21  44  1   
 46  21  45  1   
 47  21  46  1   
@<TRIPOS>SUBSTRUCTURE
  1 ****   9 GROUP 4 **** **** 0

# MOE 2024.06 (io_trps.svl 2023.06)
