@<TRIPOS>MOLECULE
NONAME
43 43 1 0 0 
SMALL
USER_CHARGES


@<TRIPOS>ATOM
  1 O       -0.0150     0.0860    -0.3710 O.2   1 <1>  -0.5700 
  2 C        0.2090     1.2310    -0.0310 C.2   1 <1>   0.7060 
  3 O        1.4260     1.5110     0.4430 O.3   1 <1>  -0.4300 
  4 C       -0.7460     2.3000    -0.1170 C.2   1 <1>  -0.1240 
  5 C        2.4250     0.5210     0.5920 C.3   1 <1>   0.0400 
  6 C       -0.5650     3.6300     0.1210 C.2   1 <1>   0.0290 
  7 C       -2.1960     2.0260    -0.5210 C.3   1 <1>   0.1380 
  8 C       -1.7710     4.3760    -0.0710 C.2   1 <1>   0.3750 
  9 C        0.6600     4.2640     0.5270 C.2   1 <1>   0.4950 
 10 C       -2.8850     3.3930    -0.3360 C.3   1 <1>  -0.0990 
 11 C       -2.2810     1.5980    -1.9940 C.3   1 <1>  -0.2400 
 12 C       -2.8800     0.9830     0.3780 C.3   1 <1>  -0.2400 
 13 N       -2.0530     5.6200    -0.0760 N.2   1 <1>  -0.5130 
 14 O        0.8660     4.6350     1.6530 O.2   1 <1>  -0.5700 
 15 C        1.7760     4.4180    -0.4980 C.3   1 <1>  -0.0990 
 16 O       -1.0820     6.4620     0.1290 O.3   1 <1>  -0.2170 
 17 C        1.8640     5.8410    -1.0670 C.3   1 <1>  -0.1600 
 18 C       -1.4300     7.8060     0.3280 C.3   1 <1>   0.1200 
 19 C        3.0190     5.9760    -2.0620 C.3   1 <1>  -0.2400 
 20 C       -0.1500     8.6170     0.5160 C.3   1 <1>  -0.2400 
 21 H        3.3060     0.9850     0.9980 H     1 <1>   0.0800 
 22 H        2.6410     0.0940    -0.3720 H     1 <1>   0.0800 
 23 H        2.0640    -0.2390     1.2630 H     1 <1>   0.0800 
 24 H       -3.5420     3.3960     0.5150 H     1 <1>   0.0800 
 25 H       -3.4460     3.6920    -1.2030 H     1 <1>   0.0800 
 26 H       -3.3090     1.5030    -2.2990 H     1 <1>   0.0800 
 27 H       -1.8020     0.6470    -2.1450 H     1 <1>   0.0800 
 28 H       -1.8020     2.3230    -2.6290 H     1 <1>   0.0800 
 29 H       -3.9310     0.9310     0.1580 H     1 <1>   0.0800 
 30 H       -2.7590     1.2420     1.4150 H     1 <1>   0.0800 
 31 H       -2.4640     0.0040     0.2240 H     1 <1>   0.0800 
 32 H        2.7050     4.1670    -0.0170 H     1 <1>   0.0800 
 33 H        1.6230     3.7210    -1.3020 H     1 <1>   0.0800 
 34 H        0.9390     6.0910    -1.5590 H     1 <1>   0.0800 
 35 H        2.0070     6.5350    -0.2560 H     1 <1>   0.0800 
 36 H       -1.9820     8.1420    -0.5320 H     1 <1>   0.0800 
 37 H       -2.0530     7.8590     1.2040 H     1 <1>   0.0800 
 38 H        2.8850     5.3030    -2.8910 H     1 <1>   0.0800 
 39 H        3.9570     5.7560    -1.5820 H     1 <1>   0.0800 
 40 H        3.0600     6.9820    -2.4420 H     1 <1>   0.0800 
 41 H        0.4500     8.5720    -0.3750 H     1 <1>   0.0800 
 42 H        0.4100     8.2320     1.3500 H     1 <1>   0.0800 
 43 H       -0.3960     9.6450     0.7110 H     1 <1>   0.0800 
@<TRIPOS>BOND
  1   1   2  2   
  2   2   3  1   
  3   2   4  1   
  4   3   5  1   
  5   4   6  2   
  6   4   7  1   
  7   5  21  1   
  8   5  22  1   
  9   5  23  1   
 10   6   8  1   
 11   6   9  1   
 12   7  10  1   
 13   7  11  1   
 14   7  12  1   
 15   8  10  1   
 16   8  13  2   
 17   9  14  2   
 18   9  15  1   
 19  10  24  1   
 20  10  25  1   
 21  11  26  1   
 22  11  27  1   
 23  11  28  1   
 24  12  29  1   
 25  12  30  1   
 26  12  31  1   
 27  13  16  1   
 28  15  17  1   
 29  15  32  1   
 30  15  33  1   
 31  16  18  1   
 32  17  19  1   
 33  17  34  1   
 34  17  35  1   
 35  18  20  1   
 36  18  36  1   
 37  18  37  1   
 38  19  38  1   
 39  19  39  1   
 40  19  40  1   
 41  20  41  1   
 42  20  42  1   
 43  20  43  1   
@<TRIPOS>SUBSTRUCTURE
  1 ****   6 GROUP 4 **** **** 0

# MOE 2024.06 (io_trps.svl 2023.06)
