@<TRIPOS>MOLECULE
NONAME
55 58 1 0 0 
SMALL
USER_CHARGES


@<TRIPOS>ATOM
  1 O        1.5030     0.8660     2.3100 O.2   1 <1>  -0.5700 
  2 C        1.8370     0.9200     1.1400 C.2   1 <1>   0.5440 
  3 N        1.4220     1.9980     0.3890 N.am  1 <1>  -0.6600 
  4 C        2.6710    -0.1010     0.5600 C.ar  1 <1>   0.0860 
  5 C        1.6380     2.1670    -1.0640 C.3   1 <1>   0.1400 
  6 C        0.5430     3.0570     0.9280 C.3   1 <1>   0.1400 
  7 C        2.2020    -1.4040     0.2890 C.ar  1 <1>   0.4100 
  8 C        3.9920     0.1950     0.2520 C.ar  1 <1>  -0.1500 
  9 C        0.5840     3.1820    -1.4880 C.3   1 <1>  -0.1600 
 10 C        0.3320     4.0200    -0.2370 C.3   1 <1>  -0.1600 
 11 N        2.9700    -2.3580    -0.2430 N.ar  1 <1>  -0.6200 
 12 N        0.9070    -1.8170     0.5550 N.pl3 1 <1>  -0.8380 
 13 C        4.7730    -0.7930    -0.2990 C.ar  1 <1>  -0.1500 
 14 C        4.2160    -2.0380    -0.5220 C.ar  1 <1>   0.1600 
 15 C        0.6950    -3.0770     1.3230 C.3   1 <1>   0.2090 
 16 C       -0.2910    -1.0430     0.1530 C.3   1 <1>   0.2090 
 17 C        0.2780    -4.2270     0.3940 C.3   1 <1>   0.2090 
 18 C       -1.2440    -1.8760    -0.7060 C.3   1 <1>  -0.1600 
 19 N       -1.1910    -4.2810     0.0400 N.pl3 1 <1>  -0.8380 
 20 C       -1.9510    -2.9920     0.0670 C.3   1 <1>   0.2090 
 21 C       -1.7720    -5.4520    -0.3350 C.ar  1 <1>   0.1000 
 22 C       -3.0980    -5.7630    -0.0020 C.ar  1 <1>  -0.1500 
 23 C       -1.0710    -6.4110    -1.0770 C.ar  1 <1>  -0.1500 
 24 C       -3.6740    -6.9450    -0.3920 C.ar  1 <1>   0.2180 
 25 C       -1.6660    -7.5850    -1.4540 C.ar  1 <1>   0.2110 
 26 N       -2.9540    -7.8400    -1.1120 N.ar  1 <1>  -0.1790 
 27 C       -5.1100    -7.2950    -0.0360 C.3   1 <1>  -0.0970 
 28 H        1.5270     1.2340    -1.5910 H     1 <1>   0.0800 
 29 H        2.6250     2.5630    -1.2280 H     1 <1>   0.0800 
 30 H        1.0050     3.5420     1.7710 H     1 <1>   0.0800 
 31 H       -0.3910     2.6160     1.2340 H     1 <1>   0.0800 
 32 H        4.3870     1.1760     0.4500 H     1 <1>   0.1500 
 33 H       -0.3150     2.6580    -1.7640 H     1 <1>   0.0800 
 34 H        0.9130     3.7760    -2.3220 H     1 <1>   0.0800 
 35 H        1.0620     4.8090    -0.1710 H     1 <1>   0.0800 
 36 H       -0.6520     4.4530    -0.2220 H     1 <1>   0.0800 
 37 H        5.8020    -0.6070    -0.5510 H     1 <1>   0.1500 
 38 H        4.8330    -2.8100    -0.9520 H     1 <1>   0.1500 
 39 H       -0.0330    -2.9310     2.1010 H     1 <1>   0.0800 
 40 H        1.6220    -3.3460     1.7980 H     1 <1>   0.0800 
 41 H        0.0160    -0.1920    -0.4270 H     1 <1>   0.0800 
 42 H       -0.7910    -0.6800     1.0350 H     1 <1>   0.0800 
 43 H        0.5390    -5.1490     0.8830 H     1 <1>   0.0800 
 44 H        0.8620    -4.1580    -0.5070 H     1 <1>   0.0800 
 45 H       -0.7300    -2.2730    -1.5640 H     1 <1>   0.0800 
 46 H       -2.0000    -1.2050    -1.0690 H     1 <1>   0.0800 
 47 H       -2.9110    -3.1460    -0.3940 H     1 <1>   0.0800 
 48 H       -2.1240    -2.6910     1.0870 H     1 <1>   0.0800 
 49 H       -3.6550    -5.0540     0.5820 H     1 <1>   0.1500 
 50 H       -0.0540    -6.2070    -1.3610 H     1 <1>   0.1500 
 51 H       -1.1250    -8.3190    -2.0290 H     1 <1>   0.1500 
 52 H       -3.3910    -8.7200    -1.4000 H     1 <1>   0.4570 
 53 H       -5.5610    -6.5020     0.5350 H     1 <1>   0.0800 
 54 H       -5.1430    -8.1920     0.5560 H     1 <1>   0.0800 
 55 H       -5.6940    -7.4380    -0.9280 H     1 <1>   0.0800 
@<TRIPOS>BOND
  1   1   2  2   
  2   2   3  am  
  3   2   4  1   
  4   3   5  1   
  5   3   6  1   
  6   4   7  ar  
  7   4   8  ar  
  8   5   9  1   
  9   5  28  1   
 10   5  29  1   
 11   6  10  1   
 12   6  30  1   
 13   6  31  1   
 14   7  11  ar  
 15   7  12  1   
 16   8  13  ar  
 17   8  32  1   
 18   9  10  1   
 19   9  33  1   
 20   9  34  1   
 21  10  35  1   
 22  10  36  1   
 23  11  14  ar  
 24  12  15  1   
 25  12  16  1   
 26  13  14  ar  
 27  13  37  1   
 28  14  38  1   
 29  15  17  1   
 30  15  39  1   
 31  15  40  1   
 32  16  18  1   
 33  16  41  1   
 34  16  42  1   
 35  17  19  1   
 36  17  43  1   
 37  17  44  1   
 38  18  20  1   
 39  18  45  1   
 40  18  46  1   
 41  19  20  1   
 42  19  21  1   
 43  20  47  1   
 44  20  48  1   
 45  21  22  ar  
 46  21  23  ar  
 47  22  24  ar  
 48  22  49  1   
 49  23  25  ar  
 50  23  50  1   
 51  24  26  ar  
 52  24  27  1   
 53  25  26  ar  
 54  25  51  1   
 55  26  52  1   
 56  27  53  1   
 57  27  54  1   
 58  27  55  1   
@<TRIPOS>SUBSTRUCTURE
  1 ****  12 GROUP 4 **** **** 0

# MOE 2024.06 (io_trps.svl 2023.06)
