@<TRIPOS>MOLECULE
NONAME
47 49 1 0 0 
SMALL
USER_CHARGES


@<TRIPOS>ATOM
  1 O        0.1630     0.1250    -0.4860 O.3   1 <1>  -0.5600 
  2 C        1.3330    -0.6490    -0.5790 C.3   1 <1>   0.2000 
  3 C        0.3320     1.4760    -0.7870 C.3   1 <1>   0.1200 
  4 C        2.4990    -0.0470     0.2700 C.3   1 <1>   0.3340 
  5 C        0.9060    -2.0700    -0.1610 C.3   1 <1>   0.1200 
  6 C        1.3300     2.0980     0.1930 C.3   1 <1>   0.1100 
  7 N        2.6400     1.4250     0.0990 N.3   1 <1>  -0.8100 
  8 C        3.8350    -0.6870    -0.1200 C.ar  1 <1>  -0.1440 
  9 O        1.9620    -2.9760    -0.1300 O.3   1 <1>  -0.6800 
 10 C        3.5700     1.9910     1.1060 C.3   1 <1>   0.2900 
 11 C        4.5070    -1.5040     0.7780 C.ar  1 <1>  -0.1500 
 12 C        4.3920    -0.4620    -1.3730 C.ar  1 <1>  -0.1500 
 13 C        3.9130     3.4330     0.7720 C.2   1 <1>   0.0070 
 14 C        5.7090    -2.0990     0.4330 C.ar  1 <1>   0.0830 
 15 C        5.6000    -1.0410    -1.7220 C.ar  1 <1>  -0.1500 
 16 N        3.8340     4.4320     1.5920 N.2   1 <1>  -0.5650 
 17 N        4.3350     3.7790    -0.4610 N.pl3 1 <1>   0.0330 
 18 O        6.2840    -2.9210     1.3430 O.3   1 <1>  -0.3630 
 19 C        6.2730    -1.8490    -0.8220 C.ar  1 <1>   0.0830 
 20 C        4.2300     5.4870     0.8520 C.2   1 <1>   0.0770 
 21 C        4.5400     5.1070    -0.4070 C.2   1 <1>  -0.3020 
 22 C        6.2350    -4.2960     1.0360 C.3   1 <1>   0.0400 
 23 O        7.4630    -2.3660    -1.2170 O.3   1 <1>  -0.3630 
 24 C        8.5990    -1.9910    -0.4700 C.3   1 <1>   0.0400 
 25 H        1.6170    -0.6630    -1.6160 H     1 <1>   0.0800 
 26 H        0.6780     1.5710    -1.8020 H     1 <1>   0.0800 
 27 H       -0.6270     1.9550    -0.6960 H     1 <1>   0.0800 
 28 H        2.2890    -0.2610     1.3040 H     1 <1>   0.0800 
 29 H        0.1750    -2.4450    -0.8550 H     1 <1>   0.0800 
 30 H        0.4750    -2.0480     0.8250 H     1 <1>   0.0800 
 31 H        0.9380     2.0200     1.1930 H     1 <1>   0.0800 
 32 H        1.4400     3.1430    -0.0410 H     1 <1>   0.0800 
 33 H        2.5270    -2.8930    -0.9250 H     1 <1>   0.4000 
 34 H        3.1310     1.9450     2.0880 H     1 <1>   0.0800 
 35 H        4.4890     1.4330     1.1250 H     1 <1>   0.0800 
 36 H        4.0960    -1.7040     1.7520 H     1 <1>   0.1500 
 37 H        3.8840     0.1740    -2.0770 H     1 <1>   0.1500 
 38 H        6.0310    -0.8640    -2.6910 H     1 <1>   0.1500 
 39 H        4.4390     3.1350    -1.2510 H     1 <1>   0.2700 
 40 H        4.2710     6.4780     1.2720 H     1 <1>   0.1500 
 41 H        4.8830     5.6920    -1.2400 H     1 <1>   0.1500 
 42 H        6.6750    -4.8400     1.8520 H     1 <1>   0.0800 
 43 H        6.7890    -4.4770     0.1310 H     1 <1>   0.0800 
 44 H        5.2070    -4.5870     0.9090 H     1 <1>   0.0800 
 45 H        9.4740    -2.3230    -0.9990 H     1 <1>   0.0800 
 46 H        8.5610    -2.4560     0.4980 H     1 <1>   0.0800 
 47 H        8.6130    -0.9200    -0.3700 H     1 <1>   0.0800 
@<TRIPOS>BOND
  1   1   2  1   
  2   1   3  1   
  3   2   4  1   
  4   2   5  1   
  5   2  25  1   
  6   3   6  1   
  7   3  26  1   
  8   3  27  1   
  9   4   7  1   
 10   4   8  1   
 11   4  28  1   
 12   5   9  1   
 13   5  29  1   
 14   5  30  1   
 15   6   7  1   
 16   6  31  1   
 17   6  32  1   
 18   7  10  1   
 19   8  11  ar  
 20   8  12  ar  
 21   9  33  1   
 22  10  13  1   
 23  10  34  1   
 24  10  35  1   
 25  11  14  ar  
 26  11  36  1   
 27  12  15  ar  
 28  12  37  1   
 29  13  16  2   
 30  13  17  1   
 31  14  18  1   
 32  14  19  ar  
 33  15  19  ar  
 34  15  38  1   
 35  16  20  1   
 36  17  21  1   
 37  17  39  1   
 38  18  22  1   
 39  19  23  1   
 40  20  21  2   
 41  20  40  1   
 42  21  41  1   
 43  22  42  1   
 44  22  43  1   
 45  22  44  1   
 46  23  24  1   
 47  24  45  1   
 48  24  46  1   
 49  24  47  1   
@<TRIPOS>SUBSTRUCTURE
  1 ****   8 GROUP 4 **** **** 0

# MOE 2024.06 (io_trps.svl 2023.06)
