@<TRIPOS>MOLECULE
NONAME
54 57 1 0 0 
SMALL
USER_CHARGES


@<TRIPOS>ATOM
  1 O       -0.1830     0.4950    -1.1430 O.2   1 <1>  -0.5700 
  2 C       -0.1650     1.6020    -0.6560 C.2   1 <1>   0.5690 
  3 N       -1.2860     2.1910    -0.1350 N.am  1 <1>  -0.6600 
  4 C        1.1620     2.3620    -0.6600 C.3   1 <1>   0.1810 
  5 C       -1.2400     3.5700     0.4610 C.3   1 <1>   0.3640 
  6 C       -2.5850     1.4660    -0.0220 C.3   1 <1>   0.0600 
  7 O        1.2070     3.4050     0.2830 O.3   1 <1>  -0.5600 
  8 C       -2.4000     4.4020    -0.1100 C.ar  1 <1>  -0.1430 
  9 C        0.1090     4.2940     0.2100 C.3   1 <1>   0.2610 
 10 C       -3.3850     4.9820     0.6920 C.ar  1 <1>  -0.1430 
 11 C       -2.4720     4.5730    -1.4890 C.ar  1 <1>  -0.1500 
 12 C        0.3140     5.4640     1.1790 C.2   1 <1>   0.5690 
 13 C       -4.3930     5.7310     0.1030 C.ar  1 <1>  -0.1500 
 14 C       -3.4120     4.8280     2.2080 C.3   1 <1>  -0.0960 
 15 C       -3.4820     5.3190    -2.0660 C.ar  1 <1>  -0.1500 
 16 O       -0.0990     5.3900     2.3160 O.2   1 <1>  -0.5700 
 17 N        0.9770     6.5730     0.7440 N.am  1 <1>  -0.5100 
 18 C       -4.4440     5.9020    -1.2670 C.ar  1 <1>  -0.1500 
 19 C        2.1180     6.6630    -0.2240 C.3   1 <1>   0.2250 
 20 C        1.6000     7.6430     1.5900 C.3   1 <1>   0.2250 
 21 C        2.9570     7.3170     0.9070 C.3   1 <1>   0.2100 
 22 N        3.7400     8.4990     0.4850 N.3   1 <1>  -0.7500 
 23 C        4.2460     9.2410     1.6580 C.3   1 <1>   0.1100 
 24 C        4.8790     8.1020    -0.3660 C.3   1 <1>   0.1100 
 25 C        5.1290    10.4250     1.2260 C.3   1 <1>   0.1200 
 26 C        5.7440     9.3190    -0.7390 C.3   1 <1>   0.1200 
 27 O        6.1780     9.9820     0.4140 O.3   1 <1>  -0.5600 
 28 H        1.3340     2.7760    -1.6360 H     1 <1>   0.0800 
 29 H        1.9590     1.6800    -0.4270 H     1 <1>   0.0800 
 30 H       -1.3540     3.4510     1.5220 H     1 <1>   0.0800 
 31 H       -2.9500     1.5230     0.9880 H     1 <1>   0.0800 
 32 H       -2.4670     0.4290    -0.2870 H     1 <1>   0.0800 
 33 H       -3.3100     1.9080    -0.6840 H     1 <1>   0.0800 
 34 H        0.1020     4.7010    -0.7840 H     1 <1>   0.0800 
 35 H       -1.7400     4.1150    -2.1310 H     1 <1>   0.1500 
 36 H       -5.1530     6.1890     0.7110 H     1 <1>   0.1500 
 37 H       -4.3380     5.1930     2.6140 H     1 <1>   0.0800 
 38 H       -2.6130     5.3890     2.6540 H     1 <1>   0.0800 
 39 H       -3.3190     3.7940     2.4870 H     1 <1>   0.0800 
 40 H       -3.5200     5.4440    -3.1340 H     1 <1>   0.1500 
 41 H       -5.2330     6.4860    -1.7090 H     1 <1>   0.1500 
 42 H        2.4770     5.6950    -0.5240 H     1 <1>   0.0000 
 43 H        1.8790     7.3250    -1.0380 H     1 <1>   0.0000 
 44 H        1.2000     8.6100     1.3410 H     1 <1>   0.0000 
 45 H        1.5740     7.4030     2.6380 H     1 <1>   0.0000 
 46 H        3.5450     6.6060     1.4610 H     1 <1>   0.0000 
 47 H        3.4180     9.6180     2.2330 H     1 <1>   0.0800 
 48 H        4.8240     8.5860     2.2880 H     1 <1>   0.0800 
 49 H        5.4930     7.3840     0.1510 H     1 <1>   0.0800 
 50 H        4.5130     7.6460    -1.2690 H     1 <1>   0.0800 
 51 H        5.5600    10.9030     2.0870 H     1 <1>   0.0800 
 52 H        4.5500    11.1480     0.6790 H     1 <1>   0.0800 
 53 H        5.1830    10.0110    -1.3440 H     1 <1>   0.0800 
 54 H        6.6150     9.0060    -1.2850 H     1 <1>   0.0800 
@<TRIPOS>BOND
  1   1   2  2   
  2   2   3  am  
  3   2   4  1   
  4   3   5  1   
  5   3   6  1   
  6   4   7  1   
  7   4  28  1   
  8   4  29  1   
  9   5   8  1   
 10   5   9  1   
 11   5  30  1   
 12   6  31  1   
 13   6  32  1   
 14   6  33  1   
 15   7   9  1   
 16   8  10  ar  
 17   8  11  ar  
 18   9  12  1   
 19   9  34  1   
 20  10  13  ar  
 21  10  14  1   
 22  11  15  ar  
 23  11  35  1   
 24  12  16  2   
 25  12  17  am  
 26  13  18  ar  
 27  13  36  1   
 28  14  37  1   
 29  14  38  1   
 30  14  39  1   
 31  15  18  ar  
 32  15  40  1   
 33  17  19  1   
 34  17  20  1   
 35  18  41  1   
 36  19  21  1   
 37  19  42  1   
 38  19  43  1   
 39  20  21  1   
 40  20  44  1   
 41  20  45  1   
 42  21  22  1   
 43  21  46  1   
 44  22  23  1   
 45  22  24  1   
 46  23  25  1   
 47  23  47  1   
 48  23  48  1   
 49  24  26  1   
 50  24  49  1   
 51  24  50  1   
 52  25  27  1   
 53  25  51  1   
 54  25  52  1   
 55  26  27  1   
 56  26  53  1   
 57  26  54  1   
@<TRIPOS>SUBSTRUCTURE
  1 ****  12 GROUP 4 **** **** 0

# MOE 2024.06 (io_trps.svl 2023.06)
