@<TRIPOS>MOLECULE
NONAME
40 42 1 0 0 
SMALL
USER_CHARGES


@<TRIPOS>ATOM
  1 O       -0.7990    -0.7980    -1.2130 O.co2 1 <1>  -0.9000 
  2 C       -0.6200    -1.9840    -1.5260 C.2   1 <1>   1.0330 
  3 O       -1.5770    -2.5990    -2.0410 O.co2 1 <1>  -0.9000 
  4 C        0.6270    -2.6490    -1.2710 C.2   1 <1>  -0.2330 
  5 C        0.8770    -3.9870    -1.5760 C.2   1 <1>   0.3720 
  6 C        1.7850    -2.2490    -0.6740 C.2   1 <1>   0.0870 
  7 N        2.0390    -4.3610    -1.1780 N.2   1 <1>  -0.4100 
  8 N       -0.0230    -4.8200    -2.2210 N.pl3 1 <1>  -0.8520 
  9 O        2.5740    -3.2990    -0.6390 O.3   1 <1>  -0.0190 
 10 C        2.2700    -1.0090    -0.1170 C.ar  1 <1>   0.0530 
 11 C       -0.4810    -6.0060    -1.4510 C.3   1 <1>   0.2090 
 12 C        3.0940    -1.0130     1.0100 C.ar  1 <1>  -0.1500 
 13 C        1.9700     0.2320    -0.6780 C.ar  1 <1>  -0.1500 
 14 C       -1.6960    -5.6790    -0.5640 C.3   1 <1>   0.2000 
 15 C        3.5880     0.1600     1.5510 C.ar  1 <1>  -0.1500 
 16 C        2.4550     1.4110    -0.1430 C.ar  1 <1>  -0.1500 
 17 O       -2.2100    -6.8580    -0.0240 O.3   1 <1>  -0.5600 
 18 C       -1.4030    -4.7950     0.6500 C.3   1 <1>  -0.1600 
 19 C        3.2740     1.3830     0.9820 C.ar  1 <1>   0.0820 
 20 C       -2.9750    -6.5500     1.0910 C.3   1 <1>   0.1200 
 21 C       -2.2470    -5.3960     1.7660 C.3   1 <1>  -0.1600 
 22 O        3.7910     2.4890     1.5690 O.3   1 <1>  -0.3620 
 23 C        3.4590     3.7800     1.1110 C.3   1 <1>   0.0400 
 24 H       -0.8480    -4.2170    -2.4370 H     1 <1>   0.4000 
 25 H       -0.7620    -6.7710    -2.1520 H     1 <1>   0.0800 
 26 H        0.3220    -6.3820    -0.8420 H     1 <1>   0.0800 
 27 H        3.3460    -1.9530     1.4670 H     1 <1>   0.1500 
 28 H        1.3400     0.2690    -1.5490 H     1 <1>   0.1500 
 29 H       -2.4750    -5.2380    -1.1630 H     1 <1>   0.0800 
 30 H        4.2200     0.1360     2.4190 H     1 <1>   0.1500 
 31 H        2.1810     2.3330    -0.6160 H     1 <1>   0.1500 
 32 H       -0.3580    -4.8250     0.9040 H     1 <1>   0.0800 
 33 H       -1.6810    -3.7770     0.4420 H     1 <1>   0.0800 
 34 H       -3.9510    -6.2470     0.7490 H     1 <1>   0.0800 
 35 H       -3.0520    -7.4190     1.7200 H     1 <1>   0.0800 
 36 H       -2.9430    -4.6840     2.1730 H     1 <1>   0.0800 
 37 H       -1.6180    -5.7700     2.5530 H     1 <1>   0.0800 
 38 H        3.9550     4.4960     1.7410 H     1 <1>   0.0800 
 39 H        2.3930     3.9090     1.1770 H     1 <1>   0.0800 
 40 H        3.7980     3.8870     0.0960 H     1 <1>   0.0800 
@<TRIPOS>BOND
  1   1   2  ar  
  2   2   3  ar  
  3   2   4  1   
  4   4   5  1   
  5   4   6  2   
  6   5   7  2   
  7   5   8  1   
  8   6   9  1   
  9   6  10  1   
 10   7   9  1   
 11   8  11  1   
 12   8  24  1   
 13  10  12  ar  
 14  10  13  ar  
 15  11  14  1   
 16  11  25  1   
 17  11  26  1   
 18  12  15  ar  
 19  12  27  1   
 20  13  16  ar  
 21  13  28  1   
 22  14  17  1   
 23  14  18  1   
 24  14  29  1   
 25  15  19  ar  
 26  15  30  1   
 27  16  19  ar  
 28  16  31  1   
 29  17  20  1   
 30  18  21  1   
 31  18  32  1   
 32  18  33  1   
 33  19  22  1   
 34  20  21  1   
 35  20  34  1   
 36  20  35  1   
 37  21  36  1   
 38  21  37  1   
 39  22  23  1   
 40  23  38  1   
 41  23  39  1   
 42  23  40  1   
@<TRIPOS>SUBSTRUCTURE
  1 ****   4 GROUP 4 **** **** 0

# MOE 2024.06 (io_trps.svl 2023.06)
