@<TRIPOS>MOLECULE
NONAME
53 55 1 0 0 
SMALL
USER_CHARGES


@<TRIPOS>ATOM
  1 F       -0.8310    -0.4340    -1.3980 F     1 <1>  -0.1900 
  2 C       -0.6430    -1.6400    -0.9230 C.ar  1 <1>   0.1900 
  3 C        0.6320    -2.0750    -0.6040 C.ar  1 <1>   0.1900 
  4 C       -1.7360    -2.4640    -0.7480 C.ar  1 <1>  -0.1500 
  5 F        1.6670    -1.2860    -0.7740 F     1 <1>  -0.1900 
  6 C        0.8390    -3.3450    -0.1000 C.ar  1 <1>  -0.1500 
  7 C       -1.5490    -3.7470    -0.2440 C.ar  1 <1>   0.1000 
  8 C       -0.2580    -4.1740     0.0780 C.ar  1 <1>  -0.1500 
  9 N       -2.6530    -4.5740    -0.0650 N.pl3 1 <1>  -0.8380 
 10 C       -3.4240    -4.3910     1.1840 C.3   1 <1>   0.2090 
 11 C       -2.5860    -5.9590    -0.5810 C.3   1 <1>   0.2090 
 12 C       -4.8630    -4.8200     0.9100 C.3   1 <1>  -0.1600 
 13 C       -4.0100    -6.4110    -0.8870 C.3   1 <1>  -0.1600 
 14 C       -4.8920    -6.2510     0.3620 C.3   1 <1>   0.4230 
 15 N       -6.3070    -6.6790     0.1250 N.4   1 <1>  -0.9590 
 16 C       -6.3860    -8.1620    -0.0410 C.3   1 <1>   0.3430 
 17 C       -6.9640    -5.9660    -1.0250 C.3   1 <1>   0.2630 
 18 C       -7.8180    -8.6640     0.1340 C.3   1 <1>  -0.1600 
 19 C       -7.8720   -10.1850    -0.0150 C.3   1 <1>   0.3430 
 20 O       -7.2170   -10.5210    -1.1800 O.3   1 <1>  -0.6800 
 21 C       -9.3010   -10.7000    -0.0950 C.ar  1 <1>  -0.1430 
 22 C       -9.8470   -11.3800     0.9860 C.ar  1 <1>  -0.1500 
 23 C      -10.0800   -10.5010    -1.2280 C.ar  1 <1>  -0.1500 
 24 C      -11.1470   -11.8500     0.9360 C.ar  1 <1>  -0.1500 
 25 C      -11.3810   -10.9710    -1.2790 C.ar  1 <1>  -0.1500 
 26 C      -11.9150   -11.6450    -0.1960 C.ar  1 <1>  -0.1500 
 27 H       -2.7210    -2.1220    -1.0010 H     1 <1>   0.1500 
 28 H        1.8330    -3.6720     0.1460 H     1 <1>   0.1500 
 29 H       -0.1130    -5.1620     0.4760 H     1 <1>   0.1500 
 30 H       -3.3950    -3.3560     1.4840 H     1 <1>   0.0800 
 31 H       -2.9860    -4.9850     1.9690 H     1 <1>   0.0800 
 32 H       -2.1290    -6.6010     0.1550 H     1 <1>   0.0800 
 33 H       -1.9870    -5.9840    -1.4770 H     1 <1>   0.0800 
 34 H       -5.2790    -4.1260     0.2030 H     1 <1>   0.0800 
 35 H       -5.4190    -4.7580     1.8270 H     1 <1>   0.0800 
 36 H       -3.9780    -7.4360    -1.2060 H     1 <1>   0.0800 
 37 H       -4.3700    -5.8050    -1.6980 H     1 <1>   0.0800 
 38 H       -4.4740    -6.8850     1.1290 H     1 <1>   0.0800 
 39 H       -6.8310    -6.4410     0.9780 H     1 <1>   0.4500 
 40 H       -5.7590    -8.6450     0.6910 H     1 <1>   0.0800 
 41 H       -6.0270    -8.4410    -1.0200 H     1 <1>   0.0800 
 42 H       -6.4960    -6.2430    -1.9550 H     1 <1>   0.0800 
 43 H       -6.8860    -4.8990    -0.9040 H     1 <1>   0.0800 
 44 H       -8.0090    -6.2230    -1.0810 H     1 <1>   0.0800 
 45 H       -8.4660    -8.2320    -0.6060 H     1 <1>   0.0800 
 46 H       -8.1910    -8.4070     1.1090 H     1 <1>   0.0800 
 47 H       -7.3500   -10.6650     0.7960 H     1 <1>   0.0800 
 48 H       -7.5270   -11.4090    -1.4580 H     1 <1>   0.4000 
 49 H       -9.2680   -11.5520     1.8770 H     1 <1>   0.1500 
 50 H       -9.6800    -9.9810    -2.0810 H     1 <1>   0.1500 
 51 H      -11.5640   -12.3760     1.7770 H     1 <1>   0.1500 
 52 H      -11.9780   -10.8140    -2.1600 H     1 <1>   0.1500 
 53 H      -12.9270   -12.0110    -0.2350 H     1 <1>   0.1500 
@<TRIPOS>BOND
  1   1   2  1   
  2   2   3  ar  
  3   2   4  ar  
  4   3   5  1   
  5   3   6  ar  
  6   4   7  ar  
  7   4  27  1   
  8   6   8  ar  
  9   6  28  1   
 10   7   8  ar  
 11   7   9  1   
 12   8  29  1   
 13   9  10  1   
 14   9  11  1   
 15  10  12  1   
 16  10  30  1   
 17  10  31  1   
 18  11  13  1   
 19  11  32  1   
 20  11  33  1   
 21  12  14  1   
 22  12  34  1   
 23  12  35  1   
 24  13  14  1   
 25  13  36  1   
 26  13  37  1   
 27  14  15  1   
 28  14  38  1   
 29  15  16  1   
 30  15  17  1   
 31  15  39  1   
 32  16  18  1   
 33  16  40  1   
 34  16  41  1   
 35  17  42  1   
 36  17  43  1   
 37  17  44  1   
 38  18  19  1   
 39  18  45  1   
 40  18  46  1   
 41  19  20  1   
 42  19  21  1   
 43  19  47  1   
 44  20  48  1   
 45  21  22  ar  
 46  21  23  ar  
 47  22  24  ar  
 48  22  49  1   
 49  23  25  ar  
 50  23  50  1   
 51  24  26  ar  
 52  24  51  1   
 53  25  26  ar  
 54  25  52  1   
 55  26  53  1   
@<TRIPOS>SUBSTRUCTURE
  1 ****  14 GROUP 4 **** **** 0

# MOE 2024.06 (io_trps.svl 2023.06)
