@<TRIPOS>MOLECULE
NONAME
53 56 1 0 0 
SMALL
USER_CHARGES


@<TRIPOS>ATOM
  1 O       -0.1690     0.5740     0.5860 O.2   1 <1>  -0.5700 
  2 C       -0.1710     1.7820     0.6510 C.2   1 <1>   0.5690 
  3 N       -1.3180     2.5300     0.5650 N.am  1 <1>  -0.5090 
  4 C        1.1850     2.4810     0.7940 C.3   1 <1>   0.1810 
  5 C       -1.2650     4.0260     0.5190 C.3   1 <1>   0.3640 
  6 C       -2.6710     1.9180     0.5780 C.3   1 <1>   0.0490 
  7 O        1.0830     3.8450     1.1240 O.3   1 <1>  -0.5600 
  8 C       -2.1490     4.5720    -0.6000 C.ar  1 <1>  -0.1440 
  9 C        0.1690     4.5610     0.3210 C.3   1 <1>   0.2610 
 10 C       -3.6470     2.3380     1.6350 C.3   1 <1>  -0.2000 
 11 C       -3.0380     0.9740     1.6800 C.3   1 <1>  -0.2000 
 12 C       -2.1140     4.0250    -1.8760 C.ar  1 <1>   0.1600 
 13 C       -2.9870     5.6440    -0.3640 C.ar  1 <1>  -0.1500 
 14 C        0.2160     6.0700     0.6190 C.2   1 <1>   0.5690 
 15 N       -2.8180     4.4590    -2.9080 N.ar  1 <1>  -0.6200 
 16 C       -3.7370     6.1020    -1.4260 C.ar  1 <1>  -0.1500 
 17 O       -0.3590     6.4620     1.6120 O.2   1 <1>  -0.5700 
 18 N        0.8560     6.9570    -0.2190 N.am  1 <1>  -0.6600 
 19 C       -3.6160     5.4840    -2.6580 C.ar  1 <1>   0.1600 
 20 C        0.9330     8.4060     0.1400 C.3   1 <1>   0.2840 
 21 C        1.4970     6.6030    -1.5160 C.3   1 <1>   0.1400 
 22 C        2.3620     8.7890     0.4920 C.ar  1 <1>  -0.1440 
 23 C        2.8640     5.9590    -1.2840 C.3   1 <1>  -0.2400 
 24 C        3.0920     9.6440    -0.3210 C.ar  1 <1>  -0.1500 
 25 C        2.9480     8.2760     1.6390 C.ar  1 <1>  -0.1500 
 26 C        4.3940     9.9780     0.0090 C.ar  1 <1>  -0.1500 
 27 C        4.2490     8.6100     1.9700 C.ar  1 <1>  -0.1500 
 28 C        4.9730     9.4610     1.1550 C.ar  1 <1>  -0.1500 
 29 H        1.7310     2.3940    -0.1270 H     1 <1>   0.0800 
 30 H        1.7480     2.0000     1.5730 H     1 <1>   0.0800 
 31 H       -1.6350     4.3870     1.4630 H     1 <1>   0.0800 
 32 H       -3.0410     1.7030    -0.4110 H     1 <1>   0.1000 
 33 H        0.4490     4.3920    -0.6990 H     1 <1>   0.0800 
 34 H       -3.3550     3.0390     2.3950 H     1 <1>   0.1000 
 35 H       -4.6870     2.4200     1.3720 H     1 <1>   0.1000 
 36 H       -3.6530     0.1250     1.4410 H     1 <1>   0.1000 
 37 H       -2.2990     0.7500     2.4300 H     1 <1>   0.1000 
 38 H       -1.4710     3.1810    -2.0640 H     1 <1>   0.1500 
 39 H       -3.0530     6.1120     0.6050 H     1 <1>   0.1500 
 40 H       -4.4090     6.9320    -1.3020 H     1 <1>   0.1500 
 41 H       -4.2070     5.8510    -3.4810 H     1 <1>   0.1500 
 42 H        0.5820     8.9960    -0.6880 H     1 <1>   0.0800 
 43 H        0.2990     8.6300     0.9800 H     1 <1>   0.0800 
 44 H        0.8580     5.9390    -2.0720 H     1 <1>   0.0800 
 45 H        1.6230     7.4920    -2.1120 H     1 <1>   0.0800 
 46 H        2.7830     5.0750    -0.6820 H     1 <1>   0.0800 
 47 H        3.5260     6.6520    -0.7970 H     1 <1>   0.0800 
 48 H        3.3000     5.6900    -2.2280 H     1 <1>   0.0800 
 49 H        2.6540    10.0520    -1.2140 H     1 <1>   0.1500 
 50 H        2.3870     7.6090     2.2730 H     1 <1>   0.1500 
 51 H        4.9580    10.6410    -0.6240 H     1 <1>   0.1500 
 52 H        4.6960     8.2060     2.8620 H     1 <1>   0.1500 
 53 H        5.9850     9.7210     1.4120 H     1 <1>   0.1500 
@<TRIPOS>BOND
  1   1   2  2   
  2   2   3  am  
  3   2   4  1   
  4   3   5  1   
  5   3   6  1   
  6   4   7  1   
  7   4  29  1   
  8   4  30  1   
  9   5   8  1   
 10   5   9  1   
 11   5  31  1   
 12   6  10  1   
 13   6  11  1   
 14   6  32  1   
 15   7   9  1   
 16   8  12  ar  
 17   8  13  ar  
 18   9  14  1   
 19   9  33  1   
 20  10  11  1   
 21  10  34  1   
 22  10  35  1   
 23  11  36  1   
 24  11  37  1   
 25  12  15  ar  
 26  12  38  1   
 27  13  16  ar  
 28  13  39  1   
 29  14  17  2   
 30  14  18  am  
 31  15  19  ar  
 32  16  19  ar  
 33  16  40  1   
 34  18  20  1   
 35  18  21  1   
 36  19  41  1   
 37  20  22  1   
 38  20  42  1   
 39  20  43  1   
 40  21  23  1   
 41  21  44  1   
 42  21  45  1   
 43  22  24  ar  
 44  22  25  ar  
 45  23  46  1   
 46  23  47  1   
 47  23  48  1   
 48  24  26  ar  
 49  24  49  1   
 50  25  27  ar  
 51  25  50  1   
 52  26  28  ar  
 53  26  51  1   
 54  27  28  ar  
 55  27  52  1   
 56  28  53  1   
@<TRIPOS>SUBSTRUCTURE
  1 ****   9 GROUP 4 **** **** 0

# MOE 2024.06 (io_trps.svl 2023.06)
