@<TRIPOS>MOLECULE
NONAME
34 35 1 0 0 
SMALL
USER_CHARGES


@<TRIPOS>ATOM
  1 O        1.0440    -0.2250    -1.2190 O.3   1 <1>  -0.0190 
  2 N        0.7960    -1.3200    -1.8710 N.2   1 <1>  -0.4100 
  3 C        1.3390    -0.6350    -0.0090 C.2   1 <1>   0.2980 
  4 C        0.9400    -2.2880    -1.0530 C.2   1 <1>   0.3350 
  5 N        1.3080    -1.8980     0.1630 N.2   1 <1>  -0.5650 
  6 C        1.7080     0.3970     1.0450 C.3   1 <1>   0.3000 
  7 C        0.7340    -3.7620    -1.4140 C.3   1 <1>   0.2910 
  8 O        0.6960     1.3560     1.1840 O.3   1 <1>  -0.5600 
  9 N       -0.5330    -4.3540    -0.9060 N.3   1 <1>  -0.8100 
 10 C        0.9460     2.3130     2.1610 C.3   1 <1>   0.0400 
 11 C       -0.6200    -5.7850    -1.2530 C.3   1 <1>   0.2900 
 12 C       -1.7060    -3.6090    -1.3960 C.3   1 <1>   0.0300 
 13 C       -1.6350    -6.5110    -0.3880 C.2   1 <1>  -0.0400 
 14 O       -2.0130    -7.7170    -0.7190 O.3   1 <1>  -0.0190 
 15 C       -2.2810    -6.1720     0.7380 C.2   1 <1>  -0.1500 
 16 N       -2.8820    -8.2010     0.1220 N.2   1 <1>  -0.4100 
 17 C       -3.0610    -7.2910     1.0120 C.2   1 <1>   0.1080 
 18 C       -3.9940    -7.4270     2.1940 C.3   1 <1>  -0.0590 
 19 H        2.6150     0.8970     0.7560 H     1 <1>   0.0800 
 20 H        1.8490    -0.0940     1.9920 H     1 <1>   0.0800 
 21 H        1.5650    -4.3120    -1.0080 H     1 <1>   0.0800 
 22 H        0.7660    -3.8540    -2.4850 H     1 <1>   0.0800 
 23 H        0.1140     2.9950     2.1800 H     1 <1>   0.0800 
 24 H        1.8470     2.8490     1.9150 H     1 <1>   0.0800 
 25 H        1.0390     1.8300     3.1190 H     1 <1>   0.0800 
 26 H        0.3350    -6.2580    -1.0980 H     1 <1>   0.0800 
 27 H       -0.8870    -5.8950    -2.2900 H     1 <1>   0.0800 
 28 H       -1.6850    -2.5980    -1.0250 H     1 <1>   0.0800 
 29 H       -2.6160    -4.0670    -1.0480 H     1 <1>   0.0800 
 30 H       -1.7190    -3.5840    -2.4730 H     1 <1>   0.0800 
 31 H       -2.2190    -5.2620     1.3050 H     1 <1>   0.1500 
 32 H       -4.7350    -6.6490     2.1640 H     1 <1>   0.0800 
 33 H       -3.4360    -7.3500     3.1090 H     1 <1>   0.0800 
 34 H       -4.4880    -8.3810     2.1660 H     1 <1>   0.0800 
@<TRIPOS>BOND
  1   1   2  1   
  2   1   3  1   
  3   2   4  2   
  4   3   5  2   
  5   3   6  1   
  6   4   5  1   
  7   4   7  1   
  8   6   8  1   
  9   6  19  1   
 10   6  20  1   
 11   7   9  1   
 12   7  21  1   
 13   7  22  1   
 14   8  10  1   
 15   9  11  1   
 16   9  12  1   
 17  10  23  1   
 18  10  24  1   
 19  10  25  1   
 20  11  13  1   
 21  11  26  1   
 22  11  27  1   
 23  12  28  1   
 24  12  29  1   
 25  12  30  1   
 26  13  14  1   
 27  13  15  2   
 28  14  16  1   
 29  15  17  1   
 30  15  31  1   
 31  16  17  2   
 32  17  18  1   
 33  18  32  1   
 34  18  33  1   
 35  18  34  1   
@<TRIPOS>SUBSTRUCTURE
  1 ****   9 GROUP 4 **** **** 0

# MOE 2024.06 (io_trps.svl 2023.06)
