@<TRIPOS>MOLECULE
NONAME
52 55 1 0 0 
SMALL
USER_CHARGES


@<TRIPOS>ATOM
  1 O       -1.5410     0.2420    -1.0470 O.2   1 <1>  -0.5700 
  2 C       -2.4380     0.5290    -0.2930 C.2   1 <1>   0.6300 
  3 N       -2.8690    -0.3510     0.6740 N.am  1 <1>  -0.6600 
  4 C       -3.1010     1.8950    -0.4510 C.3   1 <1>  -0.1000 
  5 C       -4.0630    -0.1480     1.5290 C.3   1 <1>   0.1400 
  6 C       -2.1810    -1.6500     0.8790 C.3   1 <1>   0.1400 
  7 C       -4.4540     2.0380    -1.0920 C.3   1 <1>  -0.2000 
  8 C       -3.2380     2.5440    -1.8000 C.3   1 <1>  -0.2000 
  9 C       -5.0840    -1.2330     1.1750 C.3   1 <1>  -0.1600 
 10 C       -3.1560    -2.7620     0.4970 C.3   1 <1>  -0.1600 
 11 C       -4.4570    -2.6290     1.2980 C.3   1 <1>   0.4230 
 12 N       -5.4500    -3.6650     0.9110 N.4   1 <1>  -0.9060 
 13 C       -5.8610    -3.7380    -0.5240 C.3   1 <1>   0.4230 
 14 C       -7.2880    -4.2760    -0.6430 C.3   1 <1>  -0.0800 
 15 C       -5.1100    -4.8980    -1.1710 C.3   1 <1>   0.1200 
 16 C       -7.0960    -5.8000    -0.5590 C.3   1 <1>   0.1200 
 17 C       -8.3430    -3.7160     0.3320 C.3   1 <1>  -0.0170 
 18 O       -5.7140    -6.0070    -0.5920 O.3   1 <1>  -0.5600 
 19 C       -9.7160    -4.2750     0.0030 C.ar  1 <1>  -0.1440 
 20 C      -10.4840    -3.7590    -1.0230 C.ar  1 <1>  -0.1500 
 21 C      -10.2700    -5.3270     0.7080 C.ar  1 <1>  -0.1500 
 22 C      -11.7270    -4.3080    -1.2920 C.ar  1 <1>   0.1600 
 23 C      -11.5230    -5.8020     0.3570 C.ar  1 <1>   0.1600 
 24 N      -12.2610    -5.3190    -0.6280 N.ar  1 <1>  -0.6200 
 25 H       -2.8470     2.5490     0.3630 H     1 <1>   0.1000 
 26 H       -3.7720    -0.2240     2.5640 H     1 <1>   0.0800 
 27 H       -4.4940     0.8270     1.3810 H     1 <1>   0.0800 
 28 H       -1.2910    -1.7170     0.2740 H     1 <1>   0.0800 
 29 H       -1.8820    -1.7370     1.9110 H     1 <1>   0.0800 
 30 H       -4.9430     1.1720    -1.5010 H     1 <1>   0.1000 
 31 H       -5.1480     2.7580    -0.6940 H     1 <1>   0.1000 
 32 H       -3.0780     3.6050    -1.8760 H     1 <1>   0.1000 
 33 H       -2.8700     2.0110    -2.6610 H     1 <1>   0.1000 
 34 H       -5.4210    -1.0480     0.1710 H     1 <1>   0.0800 
 35 H       -5.9220    -1.1430     1.8420 H     1 <1>   0.0800 
 36 H       -2.6890    -3.7100     0.6990 H     1 <1>   0.0800 
 37 H       -3.3320    -2.6760    -0.5590 H     1 <1>   0.0800 
 38 H       -4.2050    -2.7740     2.3380 H     1 <1>   0.0800 
 39 H       -6.2840    -3.5560     1.4910 H     1 <1>   0.4500 
 40 H       -5.0860    -4.6080     1.1250 H     1 <1>   0.4500 
 41 H       -5.7210    -2.8010    -1.0380 H     1 <1>   0.0800 
 42 H       -7.6280    -4.0620    -1.6420 H     1 <1>   0.0800 
 43 H       -4.0550    -4.9130    -0.9680 H     1 <1>   0.0800 
 44 H       -5.2760    -4.9350    -2.2350 H     1 <1>   0.0800 
 45 H       -7.5440    -6.3050    -1.4000 H     1 <1>   0.0800 
 46 H       -7.4750    -6.2220     0.3560 H     1 <1>   0.0800 
 47 H       -8.3810    -2.6430     0.2550 H     1 <1>   0.0800 
 48 H       -8.1080    -3.9690     1.3510 H     1 <1>   0.0800 
 49 H      -10.1380    -2.9350    -1.6190 H     1 <1>   0.1500 
 50 H       -9.7510    -5.7880     1.5270 H     1 <1>   0.1500 
 51 H      -12.3140    -3.8950    -2.0950 H     1 <1>   0.1500 
 52 H      -11.9420    -6.6220     0.9150 H     1 <1>   0.1500 
@<TRIPOS>BOND
  1   1   2  2   
  2   2   3  am  
  3   2   4  1   
  4   3   5  1   
  5   3   6  1   
  6   4   7  1   
  7   4   8  1   
  8   4  25  1   
  9   5   9  1   
 10   5  26  1   
 11   5  27  1   
 12   6  10  1   
 13   6  28  1   
 14   6  29  1   
 15   7   8  1   
 16   7  30  1   
 17   7  31  1   
 18   8  32  1   
 19   8  33  1   
 20   9  11  1   
 21   9  34  1   
 22   9  35  1   
 23  10  11  1   
 24  10  36  1   
 25  10  37  1   
 26  11  12  1   
 27  11  38  1   
 28  12  13  1   
 29  12  39  1   
 30  12  40  1   
 31  13  14  1   
 32  13  15  1   
 33  13  41  1   
 34  14  16  1   
 35  14  17  1   
 36  14  42  1   
 37  15  18  1   
 38  15  43  1   
 39  15  44  1   
 40  16  18  1   
 41  16  45  1   
 42  16  46  1   
 43  17  19  1   
 44  17  47  1   
 45  17  48  1   
 46  19  20  ar  
 47  19  21  ar  
 48  20  22  ar  
 49  20  49  1   
 50  21  23  ar  
 51  21  50  1   
 52  22  24  ar  
 53  22  51  1   
 54  23  24  ar  
 55  23  52  1   
@<TRIPOS>SUBSTRUCTURE
  1 ****  13 GROUP 4 **** **** 0

# MOE 2024.06 (io_trps.svl 2023.06)
