@<TRIPOS>MOLECULE
NONAME
53 55 1 0 0 
SMALL
USER_CHARGES


@<TRIPOS>ATOM
  1 O       -3.2150     1.1570    -1.5350 O.2   1 <1>  -0.5700 
  2 C       -2.5510     1.0880    -0.5300 C.2   1 <1>   0.5690 
  3 N       -2.1930    -0.1020     0.0070 N.am  1 <1>  -0.7300 
  4 C       -2.1130     2.3610     0.1660 C.3   1 <1>  -0.0990 
  5 C       -2.5610    -1.4150    -0.5640 C.3   1 <1>   0.2200 
  6 C       -0.6270     2.6700    -0.0770 C.3   1 <1>  -0.1600 
  7 C       -3.8330    -1.9070     0.1030 C.3   1 <1>  -0.0800 
  8 C       -1.5520    -2.4760    -0.1370 C.3   1 <1>   0.1200 
  9 C       -0.2050     3.9660     0.6330 C.3   1 <1>  -0.1600 
 10 C       -3.2950    -2.5780     1.3700 C.3   1 <1>   0.1200 
 11 C       -4.6000    -2.8900    -0.8020 C.3   1 <1>  -0.0170 
 12 O       -1.9640    -2.9280     1.1190 O.3   1 <1>  -0.5600 
 13 C        1.3020     4.2610     0.5190 C.3   1 <1>  -0.0800 
 14 C       -5.9350    -3.2950    -0.1840 C.ar  1 <1>  -0.1440 
 15 C        1.6580     5.4720     1.3880 C.3   1 <1>  -0.2400 
 16 C        1.7330     4.5320    -0.9300 C.3   1 <1>  -0.2400 
 17 C       -7.0550    -2.4300    -0.1720 C.ar  1 <1>   0.0000 
 18 C       -6.0820    -4.5270     0.3830 C.ar  1 <1>  -0.1500 
 19 C       -8.2410    -2.9010     0.4440 C.ar  1 <1>   0.3100 
 20 C       -7.0720    -1.1320    -0.7360 C.ar  1 <1>  -0.1500 
 21 C       -7.3020    -4.8950     0.9620 C.ar  1 <1>   0.1600 
 22 N       -8.3470    -4.1320     1.0050 N.ar  1 <1>  -0.6200 
 23 C       -9.3660    -2.0620     0.4810 C.ar  1 <1>  -0.1500 
 24 C       -8.1870    -0.3410    -0.6840 C.ar  1 <1>  -0.1500 
 25 C       -9.3500    -0.8080    -0.0670 C.ar  1 <1>  -0.1500 
 26 H       -1.6820    -0.1440     0.8910 H     1 <1>   0.3700 
 27 H       -2.7140     3.1730    -0.2040 H     1 <1>   0.0800 
 28 H       -2.3040     2.2620     1.2180 H     1 <1>   0.0800 
 29 H       -2.6450    -1.3400    -1.6360 H     1 <1>   0.0800 
 30 H       -0.0260     1.8520     0.2810 H     1 <1>   0.0800 
 31 H       -0.4680     2.7620    -1.1380 H     1 <1>   0.0800 
 32 H       -4.4780    -1.0840     0.3560 H     1 <1>   0.0800 
 33 H       -0.5490    -2.0940    -0.0750 H     1 <1>   0.0800 
 34 H       -1.5800    -3.3160    -0.8090 H     1 <1>   0.0800 
 35 H       -0.4580     3.8820     1.6760 H     1 <1>   0.0800 
 36 H       -0.7630     4.7940     0.2290 H     1 <1>   0.0800 
 37 H       -3.8450    -3.4600     1.6480 H     1 <1>   0.0800 
 38 H       -3.2970    -1.8840     2.1940 H     1 <1>   0.0800 
 39 H       -4.0010    -3.7680    -0.9750 H     1 <1>   0.0800 
 40 H       -4.7810    -2.4420    -1.7640 H     1 <1>   0.0800 
 41 H        1.8530     3.4110     0.8880 H     1 <1>   0.0800 
 42 H        1.1310     6.3480     1.0530 H     1 <1>   0.0800 
 43 H        2.7150     5.6690     1.3410 H     1 <1>   0.0800 
 44 H        1.3980     5.2870     2.4150 H     1 <1>   0.0800 
 45 H        1.1580     5.3380    -1.3520 H     1 <1>   0.0800 
 46 H        1.6000     3.6570    -1.5400 H     1 <1>   0.0800 
 47 H        2.7740     4.8010    -0.9650 H     1 <1>   0.0800 
 48 H       -5.2760    -5.2380     0.4060 H     1 <1>   0.1500 
 49 H       -6.1920    -0.7500    -1.2190 H     1 <1>   0.1500 
 50 H       -7.3750    -5.8760     1.4000 H     1 <1>   0.1500 
 51 H      -10.2500    -2.4440     0.9590 H     1 <1>   0.1500 
 52 H       -8.1830     0.6450    -1.1160 H     1 <1>   0.1500 
 53 H      -10.2210    -0.1760    -0.0320 H     1 <1>   0.1500 
@<TRIPOS>BOND
  1   1   2  2   
  2   2   3  am  
  3   2   4  1   
  4   3   5  1   
  5   3  26  1   
  6   4   6  1   
  7   4  27  1   
  8   4  28  1   
  9   5   7  1   
 10   5   8  1   
 11   5  29  1   
 12   6   9  1   
 13   6  30  1   
 14   6  31  1   
 15   7  10  1   
 16   7  11  1   
 17   7  32  1   
 18   8  12  1   
 19   8  33  1   
 20   8  34  1   
 21   9  13  1   
 22   9  35  1   
 23   9  36  1   
 24  10  12  1   
 25  10  37  1   
 26  10  38  1   
 27  11  14  1   
 28  11  39  1   
 29  11  40  1   
 30  13  15  1   
 31  13  16  1   
 32  13  41  1   
 33  14  17  ar  
 34  14  18  ar  
 35  15  42  1   
 36  15  43  1   
 37  15  44  1   
 38  16  45  1   
 39  16  46  1   
 40  16  47  1   
 41  17  19  ar  
 42  17  20  ar  
 43  18  21  ar  
 44  18  48  1   
 45  19  22  ar  
 46  19  23  ar  
 47  20  24  ar  
 48  20  49  1   
 49  21  22  ar  
 50  21  50  1   
 51  23  25  ar  
 52  23  51  1   
 53  24  25  ar  
 54  24  52  1   
 55  25  53  1   
@<TRIPOS>SUBSTRUCTURE
  1 ****   7 GROUP 4 **** **** 0

# MOE 2024.06 (io_trps.svl 2023.06)
