@<TRIPOS>MOLECULE
NONAME
44 47 1 0 0 
SMALL
USER_CHARGES


@<TRIPOS>ATOM
  1 O        1.5120    -0.4890     1.6700 O.co2 1 <1>  -0.9000 
  2 C        1.4080     0.3450     0.7540 C.2   1 <1>   0.9060 
  3 O        0.5080     1.1830     0.7470 O.co2 1 <1>  -0.9000 
  4 C        2.4360     0.3220    -0.3940 C.3   1 <1>  -0.1060 
  5 C        3.7940    -0.1520     0.1690 C.3   1 <1>   0.4230 
  6 C        2.6290     1.7460    -0.9910 C.3   1 <1>  -0.1600 
  7 C        1.9790    -0.6330    -1.5230 C.3   1 <1>  -0.1600 
  8 N        3.6890    -1.5720     0.6580 N.4   1 <1>  -0.9590 
  9 C        4.3120     0.8620     1.2200 C.3   1 <1>   0.2090 
 10 C        3.1940     2.7400     0.0340 C.3   1 <1>   0.2090 
 11 C        1.9820    -2.0970    -1.0570 C.3   1 <1>  -0.1600 
 12 C        3.3190    -2.5060    -0.4340 C.3   1 <1>   0.3430 
 13 C        4.8510    -2.0500     1.4510 C.3   1 <1>   0.2630 
 14 N        4.4730     2.1990     0.5770 N.pl3 1 <1>  -0.8380 
 15 C        5.6660     2.5360    -0.0300 C.ar  1 <1>   0.4100 
 16 N        6.4060     1.5600    -0.5130 N.ar  1 <1>  -0.6200 
 17 C        6.0780     3.8730    -0.1450 C.ar  1 <1>   0.0000 
 18 C        7.5410     1.9290    -1.1270 C.ar  1 <1>   0.4700 
 19 C        7.2650     4.1040    -0.8030 C.ar  1 <1>   0.1050 
 20 C        5.6000     5.1420     0.2590 C.2   1 <1>  -0.1500 
 21 N        8.0230     3.1320    -1.3130 N.ar  1 <1>  -0.5670 
 22 N        7.5130     5.4420    -0.8260 N.pl3 1 <1>   0.0330 
 23 C        6.4880     6.0720    -0.1710 C.2   1 <1>  -0.3020 
 24 H        4.5060    -0.1340    -0.6380 H     1 <1>   0.0800 
 25 H        1.6830     2.1210    -1.3430 H     1 <1>   0.0800 
 26 H        3.2970     1.7130    -1.8330 H     1 <1>   0.0800 
 27 H        0.9860    -0.3590    -1.8400 H     1 <1>   0.0800 
 28 H        2.6350    -0.5330    -2.3700 H     1 <1>   0.0800 
 29 H        2.8420    -1.4960     1.2840 H     1 <1>   0.4500 
 30 H        5.2670     0.5530     1.6030 H     1 <1>   0.0800 
 31 H        3.6260     0.9460     2.0450 H     1 <1>   0.0800 
 32 H        2.4930     2.8890     0.8400 H     1 <1>   0.0800 
 33 H        3.3590     3.6900    -0.4430 H     1 <1>   0.0800 
 34 H        1.7710    -2.7380    -1.8950 H     1 <1>   0.0800 
 35 H        1.1980    -2.2500    -0.3350 H     1 <1>   0.0800 
 36 H        4.0860    -2.4960    -1.1910 H     1 <1>   0.0800 
 37 H        3.2330    -3.5070    -0.0440 H     1 <1>   0.0800 
 38 H        5.7490    -2.0130     0.8570 H     1 <1>   0.0800 
 39 H        4.6840    -3.0640     1.7760 H     1 <1>   0.0800 
 40 H        4.9820    -1.4330     2.3250 H     1 <1>   0.0800 
 41 H        8.1310     1.1180    -1.5200 H     1 <1>   0.1500 
 42 H        4.6890     5.2890     0.8140 H     1 <1>   0.1500 
 43 H        8.3400     5.8640    -1.2580 H     1 <1>   0.2700 
 44 H        6.4580     7.1420    -0.0490 H     1 <1>   0.1500 
@<TRIPOS>BOND
  1   1   2  ar  
  2   2   3  ar  
  3   2   4  1   
  4   4   5  1   
  5   4   6  1   
  6   4   7  1   
  7   5   8  1   
  8   5   9  1   
  9   5  24  1   
 10   6  10  1   
 11   6  25  1   
 12   6  26  1   
 13   7  11  1   
 14   7  27  1   
 15   7  28  1   
 16   8  12  1   
 17   8  13  1   
 18   8  29  1   
 19   9  14  1   
 20   9  30  1   
 21   9  31  1   
 22  10  14  1   
 23  10  32  1   
 24  10  33  1   
 25  11  12  1   
 26  11  34  1   
 27  11  35  1   
 28  12  36  1   
 29  12  37  1   
 30  13  38  1   
 31  13  39  1   
 32  13  40  1   
 33  14  15  1   
 34  15  16  ar  
 35  15  17  ar  
 36  16  18  ar  
 37  17  19  ar  
 38  17  20  1   
 39  18  21  ar  
 40  18  41  1   
 41  19  21  ar  
 42  19  22  1   
 43  20  23  2   
 44  20  42  1   
 45  22  23  1   
 46  22  43  1   
 47  23  44  1   
@<TRIPOS>SUBSTRUCTURE
  1 ****  14 GROUP 4 **** **** 0

# MOE 2024.06 (io_trps.svl 2023.06)
