@<TRIPOS>MOLECULE
NONAME
45 47 1 0 0 
SMALL
USER_CHARGES


@<TRIPOS>ATOM
  1 S        0.8650     0.6870    -1.7630 S.o2  1 <1>   1.3330 
  2 O        1.1100    -0.6310    -2.3050 O.2   1 <1>  -0.6500 
  3 O        0.2520     1.6990    -2.5930 O.2   1 <1>  -0.6500 
  4 N       -0.1140     0.5080    -0.3850 N.am  1 <1>  -0.8490 
  5 C        2.4140     1.3140    -1.1100 C.3   1 <1>  -0.0550 
  6 C       -0.7360     1.7640     0.0510 C.3   1 <1>   0.1160 
  7 C       -1.1480    -0.5150    -0.5730 C.3   1 <1>   0.1160 
  8 C        3.2030     0.2950    -0.2590 C.3   1 <1>  -0.0800 
  9 C        4.5980     0.7450     0.1470 C.3   1 <1>   0.2200 
 10 C        2.5600    -0.0730     1.0840 C.3   1 <1>   0.1200 
 11 N        4.5880     2.1580     0.5950 N.am  1 <1>  -0.7300 
 12 C        4.8330    -0.1460     1.3590 C.3   1 <1>   0.1200 
 13 O        3.6020    -0.1880     2.0130 O.3   1 <1>  -0.5600 
 14 C        4.9840     3.2350    -0.1460 C.2   1 <1>   0.5440 
 15 O        5.2950     3.0300    -1.3060 O.2   1 <1>  -0.5700 
 16 C        4.9950     4.5740     0.4230 C.ar  1 <1>   0.0860 
 17 C        5.1180     5.7150    -0.3970 C.ar  1 <1>  -0.1520 
 18 C        4.8780     4.8180     1.7870 C.ar  1 <1>  -0.1500 
 19 N        5.2690     5.7990    -1.7560 N.pl3 1 <1>   0.0330 
 20 C        5.1020     7.0080     0.1160 C.ar  1 <1>   0.0000 
 21 C        4.8640     6.1120     2.3150 C.ar  1 <1>  -0.1500 
 22 C        5.3410     7.1190    -2.1020 C.2   1 <1>  -0.3020 
 23 C        4.9720     7.2060     1.4900 C.ar  1 <1>  -0.1500 
 24 C        5.2400     7.8790    -0.9870 C.2   1 <1>  -0.1500 
 25 H        3.0340     1.5990    -1.9400 H     1 <1>   0.0800 
 26 H        2.2250     2.2000    -0.5380 H     1 <1>   0.0800 
 27 H       -1.2710     1.6110     0.9720 H     1 <1>   0.0800 
 28 H       -1.4230     2.1240    -0.6980 H     1 <1>   0.0800 
 29 H        0.0170     2.5150     0.2170 H     1 <1>   0.0800 
 30 H       -1.7440    -0.6130     0.3180 H     1 <1>   0.0800 
 31 H       -0.6910    -1.4690    -0.7770 H     1 <1>   0.0800 
 32 H       -1.7860    -0.2540    -1.4010 H     1 <1>   0.0800 
 33 H        3.3060    -0.6130    -0.8290 H     1 <1>   0.0800 
 34 H        5.3330     0.5920    -0.6260 H     1 <1>   0.0800 
 35 H        2.0320    -1.0100     1.0310 H     1 <1>   0.0800 
 36 H        1.8970     0.6970     1.4370 H     1 <1>   0.0800 
 37 H        4.2220     2.2820     1.5410 H     1 <1>   0.3700 
 38 H        5.5880     0.2380     2.0220 H     1 <1>   0.0800 
 39 H        5.0830    -1.1480     1.0560 H     1 <1>   0.0800 
 40 H        4.7990     3.9990     2.4780 H     1 <1>   0.1500 
 41 H        5.3380     4.9730    -2.3680 H     1 <1>   0.2700 
 42 H        4.7690     6.2480     3.3790 H     1 <1>   0.1500 
 43 H        5.4610     7.4340    -3.1240 H     1 <1>   0.1500 
 44 H        4.9620     8.2080     1.8790 H     1 <1>   0.1500 
 45 H        5.2590     8.9520    -0.9090 H     1 <1>   0.1500 
@<TRIPOS>BOND
  1   1   2  2   
  2   1   3  2   
  3   1   4  am  
  4   1   5  1   
  5   4   6  1   
  6   4   7  1   
  7   5   8  1   
  8   5  25  1   
  9   5  26  1   
 10   6  27  1   
 11   6  28  1   
 12   6  29  1   
 13   7  30  1   
 14   7  31  1   
 15   7  32  1   
 16   8   9  1   
 17   8  10  1   
 18   8  33  1   
 19   9  11  1   
 20   9  12  1   
 21   9  34  1   
 22  10  13  1   
 23  10  35  1   
 24  10  36  1   
 25  11  14  am  
 26  11  37  1   
 27  12  13  1   
 28  12  38  1   
 29  12  39  1   
 30  14  15  2   
 31  14  16  1   
 32  16  17  ar  
 33  16  18  ar  
 34  17  19  1   
 35  17  20  ar  
 36  18  21  ar  
 37  18  40  1   
 38  19  22  1   
 39  19  41  1   
 40  20  23  ar  
 41  20  24  1   
 42  21  23  ar  
 43  21  42  1   
 44  22  24  2   
 45  22  43  1   
 46  23  44  1   
 47  24  45  1   
@<TRIPOS>SUBSTRUCTURE
  1 ****  14 GROUP 4 **** **** 0

# MOE 2024.06 (io_trps.svl 2023.06)
