@<TRIPOS>MOLECULE
NONAME
23 23 1 0 0 
SMALL
USER_CHARGES


@<TRIPOS>ATOM
  1 S       -0.5870     0.0270    -1.4740 S.3   1 <1>  -0.4600 
  2 C       -1.5770     0.8720    -0.1930 C.3   1 <1>   0.2910 
  3 C       -0.2860    -1.5980    -0.7350 C.3   1 <1>   0.0700 
  4 C       -2.5370    -0.1040     0.5460 C.2   1 <1>   0.5690 
  5 C       -0.5590     1.4960     0.7720 C.3   1 <1>  -0.2400 
  6 C       -2.3410     1.9690    -0.9460 C.3   1 <1>  -0.2400 
  7 C       -1.6370    -2.2720    -0.4770 C.3   1 <1>   0.2200 
  8 O       -3.3640     0.3520     1.3000 O.2   1 <1>  -0.5700 
  9 N       -2.4900    -1.4570     0.4070 N.am  1 <1>  -0.7300 
 10 C       -1.4500    -3.6340     0.1860 C.3   1 <1>  -0.2400 
 11 H        0.2670    -1.4520     0.1760 H     1 <1>   0.0800 
 12 H        0.3050    -2.1600    -1.4360 H     1 <1>   0.0800 
 13 H        0.0030     0.7270     1.2690 H     1 <1>   0.0800 
 14 H       -1.0730     2.0750     1.5180 H     1 <1>   0.0800 
 15 H        0.1190     2.1400     0.2410 H     1 <1>   0.0800 
 16 H       -3.0170     1.5240    -1.6530 H     1 <1>   0.0800 
 17 H       -1.6590     2.6130    -1.4730 H     1 <1>   0.0800 
 18 H       -2.9130     2.5620    -0.2550 H     1 <1>   0.0800 
 19 H       -2.1450    -2.4050    -1.4180 H     1 <1>   0.0800 
 20 H       -3.2030    -1.9680     0.9300 H     1 <1>   0.3700 
 21 H       -0.9640    -3.5260     1.1400 H     1 <1>   0.0800 
 22 H       -0.8420    -4.2650    -0.4370 H     1 <1>   0.0800 
 23 H       -2.4010    -4.1160     0.3230 H     1 <1>   0.0800 
@<TRIPOS>BOND
  1   1   2  1   
  2   1   3  1   
  3   2   4  1   
  4   2   5  1   
  5   2   6  1   
  6   3   7  1   
  7   3  11  1   
  8   3  12  1   
  9   4   8  2   
 10   4   9  am  
 11   5  13  1   
 12   5  14  1   
 13   5  15  1   
 14   6  16  1   
 15   6  17  1   
 16   6  18  1   
 17   7   9  1   
 18   7  10  1   
 19   7  19  1   
 20   9  20  1   
 21  10  21  1   
 22  10  22  1   
 23  10  23  1   
@<TRIPOS>SUBSTRUCTURE
  1 ****   4 GROUP 4 **** **** 0

# MOE 2024.06 (io_trps.svl 2023.06)
