@<TRIPOS>MOLECULE
NONAME
39 40 1 0 0 
SMALL
USER_CHARGES


@<TRIPOS>ATOM
  1 O        0.9790     0.3870    -1.5670 O.2   1 <1>  -0.5700 
  2 C        1.5390     0.7810    -0.5590 C.2   1 <1>   0.5440 
  3 N        1.1870     2.0080    -0.0590 N.am  1 <1>  -0.7300 
  4 C        2.5520    -0.0070     0.1050 C.ar  1 <1>   0.0860 
  5 C        0.1750     2.9240    -0.6470 C.3   1 <1>   0.0600 
  6 C        2.4200    -1.4020     0.2740 C.ar  1 <1>   0.4100 
  7 C        3.6950     0.6020     0.6120 C.ar  1 <1>  -0.1500 
  8 N        3.3180    -2.1500     0.9140 N.ar  1 <1>  -0.6200 
  9 N        1.3120    -2.0550    -0.2230 N.pl3 1 <1>  -0.8690 
 10 C        4.6210    -0.1800     1.2610 C.ar  1 <1>  -0.1500 
 11 C        4.3830    -1.5360     1.3850 C.ar  1 <1>   0.1600 
 12 C        1.1170    -3.5040    -0.4920 C.3   1 <1>   0.2890 
 13 C        1.0640    -4.3250     0.8040 C.3   1 <1>   0.0210 
 14 C        2.1750    -3.9850    -1.4870 C.3   1 <1>  -0.2400 
 15 C        0.6660    -5.7620     0.5290 C.2   1 <1>   0.1080 
 16 N       -0.5040    -6.1040     0.0820 N.2   1 <1>  -0.7070 
 17 C        1.4950    -6.8630     0.7190 C.2   1 <1>  -0.1500 
 18 N       -0.4500    -7.4450    -0.0230 N.pl3 1 <1>   0.3000 
 19 C        0.7520    -7.9290     0.3560 C.2   1 <1>  -0.3320 
 20 C        1.1210    -9.4000     0.3490 C.3   1 <1>  -0.0600 
 21 H        1.5510     2.2810     0.8560 H     1 <1>   0.3700 
 22 H       -0.1330     2.5730    -1.6180 H     1 <1>   0.0800 
 23 H        0.5940     3.9090    -0.7530 H     1 <1>   0.0800 
 24 H       -0.6880     2.9710    -0.0060 H     1 <1>   0.0800 
 25 H        3.8550     1.6590     0.4920 H     1 <1>   0.1500 
 26 H        0.7690    -1.4710    -0.8780 H     1 <1>   0.4000 
 27 H        5.5190     0.2490     1.6680 H     1 <1>   0.1500 
 28 H        5.1090    -2.1450     1.8970 H     1 <1>   0.1500 
 29 H        0.1550    -3.6100    -0.9660 H     1 <1>   0.0800 
 30 H        0.3370    -3.8900     1.4640 H     1 <1>   0.0800 
 31 H        2.0180    -4.3180     1.2930 H     1 <1>   0.0800 
 32 H        3.1510    -3.9790    -1.0380 H     1 <1>   0.0800 
 33 H        2.1780    -3.3510    -2.3550 H     1 <1>   0.0800 
 34 H        1.9520    -4.9880    -1.8010 H     1 <1>   0.0800 
 35 H        2.5080    -6.8330     1.0800 H     1 <1>   0.1500 
 36 H       -1.2490    -7.9980    -0.3550 H     1 <1>   0.2700 
 37 H        2.1320    -9.5290     0.6930 H     1 <1>   0.0800 
 38 H        1.0450    -9.7990    -0.6470 H     1 <1>   0.0800 
 39 H        0.4650    -9.9510     1.0000 H     1 <1>   0.0800 
@<TRIPOS>BOND
  1   1   2  2   
  2   2   3  am  
  3   2   4  1   
  4   3   5  1   
  5   3  21  1   
  6   4   6  ar  
  7   4   7  ar  
  8   5  22  1   
  9   5  23  1   
 10   5  24  1   
 11   6   8  ar  
 12   6   9  1   
 13   7  10  ar  
 14   7  25  1   
 15   8  11  ar  
 16   9  12  1   
 17   9  26  1   
 18  10  11  ar  
 19  10  27  1   
 20  11  28  1   
 21  12  13  1   
 22  12  14  1   
 23  12  29  1   
 24  13  15  1   
 25  13  30  1   
 26  13  31  1   
 27  14  32  1   
 28  14  33  1   
 29  14  34  1   
 30  15  16  2   
 31  15  17  1   
 32  16  18  1   
 33  17  19  2   
 34  17  35  1   
 35  18  19  1   
 36  18  36  1   
 37  19  20  1   
 38  20  37  1   
 39  20  38  1   
 40  20  39  1   
@<TRIPOS>SUBSTRUCTURE
  1 ****   9 GROUP 4 **** **** 0

# MOE 2024.06 (io_trps.svl 2023.06)
