@<TRIPOS>MOLECULE
NONAME
51 54 1 0 0 
SMALL
USER_CHARGES


@<TRIPOS>ATOM
  1 F        0.7350    -0.5090     0.6220 F     1 <1>  -0.1900 
  2 C        1.5310    -1.2880    -0.0630 C.ar  1 <1>   0.1900 
  3 C        1.0480    -2.4890    -0.5600 C.ar  1 <1>  -0.1440 
  4 C        2.8330    -0.8600    -0.2630 C.ar  1 <1>  -0.1500 
  5 C        1.9510    -3.2550    -1.2820 C.ar  1 <1>   0.1900 
  6 C       -0.3880    -2.9550    -0.3150 C.3   1 <1>   0.0450 
  7 C        3.7050    -1.6560    -0.9900 C.ar  1 <1>  -0.1500 
  8 F        1.5640    -4.3980    -1.7860 F     1 <1>  -0.1900 
  9 C        3.2610    -2.8640    -1.5050 C.ar  1 <1>  -0.1500 
 10 C       -0.5410    -3.8720     0.8960 C.2   1 <1>   0.5690 
 11 O        0.4040    -4.0110     1.6390 O.2   1 <1>  -0.5700 
 12 N       -1.7310    -4.5230     1.1270 N.am  1 <1>  -0.6600 
 13 C       -2.9600    -4.4210     0.2930 C.3   1 <1>   0.1400 
 14 C       -1.8790    -5.4890     2.2520 C.3   1 <1>   0.1400 
 15 C       -3.2460    -5.7900    -0.3260 C.3   1 <1>  -0.1600 
 16 C       -2.1640    -6.8790     1.6770 C.3   1 <1>  -0.1600 
 17 C       -3.3910    -6.8810     0.7520 C.3   1 <1>   0.4240 
 18 O       -4.4760    -6.5290     1.5780 O.3   1 <1>  -0.5600 
 19 C       -3.5800    -8.2740     0.1130 C.ar  1 <1>  -0.1430 
 20 C       -5.7540    -6.8950     1.1580 C.3   1 <1>   0.1200 
 21 C       -4.7490    -9.0040     0.3070 C.ar  1 <1>  -0.1430 
 22 C       -2.5780    -8.8270    -0.6780 C.ar  1 <1>  -0.1500 
 23 C       -5.8580    -8.4160     1.1570 C.3   1 <1>  -0.0170 
 24 C       -4.9070   -10.2550    -0.2670 C.ar  1 <1>  -0.1500 
 25 C       -2.7360   -10.0740    -1.2550 C.ar  1 <1>  -0.1500 
 26 C       -3.8970   -10.7980    -1.0540 C.ar  1 <1>   0.0830 
 27 O       -3.9720   -12.0130    -1.6530 O.3   1 <1>  -0.3630 
 28 C       -5.1020   -12.8400    -1.4940 C.3   1 <1>   0.0400 
 29 H        3.1550     0.0800     0.1480 H     1 <1>   0.1500 
 30 H       -0.7310    -3.4800    -1.1860 H     1 <1>   0.0800 
 31 H       -1.0290    -2.1060    -0.1750 H     1 <1>   0.0800 
 32 H        4.7210    -1.3380    -1.1530 H     1 <1>   0.1500 
 33 H        3.9200    -3.4980    -2.0710 H     1 <1>   0.1500 
 34 H       -2.8550    -3.6840    -0.4810 H     1 <1>   0.0800 
 35 H       -3.7840    -4.1230     0.9210 H     1 <1>   0.0800 
 36 H       -2.6910    -5.1760     2.8840 H     1 <1>   0.0800 
 37 H       -0.9850    -5.5230     2.8520 H     1 <1>   0.0800 
 38 H       -2.4330    -6.0390    -0.9820 H     1 <1>   0.0800 
 39 H       -4.1340    -5.7470    -0.9270 H     1 <1>   0.0800 
 40 H       -2.3250    -7.5780     2.4760 H     1 <1>   0.0800 
 41 H       -1.2910    -7.1990     1.1410 H     1 <1>   0.0800 
 42 H       -5.9340    -6.4940     0.1760 H     1 <1>   0.0800 
 43 H       -6.4620    -6.4700     1.8480 H     1 <1>   0.0800 
 44 H       -1.6620    -8.2920    -0.8550 H     1 <1>   0.1500 
 45 H       -6.8180    -8.7050     0.7690 H     1 <1>   0.0800 
 46 H       -5.7750    -8.7820     2.1650 H     1 <1>   0.0800 
 47 H       -5.8180   -10.7940    -0.0950 H     1 <1>   0.1500 
 48 H       -1.9570   -10.4950    -1.8640 H     1 <1>   0.1500 
 49 H       -4.9330   -13.7460    -2.0470 H     1 <1>   0.0800 
 50 H       -5.9650   -12.3300    -1.8850 H     1 <1>   0.0800 
 51 H       -5.2260   -13.0660    -0.4500 H     1 <1>   0.0800 
@<TRIPOS>BOND
  1   1   2  1   
  2   2   3  ar  
  3   2   4  ar  
  4   3   5  ar  
  5   3   6  1   
  6   4   7  ar  
  7   4  29  1   
  8   5   8  1   
  9   5   9  ar  
 10   6  10  1   
 11   6  30  1   
 12   6  31  1   
 13   7   9  ar  
 14   7  32  1   
 15   9  33  1   
 16  10  11  2   
 17  10  12  am  
 18  12  13  1   
 19  12  14  1   
 20  13  15  1   
 21  13  34  1   
 22  13  35  1   
 23  14  16  1   
 24  14  36  1   
 25  14  37  1   
 26  15  17  1   
 27  15  38  1   
 28  15  39  1   
 29  16  17  1   
 30  16  40  1   
 31  16  41  1   
 32  17  18  1   
 33  17  19  1   
 34  18  20  1   
 35  19  21  ar  
 36  19  22  ar  
 37  20  23  1   
 38  20  42  1   
 39  20  43  1   
 40  21  23  1   
 41  21  24  ar  
 42  22  25  ar  
 43  22  44  1   
 44  23  45  1   
 45  23  46  1   
 46  24  26  ar  
 47  24  47  1   
 48  25  26  ar  
 49  25  48  1   
 50  26  27  1   
 51  27  28  1   
 52  28  49  1   
 53  28  50  1   
 54  28  51  1   
@<TRIPOS>SUBSTRUCTURE
  1 ****  15 GROUP 4 **** **** 0

# MOE 2024.06 (io_trps.svl 2023.06)
