@<TRIPOS>MOLECULE
NONAME
59 62 1 0 0 
SMALL
USER_CHARGES


@<TRIPOS>ATOM
  1 O       -0.0670     0.9090     0.6950 O.2   1 <1>  -0.5700 
  2 C       -0.1290     2.0880     0.4310 C.2   1 <1>   0.5690 
  3 N       -1.1930     2.8860     0.7770 N.am  1 <1>  -0.5090 
  4 C        1.0520     2.6940    -0.3240 C.3   1 <1>   0.1810 
  5 C       -1.1640     4.3630     0.5010 C.3   1 <1>   0.3640 
  6 C       -2.1570     2.4570     1.8270 C.3   1 <1>   0.0490 
  7 O        1.2090     4.0640    -0.0600 O.3   1 <1>  -0.5600 
  8 C       -2.4290     4.8000    -0.2330 C.ar  1 <1>  -0.1440 
  9 C        0.0550     4.8280    -0.3400 C.3   1 <1>   0.2610 
 10 C       -2.8970     1.1650     1.6620 C.3   1 <1>  -0.2000 
 11 C       -3.6360     2.4600     1.5790 C.3   1 <1>  -0.2000 
 12 C       -2.8910     4.1010    -1.3410 C.ar  1 <1>   0.1600 
 13 C       -3.1260     5.9190     0.1800 C.ar  1 <1>  -0.1500 
 14 C        0.3270     6.3350    -0.1670 C.2   1 <1>   0.5690 
 15 N       -3.9560     4.4270    -2.0550 N.ar  1 <1>  -0.6200 
 16 C       -4.2440     6.2680    -0.5480 C.ar  1 <1>  -0.1500 
 17 O       -0.0950     6.8910     0.8250 O.2   1 <1>  -0.5700 
 18 N        1.0100     7.0420    -1.1340 N.am  1 <1>  -0.6600 
 19 C       -4.6080     5.5000    -1.6400 C.ar  1 <1>   0.1600 
 20 C        1.1660     8.5180    -1.0270 C.3   1 <1>   0.1400 
 21 C        1.6690     6.4240    -2.3190 C.3   1 <1>   0.0600 
 22 C        2.4730     8.8520    -0.3040 C.3   1 <1>  -0.1600 
 23 C        2.6610    10.3710    -0.1760 C.3   1 <1>  -0.1600 
 24 C        3.9350    10.7380     0.6010 C.3   1 <1>  -0.0800 
 25 C        4.1020    12.2450     0.7740 C.3   1 <1>  -0.1600 
 26 C        5.2340    10.3150    -0.0850 C.3   1 <1>  -0.1600 
 27 C        5.5830    12.4400     1.0940 C.3   1 <1>  -0.1600 
 28 C        6.3140    11.2360     0.4880 C.3   1 <1>  -0.1600 
 29 H        0.9210     2.5550    -1.3810 H     1 <1>   0.0800 
 30 H        1.9570     2.1990    -0.0190 H     1 <1>   0.0800 
 31 H       -1.1310     4.8530     1.4590 H     1 <1>   0.0800 
 32 H       -1.8090     2.7020     2.8170 H     1 <1>   0.1000 
 33 H       -0.1770     4.6700    -1.3770 H     1 <1>   0.0800 
 34 H       -2.7460     0.5950     0.7620 H     1 <1>   0.1000 
 35 H       -3.0400     0.5420     2.5260 H     1 <1>   0.1000 
 36 H       -4.2950     2.7170     2.3890 H     1 <1>   0.1000 
 37 H       -4.0500     2.7180     0.6220 H     1 <1>   0.1000 
 38 H       -2.3600     3.2200    -1.6580 H     1 <1>   0.1500 
 39 H       -2.8120     6.5050     1.0290 H     1 <1>   0.1500 
 40 H       -4.8270     7.1280    -0.2740 H     1 <1>   0.1500 
 41 H       -5.4820     5.7840    -2.2020 H     1 <1>   0.1500 
 42 H        1.1620     8.9540    -2.0110 H     1 <1>   0.0800 
 43 H        0.3360     8.9320    -0.4790 H     1 <1>   0.0800 
 44 H        2.5460     6.9870    -2.5900 H     1 <1>   0.0800 
 45 H        0.9880     6.4210    -3.1520 H     1 <1>   0.0800 
 46 H        1.9780     5.4170    -2.1050 H     1 <1>   0.0800 
 47 H        2.4470     8.4140     0.6800 H     1 <1>   0.0800 
 48 H        3.2990     8.4290    -0.8450 H     1 <1>   0.0800 
 49 H        1.8140    10.7860     0.3420 H     1 <1>   0.0800 
 50 H        2.6980    10.8140    -1.1570 H     1 <1>   0.0800 
 51 H        3.9020    10.2880     1.5800 H     1 <1>   0.0800 
 52 H        3.8730    12.7460    -0.1520 H     1 <1>   0.0800 
 53 H        3.4680    12.6340     1.5520 H     1 <1>   0.0800 
 54 H        5.4620     9.2780     0.0910 H     1 <1>   0.0800 
 55 H        5.1550    10.4830    -1.1460 H     1 <1>   0.0800 
 56 H        5.9480    13.3700     0.6920 H     1 <1>   0.0800 
 57 H        5.7240    12.4430     2.1610 H     1 <1>   0.0800 
 58 H        6.8650    10.7230     1.2570 H     1 <1>   0.0800 
 59 H        6.9980    11.5430    -0.2840 H     1 <1>   0.0800 
@<TRIPOS>BOND
  1   1   2  2   
  2   2   3  am  
  3   2   4  1   
  4   3   5  1   
  5   3   6  1   
  6   4   7  1   
  7   4  29  1   
  8   4  30  1   
  9   5   8  1   
 10   5   9  1   
 11   5  31  1   
 12   6  10  1   
 13   6  11  1   
 14   6  32  1   
 15   7   9  1   
 16   8  12  ar  
 17   8  13  ar  
 18   9  14  1   
 19   9  33  1   
 20  10  11  1   
 21  10  34  1   
 22  10  35  1   
 23  11  36  1   
 24  11  37  1   
 25  12  15  ar  
 26  12  38  1   
 27  13  16  ar  
 28  13  39  1   
 29  14  17  2   
 30  14  18  am  
 31  15  19  ar  
 32  16  19  ar  
 33  16  40  1   
 34  18  20  1   
 35  18  21  1   
 36  19  41  1   
 37  20  22  1   
 38  20  42  1   
 39  20  43  1   
 40  21  44  1   
 41  21  45  1   
 42  21  46  1   
 43  22  23  1   
 44  22  47  1   
 45  22  48  1   
 46  23  24  1   
 47  23  49  1   
 48  23  50  1   
 49  24  25  1   
 50  24  26  1   
 51  24  51  1   
 52  25  27  1   
 53  25  52  1   
 54  25  53  1   
 55  26  28  1   
 56  26  54  1   
 57  26  55  1   
 58  27  28  1   
 59  27  56  1   
 60  27  57  1   
 61  28  58  1   
 62  28  59  1   
@<TRIPOS>SUBSTRUCTURE
  1 ****  14 GROUP 4 **** **** 0

# MOE 2024.06 (io_trps.svl 2023.06)
