@<TRIPOS>MOLECULE
NONAME
33 34 1 0 0 
SMALL
USER_CHARGES


@<TRIPOS>ATOM
  1 O       -0.5790    -0.3370    -0.7920 O.3   1 <1>  -0.0190 
  2 N       -1.6290    -1.0980    -0.8380 N.2   1 <1>  -0.4100 
  3 C       -1.0540     0.8460    -0.4870 C.2   1 <1>   0.2980 
  4 C       -2.6400    -0.3650    -0.5700 C.2   1 <1>   0.3350 
  5 N       -2.3180     0.9020    -0.3350 N.2   1 <1>  -0.5650 
  6 C       -0.0590     2.0010    -0.3510 C.3   1 <1>   0.1000 
  7 C       -4.0960    -0.8370    -0.5070 C.3   1 <1>   0.3900 
  8 C        0.7800     1.8430     0.9250 C.3   1 <1>  -0.2400 
  9 C       -0.7450     3.3760    -0.3550 C.3   1 <1>  -0.2400 
 10 N       -4.2510    -2.2650    -0.9110 N.pl3 1 <1>  -0.8690 
 11 C       -5.1190    -3.1030    -0.2300 C.ar  1 <1>   0.4100 
 12 N       -6.2250    -2.5340     0.2260 N.ar  1 <1>  -0.6200 
 13 C       -4.8280    -4.4840    -0.0480 C.ar  1 <1>   0.3930 
 14 C       -7.0140    -3.3970     0.8490 C.ar  1 <1>   0.1600 
 15 O       -3.6510    -4.9540    -0.5470 O.3   1 <1>  -0.3630 
 16 N       -5.6260    -5.3340     0.5830 N.ar  1 <1>  -0.6200 
 17 C       -6.7280    -4.7420     1.0210 C.ar  1 <1>   0.1600 
 18 C       -3.2970    -6.3170    -0.4070 C.3   1 <1>   0.0400 
 19 H        0.6020     1.9580    -1.2000 H     1 <1>   0.0800 
 20 H       -4.6900    -0.2260    -1.1620 H     1 <1>   0.0800 
 21 H       -4.4510    -0.6960     0.4980 H     1 <1>   0.0800 
 22 H        0.1450     1.8690     1.7930 H     1 <1>   0.0800 
 23 H        1.5040     2.6350     1.0010 H     1 <1>   0.0800 
 24 H        1.3030     0.9030     0.9130 H     1 <1>   0.0800 
 25 H       -1.4080     3.4680     0.4880 H     1 <1>   0.0800 
 26 H       -1.3220     3.4960    -1.2560 H     1 <1>   0.0800 
 27 H       -0.0140     4.1630    -0.3100 H     1 <1>   0.0800 
 28 H       -3.3350    -2.6930    -1.0990 H     1 <1>   0.4000 
 29 H       -7.9370    -3.0120     1.2430 H     1 <1>   0.1500 
 30 H       -7.4370    -5.3600     1.5430 H     1 <1>   0.1500 
 31 H       -2.3390    -6.4660    -0.8720 H     1 <1>   0.0800 
 32 H       -4.0420    -6.9210    -0.8930 H     1 <1>   0.0800 
 33 H       -3.2410    -6.5560     0.6400 H     1 <1>   0.0800 
@<TRIPOS>BOND
  1   1   2  1   
  2   1   3  1   
  3   2   4  2   
  4   3   5  2   
  5   3   6  1   
  6   4   5  1   
  7   4   7  1   
  8   6   8  1   
  9   6   9  1   
 10   6  19  1   
 11   7  10  1   
 12   7  20  1   
 13   7  21  1   
 14   8  22  1   
 15   8  23  1   
 16   8  24  1   
 17   9  25  1   
 18   9  26  1   
 19   9  27  1   
 20  10  11  1   
 21  10  28  1   
 22  11  12  ar  
 23  11  13  ar  
 24  12  14  ar  
 25  13  15  1   
 26  13  16  ar  
 27  14  17  ar  
 28  14  29  1   
 29  15  18  1   
 30  16  17  ar  
 31  17  30  1   
 32  18  31  1   
 33  18  32  1   
 34  18  33  1   
@<TRIPOS>SUBSTRUCTURE
  1 ****   7 GROUP 4 **** **** 0

# MOE 2024.06 (io_trps.svl 2023.06)
