@<TRIPOS>MOLECULE
NONAME
51 54 1 0 0 
SMALL
USER_CHARGES


@<TRIPOS>ATOM
  1 O        0.6610    -0.6540     1.5700 O.2   1 <1>  -0.5700 
  2 C        1.0570    -1.4760     0.7590 C.2   1 <1>   0.5440 
  3 N        1.1790    -1.0520    -0.5540 N.am  1 <1>  -0.6600 
  4 C        1.3990    -2.8210     1.2310 C.ar  1 <1>   0.3960 
  5 C        1.7120    -1.8490    -1.6830 C.3   1 <1>   0.1400 
  6 C        0.9330     0.3470    -0.9700 C.3   1 <1>   0.1400 
  7 N        1.2600    -3.9000     0.4390 N.ar  1 <1>  -0.6200 
  8 C        1.8690    -2.9430     2.5440 C.ar  1 <1>   0.1600 
  9 C        1.6910    -0.9080    -2.8840 C.3   1 <1>  -0.1600 
 10 C        1.6860     0.4960    -2.2850 C.3   1 <1>  -0.1600 
 11 C        1.6080    -5.0290     1.0160 C.ar  1 <1>   0.4100 
 12 N        2.2350    -4.0720     3.1370 N.ar  1 <1>  -0.6200 
 13 N        1.4460    -6.1230     0.2100 N.pl3 1 <1>  -0.8690 
 14 C        2.0960    -5.1030     2.3300 C.ar  1 <1>   0.1600 
 15 C        0.6640    -7.2850     0.6590 C.3   1 <1>   0.2890 
 16 C        1.0430    -8.4880    -0.1990 C.3   1 <1>  -0.1600 
 17 C       -0.8240    -6.9700     0.5260 C.3   1 <1>  -0.1600 
 18 C        0.2020    -9.7080     0.1760 C.3   1 <1>   0.2090 
 19 C       -1.6650    -8.1780     0.9290 C.3   1 <1>   0.2090 
 20 N       -1.2470    -9.3670     0.1400 N.pl3 1 <1>  -0.8380 
 21 C       -2.0230    -9.7800    -0.9330 C.ar  1 <1>   0.4100 
 22 N       -1.4890    -9.5670    -2.1330 N.ar  1 <1>  -0.6200 
 23 C       -3.2800   -10.3760    -0.7420 C.ar  1 <1>   0.0730 
 24 C       -2.2070    -9.9420    -3.1750 C.ar  1 <1>   0.1600 
 25 C       -3.8000   -10.5910     0.5730 C.1   1 <1>   0.4840 
 26 C       -4.0090   -10.7570    -1.8530 C.ar  1 <1>  -0.1500 
 27 C       -3.4540   -10.5320    -3.0940 C.ar  1 <1>  -0.1500 
 28 N       -4.2510   -10.7500     1.6090 N.1   1 <1>  -0.5570 
 29 H        1.0970    -2.7140    -1.8670 H     1 <1>   0.0800 
 30 H        2.7190    -2.1580    -1.4590 H     1 <1>   0.0800 
 31 H        1.2880     1.0430    -0.2280 H     1 <1>   0.0800 
 32 H       -0.1240     0.4850    -1.1180 H     1 <1>   0.0800 
 33 H        1.9470    -2.0470     3.1350 H     1 <1>   0.1500 
 34 H        0.7820    -1.0710    -3.4360 H     1 <1>   0.0800 
 35 H        2.5300    -1.0730    -3.5360 H     1 <1>   0.0800 
 36 H        2.6940     0.8080    -2.0760 H     1 <1>   0.0800 
 37 H        1.2210     1.2180    -2.9320 H     1 <1>   0.0800 
 38 H        1.1610    -5.8340    -0.7300 H     1 <1>   0.4000 
 39 H        2.3790    -6.0690     2.7040 H     1 <1>   0.1500 
 40 H        0.8910    -7.5040     1.6890 H     1 <1>   0.0800 
 41 H        2.0830    -8.7190    -0.0610 H     1 <1>   0.0800 
 42 H        0.8780    -8.2660    -1.2380 H     1 <1>   0.0800 
 43 H       -1.0580    -6.7140    -0.4930 H     1 <1>   0.0800 
 44 H       -1.0810    -6.1380     1.1560 H     1 <1>   0.0800 
 45 H        0.4570   -10.0420     1.1680 H     1 <1>   0.0800 
 46 H        0.4060   -10.5140    -0.5090 H     1 <1>   0.0800 
 47 H       -2.7060    -7.9630     0.7540 H     1 <1>   0.0800 
 48 H       -1.5380    -8.3890     1.9780 H     1 <1>   0.0800 
 49 H       -1.7780    -9.7690    -4.1480 H     1 <1>   0.1500 
 50 H       -4.9780   -11.2170    -1.7540 H     1 <1>   0.1500 
 51 H       -3.9800   -10.8100    -3.9910 H     1 <1>   0.1500 
@<TRIPOS>BOND
  1   1   2  2   
  2   2   3  am  
  3   2   4  1   
  4   3   5  1   
  5   3   6  1   
  6   4   7  ar  
  7   4   8  ar  
  8   5   9  1   
  9   5  29  1   
 10   5  30  1   
 11   6  10  1   
 12   6  31  1   
 13   6  32  1   
 14   7  11  ar  
 15   8  12  ar  
 16   8  33  1   
 17   9  10  1   
 18   9  34  1   
 19   9  35  1   
 20  10  36  1   
 21  10  37  1   
 22  11  13  1   
 23  11  14  ar  
 24  12  14  ar  
 25  13  15  1   
 26  13  38  1   
 27  14  39  1   
 28  15  16  1   
 29  15  17  1   
 30  15  40  1   
 31  16  18  1   
 32  16  41  1   
 33  16  42  1   
 34  17  19  1   
 35  17  43  1   
 36  17  44  1   
 37  18  20  1   
 38  18  45  1   
 39  18  46  1   
 40  19  20  1   
 41  19  47  1   
 42  19  48  1   
 43  20  21  1   
 44  21  22  ar  
 45  21  23  ar  
 46  22  24  ar  
 47  23  25  1   
 48  23  26  ar  
 49  24  27  ar  
 50  24  49  1   
 51  25  28  3   
 52  26  27  ar  
 53  26  50  1   
 54  27  51  1   
@<TRIPOS>SUBSTRUCTURE
  1 ****  17 GROUP 4 **** **** 0

# MOE 2024.06 (io_trps.svl 2023.06)
