@<TRIPOS>MOLECULE
NONAME
37 39 1 0 0 
SMALL
USER_CHARGES


@<TRIPOS>ATOM
  1 S        0.3630     0.1980    -2.0730 S.3   1 <1>  -0.2420 
  2 C        1.8210    -0.6240    -1.5180 C.2   1 <1>   0.6410 
  3 C       -0.6730    -1.0360    -1.3230 C.2   1 <1>  -0.0490 
  4 N        3.0080    -0.1970    -1.7520 N.2   1 <1>  -0.6610 
  5 N        1.4740    -1.7660    -0.8130 N.pl3 1 <1>  -0.1080 
  6 C        0.0780    -1.9730    -0.7160 C.2   1 <1>   0.2090 
  7 C        3.9750    -1.0080    -1.2180 C.2   1 <1>   0.7810 
  8 N        2.4180    -2.6010    -0.2690 N.2   1 <1>  -0.4920 
  9 N       -0.3450    -3.1060    -0.0110 N.am  1 <1>  -0.5390 
 10 O        5.1400    -0.6720    -1.3950 O.2   1 <1>  -0.5700 
 11 C        3.6350    -2.2100    -0.4790 C.2   1 <1>   0.3890 
 12 C       -1.6050    -3.5620     0.2500 C.2   1 <1>   0.5690 
 13 C        4.7540    -3.0720     0.0890 C.3   1 <1>  -0.1790 
 14 O       -2.5960    -2.9980    -0.1500 O.2   1 <1>  -0.5700 
 15 C       -1.7650    -4.8540     1.0510 C.3   1 <1>   0.2610 
 16 O       -0.5580    -5.1400     1.7450 O.3   1 <1>  -0.2170 
 17 C       -1.9620    -6.0790     0.1590 C.3   1 <1>  -0.0990 
 18 N        0.0580    -6.1950     1.2490 N.2   1 <1>  -0.5130 
 19 C       -0.6490    -6.7680     0.3830 C.2   1 <1>   0.3280 
 20 C       -0.3090    -8.0230    -0.4270 C.3   1 <1>  -0.0190 
 21 C       -1.2420    -9.1890    -0.0660 C.3   1 <1>  -0.2400 
 22 C        1.1520    -8.4630    -0.2360 C.3   1 <1>  -0.2400 
 23 H       -1.7380    -0.9190    -1.4220 H     1 <1>   0.1500 
 24 H        0.4190    -3.6660     0.3900 H     1 <1>   0.3700 
 25 H        5.3490    -2.4930     0.7710 H     1 <1>   0.0800 
 26 H        5.3830    -3.4230    -0.7090 H     1 <1>   0.0800 
 27 H        4.3530    -3.9210     0.6130 H     1 <1>   0.0800 
 28 H       -2.5540    -4.7510     1.7730 H     1 <1>   0.0800 
 29 H       -2.1090    -5.8110    -0.8720 H     1 <1>   0.0800 
 30 H       -2.7820    -6.6770     0.5100 H     1 <1>   0.0800 
 31 H       -0.4450    -7.7870    -1.4680 H     1 <1>   0.0800 
 32 H       -1.1550    -9.4250     0.9810 H     1 <1>   0.0800 
 33 H       -0.9850   -10.0640    -0.6370 H     1 <1>   0.0800 
 34 H       -2.2660    -8.9400    -0.2800 H     1 <1>   0.0800 
 35 H        1.3350    -8.7210     0.7930 H     1 <1>   0.0800 
 36 H        1.8180    -7.6630    -0.5080 H     1 <1>   0.0800 
 37 H        1.3740    -9.3170    -0.8510 H     1 <1>   0.0800 
@<TRIPOS>BOND
  1   1   2  1   
  2   1   3  1   
  3   2   4  2   
  4   2   5  1   
  5   3   6  2   
  6   3  23  1   
  7   4   7  1   
  8   5   6  1   
  9   5   8  1   
 10   6   9  1   
 11   7  10  2   
 12   7  11  1   
 13   8  11  2   
 14   9  12  am  
 15   9  24  1   
 16  11  13  1   
 17  12  14  2   
 18  12  15  1   
 19  13  25  1   
 20  13  26  1   
 21  13  27  1   
 22  15  16  1   
 23  15  17  1   
 24  15  28  1   
 25  16  18  1   
 26  17  19  1   
 27  17  29  1   
 28  17  30  1   
 29  18  19  2   
 30  19  20  1   
 31  20  21  1   
 32  20  22  1   
 33  20  31  1   
 34  21  32  1   
 35  21  33  1   
 36  21  34  1   
 37  22  35  1   
 38  22  36  1   
 39  22  37  1   
@<TRIPOS>SUBSTRUCTURE
  1 ****   9 GROUP 4 **** **** 0

# MOE 2024.06 (io_trps.svl 2023.06)
