@<TRIPOS>MOLECULE
NONAME
44 46 1 0 0 
SMALL
USER_CHARGES


@<TRIPOS>ATOM
  1 S        2.2580    -0.1950     1.4060 S.3   1 <1>  -0.0800 
  2 C        0.9170    -0.3960     0.3040 C.2   1 <1>   0.1980 
  3 C        2.2230    -1.8990     1.7170 C.2   1 <1>  -0.1100 
  4 N        0.5130    -1.5990     0.2000 N.2   1 <1>  -0.5650 
  5 C        0.3970     0.8620    -0.3880 C.3   1 <1>   0.1000 
  6 C        1.2450    -2.4970     1.0010 C.2   1 <1>   0.1410 
  7 C       -0.4980     1.6680     0.5620 C.3   1 <1>  -0.2400 
  8 C       -0.3730     0.5270    -1.6740 C.3   1 <1>  -0.2400 
  9 C        0.9650    -3.9360     1.0570 C.2   1 <1>   0.7160 
 10 O        1.5690    -4.6140     1.8710 O.2   1 <1>  -0.5700 
 11 N        0.0630    -4.5950     0.2410 N.am  1 <1>  -0.6600 
 12 C       -0.6540    -4.0290    -0.9290 C.3   1 <1>   0.1400 
 13 C       -0.2280    -6.0410     0.3790 C.3   1 <1>   0.1400 
 14 C       -1.3150    -5.2270    -1.6110 C.3   1 <1>   0.2000 
 15 C       -1.4290    -6.3000    -0.5300 C.3   1 <1>  -0.0800 
 16 O       -2.5720    -4.9090    -2.1000 O.3   1 <1>  -0.6800 
 17 C       -1.4750    -7.7240    -1.1030 C.3   1 <1>  -0.0170 
 18 C       -1.5690    -8.7580     0.0080 C.ar  1 <1>  -0.1440 
 19 C       -0.4620    -9.4370     0.4760 C.ar  1 <1>  -0.1500 
 20 C       -2.7720    -9.0650     0.6100 C.ar  1 <1>  -0.1500 
 21 C       -0.6070   -10.3610     1.4970 C.ar  1 <1>   0.1600 
 22 C       -2.8090   -10.0070     1.6250 C.ar  1 <1>   0.1600 
 23 N       -1.7550   -10.6620     2.0840 N.ar  1 <1>  -0.6200 
 24 H        2.9360    -2.3060     2.4110 H     1 <1>   0.1500 
 25 H        1.2470     1.4670    -0.6570 H     1 <1>   0.0800 
 26 H       -1.3470     1.0780     0.8600 H     1 <1>   0.0800 
 27 H       -0.8480     2.5630     0.0810 H     1 <1>   0.0800 
 28 H        0.0500     1.9470     1.4440 H     1 <1>   0.0800 
 29 H       -1.2400    -0.0680    -1.4460 H     1 <1>   0.0800 
 30 H        0.2570    -0.0330    -2.3420 H     1 <1>   0.0800 
 31 H       -0.6880     1.4270    -2.1700 H     1 <1>   0.0800 
 32 H       -1.3920    -3.3250    -0.5840 H     1 <1>   0.0800 
 33 H        0.0370    -3.5430    -1.5960 H     1 <1>   0.0800 
 34 H        0.6330    -6.6000     0.0520 H     1 <1>   0.0800 
 35 H       -0.4470    -6.2940     1.4040 H     1 <1>   0.0800 
 36 H       -0.7050    -5.5600    -2.4330 H     1 <1>   0.0800 
 37 H       -2.3130    -6.1230     0.0570 H     1 <1>   0.0800 
 38 H       -3.1390    -4.5680    -1.3810 H     1 <1>   0.4000 
 39 H       -0.5990    -7.9100    -1.6990 H     1 <1>   0.0800 
 40 H       -2.3310    -7.8200    -1.7500 H     1 <1>   0.0800 
 41 H        0.5120    -9.2590     0.0590 H     1 <1>   0.1500 
 42 H       -3.6800    -8.5810     0.3010 H     1 <1>   0.1500 
 43 H        0.2670   -10.8810     1.8510 H     1 <1>   0.1500 
 44 H       -3.7560   -10.2340     2.0830 H     1 <1>   0.1500 
@<TRIPOS>BOND
  1   1   2  1   
  2   1   3  1   
  3   2   4  2   
  4   2   5  1   
  5   3   6  2   
  6   3  24  1   
  7   4   6  1   
  8   5   7  1   
  9   5   8  1   
 10   5  25  1   
 11   6   9  1   
 12   7  26  1   
 13   7  27  1   
 14   7  28  1   
 15   8  29  1   
 16   8  30  1   
 17   8  31  1   
 18   9  10  2   
 19   9  11  am  
 20  11  12  1   
 21  11  13  1   
 22  12  14  1   
 23  12  32  1   
 24  12  33  1   
 25  13  15  1   
 26  13  34  1   
 27  13  35  1   
 28  14  15  1   
 29  14  16  1   
 30  14  36  1   
 31  15  17  1   
 32  15  37  1   
 33  16  38  1   
 34  17  18  1   
 35  17  39  1   
 36  17  40  1   
 37  18  19  ar  
 38  18  20  ar  
 39  19  21  ar  
 40  19  41  1   
 41  20  22  ar  
 42  20  42  1   
 43  21  23  ar  
 44  21  43  1   
 45  22  23  ar  
 46  22  44  1   
@<TRIPOS>SUBSTRUCTURE
  1 ****  11 GROUP 4 **** **** 0

# MOE 2024.06 (io_trps.svl 2023.06)
