@<TRIPOS>MOLECULE
NONAME
57 59 1 0 0 
SMALL
USER_CHARGES


@<TRIPOS>ATOM
  1 O        0.0900    -0.4890    -1.1500 O.2   1 <1>  -0.5700 
  2 C        0.7820    -1.3710    -0.7030 C.2   1 <1>   0.5690 
  3 N        0.3370    -2.2970     0.2000 N.am  1 <1>  -0.6600 
  4 C        2.2230    -1.4760    -1.1570 C.3   1 <1>  -0.0990 
  5 C        1.2570    -3.3180     0.7550 C.3   1 <1>   0.1400 
  6 C       -1.0510    -2.2800     0.7390 C.3   1 <1>   0.0600 
  7 C        2.5740    -2.9420    -1.4700 C.3   1 <1>  -0.0800 
  8 C        2.1250    -3.9290    -0.3670 C.3   1 <1>  -0.0800 
  9 C        4.0770    -3.1640    -1.6860 C.3   1 <1>  -0.1600 
 10 C        3.4100    -4.5810     0.1590 C.3   1 <1>  -0.1600 
 11 C        4.3760    -4.5020    -1.0210 C.3   1 <1>   0.4230 
 12 N        5.8270    -4.6990    -0.7000 N.4   1 <1>  -0.9590 
 13 C        6.3490    -4.1420     0.5900 C.3   1 <1>   0.4860 
 14 C        6.1740    -6.1490    -0.8000 C.3   1 <1>   0.2630 
 15 C        6.4740    -2.6350     0.4940 C.ar  1 <1>  -0.1440 
 16 C        7.3880    -2.0630    -0.3800 C.ar  1 <1>  -0.1500 
 17 C        5.6720    -1.8110     1.2710 C.ar  1 <1>  -0.1500 
 18 C        7.4730    -0.6870    -0.4930 C.ar  1 <1>  -0.1500 
 19 C        5.7640    -0.4350     1.1500 C.ar  1 <1>  -0.1500 
 20 C        6.6590     0.1430     0.2630 C.ar  1 <1>   0.0730 
 21 C        6.7460     1.5640     0.1250 C.1   1 <1>  -0.0730 
 22 C        6.8340     2.7430    -0.0210 C.1   1 <1>  -0.2000 
 23 C        6.9540     4.2120    -0.2280 C.3   1 <1>   0.4800 
 24 O        7.5890     4.4070    -1.4250 O.3   1 <1>  -0.6800 
 25 C        7.8180     4.8520     0.8530 C.3   1 <1>  -0.2400 
 26 C        5.5830     4.8690    -0.3290 C.3   1 <1>  -0.2400 
 27 H        2.3660    -0.8640    -2.0300 H     1 <1>   0.0800 
 28 H        2.8450    -1.0890    -0.3710 H     1 <1>   0.0800 
 29 H        1.8760    -2.8360     1.4920 H     1 <1>   0.0800 
 30 H        0.6950    -4.0950     1.2440 H     1 <1>   0.0800 
 31 H       -1.5360    -3.2160     0.5260 H     1 <1>   0.0800 
 32 H       -1.6230    -1.4870     0.2880 H     1 <1>   0.0800 
 33 H       -1.0270    -2.1240     1.8030 H     1 <1>   0.0800 
 34 H        2.0490    -3.2090    -2.3750 H     1 <1>   0.0800 
 35 H        1.5330    -4.6940    -0.8440 H     1 <1>   0.0800 
 36 H        4.6220    -2.3620    -1.2310 H     1 <1>   0.0800 
 37 H        4.3090    -3.1890    -2.7360 H     1 <1>   0.0800 
 38 H        3.2330    -5.5970     0.4650 H     1 <1>   0.0800 
 39 H        3.7620    -4.0050     0.9920 H     1 <1>   0.0800 
 40 H        4.0750    -5.2600    -1.7270 H     1 <1>   0.0800 
 41 H        6.3380    -4.1910    -1.4350 H     1 <1>   0.4500 
 42 H        5.7090    -4.4170     1.4120 H     1 <1>   0.0800 
 43 H        7.3290    -4.5460     0.7880 H     1 <1>   0.0800 
 44 H        5.6530    -6.7130    -0.0430 H     1 <1>   0.0800 
 45 H        7.2350    -6.2920    -0.6690 H     1 <1>   0.0800 
 46 H        5.8960    -6.5350    -1.7680 H     1 <1>   0.0800 
 47 H        8.0450    -2.6680    -0.9800 H     1 <1>   0.1500 
 48 H        4.9670    -2.2190     1.9750 H     1 <1>   0.1500 
 49 H        8.1780    -0.2410    -1.1740 H     1 <1>   0.1500 
 50 H        5.1370     0.2030     1.7490 H     1 <1>   0.1500 
 51 H        7.6840     5.3610    -1.5800 H     1 <1>   0.4000 
 52 H        7.3630     4.7010     1.8150 H     1 <1>   0.0800 
 53 H        7.9210     5.9080     0.6870 H     1 <1>   0.0800 
 54 H        8.7910     4.3930     0.8660 H     1 <1>   0.0800 
 55 H        5.0410     4.7190     0.5870 H     1 <1>   0.0800 
 56 H        5.0190     4.4220    -1.1290 H     1 <1>   0.0800 
 57 H        5.6750     5.9250    -0.5010 H     1 <1>   0.0800 
@<TRIPOS>BOND
  1   1   2  2   
  2   2   3  am  
  3   2   4  1   
  4   3   5  1   
  5   3   6  1   
  6   4   7  1   
  7   4  27  1   
  8   4  28  1   
  9   5   8  1   
 10   5  29  1   
 11   5  30  1   
 12   6  31  1   
 13   6  32  1   
 14   6  33  1   
 15   7   8  1   
 16   7   9  1   
 17   7  34  1   
 18   8  10  1   
 19   8  35  1   
 20   9  11  1   
 21   9  36  1   
 22   9  37  1   
 23  10  11  1   
 24  10  38  1   
 25  10  39  1   
 26  11  12  1   
 27  11  40  1   
 28  12  13  1   
 29  12  14  1   
 30  12  41  1   
 31  13  15  1   
 32  13  42  1   
 33  13  43  1   
 34  14  44  1   
 35  14  45  1   
 36  14  46  1   
 37  15  16  ar  
 38  15  17  ar  
 39  16  18  ar  
 40  16  47  1   
 41  17  19  ar  
 42  17  48  1   
 43  18  20  ar  
 44  18  49  1   
 45  19  20  ar  
 46  19  50  1   
 47  20  21  1   
 48  21  22  3   
 49  22  23  1   
 50  23  24  1   
 51  23  25  1   
 52  23  26  1   
 53  24  51  1   
 54  25  52  1   
 55  25  53  1   
 56  25  54  1   
 57  26  55  1   
 58  26  56  1   
 59  26  57  1   
@<TRIPOS>SUBSTRUCTURE
  1 ****  19 GROUP 4 **** **** 0

# MOE 2024.06 (io_trps.svl 2023.06)
