@<TRIPOS>MOLECULE
NONAME
60 62 1 0 0 
SMALL
USER_CHARGES


@<TRIPOS>ATOM
  1 O        0.7650    -1.8160    -1.9200 O.3   1 <1>  -0.6800 
  2 C        0.0730    -2.1250    -0.7580 C.3   1 <1>   0.1200 
  3 C        0.9620    -1.9520     0.5080 C.3   1 <1>   0.0000 
  4 C        2.3630    -2.6230     0.3900 C.3   1 <1>   0.4230 
  5 C        1.1530    -0.4380     0.7960 C.3   1 <1>  -0.1600 
  6 C        0.2150    -2.5850     1.7160 C.3   1 <1>  -0.1600 
  7 N        2.2930    -4.1310     0.1430 N.4   1 <1>  -0.9590 
  8 C        3.3290    -1.8290    -0.5490 C.3   1 <1>   0.3430 
  9 C        2.0460     0.2850    -0.2170 C.3   1 <1>   0.3430 
 10 C        0.6640    -4.0250     2.0420 C.3   1 <1>  -0.1600 
 11 C        1.1210    -4.8010     0.8060 C.3   1 <1>   0.3430 
 12 C        2.3270    -4.5410    -1.3030 C.3   1 <1>   0.2630 
 13 N        3.3990    -0.3530    -0.2480 N.4   1 <1>  -0.9590 
 14 C        4.2750     0.3620    -1.2230 C.3   1 <1>   0.4860 
 15 C        4.5120     1.7630    -0.7000 C.ar  1 <1>  -0.1440 
 16 C        5.3710     1.9780     0.3680 C.ar  1 <1>  -0.1500 
 17 C        3.8640     2.8440    -1.2800 C.ar  1 <1>  -0.1500 
 18 C        5.5630     3.2570     0.8590 C.ar  1 <1>  -0.1500 
 19 C        4.0600     4.1210    -0.7850 C.ar  1 <1>  -0.1500 
 20 C        4.9060     4.3340     0.2890 C.ar  1 <1>  -0.1440 
 21 C        5.1220     5.7400     0.8300 C.3   1 <1>  -0.0170 
 22 C        6.2940     6.4190     0.1110 C.3   1 <1>  -0.1600 
 23 C        6.5310     7.8390     0.6390 C.3   1 <1>  -0.1600 
 24 C        7.7030     8.5060    -0.0870 C.3   1 <1>  -0.2400 
 25 H        0.1420    -1.7680    -2.6830 H     1 <1>   0.4000 
 26 H       -0.7880    -1.4780    -0.7020 H     1 <1>   0.0800 
 27 H       -0.2850    -3.1360    -0.8540 H     1 <1>   0.0800 
 28 H        2.7940    -2.5140     1.3710 H     1 <1>   0.0800 
 29 H        1.5820    -0.2890     1.7730 H     1 <1>   0.0800 
 30 H        0.1930     0.0500     0.8070 H     1 <1>   0.0800 
 31 H        0.3590    -2.0000     2.6100 H     1 <1>   0.0800 
 32 H       -0.8470    -2.5790     1.5310 H     1 <1>   0.0800 
 33 H        3.1250    -4.5460     0.5910 H     1 <1>   0.4500 
 34 H        2.9990    -1.9540    -1.5660 H     1 <1>   0.0800 
 35 H        4.3160    -2.2520    -0.4650 H     1 <1>   0.0800 
 36 H        2.1340     1.3230     0.0640 H     1 <1>   0.0800 
 37 H        1.5960     0.2440    -1.1960 H     1 <1>   0.0800 
 38 H       -0.1540    -4.5510     2.5050 H     1 <1>   0.0800 
 39 H        1.4660    -4.0100     2.7610 H     1 <1>   0.0800 
 40 H        0.2940    -4.8590     0.1160 H     1 <1>   0.0800 
 41 H        1.3830    -5.8100     1.0860 H     1 <1>   0.0800 
 42 H        1.4800    -4.1360    -1.8320 H     1 <1>   0.0800 
 43 H        2.2940    -5.6170    -1.3860 H     1 <1>   0.0800 
 44 H        3.2290    -4.1960    -1.7800 H     1 <1>   0.0800 
 45 H        3.8290    -0.1760     0.6710 H     1 <1>   0.4500 
 46 H        5.2230    -0.1410    -1.3180 H     1 <1>   0.0800 
 47 H        3.8070     0.4030    -2.1940 H     1 <1>   0.0800 
 48 H        5.9080     1.1670     0.8290 H     1 <1>   0.1500 
 49 H        3.2040     2.7150    -2.1220 H     1 <1>   0.1500 
 50 H        6.2330     3.4170     1.6880 H     1 <1>   0.1500 
 51 H        3.5550     4.9560    -1.2420 H     1 <1>   0.1500 
 52 H        4.2270     6.3210     0.6930 H     1 <1>   0.0800 
 53 H        5.3230     5.6940     1.8860 H     1 <1>   0.0800 
 54 H        7.1840     5.8290     0.2520 H     1 <1>   0.0800 
 55 H        6.0860     6.4570    -0.9450 H     1 <1>   0.0800 
 56 H        5.6440     8.4330     0.4950 H     1 <1>   0.0800 
 57 H        6.7430     7.8040     1.6940 H     1 <1>   0.0800 
 58 H        7.5040     8.5720    -1.1420 H     1 <1>   0.0800 
 59 H        8.6070     7.9420     0.0610 H     1 <1>   0.0800 
 60 H        7.8550     9.5000     0.2950 H     1 <1>   0.0800 
@<TRIPOS>BOND
  1   1   2  1   
  2   1  25  1   
  3   2   3  1   
  4   2  26  1   
  5   2  27  1   
  6   3   4  1   
  7   3   5  1   
  8   3   6  1   
  9   4   7  1   
 10   4   8  1   
 11   4  28  1   
 12   5   9  1   
 13   5  29  1   
 14   5  30  1   
 15   6  10  1   
 16   6  31  1   
 17   6  32  1   
 18   7  11  1   
 19   7  12  1   
 20   7  33  1   
 21   8  13  1   
 22   8  34  1   
 23   8  35  1   
 24   9  13  1   
 25   9  36  1   
 26   9  37  1   
 27  10  11  1   
 28  10  38  1   
 29  10  39  1   
 30  11  40  1   
 31  11  41  1   
 32  12  42  1   
 33  12  43  1   
 34  12  44  1   
 35  13  14  1   
 36  13  45  1   
 37  14  15  1   
 38  14  46  1   
 39  14  47  1   
 40  15  16  ar  
 41  15  17  ar  
 42  16  18  ar  
 43  16  48  1   
 44  17  19  ar  
 45  17  49  1   
 46  18  20  ar  
 47  18  50  1   
 48  19  20  ar  
 49  19  51  1   
 50  20  21  1   
 51  21  22  1   
 52  21  52  1   
 53  21  53  1   
 54  22  23  1   
 55  22  54  1   
 56  22  55  1   
 57  23  24  1   
 58  23  56  1   
 59  23  57  1   
 60  24  58  1   
 61  24  59  1   
 62  24  60  1   
@<TRIPOS>SUBSTRUCTURE
  1 ****  13 GROUP 4 **** **** 0

# MOE 2024.06 (io_trps.svl 2023.06)
