@<TRIPOS>MOLECULE
NONAME
45 47 1 0 0 
SMALL
USER_CHARGES


@<TRIPOS>ATOM
  1 CL      -1.1100     0.8330     0.1720 Cl    1 <1>  -0.1770 
  2 C       -0.7880    -0.8740     0.3480 C.ar  1 <1>   0.1770 
  3 C       -1.5510    -1.8430    -0.3020 C.ar  1 <1>  -0.0090 
  4 C        0.2650    -1.2030     1.1830 C.ar  1 <1>  -0.1500 
  5 S       -2.9480    -1.4480    -1.3910 S.o2  1 <1>   1.4470 
  6 C       -1.2210    -3.1800    -0.0690 C.ar  1 <1>  -0.1500 
  7 C        0.5540    -2.5360     1.3750 C.ar  1 <1>   0.1900 
  8 O       -2.8240    -0.1550    -2.0250 O.2   1 <1>  -0.6500 
  9 O       -3.1610    -2.6000    -2.2420 O.2   1 <1>  -0.6500 
 10 N       -4.2820    -1.3770    -0.3420 N.am  1 <1>  -0.8490 
 11 C       -0.1730    -3.5370     0.7630 C.ar  1 <1>  -0.1500 
 12 F        1.5430    -2.8620     2.1610 F     1 <1>  -0.1900 
 13 C       -5.5760    -1.5100    -1.0430 C.3   1 <1>   0.1960 
 14 C       -4.2180    -0.2470     0.6040 C.3   1 <1>   0.1960 
 15 C       -6.2980    -0.1650    -1.1660 C.3   1 <1>  -0.1600 
 16 C       -5.5770    -0.0310     1.2630 C.3   1 <1>  -0.1600 
 17 C       -6.6020     0.4530     0.2220 C.3   1 <1>   0.2800 
 18 O       -6.4090     1.8390     0.1320 O.3   1 <1>  -0.5600 
 19 C       -8.0430     0.1590     0.7240 C.3   1 <1>  -0.1600 
 20 C       -7.2350     2.5740    -0.7350 C.3   1 <1>   0.1200 
 21 C       -8.9730     1.3760     0.6850 C.3   1 <1>   0.2800 
 22 C       -8.7150     2.1820    -0.5850 C.3   1 <1>  -0.1600 
 23 O       -8.6440     2.1750     1.7490 O.3   1 <1>  -0.6800 
 24 C      -10.4410     0.9960     0.8530 C.3   1 <1>  -0.2400 
 25 H        0.8440    -0.4410     1.6720 H     1 <1>   0.1500 
 26 H       -1.7950    -3.9570    -0.5490 H     1 <1>   0.1500 
 27 H        0.0780    -4.5700     0.9360 H     1 <1>   0.1500 
 28 H       -6.1970    -2.1890    -0.4830 H     1 <1>   0.0800 
 29 H       -5.4470    -1.9380    -2.0230 H     1 <1>   0.0800 
 30 H       -3.9350     0.6600     0.0920 H     1 <1>   0.0800 
 31 H       -3.4800    -0.4540     1.3600 H     1 <1>   0.0800 
 32 H       -7.2020    -0.3000    -1.7300 H     1 <1>   0.0800 
 33 H       -5.6550     0.4860    -1.7340 H     1 <1>   0.0800 
 34 H       -5.4960     0.6910     2.0560 H     1 <1>   0.0800 
 35 H       -5.8820    -0.9640     1.7040 H     1 <1>   0.0800 
 36 H       -8.0330    -0.2270     1.7280 H     1 <1>   0.0800 
 37 H       -8.4660    -0.6230     0.1210 H     1 <1>   0.0800 
 38 H       -6.8970     2.4330    -1.7460 H     1 <1>   0.0800 
 39 H       -7.1050     3.6120    -0.4790 H     1 <1>   0.0800 
 40 H       -8.9990     1.5920    -1.4370 H     1 <1>   0.0800 
 41 H       -9.3290     3.0650    -0.5990 H     1 <1>   0.0800 
 42 H       -7.6960     2.4040     1.6400 H     1 <1>   0.4000 
 43 H      -10.7620     0.3740     0.0380 H     1 <1>   0.0800 
 44 H      -11.0530     1.8800     0.8700 H     1 <1>   0.0800 
 45 H      -10.5820     0.4550     1.7720 H     1 <1>   0.0800 
@<TRIPOS>BOND
  1   1   2  1   
  2   2   3  ar  
  3   2   4  ar  
  4   3   5  1   
  5   3   6  ar  
  6   4   7  ar  
  7   4  25  1   
  8   5   8  2   
  9   5   9  2   
 10   5  10  am  
 11   6  11  ar  
 12   6  26  1   
 13   7  11  ar  
 14   7  12  1   
 15  10  13  1   
 16  10  14  1   
 17  11  27  1   
 18  13  15  1   
 19  13  28  1   
 20  13  29  1   
 21  14  16  1   
 22  14  30  1   
 23  14  31  1   
 24  15  17  1   
 25  15  32  1   
 26  15  33  1   
 27  16  17  1   
 28  16  34  1   
 29  16  35  1   
 30  17  18  1   
 31  17  19  1   
 32  18  20  1   
 33  19  21  1   
 34  19  36  1   
 35  19  37  1   
 36  20  22  1   
 37  20  38  1   
 38  20  39  1   
 39  21  22  1   
 40  21  23  1   
 41  21  24  1   
 42  22  40  1   
 43  22  41  1   
 44  23  42  1   
 45  24  43  1   
 46  24  44  1   
 47  24  45  1   
@<TRIPOS>SUBSTRUCTURE
  1 ****  14 GROUP 4 **** **** 0

# MOE 2024.06 (io_trps.svl 2023.06)
