@<TRIPOS>MOLECULE
NONAME
54 56 1 0 0 
SMALL
USER_CHARGES


@<TRIPOS>ATOM
  1 O       -0.9060     0.1150     1.2350 O.2   1 <1>  -0.5700 
  2 C       -1.8480     0.8470     1.4260 C.2   1 <1>   0.5690 
  3 N       -1.6970     2.1790     1.6960 N.am  1 <1>  -0.6600 
  4 C       -3.2310     0.2340     1.3340 C.3   1 <1>  -0.0990 
  5 C       -0.3420     2.8060     1.6550 C.3   1 <1>   0.2840 
  6 C       -2.8080     3.1530     1.9150 C.3   1 <1>   0.0600 
  7 C       -3.1220    -1.2540     1.0010 C.3   1 <1>   0.3430 
  8 C       -0.2190     3.6770     0.4140 C.ar  1 <1>  -0.1440 
  9 N       -4.4680    -1.8750     0.8440 N.4   1 <1>  -0.9590 
 10 C       -0.2830     5.0590     0.5070 C.ar  1 <1>  -0.1500 
 11 C       -0.0410     3.0860    -0.8280 C.ar  1 <1>  -0.1500 
 12 C       -5.2350    -1.4530    -0.3590 C.3   1 <1>   0.3430 
 13 C       -4.4380    -3.3670     0.7920 C.3   1 <1>   0.3430 
 14 C       -0.1730     5.8420    -0.6300 C.ar  1 <1>  -0.1500 
 15 C        0.0710     3.8670    -1.9650 C.ar  1 <1>  -0.1500 
 16 C       -6.3430    -2.5000    -0.4530 C.3   1 <1>   0.2000 
 17 C       -5.6310    -3.8020    -0.0790 C.3   1 <1>  -0.0800 
 18 C        0.0040     5.2460    -1.8670 C.ar  1 <1>  -0.1500 
 19 O       -7.2690    -2.2150     0.5430 O.3   1 <1>  -0.6800 
 20 C       -5.1610    -4.5750    -1.3250 C.3   1 <1>  -0.0170 
 21 C       -4.2980    -5.7640    -0.9330 C.ar  1 <1>  -0.1440 
 22 C       -2.9500    -5.8220    -1.2310 C.ar  1 <1>  -0.1500 
 23 C       -4.8190    -6.8490    -0.2550 C.ar  1 <1>  -0.1500 
 24 C       -2.2080    -6.9210    -0.8320 C.ar  1 <1>   0.1600 
 25 C       -3.9890    -7.8990     0.0990 C.ar  1 <1>   0.1600 
 26 N       -2.6950    -7.9540    -0.1660 N.ar  1 <1>  -0.6200 
 27 H       -3.7240     0.3560     2.2800 H     1 <1>   0.0800 
 28 H       -3.7730     0.7530     0.5660 H     1 <1>   0.0800 
 29 H       -0.1950     3.3970     2.5420 H     1 <1>   0.0800 
 30 H        0.4290     2.0540     1.6390 H     1 <1>   0.0800 
 31 H       -2.5560     3.8160     2.7250 H     1 <1>   0.0800 
 32 H       -3.7280     2.6580     2.1630 H     1 <1>   0.0800 
 33 H       -2.9540     3.7390     1.0230 H     1 <1>   0.0800 
 34 H       -2.5820    -1.7440     1.7960 H     1 <1>   0.0800 
 35 H       -2.5500    -1.3770     0.0950 H     1 <1>   0.0800 
 36 H       -5.0720    -1.6330     1.6460 H     1 <1>   0.4500 
 37 H       -0.4180     5.5350     1.4620 H     1 <1>   0.1500 
 38 H        0.0130     2.0140    -0.9080 H     1 <1>   0.1500 
 39 H       -5.6440    -0.4610    -0.2560 H     1 <1>   0.0800 
 40 H       -4.6090    -1.5020    -1.2350 H     1 <1>   0.0800 
 41 H       -3.5160    -3.7060     0.3480 H     1 <1>   0.0800 
 42 H       -4.5180    -3.7830     1.7830 H     1 <1>   0.0800 
 43 H       -0.2230     6.9140    -0.5540 H     1 <1>   0.1500 
 44 H        0.2110     3.4030    -2.9250 H     1 <1>   0.1500 
 45 H       -6.8420    -2.5110    -1.4090 H     1 <1>   0.0800 
 46 H       -6.2800    -4.4430     0.4910 H     1 <1>   0.0800 
 47 H        0.0900     5.8540    -2.7500 H     1 <1>   0.1500 
 48 H       -8.0860    -2.7500     0.4380 H     1 <1>   0.4000 
 49 H       -4.6040    -3.9300    -1.9820 H     1 <1>   0.0800 
 50 H       -6.0160    -4.9340    -1.8740 H     1 <1>   0.0800 
 51 H       -2.4620    -5.0330    -1.7730 H     1 <1>   0.1500 
 52 H       -5.8620    -6.8980     0.0010 H     1 <1>   0.1500 
 53 H       -1.1580    -6.9550    -1.0730 H     1 <1>   0.1500 
 54 H       -4.4100    -8.7380     0.6270 H     1 <1>   0.1500 
@<TRIPOS>BOND
  1   1   2  2   
  2   2   3  am  
  3   2   4  1   
  4   3   5  1   
  5   3   6  1   
  6   4   7  1   
  7   4  27  1   
  8   4  28  1   
  9   5   8  1   
 10   5  29  1   
 11   5  30  1   
 12   6  31  1   
 13   6  32  1   
 14   6  33  1   
 15   7   9  1   
 16   7  34  1   
 17   7  35  1   
 18   8  10  ar  
 19   8  11  ar  
 20   9  12  1   
 21   9  13  1   
 22   9  36  1   
 23  10  14  ar  
 24  10  37  1   
 25  11  15  ar  
 26  11  38  1   
 27  12  16  1   
 28  12  39  1   
 29  12  40  1   
 30  13  17  1   
 31  13  41  1   
 32  13  42  1   
 33  14  18  ar  
 34  14  43  1   
 35  15  18  ar  
 36  15  44  1   
 37  16  17  1   
 38  16  19  1   
 39  16  45  1   
 40  17  20  1   
 41  17  46  1   
 42  18  47  1   
 43  19  48  1   
 44  20  21  1   
 45  20  49  1   
 46  20  50  1   
 47  21  22  ar  
 48  21  23  ar  
 49  22  24  ar  
 50  22  51  1   
 51  23  25  ar  
 52  23  52  1   
 53  24  26  ar  
 54  24  53  1   
 55  25  26  ar  
 56  25  54  1   
@<TRIPOS>SUBSTRUCTURE
  1 ****   7 GROUP 4 **** **** 0

# MOE 2024.06 (io_trps.svl 2023.06)
