@<TRIPOS>MOLECULE
NONAME
42 44 1 0 0 
SMALL
USER_CHARGES


@<TRIPOS>ATOM
  1 F        2.4470     1.2960     1.1290 F     1 <1>  -0.3400 
  2 C        1.7970     1.3690    -0.0260 C.3   1 <1>   1.3000 
  3 F        1.7880     0.1570    -0.5610 F     1 <1>  -0.3400 
  4 F        0.5380     1.7090     0.2220 F     1 <1>  -0.3400 
  5 O        2.4140     2.2820    -0.9100 O.3   1 <1>  -0.3630 
  6 C        2.5310     3.5610    -0.5120 C.ar  1 <1>   0.0830 
  7 C        3.6760     3.9770     0.1500 C.ar  1 <1>  -0.1500 
  8 C        1.5170     4.4680    -0.7790 C.ar  1 <1>  -0.1500 
  9 C        3.7980     5.2950     0.5480 C.ar  1 <1>  -0.1500 
 10 C        1.6500     5.7840    -0.3770 C.ar  1 <1>  -0.1500 
 11 C        2.7940     6.2290     0.2850 C.ar  1 <1>   0.0860 
 12 C        2.9360     7.6150     0.6790 C.2   1 <1>   0.5440 
 13 O        2.1890     8.0620     1.5300 O.2   1 <1>  -0.5700 
 14 N        3.8750     8.4480     0.1000 N.am  1 <1>  -0.6600 
 15 C        4.2210     9.7560     0.7530 C.3   1 <1>   0.1400 
 16 C        4.5430     8.1190    -1.2010 C.3   1 <1>   0.1400 
 17 C        5.7220     9.9910     1.0380 C.3   1 <1>   0.2200 
 18 C        6.0830     8.1630    -1.1990 C.3   1 <1>  -0.0190 
 19 N        6.4420    10.4170    -0.1960 N.am  1 <1>  -0.6600 
 20 C        6.4570     8.8340     1.7590 C.3   1 <1>   0.1200 
 21 C        6.5880     9.5850    -1.2670 C.2   1 <1>   0.5690 
 22 C        6.8200     7.3700    -0.1050 C.3   1 <1>   0.1200 
 23 C        6.9380    11.8230    -0.2150 C.3   1 <1>   0.0600 
 24 O        6.3060     7.5680     1.1760 O.3   1 <1>  -0.5600 
 25 O        7.1210     9.9430    -2.2910 O.2   1 <1>  -0.5700 
 26 H        4.4640     3.2740     0.3570 H     1 <1>   0.1500 
 27 H        0.6300     4.1460    -1.2960 H     1 <1>   0.1500 
 28 H        4.6790     5.6190     1.0750 H     1 <1>   0.1500 
 29 H        0.8610     6.4900    -0.5720 H     1 <1>   0.1500 
 30 H        3.8480    10.5580     0.1420 H     1 <1>   0.0800 
 31 H        3.7130     9.8230     1.6980 H     1 <1>   0.0800 
 32 H        4.2430     7.1390    -1.5250 H     1 <1>   0.0800 
 33 H        4.1830     8.8100    -1.9440 H     1 <1>   0.0800 
 34 H        5.7600    10.8240     1.7160 H     1 <1>   0.0800 
 35 H        6.3850     7.7150    -2.1280 H     1 <1>   0.0800 
 36 H        6.0620     8.7500     2.7560 H     1 <1>   0.0800 
 37 H        7.5080     9.0510     1.8350 H     1 <1>   0.0800 
 38 H        7.8680     7.6170    -0.0950 H     1 <1>   0.0800 
 39 H        6.7260     6.3180    -0.3110 H     1 <1>   0.0800 
 40 H        7.6260    11.9780     0.5970 H     1 <1>   0.0800 
 41 H        6.1100    12.5030    -0.1180 H     1 <1>   0.0800 
 42 H        7.4490    12.0370    -1.1390 H     1 <1>   0.0800 
@<TRIPOS>BOND
  1   1   2  1   
  2   2   3  1   
  3   2   4  1   
  4   2   5  1   
  5   5   6  1   
  6   6   7  ar  
  7   6   8  ar  
  8   7   9  ar  
  9   7  26  1   
 10   8  10  ar  
 11   8  27  1   
 12   9  11  ar  
 13   9  28  1   
 14  10  11  ar  
 15  10  29  1   
 16  11  12  1   
 17  12  13  2   
 18  12  14  am  
 19  14  15  1   
 20  14  16  1   
 21  15  17  1   
 22  15  30  1   
 23  15  31  1   
 24  16  18  1   
 25  16  32  1   
 26  16  33  1   
 27  17  19  1   
 28  17  20  1   
 29  17  34  1   
 30  18  21  1   
 31  18  22  1   
 32  18  35  1   
 33  19  21  am  
 34  19  23  1   
 35  20  24  1   
 36  20  36  1   
 37  20  37  1   
 38  21  25  2   
 39  22  24  1   
 40  22  38  1   
 41  22  39  1   
 42  23  40  1   
 43  23  41  1   
 44  23  42  1   
@<TRIPOS>SUBSTRUCTURE
  1 ****  11 GROUP 4 **** **** 0

# MOE 2024.06 (io_trps.svl 2023.06)
