@<TRIPOS>MOLECULE
NONAME
55 58 1 0 0 
SMALL
USER_CHARGES


@<TRIPOS>ATOM
  1 O       -0.7830    -1.2470    -0.1100 O.2   1 <1>  -0.5700 
  2 C        0.1190    -2.0320     0.0500 C.2   1 <1>   0.5690 
  3 N       -0.0620    -3.3840     0.1480 N.am  1 <1>  -0.6600 
  4 C        1.5370    -1.5080     0.1570 C.3   1 <1>  -0.0990 
  5 C        1.0920    -4.2900     0.3550 C.3   1 <1>   0.1400 
  6 C       -1.4110    -4.0130     0.1030 C.3   1 <1>   0.0600 
  7 C        2.4930    -2.3600    -0.6990 C.3   1 <1>  -0.0800 
  8 C        2.2520    -3.8840    -0.5780 C.3   1 <1>  -0.0800 
  9 C        3.9730    -2.1270    -0.3700 C.3   1 <1>  -0.1600 
 10 C        3.6010    -4.4960    -0.1710 C.3   1 <1>  -0.1600 
 11 C        4.6330    -3.4730    -0.6430 C.3   1 <1>   0.4230 
 12 N        5.9810    -3.6320    -0.0250 N.4   1 <1>  -0.9590 
 13 C        6.0740    -3.4450     1.4530 C.3   1 <1>   0.5230 
 14 C        6.6520    -4.8930    -0.4570 C.3   1 <1>   0.2630 
 15 C        6.5430    -2.0250     1.6930 C.2   1 <1>  -0.0400 
 16 O        7.5250    -1.5600     0.9460 O.3   1 <1>  -0.2800 
 17 C        6.1200    -1.0740     2.5520 C.2   1 <1>  -0.1500 
 18 C        7.7680    -0.3010     1.2890 C.2   1 <1>   0.0870 
 19 C        6.9150     0.0440     2.2910 C.2   1 <1>  -0.1500 
 20 C        8.7960     0.4560     0.6130 C.ar  1 <1>   0.0530 
 21 C        9.8140    -0.1740    -0.1020 C.ar  1 <1>  -0.1500 
 22 C        8.8070     1.8490     0.6480 C.ar  1 <1>  -0.1500 
 23 C       10.7930     0.5520    -0.7550 C.ar  1 <1>  -0.1500 
 24 C        9.7840     2.5790    -0.0030 C.ar  1 <1>  -0.1500 
 25 C       10.7840     1.9350    -0.7110 C.ar  1 <1>  -0.1440 
 26 C       11.8580     2.7340    -1.4260 C.3   1 <1>  -0.0970 
 27 H        1.5630    -0.4830    -0.1660 H     1 <1>   0.0800 
 28 H        1.8130    -1.5410     1.1940 H     1 <1>   0.0800 
 29 H        1.3920    -4.2200     1.3860 H     1 <1>   0.0800 
 30 H        0.8030    -5.3090     0.1550 H     1 <1>   0.0800 
 31 H       -1.5980    -4.5430     1.0200 H     1 <1>   0.0800 
 32 H       -1.4670    -4.6990    -0.7240 H     1 <1>   0.0800 
 33 H       -2.1740    -3.2630    -0.0220 H     1 <1>   0.0800 
 34 H        2.3250    -2.0920    -1.7300 H     1 <1>   0.0800 
 35 H        2.0030    -4.2480    -1.5620 H     1 <1>   0.0800 
 36 H        4.0580    -1.8550     0.6650 H     1 <1>   0.0800 
 37 H        4.3900    -1.3450    -0.9820 H     1 <1>   0.0800 
 38 H        3.7420    -5.4530    -0.6410 H     1 <1>   0.0800 
 39 H        3.6350    -4.6080     0.8970 H     1 <1>   0.0800 
 40 H        4.7260    -3.5720    -1.7140 H     1 <1>   0.0800 
 41 H        6.5520    -2.8410    -0.3730 H     1 <1>   0.4500 
 42 H        5.1270    -3.6170     1.9350 H     1 <1>   0.0800 
 43 H        6.8050    -4.1200     1.8660 H     1 <1>   0.0800 
 44 H        6.1230    -5.7520    -0.0770 H     1 <1>   0.0800 
 45 H        7.6670    -4.9210    -0.0910 H     1 <1>   0.0800 
 46 H        6.6780    -4.9520    -1.5340 H     1 <1>   0.0800 
 47 H        5.3420    -1.1130     3.2960 H     1 <1>   0.1500 
 48 H        6.8460     0.9870     2.8030 H     1 <1>   0.1500 
 49 H        9.8450    -1.2470    -0.1440 H     1 <1>   0.1500 
 50 H        8.0400     2.3730     1.1890 H     1 <1>   0.1500 
 51 H       11.5670     0.0360    -1.2970 H     1 <1>   0.1500 
 52 H        9.7650     3.6540     0.0440 H     1 <1>   0.1500 
 53 H       12.1930     2.2120    -2.3040 H     1 <1>   0.0800 
 54 H       12.6970     2.8830    -0.7700 H     1 <1>   0.0800 
 55 H       11.4780     3.6930    -1.7270 H     1 <1>   0.0800 
@<TRIPOS>BOND
  1   1   2  2   
  2   2   3  am  
  3   2   4  1   
  4   3   5  1   
  5   3   6  1   
  6   4   7  1   
  7   4  27  1   
  8   4  28  1   
  9   5   8  1   
 10   5  29  1   
 11   5  30  1   
 12   6  31  1   
 13   6  32  1   
 14   6  33  1   
 15   7   8  1   
 16   7   9  1   
 17   7  34  1   
 18   8  10  1   
 19   8  35  1   
 20   9  11  1   
 21   9  36  1   
 22   9  37  1   
 23  10  11  1   
 24  10  38  1   
 25  10  39  1   
 26  11  12  1   
 27  11  40  1   
 28  12  13  1   
 29  12  14  1   
 30  12  41  1   
 31  13  15  1   
 32  13  42  1   
 33  13  43  1   
 34  14  44  1   
 35  14  45  1   
 36  14  46  1   
 37  15  16  1   
 38  15  17  2   
 39  16  18  1   
 40  17  19  1   
 41  17  47  1   
 42  18  19  2   
 43  18  20  1   
 44  19  48  1   
 45  20  21  ar  
 46  20  22  ar  
 47  21  23  ar  
 48  21  49  1   
 49  22  24  ar  
 50  22  50  1   
 51  23  25  ar  
 52  23  51  1   
 53  24  25  ar  
 54  24  52  1   
 55  25  26  1   
 56  26  53  1   
 57  26  54  1   
 58  26  55  1   
@<TRIPOS>SUBSTRUCTURE
  1 ****   9 GROUP 4 **** **** 0

# MOE 2024.06 (io_trps.svl 2023.06)
