@<TRIPOS>MOLECULE
NONAME
39 40 1 0 0 
SMALL
USER_CHARGES


@<TRIPOS>ATOM
  1 CL      -1.9560    -0.2450     0.7900 Cl    1 <1>  -0.1230 
  2 C       -1.7590    -1.8940     0.2240 C.2   1 <1>   0.1230 
  3 C       -1.0200    -2.2920    -0.8790 C.2   1 <1>   0.1390 
  4 C       -2.2820    -3.0130     0.7560 C.2   1 <1>  -0.3020 
  5 N       -1.0730    -3.5830    -1.0380 N.2   1 <1>  -0.7070 
  6 N       -1.8510    -4.0270    -0.0240 N.pl3 1 <1>   0.3140 
  7 C       -2.1610    -5.4560     0.1430 C.3   1 <1>   0.0960 
  8 C       -2.9780    -5.9450    -1.0540 C.3   1 <1>   0.1400 
  9 N       -3.3550    -7.3720    -0.8820 N.am  1 <1>  -0.7300 
 10 C       -4.3560    -7.8180    -0.0720 C.2   1 <1>   0.5690 
 11 O       -4.9490    -7.0290     0.6610 O.2   1 <1>  -0.5700 
 12 C       -4.6890    -9.3360    -0.0920 C.3   1 <1>   0.2810 
 13 N       -3.5080   -10.1490     0.2320 N.am  1 <1>  -0.7300 
 14 C       -5.8510    -9.7240     0.8440 C.3   1 <1>   0.0200 
 15 C       -3.1860   -11.3470    -0.2380 C.2   1 <1>   0.5690 
 16 C       -7.2000    -9.2270     0.3790 C.2   1 <1>  -0.3320 
 17 O       -2.1700   -11.8790     0.1710 O.2   1 <1>  -0.5700 
 18 C       -4.0560   -12.0390    -1.2730 C.3   1 <1>  -0.1790 
 19 N       -7.6270    -7.9160     0.3780 N.pl3 1 <1>   0.0330 
 20 C       -8.2110    -9.9820    -0.1560 C.2   1 <1>   0.0770 
 21 C       -8.8630    -7.8860    -0.1450 C.2   1 <1>   0.0360 
 22 N       -9.2590    -9.1210    -0.4860 N.2   1 <1>  -0.5650 
 23 H       -0.4750    -1.6230    -1.5220 H     1 <1>   0.1500 
 24 H       -2.9150    -3.1360     1.6150 H     1 <1>   0.1500 
 25 H       -1.2350    -5.9960     0.2060 H     1 <1>   0.0800 
 26 H       -2.7190    -5.5850     1.0510 H     1 <1>   0.0800 
 27 H       -2.4050    -5.8330    -1.9600 H     1 <1>   0.0800 
 28 H       -3.8750    -5.3540    -1.1390 H     1 <1>   0.0800 
 29 H       -2.8060    -8.0490    -1.4210 H     1 <1>   0.3700 
 30 H       -5.0060    -9.5600    -1.1110 H     1 <1>   0.0800 
 31 H       -2.8610    -9.7930     0.9190 H     1 <1>   0.3700 
 32 H       -5.6500    -9.3360     1.8440 H     1 <1>   0.0800 
 33 H       -5.8980   -10.8100     0.9240 H     1 <1>   0.0800 
 34 H       -5.0610   -12.1780    -0.8800 H     1 <1>   0.0800 
 35 H       -3.6260   -13.0130    -1.5030 H     1 <1>   0.0800 
 36 H       -4.0900   -11.4410    -2.1810 H     1 <1>   0.0800 
 37 H       -7.0820    -7.1180     0.6880 H     1 <1>   0.2700 
 38 H       -8.2070   -11.0540    -0.3050 H     1 <1>   0.1500 
 39 H       -9.4570    -6.9930    -0.2780 H     1 <1>   0.1500 
@<TRIPOS>BOND
  1   1   2  1   
  2   2   3  1   
  3   2   4  2   
  4   3   5  2   
  5   3  23  1   
  6   4   6  1   
  7   4  24  1   
  8   5   6  1   
  9   6   7  1   
 10   7   8  1   
 11   7  25  1   
 12   7  26  1   
 13   8   9  1   
 14   8  27  1   
 15   8  28  1   
 16   9  10  am  
 17   9  29  1   
 18  10  11  2   
 19  10  12  1   
 20  12  13  1   
 21  12  14  1   
 22  12  30  1   
 23  13  15  am  
 24  13  31  1   
 25  14  16  1   
 26  14  32  1   
 27  14  33  1   
 28  15  17  2   
 29  15  18  1   
 30  16  19  1   
 31  16  20  2   
 32  18  34  1   
 33  18  35  1   
 34  18  36  1   
 35  19  21  1   
 36  19  37  1   
 37  20  22  1   
 38  20  38  1   
 39  21  22  2   
 40  21  39  1   
@<TRIPOS>SUBSTRUCTURE
  1 ****  10 GROUP 4 **** **** 0

# MOE 2024.06 (io_trps.svl 2023.06)
