@<TRIPOS>MOLECULE
NONAME
44 45 1 0 0 
SMALL
USER_CHARGES


@<TRIPOS>ATOM
  1 S       -1.6660     3.2210    -1.3470 S.3   1 <1>  -0.0800 
  2 C       -0.2510     2.6500    -2.2010 C.2   1 <1>   0.2280 
  3 C       -0.6480     3.6700    -0.0100 C.2   1 <1>  -0.1100 
  4 N        0.8440     2.7900    -1.5610 N.2   1 <1>  -0.5650 
  5 C        0.6240     3.3650    -0.3120 C.2   1 <1>   0.0460 
  6 C        1.8480     3.5910     0.5660 C.3   1 <1>   0.5240 
  7 N        2.9690     4.0930    -0.2790 N.4   1 <1>  -0.9590 
  8 C        2.6730     5.4010    -0.9410 C.3   1 <1>   0.5610 
  9 C        4.3630     4.0050     0.2850 C.3   1 <1>   0.4230 
 10 C        3.7830     5.6590    -1.9410 C.2   1 <1>  -0.2880 
 11 C        2.5660     6.5950     0.0300 C.3   1 <1>  -0.1600 
 12 C        5.3860     4.0650    -0.8700 C.3   1 <1>  -0.0220 
 13 C        4.5890     2.7500     1.1580 C.3   1 <1>  -0.0220 
 14 C        4.9830     5.0720    -1.9310 C.2   1 <1>  -0.2880 
 15 C        1.1750     6.8590     0.6400 C.3   1 <1>  -0.1600 
 16 C        6.0080     2.6640     1.6990 C.2   1 <1>  -0.2880 
 17 C        0.1020     7.1210    -0.4270 C.3   1 <1>  -0.1600 
 18 C        6.3480     2.8660     2.9750 C.2   1 <1>  -0.3000 
 19 C       -1.2430     7.4530     0.2240 C.3   1 <1>  -0.2400 
 20 H       -0.4100     2.2330    -3.1830 H     1 <1>   0.1500 
 21 H       -1.1250     4.1090     0.8490 H     1 <1>   0.1500 
 22 H        2.1130     2.6370     0.9880 H     1 <1>   0.0800 
 23 H        1.6320     4.2670     1.3730 H     1 <1>   0.0800 
 24 H        2.9440     3.4510    -1.0850 H     1 <1>   0.4500 
 25 H        1.7530     5.3120    -1.4960 H     1 <1>   0.0800 
 26 H        4.5320     4.8650     0.9120 H     1 <1>   0.0800 
 27 H        3.5030     6.3870    -2.6840 H     1 <1>   0.1500 
 28 H        3.2970     6.5120     0.8130 H     1 <1>   0.0800 
 29 H        2.8240     7.4840    -0.5210 H     1 <1>   0.0800 
 30 H        6.3450     4.3470    -0.4720 H     1 <1>   0.0800 
 31 H        5.4930     3.0970    -1.3270 H     1 <1>   0.0800 
 32 H        3.9300     2.7810     2.0070 H     1 <1>   0.0800 
 33 H        4.3810     1.8580     0.5930 H     1 <1>   0.0800 
 34 H        5.7500     5.2660    -2.6670 H     1 <1>   0.1500 
 35 H        0.8640     6.0570     1.2800 H     1 <1>   0.0800 
 36 H        1.2500     7.7360     1.2630 H     1 <1>   0.0800 
 37 H        6.7450     2.4090     0.9530 H     1 <1>   0.1500 
 38 H        0.4000     7.9520    -1.0450 H     1 <1>   0.0800 
 39 H       -0.0300     6.2650    -1.0640 H     1 <1>   0.0800 
 40 H        7.3600     2.7940     3.3420 H     1 <1>   0.1500 
 41 H        5.6630     3.1140     3.7680 H     1 <1>   0.1500 
 42 H       -1.1610     8.3370     0.8320 H     1 <1>   0.0800 
 43 H       -1.5850     6.6400     0.8400 H     1 <1>   0.0800 
 44 H       -1.9840     7.6360    -0.5360 H     1 <1>   0.0800 
@<TRIPOS>BOND
  1   1   2  1   
  2   1   3  1   
  3   2   4  2   
  4   2  20  1   
  5   3   5  2   
  6   3  21  1   
  7   4   5  1   
  8   5   6  1   
  9   6   7  1   
 10   6  22  1   
 11   6  23  1   
 12   7   8  1   
 13   7   9  1   
 14   7  24  1   
 15   8  10  1   
 16   8  11  1   
 17   8  25  1   
 18   9  12  1   
 19   9  13  1   
 20   9  26  1   
 21  10  14  2   
 22  10  27  1   
 23  11  15  1   
 24  11  28  1   
 25  11  29  1   
 26  12  14  1   
 27  12  30  1   
 28  12  31  1   
 29  13  16  1   
 30  13  32  1   
 31  13  33  1   
 32  14  34  1   
 33  15  17  1   
 34  15  35  1   
 35  15  36  1   
 36  16  18  2   
 37  16  37  1   
 38  17  19  1   
 39  17  38  1   
 40  17  39  1   
 41  18  40  1   
 42  18  41  1   
 43  19  42  1   
 44  19  43  1   
 45  19  44  1   
@<TRIPOS>SUBSTRUCTURE
  1 ****   7 GROUP 4 **** **** 0

# MOE 2024.06 (io_trps.svl 2023.06)
