@<TRIPOS>MOLECULE
NONAME
47 48 1 0 0 
SMALL
USER_CHARGES


@<TRIPOS>ATOM
  1 O       -1.0630     0.0520     1.2860 O.2   1 <1>  -0.5700 
  2 C       -0.7860     0.0060     0.1090 C.2   1 <1>   0.5690 
  3 N       -1.5330    -0.6510    -0.8170 N.am  1 <1>  -0.4930 
  4 C        0.4740     0.7650    -0.3340 C.3   1 <1>   0.4040 
  5 C       -2.7090    -1.3690    -0.6590 C.2   1 <1>   0.3520 
  6 N        0.8560     1.9000     0.6010 N.4   1 <1>  -0.9590 
  7 N       -3.2640    -1.8520    -1.7190 N.2   1 <1>  -0.7070 
  8 C       -3.4180    -1.6680     0.5010 C.2   1 <1>  -0.1500 
  9 C        2.2060     2.4800     0.3060 C.3   1 <1>   0.5610 
 10 C       -0.2240     2.9540     0.6190 C.3   1 <1>   0.4230 
 11 N       -4.3660    -2.4880    -1.2650 N.pl3 1 <1>   0.3140 
 12 C       -4.4760    -2.3880     0.0740 C.2   1 <1>  -0.3020 
 13 C        2.1050     3.2740    -0.9880 C.2   1 <1>  -0.2880 
 14 C        3.3090     1.4060     0.2540 C.3   1 <1>  -0.0220 
 15 C       -0.3700     3.6290    -0.7680 C.3   1 <1>  -0.0220 
 16 C        0.0370     3.9790     1.7400 C.3   1 <1>  -0.0220 
 17 C       -5.2820    -3.1830    -2.1780 C.3   1 <1>   0.0160 
 18 C        0.9680     3.7840    -1.4760 C.2   1 <1>  -0.2880 
 19 C        4.7210     1.9660     0.3770 C.2   1 <1>  -0.2880 
 20 C       -1.1950     4.8280     2.0110 C.2   1 <1>  -0.2880 
 21 C        5.0900     3.2380     0.5680 C.2   1 <1>  -0.3000 
 22 C       -1.2590     6.1510     1.8390 C.2   1 <1>  -0.3000 
 23 H       -1.2660    -0.6670    -1.8010 H     1 <1>   0.3700 
 24 H        0.3220     1.1510    -1.3280 H     1 <1>   0.0800 
 25 H        1.2730     0.0470    -0.3780 H     1 <1>   0.0800 
 26 H        0.8670     1.4890     1.5460 H     1 <1>   0.4500 
 27 H       -3.1580    -1.3800     1.5040 H     1 <1>   0.1500 
 28 H        2.4700     3.1620     1.0980 H     1 <1>   0.0800 
 29 H       -1.1640     2.4810     0.8550 H     1 <1>   0.0800 
 30 H       -5.2810    -2.8240     0.6370 H     1 <1>   0.1500 
 31 H        3.0560     3.4080    -1.4780 H     1 <1>   0.1500 
 32 H        3.1680     0.7140     1.0650 H     1 <1>   0.0800 
 33 H        3.2470     0.8670    -0.6750 H     1 <1>   0.0800 
 34 H       -1.0290     3.0410    -1.3810 H     1 <1>   0.0800 
 35 H       -0.8340     4.5940    -0.6600 H     1 <1>   0.0800 
 36 H        0.2890     3.4670     2.6510 H     1 <1>   0.0800 
 37 H        0.8540     4.6260     1.4710 H     1 <1>   0.0800 
 38 H       -6.0990    -3.6020    -1.6210 H     1 <1>   0.0800 
 39 H       -4.7450    -3.9650    -2.6810 H     1 <1>   0.0800 
 40 H       -5.6540    -2.4810    -2.8990 H     1 <1>   0.0800 
 41 H        0.9130     4.3460    -2.3970 H     1 <1>   0.1500 
 42 H        5.4660     1.1880     0.2940 H     1 <1>   0.1500 
 43 H       -2.0380     4.2590     2.3740 H     1 <1>   0.1500 
 44 H        6.1230     3.5410     0.6450 H     1 <1>   0.1500 
 45 H        4.4390     4.0890     0.6650 H     1 <1>   0.1500 
 46 H       -2.1390     6.7400     2.0410 H     1 <1>   0.1500 
 47 H       -0.4480     6.7670     1.4870 H     1 <1>   0.1500 
@<TRIPOS>BOND
  1   1   2  2   
  2   2   3  am  
  3   2   4  1   
  4   3   5  1   
  5   3  23  1   
  6   4   6  1   
  7   4  24  1   
  8   4  25  1   
  9   5   7  2   
 10   5   8  1   
 11   6   9  1   
 12   6  10  1   
 13   6  26  1   
 14   7  11  1   
 15   8  12  2   
 16   8  27  1   
 17   9  13  1   
 18   9  14  1   
 19   9  28  1   
 20  10  15  1   
 21  10  16  1   
 22  10  29  1   
 23  11  12  1   
 24  11  17  1   
 25  12  30  1   
 26  13  18  2   
 27  13  31  1   
 28  14  19  1   
 29  14  32  1   
 30  14  33  1   
 31  15  18  1   
 32  15  34  1   
 33  15  35  1   
 34  16  20  1   
 35  16  36  1   
 36  16  37  1   
 37  17  38  1   
 38  17  39  1   
 39  17  40  1   
 40  18  41  1   
 41  19  21  2   
 42  19  42  1   
 43  20  22  2   
 44  20  43  1   
 45  21  44  1   
 46  21  45  1   
 47  22  46  1   
 48  22  47  1   
@<TRIPOS>SUBSTRUCTURE
  1 ****   4 GROUP 4 **** **** 0

# MOE 2024.06 (io_trps.svl 2023.06)
