@<TRIPOS>MOLECULE
NONAME
41 43 1 0 0 
SMALL
USER_CHARGES


@<TRIPOS>ATOM
  1 F       -1.3040     0.9810     0.7210 F     1 <1>  -0.1900 
  2 C       -0.7400     2.1480     0.5640 C.ar  1 <1>   0.1900 
  3 C        0.6350     2.2180     0.4730 C.ar  1 <1>  -0.1500 
  4 C       -1.5370     3.2720     0.4960 C.ar  1 <1>  -0.1500 
  5 C        1.2300     3.4580     0.3060 C.ar  1 <1>  -0.1500 
  6 C       -0.9290     4.5050     0.3300 C.ar  1 <1>  -0.1500 
  7 C        0.4580     4.6190     0.2340 C.ar  1 <1>  -0.1430 
  8 C        1.0790     6.0140     0.0450 C.3   1 <1>   0.4240 
  9 O        0.5320     6.8220     1.0230 O.3   1 <1>  -0.6800 
 10 C        2.6020     6.0810     0.2120 C.3   1 <1>  -0.1600 
 11 C        0.6830     6.6110    -1.3150 C.3   1 <1>  -0.1600 
 12 C        3.1610     7.5020     0.0800 C.3   1 <1>   0.3430 
 13 C        1.5660     7.7800    -1.7700 C.3   1 <1>   0.3430 
 14 N        2.2000     8.4270    -0.6040 N.4   1 <1>  -0.9590 
 15 C        2.8320     9.7310    -0.9500 C.3   1 <1>   0.5240 
 16 C        3.1720    10.4930     0.3190 C.2   1 <1>  -0.1810 
 17 C        4.3840    10.3410     1.0120 C.2   1 <1>   0.0560 
 18 C        2.4600    11.4130     1.0030 C.2   1 <1>  -0.3020 
 19 N        4.3920    11.1390     2.0700 N.2   1 <1>  -0.7070 
 20 C        5.3880     9.3750     0.5450 C.2   1 <1>   1.0330 
 21 N        3.2210    11.7850     2.0500 N.pl3 1 <1>   0.3000 
 22 O        5.6730     9.3330    -0.6710 O.co2 1 <1>  -0.9000 
 23 O        5.7150     8.3900     1.2320 O.co2 1 <1>  -0.9000 
 24 H        1.2220     1.3190     0.5310 H     1 <1>   0.1500 
 25 H       -2.6050     3.1790     0.5710 H     1 <1>   0.1500 
 26 H        2.3030     3.4850     0.2370 H     1 <1>   0.1500 
 27 H       -1.5520     5.3820     0.2780 H     1 <1>   0.1500 
 28 H        0.4690     6.2970     1.8470 H     1 <1>   0.4000 
 29 H        3.0700     5.4820    -0.5470 H     1 <1>   0.0800 
 30 H        2.9010     5.6770     1.1630 H     1 <1>   0.0800 
 31 H       -0.3450     6.9220    -1.2890 H     1 <1>   0.0800 
 32 H        0.7550     5.8440    -2.0650 H     1 <1>   0.0800 
 33 H        4.0980     7.4670    -0.4580 H     1 <1>   0.0800 
 34 H        3.3740     7.8820     1.0670 H     1 <1>   0.0800 
 35 H        0.9670     8.4910    -2.3150 H     1 <1>   0.0800 
 36 H        2.3390     7.4130    -2.4270 H     1 <1>   0.0800 
 37 H        1.4700     8.6090     0.1020 H     1 <1>   0.4500 
 38 H        2.1440    10.3240    -1.5260 H     1 <1>   0.0800 
 39 H        3.7150     9.5750    -1.5480 H     1 <1>   0.0800 
 40 H        1.4850    11.8250     0.8190 H     1 <1>   0.1500 
 41 H        2.9740    12.4770     2.7680 H     1 <1>   0.2700 
@<TRIPOS>BOND
  1   1   2  1   
  2   2   3  ar  
  3   2   4  ar  
  4   3   5  ar  
  5   3  24  1   
  6   4   6  ar  
  7   4  25  1   
  8   5   7  ar  
  9   5  26  1   
 10   6   7  ar  
 11   6  27  1   
 12   7   8  1   
 13   8   9  1   
 14   8  10  1   
 15   8  11  1   
 16   9  28  1   
 17  10  12  1   
 18  10  29  1   
 19  10  30  1   
 20  11  13  1   
 21  11  31  1   
 22  11  32  1   
 23  12  14  1   
 24  12  33  1   
 25  12  34  1   
 26  13  14  1   
 27  13  35  1   
 28  13  36  1   
 29  14  15  1   
 30  14  37  1   
 31  15  16  1   
 32  15  38  1   
 33  15  39  1   
 34  16  17  1   
 35  16  18  2   
 36  17  19  2   
 37  17  20  1   
 38  18  21  1   
 39  18  40  1   
 40  19  21  1   
 41  20  22  ar  
 42  20  23  ar  
 43  21  41  1   
@<TRIPOS>SUBSTRUCTURE
  1 ****  10 GROUP 4 **** **** 0

# MOE 2024.06 (io_trps.svl 2023.06)
