@<TRIPOS>MOLECULE
NONAME
48 50 1 0 0 
SMALL
USER_CHARGES


@<TRIPOS>ATOM
  1 S        0.6920     1.7460     0.9710 S.o2  1 <1>   1.3330 
  2 O        1.1100     3.1110     1.2030 O.2   1 <1>  -0.6500 
  3 O        1.2400     0.7280     1.8330 O.2   1 <1>  -0.6500 
  4 N        1.2380     1.3620    -0.5890 N.am  1 <1>  -0.8490 
  5 C       -1.0800     1.5910     0.8900 C.3   1 <1>  -0.1350 
  6 C        2.5230     0.6340    -0.6430 C.3   1 <1>   0.1960 
  7 C        1.0100     2.3120    -1.6910 C.3   1 <1>   0.1960 
  8 C        3.6880     1.3700     0.0630 C.3   1 <1>   0.3430 
  9 C        1.9110     3.5610    -1.7010 C.3   1 <1>  -0.1600 
 10 N        3.5920     2.8610    -0.0640 N.4   1 <1>  -0.9590 
 11 C        3.4040     3.3280    -1.4610 C.3   1 <1>   0.3430 
 12 C        4.6380     3.5860     0.6980 C.3   1 <1>   0.5230 
 13 C        4.2680     5.0480     0.7330 C.2   1 <1>  -0.1400 
 14 S        5.2270     6.1580    -0.2080 S.3   1 <1>  -0.0800 
 15 C        3.2990     5.7450     1.3460 C.2   1 <1>   0.0770 
 16 C        4.1930     7.4850     0.3200 C.2   1 <1>   0.4620 
 17 N        3.2540     7.1020     1.1100 N.2   1 <1>  -0.5650 
 18 N        4.4300     8.7640    -0.1290 N.pl3 1 <1>  -0.8220 
 19 C        5.6640     9.2200    -0.8400 C.3   1 <1>   0.2090 
 20 C        3.5320     9.8940     0.2620 C.3   1 <1>   0.2090 
 21 C        6.3370    10.3730    -0.0730 C.3   1 <1>   0.1200 
 22 C        4.3310    11.0030     0.9680 C.3   1 <1>   0.1200 
 23 O        5.4260    11.4050     0.1900 O.3   1 <1>  -0.5600 
 24 H       -1.5100     1.7800     1.8540 H     1 <1>   0.0800 
 25 H       -1.3500     0.5980     0.5860 H     1 <1>   0.0800 
 26 H       -1.4890     2.2920     0.1900 H     1 <1>   0.0800 
 27 H        2.7880     0.4470    -1.6690 H     1 <1>   0.0800 
 28 H        2.4010    -0.3310    -0.1780 H     1 <1>   0.0800 
 29 H       -0.0200     2.6290    -1.6750 H     1 <1>   0.0800 
 30 H        1.1500     1.7830    -2.6200 H     1 <1>   0.0800 
 31 H        4.6240     1.0180    -0.3380 H     1 <1>   0.0800 
 32 H        3.6600     1.1040     1.1080 H     1 <1>   0.0800 
 33 H        1.5440     4.2870    -0.9970 H     1 <1>   0.0800 
 34 H        1.8060     4.0200    -2.6680 H     1 <1>   0.0800 
 35 H        2.7020     3.1200     0.4110 H     1 <1>   0.4500 
 36 H        3.9250     4.2600    -1.6150 H     1 <1>   0.0800 
 37 H        3.7930     2.6070    -2.1610 H     1 <1>   0.0800 
 38 H        5.6040     3.4580     0.2380 H     1 <1>   0.0800 
 39 H        4.6810     3.2110     1.7080 H     1 <1>   0.0800 
 40 H        2.5440     5.3350     1.9990 H     1 <1>   0.1500 
 41 H        5.3970     9.5620    -1.8240 H     1 <1>   0.0800 
 42 H        6.3710     8.4190    -0.9490 H     1 <1>   0.0800 
 43 H        2.7500     9.5510     0.9160 H     1 <1>   0.0800 
 44 H        3.0680    10.2990    -0.6200 H     1 <1>   0.0800 
 45 H        7.1410    10.7860    -0.6550 H     1 <1>   0.0800 
 46 H        6.7330    10.0190     0.8630 H     1 <1>   0.0800 
 47 H        4.6920    10.6540     1.9190 H     1 <1>   0.0800 
 48 H        3.7070    11.8630     1.1280 H     1 <1>   0.0800 
@<TRIPOS>BOND
  1   1   2  2   
  2   1   3  2   
  3   1   4  am  
  4   1   5  1   
  5   4   6  1   
  6   4   7  1   
  7   5  24  1   
  8   5  25  1   
  9   5  26  1   
 10   6   8  1   
 11   6  27  1   
 12   6  28  1   
 13   7   9  1   
 14   7  29  1   
 15   7  30  1   
 16   8  10  1   
 17   8  31  1   
 18   8  32  1   
 19   9  11  1   
 20   9  33  1   
 21   9  34  1   
 22  10  11  1   
 23  10  12  1   
 24  10  35  1   
 25  11  36  1   
 26  11  37  1   
 27  12  13  1   
 28  12  38  1   
 29  12  39  1   
 30  13  14  1   
 31  13  15  2   
 32  14  16  1   
 33  15  17  1   
 34  15  40  1   
 35  16  17  2   
 36  16  18  1   
 37  18  19  1   
 38  18  20  1   
 39  19  21  1   
 40  19  41  1   
 41  19  42  1   
 42  20  22  1   
 43  20  43  1   
 44  20  44  1   
 45  21  23  1   
 46  21  45  1   
 47  21  46  1   
 48  22  23  1   
 49  22  47  1   
 50  22  48  1   
@<TRIPOS>SUBSTRUCTURE
  1 ****  13 GROUP 4 **** **** 0

# MOE 2024.06 (io_trps.svl 2023.06)
