@<TRIPOS>MOLECULE
NONAME
48 51 1 0 0 
SMALL
USER_CHARGES


@<TRIPOS>ATOM
  1 O       -1.4350     0.7980     1.8740 O.2   1 <1>  -0.5700 
  2 C       -1.4160     1.3700     0.8000 C.2   1 <1>   0.5440 
  3 N       -2.2240     0.8930    -0.2150 N.am  1 <1>  -0.6600 
  4 C       -0.5600     2.5300     0.6370 C.ar  1 <1>   0.0860 
  5 C       -2.8400    -0.4640    -0.0910 C.3   1 <1>   0.1400 
  6 C       -2.6190     1.7220    -1.3930 C.3   1 <1>   0.1400 
  7 C        0.2690     2.6830    -0.4650 C.ar  1 <1>  -0.1500 
  8 C       -0.5470     3.5420     1.6230 C.ar  1 <1>  -0.1500 
  9 C       -4.1570    -0.4060     0.6960 C.3   1 <1>   0.1400 
 10 C       -4.1180     1.6710    -1.7250 C.3   1 <1>  -0.1600 
 11 C        1.0640     3.8190    -0.5940 C.ar  1 <1>   0.2270 
 12 C        0.2390     4.6640     1.5070 C.ar  1 <1>  -0.1500 
 13 N       -5.2610     0.2050    -0.1060 N.am  1 <1>  -0.6600 
 14 C       -5.0450     1.6240    -0.5050 C.3   1 <1>   0.1400 
 15 N        1.9240     4.1870    -1.5750 N.2   1 <1>  -0.2270 
 16 C        1.0460     4.7880     0.3740 C.ar  1 <1>  -0.1520 
 17 C       -6.4480    -0.4460    -0.3720 C.2   1 <1>   0.7150 
 18 N        2.4320     5.3200    -1.2630 N.2   1 <1>  -0.4180 
 19 N        1.9210     5.7060    -0.0840 N.pl3 1 <1>   0.3000 
 20 O       -7.4280     0.2130    -0.6710 O.2   1 <1>  -0.5700 
 21 C       -6.5570    -1.8760    -0.3100 C.2   1 <1>  -0.2370 
 22 N       -7.6200    -2.5330     0.2210 N.pl3 1 <1>   0.3140 
 23 C       -5.7130    -2.8560    -0.7380 C.2   1 <1>  -0.1500 
 24 N       -7.4720    -3.8650     0.1680 N.2   1 <1>  -0.7070 
 25 C       -8.8280    -1.9400     0.8160 C.3   1 <1>   0.0160 
 26 C       -6.3300    -4.0490    -0.4130 C.2   1 <1>   0.1080 
 27 C       -5.7810    -5.4300    -0.6840 C.3   1 <1>  -0.0590 
 28 H       -2.1560    -1.1060     0.4370 H     1 <1>   0.0800 
 29 H       -3.0040    -0.8930    -1.0630 H     1 <1>   0.0800 
 30 H       -2.0540     1.4040    -2.2520 H     1 <1>   0.0800 
 31 H       -2.3670     2.7500    -1.1980 H     1 <1>   0.0800 
 32 H        0.3160     1.9330    -1.2320 H     1 <1>   0.1500 
 33 H       -1.1780     3.4090     2.4860 H     1 <1>   0.1500 
 34 H       -4.0080     0.1680     1.5940 H     1 <1>   0.0800 
 35 H       -4.4240    -1.4000     1.0030 H     1 <1>   0.0800 
 36 H       -4.3260     0.8350    -2.3700 H     1 <1>   0.0800 
 37 H       -4.3500     2.5560    -2.2900 H     1 <1>   0.0800 
 38 H        0.2390     5.4280     2.2670 H     1 <1>   0.1500 
 39 H       -5.9850     2.0810    -0.7630 H     1 <1>   0.0800 
 40 H       -4.6270     2.1800     0.3170 H     1 <1>   0.0800 
 41 H        2.1840     6.5830     0.3760 H     1 <1>   0.2700 
 42 H       -4.7660    -2.7460    -1.2330 H     1 <1>   0.1500 
 43 H       -8.5430    -1.2140     1.5530 H     1 <1>   0.0800 
 44 H       -9.4130    -2.7140     1.2760 H     1 <1>   0.0800 
 45 H       -9.4020    -1.4660     0.0420 H     1 <1>   0.0800 
 46 H       -4.8250    -5.3690    -1.1670 H     1 <1>   0.0800 
 47 H       -6.4640    -5.9670    -1.3170 H     1 <1>   0.0800 
 48 H       -5.6770    -5.9620     0.2440 H     1 <1>   0.0800 
@<TRIPOS>BOND
  1   1   2  2   
  2   2   3  am  
  3   2   4  1   
  4   3   5  1   
  5   3   6  1   
  6   4   7  ar  
  7   4   8  ar  
  8   5   9  1   
  9   5  28  1   
 10   5  29  1   
 11   6  10  1   
 12   6  30  1   
 13   6  31  1   
 14   7  11  ar  
 15   7  32  1   
 16   8  12  ar  
 17   8  33  1   
 18   9  13  1   
 19   9  34  1   
 20   9  35  1   
 21  10  14  1   
 22  10  36  1   
 23  10  37  1   
 24  11  15  1   
 25  11  16  ar  
 26  12  16  ar  
 27  12  38  1   
 28  13  14  1   
 29  13  17  am  
 30  14  39  1   
 31  14  40  1   
 32  15  18  2   
 33  16  19  1   
 34  17  20  2   
 35  17  21  1   
 36  18  19  1   
 37  19  41  1   
 38  21  22  1   
 39  21  23  2   
 40  22  24  1   
 41  22  25  1   
 42  23  26  1   
 43  23  42  1   
 44  24  26  2   
 45  25  43  1   
 46  25  44  1   
 47  25  45  1   
 48  26  27  1   
 49  27  46  1   
 50  27  47  1   
 51  27  48  1   
@<TRIPOS>SUBSTRUCTURE
  1 ****   3 GROUP 4 **** **** 0

# MOE 2024.06 (io_trps.svl 2023.06)
