@<TRIPOS>MOLECULE
NONAME
55 57 1 0 0 
SMALL
USER_CHARGES


@<TRIPOS>ATOM
  1 F       -2.0240    -3.2720    -3.2190 F     1 <1>  -0.1900 
  2 C       -3.1000    -3.1540    -2.4910 C.ar  1 <1>   0.1900 
  3 C       -3.0410    -3.4840    -1.1520 C.ar  1 <1>  -0.1500 
  4 C       -4.2610    -2.7020    -3.0830 C.ar  1 <1>  -0.1500 
  5 C       -4.1850    -3.3560    -0.3830 C.ar  1 <1>  -0.1500 
  6 C       -5.3990    -2.5790    -2.3050 C.ar  1 <1>  -0.1500 
  7 C       -5.3780    -2.9070    -0.9510 C.ar  1 <1>  -0.1430 
  8 C       -6.6610    -2.7370    -0.1180 C.3   1 <1>   0.6280 
  9 N       -6.5030    -1.4760     0.7050 N.4   1 <1>  -0.9590 
 10 C       -6.9720    -3.9760     0.7740 C.2   1 <1>   0.5690 
 11 C       -7.6810    -1.2420     1.5900 C.3   1 <1>   0.3430 
 12 C       -6.1510    -0.2800    -0.1160 C.3   1 <1>   0.3430 
 13 O       -6.2540    -4.1350     1.7400 O.2   1 <1>  -0.5700 
 14 N       -8.0560    -4.7980     0.5780 N.am  1 <1>  -0.6600 
 15 C       -7.3980    -0.0690     2.5290 C.3   1 <1>  -0.1600 
 16 C       -5.8510     0.9080     0.8000 C.3   1 <1>  -0.1600 
 17 C       -8.1680    -6.0860     1.3440 C.3   1 <1>   0.3210 
 18 C       -9.2230    -4.5270    -0.3240 C.3   1 <1>   0.1400 
 19 C       -7.0120     1.1990     1.7590 C.3   1 <1>  -0.1600 
 20 C       -8.1130    -7.2840     0.4050 C.2   1 <1>   0.0460 
 21 C       -8.9750    -4.9350    -1.7830 C.3   1 <1>   0.1200 
 22 N       -9.2430    -7.8030    -0.1220 N.2   1 <1>  -0.5650 
 23 C       -7.0230    -7.9640    -0.0210 C.2   1 <1>  -0.3320 
 24 O       -8.1140    -4.0330    -2.3920 O.3   1 <1>  -0.6800 
 25 C       -8.8200    -8.7910    -0.8430 C.2   1 <1>   0.0360 
 26 N       -7.4800    -8.9420    -0.8250 N.pl3 1 <1>   0.0330 
 27 C       -5.5470    -7.7570     0.2750 C.3   1 <1>  -0.0600 
 28 H       -2.1160    -3.8330    -0.7270 H     1 <1>   0.1500 
 29 H       -4.2660    -2.4560    -4.1310 H     1 <1>   0.1500 
 30 H       -4.1200    -3.6180     0.6600 H     1 <1>   0.1500 
 31 H       -6.3030    -2.2250    -2.7720 H     1 <1>   0.1500 
 32 H       -7.4870    -2.6020    -0.7890 H     1 <1>   0.0800 
 33 H       -5.7070    -1.6850     1.3210 H     1 <1>   0.4500 
 34 H       -7.8870    -2.1210     2.1810 H     1 <1>   0.0800 
 35 H       -8.5500    -1.0200     0.9920 H     1 <1>   0.0800 
 36 H       -6.9710    -0.0330    -0.7710 H     1 <1>   0.0800 
 37 H       -5.2820    -0.4830    -0.7220 H     1 <1>   0.0800 
 38 H       -6.6080    -0.3410     3.2090 H     1 <1>   0.0800 
 39 H       -8.2750     0.1270     3.1210 H     1 <1>   0.0800 
 40 H       -5.6610     1.7780     0.1950 H     1 <1>   0.0800 
 41 H       -4.9540     0.7060     1.3600 H     1 <1>   0.0800 
 42 H       -9.0960    -6.1070     1.8890 H     1 <1>   0.0800 
 43 H       -7.3730    -6.1810     2.0610 H     1 <1>   0.0800 
 44 H       -9.4970    -3.4880    -0.2840 H     1 <1>   0.0800 
 45 H      -10.0710    -5.0880     0.0330 H     1 <1>   0.0800 
 46 H       -6.7280     1.9760     2.4500 H     1 <1>   0.0800 
 47 H       -7.8620     1.5550     1.1990 H     1 <1>   0.0800 
 48 H       -9.9030    -4.9270    -2.3290 H     1 <1>   0.0800 
 49 H       -8.5450    -5.9190    -1.8430 H     1 <1>   0.0800 
 50 H       -7.8930    -4.3580    -3.2910 H     1 <1>   0.4000 
 51 H       -9.4600    -9.4430    -1.4100 H     1 <1>   0.1500 
 52 H       -6.9320    -9.6540    -1.3160 H     1 <1>   0.2700 
 53 H       -5.4040    -6.9070     0.9180 H     1 <1>   0.0800 
 54 H       -5.0060    -7.5840    -0.6390 H     1 <1>   0.0800 
 55 H       -5.1410    -8.6260     0.7620 H     1 <1>   0.0800 
@<TRIPOS>BOND
  1   1   2  1   
  2   2   3  ar  
  3   2   4  ar  
  4   3   5  ar  
  5   3  28  1   
  6   4   6  ar  
  7   4  29  1   
  8   5   7  ar  
  9   5  30  1   
 10   6   7  ar  
 11   6  31  1   
 12   7   8  1   
 13   8   9  1   
 14   8  10  1   
 15   8  32  1   
 16   9  11  1   
 17   9  12  1   
 18   9  33  1   
 19  10  13  2   
 20  10  14  am  
 21  11  15  1   
 22  11  34  1   
 23  11  35  1   
 24  12  16  1   
 25  12  36  1   
 26  12  37  1   
 27  14  17  1   
 28  14  18  1   
 29  15  19  1   
 30  15  38  1   
 31  15  39  1   
 32  16  19  1   
 33  16  40  1   
 34  16  41  1   
 35  17  20  1   
 36  17  42  1   
 37  17  43  1   
 38  18  21  1   
 39  18  44  1   
 40  18  45  1   
 41  19  46  1   
 42  19  47  1   
 43  20  22  1   
 44  20  23  2   
 45  21  24  1   
 46  21  48  1   
 47  21  49  1   
 48  22  25  2   
 49  23  26  1   
 50  23  27  1   
 51  24  50  1   
 52  25  26  1   
 53  25  51  1   
 54  26  52  1   
 55  27  53  1   
 56  27  54  1   
 57  27  55  1   
@<TRIPOS>SUBSTRUCTURE
  1 ****  10 GROUP 4 **** **** 0

# MOE 2024.06 (io_trps.svl 2023.06)
