@<TRIPOS>MOLECULE
NONAME
64 67 1 0 0 
SMALL
USER_CHARGES


@<TRIPOS>ATOM
  1 O       -1.6470     0.8760     2.1730 O.2   1 <1>  -0.5700 
  2 C       -1.3070     1.8510     1.5290 C.2   1 <1>   0.5440 
  3 N       -2.2650     2.5500     0.8240 N.am  1 <1>  -0.6600 
  4 C        0.0910     2.2410     1.5080 C.ar  1 <1>   0.0860 
  5 C       -1.9170     3.4700    -0.2960 C.3   1 <1>   0.1400 
  6 C       -3.7120     2.2760     1.0470 C.3   1 <1>   0.1400 
  7 C        0.4920     3.5460     1.7960 C.ar  1 <1>  -0.1500 
  8 C        1.0860     1.3140     1.1980 C.ar  1 <1>  -0.1500 
  9 C       -3.0350     3.4710    -1.3380 C.3   1 <1>  -0.1600 
 10 C       -4.5570     3.5050     0.6970 C.3   1 <1>  -0.1600 
 11 C        1.8250     3.9150     1.7570 C.ar  1 <1>  -0.1500 
 12 C        2.4200     1.6760     1.1570 C.ar  1 <1>  -0.1500 
 13 C       -4.3550     4.0300    -0.7520 C.3   1 <1>   0.2800 
 14 C        2.7910     2.9800     1.4340 C.ar  1 <1>  -0.1500 
 15 O       -4.1750     5.4240    -0.6050 O.3   1 <1>  -0.5600 
 16 C       -5.6150     3.7210    -1.6430 C.3   1 <1>   0.2000 
 17 C       -4.4410     6.2500    -1.6960 C.3   1 <1>   0.1200 
 18 O       -5.2520     3.4420    -2.9720 O.3   1 <1>  -0.6800 
 19 C       -6.6410     4.8950    -1.6270 C.3   1 <1>   0.3000 
 20 C       -5.9270     6.1850    -2.0840 C.3   1 <1>  -0.1600 
 21 N       -7.1110     5.1610    -0.2450 N.am  1 <1>  -0.7300 
 22 C       -7.8510     4.6510    -2.5450 C.3   1 <1>  -0.2400 
 23 C       -7.9610     4.5550     0.6190 C.2   1 <1>   0.5690 
 24 O       -7.9650     4.9390     1.7600 O.2   1 <1>  -0.5700 
 25 C       -8.8560     3.3930     0.2040 C.3   1 <1>  -0.0990 
 26 C       -9.5880     2.6730     1.3540 C.3   1 <1>  -0.0800 
 27 C      -10.3070     1.4090     0.8870 C.3   1 <1>  -0.1600 
 28 C      -10.7040     3.4950     2.0020 C.3   1 <1>  -0.1600 
 29 C      -11.3240     1.1180     1.9890 C.3   1 <1>  -0.1600 
 30 C      -11.6750     2.4760     2.6070 C.3   1 <1>  -0.1600 
 31 H       -1.7810     4.4660     0.0910 H     1 <1>   0.0800 
 32 H       -0.9970     3.1510    -0.7570 H     1 <1>   0.0800 
 33 H       -4.0060     1.4360     0.4410 H     1 <1>   0.0800 
 34 H       -3.8730     2.0140     2.0800 H     1 <1>   0.0800 
 35 H       -0.2560     4.2740     2.0570 H     1 <1>   0.1500 
 36 H        0.7980     0.2980     0.9900 H     1 <1>   0.1500 
 37 H       -3.1790     2.4580    -1.6720 H     1 <1>   0.0800 
 38 H       -2.7240     4.0430    -2.1910 H     1 <1>   0.0800 
 39 H       -4.3100     4.2760     1.4060 H     1 <1>   0.0800 
 40 H       -5.5820     3.2430     0.8710 H     1 <1>   0.0800 
 41 H        2.1120     4.9280     1.9810 H     1 <1>   0.1500 
 42 H        3.1700     0.9430     0.9130 H     1 <1>   0.1500 
 43 H        3.8290     3.2640     1.4030 H     1 <1>   0.1500 
 44 H       -6.0910     2.8250    -1.2880 H     1 <1>   0.0800 
 45 H       -4.1720     7.2550    -1.4170 H     1 <1>   0.0800 
 46 H       -3.8120     5.9490    -2.5140 H     1 <1>   0.0800 
 47 H       -4.7480     4.1880    -3.3450 H     1 <1>   0.4000 
 48 H       -6.4410     7.0470    -1.6980 H     1 <1>   0.0800 
 49 H       -5.9680     6.2690    -3.1540 H     1 <1>   0.0800 
 50 H       -6.4970     5.8330     0.2240 H     1 <1>   0.3700 
 51 H       -7.5570     4.7000    -3.5780 H     1 <1>   0.0800 
 52 H       -8.6100     5.3940    -2.3770 H     1 <1>   0.0800 
 53 H       -8.2600     3.6710    -2.3960 H     1 <1>   0.0800 
 54 H       -9.5850     3.7610    -0.4920 H     1 <1>   0.0800 
 55 H       -8.2420     2.6700    -0.2980 H     1 <1>   0.0800 
 56 H       -8.8770     2.3970     2.1160 H     1 <1>   0.0800 
 57 H      -10.8310     1.6040    -0.0330 H     1 <1>   0.0800 
 58 H       -9.6280     0.5870     0.7420 H     1 <1>   0.0800 
 59 H      -10.3170     4.1670     2.7500 H     1 <1>   0.0800 
 60 H      -11.2200     4.0710     1.2530 H     1 <1>   0.0800 
 61 H      -12.1940     0.6180     1.6000 H     1 <1>   0.0800 
 62 H      -10.8680     0.4940     2.7390 H     1 <1>   0.0800 
 63 H      -11.5550     2.4330     3.6760 H     1 <1>   0.0800 
 64 H      -12.6910     2.7500     2.3820 H     1 <1>   0.0800 
@<TRIPOS>BOND
  1   1   2  2   
  2   2   3  am  
  3   2   4  1   
  4   3   5  1   
  5   3   6  1   
  6   4   7  ar  
  7   4   8  ar  
  8   5   9  1   
  9   5  31  1   
 10   5  32  1   
 11   6  10  1   
 12   6  33  1   
 13   6  34  1   
 14   7  11  ar  
 15   7  35  1   
 16   8  12  ar  
 17   8  36  1   
 18   9  13  1   
 19   9  37  1   
 20   9  38  1   
 21  10  13  1   
 22  10  39  1   
 23  10  40  1   
 24  11  14  ar  
 25  11  41  1   
 26  12  14  ar  
 27  12  42  1   
 28  13  15  1   
 29  13  16  1   
 30  14  43  1   
 31  15  17  1   
 32  16  18  1   
 33  16  19  1   
 34  16  44  1   
 35  17  20  1   
 36  17  45  1   
 37  17  46  1   
 38  18  47  1   
 39  19  20  1   
 40  19  21  1   
 41  19  22  1   
 42  20  48  1   
 43  20  49  1   
 44  21  23  am  
 45  21  50  1   
 46  22  51  1   
 47  22  52  1   
 48  22  53  1   
 49  23  24  2   
 50  23  25  1   
 51  25  26  1   
 52  25  54  1   
 53  25  55  1   
 54  26  27  1   
 55  26  28  1   
 56  26  56  1   
 57  27  29  1   
 58  27  57  1   
 59  27  58  1   
 60  28  30  1   
 61  28  59  1   
 62  28  60  1   
 63  29  30  1   
 64  29  61  1   
 65  29  62  1   
 66  30  63  1   
 67  30  64  1   
@<TRIPOS>SUBSTRUCTURE
  1 ****  10 GROUP 4 **** **** 0

# MOE 2024.06 (io_trps.svl 2023.06)
