@<TRIPOS>MOLECULE
NONAME
45 46 1 0 0 
SMALL
USER_CHARGES


@<TRIPOS>ATOM
  1 S       -0.2370    -0.1020     0.3540 S.o2  1 <1>   1.3330 
  2 O       -0.9530     1.1420     0.1880 O.2   1 <1>  -0.6500 
  3 O       -0.1730    -0.7190     1.6600 O.2   1 <1>  -0.6500 
  4 N       -0.8840    -1.2400    -0.7270 N.am  1 <1>  -0.8490 
  5 C        1.4230     0.1370    -0.2830 C.3   1 <1>  -0.0550 
  6 C       -0.5640    -2.6280    -0.3740 C.3   1 <1>   0.1160 
  7 C       -2.3330    -1.0900    -0.8920 C.3   1 <1>   0.1160 
  8 C        2.2240     1.2160     0.4730 C.3   1 <1>  -0.0800 
  9 C        3.5260     1.5320    -0.2430 C.3   1 <1>   0.2200 
 10 C        2.7100     0.7230     1.8440 C.3   1 <1>   0.1200 
 11 N        3.9610     2.8980     0.1270 N.am  1 <1>  -0.7300 
 12 C        4.4740     0.5150     0.3780 C.3   1 <1>   0.1200 
 13 O        4.0550     0.3680     1.7000 O.3   1 <1>  -0.5600 
 14 C        4.0910     3.9470    -0.7380 C.2   1 <1>   0.5440 
 15 O        3.8490     3.7540    -1.9130 O.2   1 <1>  -0.5700 
 16 C        4.5180     5.2550    -0.2760 C.ar  1 <1>   0.0860 
 17 C        5.0720     6.1830    -1.1610 C.ar  1 <1>  -0.1500 
 18 C        4.3950     5.6500     1.0590 C.ar  1 <1>  -0.1500 
 19 C        5.4870     7.4290    -0.7300 C.ar  1 <1>   0.1900 
 20 C        4.8190     6.9000     1.4650 C.ar  1 <1>   0.1900 
 21 F        5.9950     8.2150    -1.6450 F     1 <1>  -0.1900 
 22 C        5.3790     7.8370     0.6030 C.ar  1 <1>   0.0820 
 23 F        4.6750     7.1980     2.7320 F     1 <1>  -0.1900 
 24 O        5.7590     9.0380     1.1270 O.3   1 <1>  -0.3620 
 25 C        6.3180    10.0850     0.3640 C.3   1 <1>   0.0400 
 26 H        1.9540    -0.7940    -0.2570 H     1 <1>   0.0800 
 27 H        1.3380     0.4360    -1.3100 H     1 <1>   0.0800 
 28 H       -0.9170    -3.2960    -1.1410 H     1 <1>   0.0800 
 29 H       -1.0250    -2.8940     0.5640 H     1 <1>   0.0800 
 30 H        0.5010    -2.7520    -0.2800 H     1 <1>   0.0800 
 31 H       -2.7070    -1.8160    -1.5940 H     1 <1>   0.0800 
 32 H       -2.5610    -0.1080    -1.2730 H     1 <1>   0.0800 
 33 H       -2.8340    -1.2180     0.0530 H     1 <1>   0.0800 
 34 H        1.6120     2.0970     0.5680 H     1 <1>   0.0800 
 35 H        3.4630     1.4270    -1.3130 H     1 <1>   0.0800 
 36 H        2.1690    -0.1320     2.2090 H     1 <1>   0.0800 
 37 H        2.6590     1.5120     2.5750 H     1 <1>   0.0800 
 38 H        4.2700     2.9810     1.0970 H     1 <1>   0.3700 
 39 H        5.5010     0.8360     0.3540 H     1 <1>   0.0800 
 40 H        4.3800    -0.4410    -0.1060 H     1 <1>   0.0800 
 41 H        5.1790     5.9240    -2.2010 H     1 <1>   0.1500 
 42 H        3.9610     4.9910     1.7880 H     1 <1>   0.1500 
 43 H        6.5110    10.9120     1.0230 H     1 <1>   0.0800 
 44 H        5.6150    10.3810    -0.3940 H     1 <1>   0.0800 
 45 H        7.2400     9.7460    -0.0740 H     1 <1>   0.0800 
@<TRIPOS>BOND
  1   1   2  2   
  2   1   3  2   
  3   1   4  am  
  4   1   5  1   
  5   4   6  1   
  6   4   7  1   
  7   5   8  1   
  8   5  26  1   
  9   5  27  1   
 10   6  28  1   
 11   6  29  1   
 12   6  30  1   
 13   7  31  1   
 14   7  32  1   
 15   7  33  1   
 16   8   9  1   
 17   8  10  1   
 18   8  34  1   
 19   9  11  1   
 20   9  12  1   
 21   9  35  1   
 22  10  13  1   
 23  10  36  1   
 24  10  37  1   
 25  11  14  am  
 26  11  38  1   
 27  12  13  1   
 28  12  39  1   
 29  12  40  1   
 30  14  15  2   
 31  14  16  1   
 32  16  17  ar  
 33  16  18  ar  
 34  17  19  ar  
 35  17  41  1   
 36  18  20  ar  
 37  18  42  1   
 38  19  21  1   
 39  19  22  ar  
 40  20  22  ar  
 41  20  23  1   
 42  22  24  1   
 43  24  25  1   
 44  25  43  1   
 45  25  44  1   
 46  25  45  1   
@<TRIPOS>SUBSTRUCTURE
  1 ****  11 GROUP 4 **** **** 0

# MOE 2024.06 (io_trps.svl 2023.06)
