@<TRIPOS>MOLECULE
NONAME
53 56 1 0 0 
SMALL
USER_CHARGES


@<TRIPOS>ATOM
  1 O       -1.0640     0.3120     2.1050 O.2   1 <1>  -0.5700 
  2 C       -1.4240     0.8240     1.0670 C.2   1 <1>   0.6300 
  3 N       -2.1910     0.1070     0.1810 N.am  1 <1>  -0.6600 
  4 C       -1.0400     2.2850     0.7860 C.3   1 <1>   0.0320 
  5 C       -2.4290    -1.3380     0.3950 C.3   1 <1>   0.1400 
  6 C       -3.1550     0.7130    -0.7780 C.3   1 <1>   0.1400 
  7 C       -0.1250     2.4200    -0.4260 C.ar  1 <1>  -0.0320 
  8 C       -1.9960     3.3910     1.1520 C.3   1 <1>  -0.2000 
  9 C       -0.7420     3.2050     1.9390 C.3   1 <1>  -0.2000 
 10 C       -3.8940    -1.4110     0.8390 C.3   1 <1>   0.4230 
 11 C       -4.6080     0.2980    -0.4160 C.3   1 <1>  -0.1600 
 12 C       -0.5550     3.0250    -1.5990 C.ar  1 <1>  -0.1500 
 13 C        1.1670     1.9220    -0.3580 C.ar  1 <1>  -0.1500 
 14 N       -4.2160    -2.3910     1.9400 N.4   1 <1>  -0.9590 
 15 C       -4.8570    -1.3080    -0.4340 C.3   1 <1>   0.0000 
 16 C        0.2940     3.1270    -2.6880 C.ar  1 <1>  -0.1500 
 17 C        2.0180     2.0220    -1.4450 C.ar  1 <1>  -0.1500 
 18 C       -3.8960    -3.7840     1.5980 C.3   1 <1>   0.3430 
 19 C       -3.5690    -1.9770     3.2270 C.3   1 <1>   0.2630 
 20 C       -5.0680    -2.9090    -0.5270 C.3   1 <1>  -0.1600 
 21 C       -5.8710    -1.1300    -1.6650 C.3   1 <1>   0.1200 
 22 C        1.5810     2.6250    -2.6110 C.ar  1 <1>  -0.1500 
 23 C       -4.1310    -3.9660     0.1120 C.3   1 <1>  -0.1600 
 24 O       -7.0760    -0.6530    -1.1550 O.3   1 <1>  -0.6800 
 25 H       -2.2690    -1.8640    -0.5290 H     1 <1>   0.0800 
 26 H       -1.7640    -1.7320     1.1420 H     1 <1>   0.0800 
 27 H       -3.0790     1.7860    -0.7640 H     1 <1>   0.0800 
 28 H       -2.9130     0.3820    -1.7750 H     1 <1>   0.0800 
 29 H       -2.0680     4.2680     0.5330 H     1 <1>   0.1000 
 30 H       -2.9300     3.1430     1.6250 H     1 <1>   0.1000 
 31 H       -0.8070     2.8180     2.9420 H     1 <1>   0.1000 
 32 H        0.0510     3.9240     1.8280 H     1 <1>   0.1000 
 33 H       -3.9890    -0.5010     1.3990 H     1 <1>   0.0800 
 34 H       -4.8920     0.7420     0.5250 H     1 <1>   0.0800 
 35 H       -5.1980     0.9220    -1.0700 H     1 <1>   0.0800 
 36 H       -1.5500     3.4230    -1.6730 H     1 <1>   0.1500 
 37 H        1.5120     1.4530     0.5480 H     1 <1>   0.1500 
 38 H       -5.2390    -2.3340     2.0530 H     1 <1>   0.4500 
 39 H       -0.0450     3.5980    -3.5940 H     1 <1>   0.1500 
 40 H        3.0190     1.6320    -1.3820 H     1 <1>   0.1500 
 41 H       -2.8670    -4.0080     1.8310 H     1 <1>   0.0800 
 42 H       -4.5300    -4.4510     2.1600 H     1 <1>   0.0800 
 43 H       -2.4940    -1.9930     3.1330 H     1 <1>   0.0800 
 44 H       -3.8560    -2.6430     4.0250 H     1 <1>   0.0800 
 45 H       -3.8680    -0.9760     3.4910 H     1 <1>   0.0800 
 46 H       -6.0710    -3.1350    -0.1960 H     1 <1>   0.0800 
 47 H       -4.9780    -3.2530    -1.5460 H     1 <1>   0.0800 
 48 H       -6.1690    -1.9810    -2.2530 H     1 <1>   0.0800 
 49 H       -5.5120    -0.4540    -2.4250 H     1 <1>   0.0800 
 50 H        2.2430     2.7040    -3.4560 H     1 <1>   0.1500 
 51 H       -3.1780    -3.9560    -0.3880 H     1 <1>   0.0800 
 52 H       -4.5370    -4.9510    -0.0470 H     1 <1>   0.0800 
 53 H       -7.7350    -0.5160    -1.8680 H     1 <1>   0.4000 
@<TRIPOS>BOND
  1   1   2  2   
  2   2   3  am  
  3   2   4  1   
  4   3   5  1   
  5   3   6  1   
  6   4   7  1   
  7   4   8  1   
  8   4   9  1   
  9   5  10  1   
 10   5  25  1   
 11   5  26  1   
 12   6  11  1   
 13   6  27  1   
 14   6  28  1   
 15   7  12  ar  
 16   7  13  ar  
 17   8   9  1   
 18   8  29  1   
 19   8  30  1   
 20   9  31  1   
 21   9  32  1   
 22  10  14  1   
 23  10  15  1   
 24  10  33  1   
 25  11  15  1   
 26  11  34  1   
 27  11  35  1   
 28  12  16  ar  
 29  12  36  1   
 30  13  17  ar  
 31  13  37  1   
 32  14  18  1   
 33  14  19  1   
 34  14  38  1   
 35  15  20  1   
 36  15  21  1   
 37  16  22  ar  
 38  16  39  1   
 39  17  22  ar  
 40  17  40  1   
 41  18  23  1   
 42  18  41  1   
 43  18  42  1   
 44  19  43  1   
 45  19  44  1   
 46  19  45  1   
 47  20  23  1   
 48  20  46  1   
 49  20  47  1   
 50  21  24  1   
 51  21  48  1   
 52  21  49  1   
 53  22  50  1   
 54  23  51  1   
 55  23  52  1   
 56  24  53  1   
@<TRIPOS>SUBSTRUCTURE
  1 ****   3 GROUP 4 **** **** 0

# MOE 2024.06 (io_trps.svl 2023.06)
