@<TRIPOS>MOLECULE
NONAME
44 46 1 0 0 
SMALL
USER_CHARGES


@<TRIPOS>ATOM
  1 CL      -0.5660    -0.7010     1.2740 Cl    1 <1>  -0.1770 
  2 C       -1.5540     0.6540     0.7900 C.ar  1 <1>   0.1770 
  3 C       -1.2260     1.9210     1.2210 C.ar  1 <1>  -0.1500 
  4 C       -2.6500     0.4330    -0.0210 C.ar  1 <1>  -0.1500 
  5 C       -1.9950     3.0210     0.8430 C.ar  1 <1>   0.0860 
  6 C       -3.4300     1.5080    -0.4050 C.ar  1 <1>  -0.1500 
  7 C       -3.1120     2.7980     0.0220 C.ar  1 <1>   0.0830 
  8 C       -1.6210     4.3380     1.3160 C.2   1 <1>   0.5440 
  9 O       -3.8590     3.8720    -0.3360 O.3   1 <1>  -0.3630 
 10 O       -1.5280     4.5220     2.5170 O.2   1 <1>  -0.5700 
 11 N       -1.2990     5.3870     0.4680 N.am  1 <1>  -0.6600 
 12 C       -5.1490     3.7420    -0.8950 C.3   1 <1>   0.0400 
 13 C       -0.9860     6.7280     1.0540 C.3   1 <1>   0.1400 
 14 C       -0.9950     5.1560    -0.9790 C.3   1 <1>   0.1400 
 15 C        0.5320     7.0360     1.1280 C.3   1 <1>   0.4230 
 16 C        0.3960     5.6540    -1.4320 C.3   1 <1>  -0.0800 
 17 N        1.0620     7.7100    -0.1150 N.4   1 <1>  -0.9590 
 18 C        1.4260     5.8190     1.4970 C.3   1 <1>   0.1200 
 19 C        1.6020     4.9440    -0.7780 C.3   1 <1>   0.1200 
 20 C        0.4900     7.1800    -1.3890 C.3   1 <1>   0.3430 
 21 C        0.9000     9.1950    -0.0440 C.3   1 <1>   0.2630 
 22 O        1.4300     4.7430     0.5900 O.3   1 <1>  -0.5600 
 23 H       -0.3690     2.0650     1.8560 H     1 <1>   0.1500 
 24 H       -2.8830    -0.5670    -0.3420 H     1 <1>   0.1500 
 25 H       -4.2780     1.3220    -1.0370 H     1 <1>   0.1500 
 26 H       -5.5810     4.7230    -0.9700 H     1 <1>   0.0800 
 27 H       -5.7510     3.1280    -0.2470 H     1 <1>   0.0800 
 28 H       -5.0660     3.3040    -1.8740 H     1 <1>   0.0800 
 29 H       -1.5010     7.4900     0.4990 H     1 <1>   0.0800 
 30 H       -1.3770     6.7790     2.0550 H     1 <1>   0.0800 
 31 H       -1.0490     4.1050    -1.2000 H     1 <1>   0.0800 
 32 H       -1.7620     5.6360    -1.5630 H     1 <1>   0.0800 
 33 H        0.6490     7.7350     1.9380 H     1 <1>   0.0800 
 34 H        0.4490     5.4080    -2.4780 H     1 <1>   0.0800 
 35 H        2.0680     7.4920    -0.1290 H     1 <1>   0.4500 
 36 H        1.0820     5.4170     2.4350 H     1 <1>   0.0800 
 37 H        2.4440     6.1350     1.6360 H     1 <1>   0.0800 
 38 H        2.5270     5.4680    -0.9420 H     1 <1>   0.0800 
 39 H        1.7010     3.9610    -1.2080 H     1 <1>   0.0800 
 40 H       -0.4950     7.5890    -1.5440 H     1 <1>   0.0800 
 41 H        1.1090     7.5100    -2.2070 H     1 <1>   0.0800 
 42 H       -0.1450     9.4580    -0.0180 H     1 <1>   0.0800 
 43 H        1.3520     9.6630    -0.9050 H     1 <1>   0.0800 
 44 H        1.3750     9.5830     0.8430 H     1 <1>   0.0800 
@<TRIPOS>BOND
  1   1   2  1   
  2   2   3  ar  
  3   2   4  ar  
  4   3   5  ar  
  5   3  23  1   
  6   4   6  ar  
  7   4  24  1   
  8   5   7  ar  
  9   5   8  1   
 10   6   7  ar  
 11   6  25  1   
 12   7   9  1   
 13   8  10  2   
 14   8  11  am  
 15   9  12  1   
 16  11  13  1   
 17  11  14  1   
 18  12  26  1   
 19  12  27  1   
 20  12  28  1   
 21  13  15  1   
 22  13  29  1   
 23  13  30  1   
 24  14  16  1   
 25  14  31  1   
 26  14  32  1   
 27  15  17  1   
 28  15  18  1   
 29  15  33  1   
 30  16  19  1   
 31  16  20  1   
 32  16  34  1   
 33  17  20  1   
 34  17  21  1   
 35  17  35  1   
 36  18  22  1   
 37  18  36  1   
 38  18  37  1   
 39  19  22  1   
 40  19  38  1   
 41  19  39  1   
 42  20  40  1   
 43  20  41  1   
 44  21  42  1   
 45  21  43  1   
 46  21  44  1   
@<TRIPOS>SUBSTRUCTURE
  1 ****  11 GROUP 4 **** **** 0

# MOE 2024.06 (io_trps.svl 2023.06)
