@<TRIPOS>MOLECULE
NONAME
48 50 1 0 0 
SMALL
USER_CHARGES


@<TRIPOS>ATOM
  1 O        0.8050    -1.1310    -2.5590 O.2   1 <1>  -0.5700 
  2 C        0.9340    -1.7890    -1.5390 C.2   1 <1>   0.5440 
  3 N        0.8230    -1.1100    -0.3370 N.am  1 <1>  -0.6600 
  4 C        1.2240    -3.2210    -1.6580 C.ar  1 <1>   0.3960 
  5 C        0.6340     0.3560    -0.2610 C.3   1 <1>   0.1400 
  6 C        1.0390    -1.6810     1.0130 C.3   1 <1>   0.1400 
  7 N        0.8220    -4.0990    -0.7210 N.ar  1 <1>  -0.6200 
  8 C        1.9300    -3.6450    -2.7910 C.ar  1 <1>   0.1600 
  9 C        1.1150     0.7360     1.1330 C.3   1 <1>  -0.1600 
 10 C        0.8630    -0.5110     1.9760 C.3   1 <1>  -0.1600 
 11 C        1.1600    -5.3430    -0.9810 C.ar  1 <1>   0.4100 
 12 N        2.2880    -4.8940    -3.0620 N.ar  1 <1>  -0.6200 
 13 N        0.7370    -6.2320    -0.0310 N.pl3 1 <1>  -0.8690 
 14 C        1.8860    -5.7210    -2.1210 C.ar  1 <1>   0.1600 
 15 C        0.0060    -7.4490    -0.4000 C.3   1 <1>   0.2890 
 16 C       -1.4000    -7.3520     0.2000 C.3   1 <1>  -0.1600 
 17 C        0.8050    -8.6340     0.1340 C.3   1 <1>  -0.2400 
 18 C       -2.3260    -8.4960    -0.2390 C.3   1 <1>  -0.0170 
 19 C       -3.7210    -8.2850     0.3240 C.ar  1 <1>  -0.1430 
 20 C       -4.0600    -8.8040     1.5640 C.ar  1 <1>  -0.1500 
 21 C       -4.6660    -7.5690    -0.3940 C.ar  1 <1>  -0.1500 
 22 C       -5.3300    -8.6110     2.0800 C.ar  1 <1>  -0.1500 
 23 C       -5.9360    -7.3750     0.1200 C.ar  1 <1>  -0.1500 
 24 C       -6.2690    -7.8960     1.3580 C.ar  1 <1>  -0.1500 
 25 H       -0.4130     0.5790    -0.3770 H     1 <1>   0.0800 
 26 H        1.1980     0.8630    -1.0270 H     1 <1>   0.0800 
 27 H        2.0370    -2.0800     1.0760 H     1 <1>   0.0800 
 28 H        0.3220    -2.4560     1.2210 H     1 <1>   0.0800 
 29 H        2.2160    -2.8990    -3.5130 H     1 <1>   0.1500 
 30 H        0.6000     1.6010     1.5110 H     1 <1>   0.0800 
 31 H        2.1700     0.9440     1.0930 H     1 <1>   0.0800 
 32 H        1.5320    -0.5810     2.8150 H     1 <1>   0.0800 
 33 H       -0.1500    -0.5070     2.3370 H     1 <1>   0.0800 
 34 H        0.2830    -5.7390     0.7420 H     1 <1>   0.4000 
 35 H        2.1340    -6.7600    -2.2320 H     1 <1>   0.1500 
 36 H       -0.0700    -7.5170    -1.4740 H     1 <1>   0.0800 
 37 H       -1.8440    -6.4240    -0.1170 H     1 <1>   0.0800 
 38 H       -1.3380    -7.3440     1.2740 H     1 <1>   0.0800 
 39 H        0.8470    -8.6060     1.2080 H     1 <1>   0.0800 
 40 H        1.8070    -8.6050    -0.2560 H     1 <1>   0.0800 
 41 H        0.3570    -9.5610    -0.1710 H     1 <1>   0.0800 
 42 H       -1.9480    -9.4410     0.1070 H     1 <1>   0.0800 
 43 H       -2.3770    -8.5350    -1.3130 H     1 <1>   0.0800 
 44 H       -3.3380    -9.3610     2.1350 H     1 <1>   0.1500 
 45 H       -4.4170    -7.1570    -1.3560 H     1 <1>   0.1500 
 46 H       -5.5870    -9.0160     3.0430 H     1 <1>   0.1500 
 47 H       -6.6660    -6.8180    -0.4420 H     1 <1>   0.1500 
 48 H       -7.2560    -7.7450     1.7590 H     1 <1>   0.1500 
@<TRIPOS>BOND
  1   1   2  2   
  2   2   3  am  
  3   2   4  1   
  4   3   5  1   
  5   3   6  1   
  6   4   7  ar  
  7   4   8  ar  
  8   5   9  1   
  9   5  25  1   
 10   5  26  1   
 11   6  10  1   
 12   6  27  1   
 13   6  28  1   
 14   7  11  ar  
 15   8  12  ar  
 16   8  29  1   
 17   9  10  1   
 18   9  30  1   
 19   9  31  1   
 20  10  32  1   
 21  10  33  1   
 22  11  13  1   
 23  11  14  ar  
 24  12  14  ar  
 25  13  15  1   
 26  13  34  1   
 27  14  35  1   
 28  15  16  1   
 29  15  17  1   
 30  15  36  1   
 31  16  18  1   
 32  16  37  1   
 33  16  38  1   
 34  17  39  1   
 35  17  40  1   
 36  17  41  1   
 37  18  19  1   
 38  18  42  1   
 39  18  43  1   
 40  19  20  ar  
 41  19  21  ar  
 42  20  22  ar  
 43  20  44  1   
 44  21  23  ar  
 45  21  45  1   
 46  22  24  ar  
 47  22  46  1   
 48  23  24  ar  
 49  23  47  1   
 50  24  48  1   
@<TRIPOS>SUBSTRUCTURE
  1 ****   7 GROUP 4 **** **** 0

# MOE 2024.06 (io_trps.svl 2023.06)
