@<TRIPOS>MOLECULE
NONAME
60 62 1 0 0 
SMALL
USER_CHARGES


@<TRIPOS>ATOM
  1 O        1.2400     0.4670    -2.0920 O.2   1 <1>  -0.5700 
  2 C        2.0920    -0.3480    -1.8000 C.2   1 <1>   0.5440 
  3 N        3.3680     0.0850    -1.5950 N.am  1 <1>  -0.7300 
  4 C        1.7480    -1.7520    -1.6580 C.ar  1 <1>   0.0860 
  5 C        3.8210     1.4810    -1.6870 C.3   1 <1>   0.3200 
  6 C        2.3970    -2.5870    -0.7470 C.ar  1 <1>  -0.1500 
  7 C        0.7370    -2.3180    -2.4330 C.ar  1 <1>  -0.1500 
  8 C        4.4150     1.8540    -0.3470 C.2   1 <1>  -0.3320 
  9 C        2.0510    -3.9200    -0.6160 C.ar  1 <1>  -0.1500 
 10 C        0.3860    -3.6490    -2.3100 C.ar  1 <1>  -0.1500 
 11 N        3.7000     2.0880     0.7750 N.pl3 1 <1>   0.0480 
 12 C        5.7150     2.0260    -0.0170 C.2   1 <1>   0.0770 
 13 C        1.0360    -4.4600    -1.3920 C.ar  1 <1>  -0.1430 
 14 C        4.6300     2.3790     1.7130 C.2   1 <1>   0.0360 
 15 C        2.2330     2.0350     0.9750 C.3   1 <1>   0.0960 
 16 N        5.8480     2.3530     1.2790 N.2   1 <1>  -0.5650 
 17 C        0.6340    -5.9150    -1.2340 C.3   1 <1>   0.4860 
 18 C        1.5300     3.3180     0.4930 C.3   1 <1>  -0.0800 
 19 N       -0.1500    -6.0550     0.0230 N.4   1 <1>  -0.9590 
 20 C        1.9630     4.5550     1.2940 C.3   1 <1>  -0.2400 
 21 C        0.0100     3.1450     0.5930 C.3   1 <1>  -0.2400 
 22 C       -0.2620    -7.4870     0.4150 C.3   1 <1>   0.3430 
 23 C       -1.4570    -5.3430    -0.0830 C.3   1 <1>   0.3430 
 24 C       -0.3650    -7.5990     1.9360 C.3   1 <1>  -0.1600 
 25 C       -2.1820    -5.2530     1.2610 C.3   1 <1>  -0.1600 
 26 C       -1.7880    -7.4800     2.5060 C.3   1 <1>  -0.1600 
 27 C       -2.7690    -6.5940     1.7250 C.3   1 <1>  -0.1600 
 28 H        4.1000    -0.5670    -1.3170 H     1 <1>   0.3700 
 29 H        3.0070     2.1390    -1.9400 H     1 <1>   0.0800 
 30 H        4.5690     1.5590    -2.4570 H     1 <1>   0.0800 
 31 H        3.1790    -2.1840    -0.1270 H     1 <1>   0.1500 
 32 H        0.2230    -1.6920    -3.1450 H     1 <1>   0.1500 
 33 H        2.5850    -4.5260     0.0970 H     1 <1>   0.1500 
 34 H       -0.3980    -4.0370    -2.9390 H     1 <1>   0.1500 
 35 H        6.5790     1.9290    -0.6540 H     1 <1>   0.1500 
 36 H        4.3580     2.6120     2.7270 H     1 <1>   0.1500 
 37 H        2.0330     1.8820     2.0200 H     1 <1>   0.0800 
 38 H        1.8470     1.1900     0.4380 H     1 <1>   0.0800 
 39 H        1.5240    -6.5210    -1.1870 H     1 <1>   0.0800 
 40 H        0.0470    -6.2350    -2.0800 H     1 <1>   0.0800 
 41 H        1.7710     3.4750    -0.5450 H     1 <1>   0.0800 
 42 H        0.3870    -5.5700     0.7520 H     1 <1>   0.4500 
 43 H        1.7590     4.4220     2.3420 H     1 <1>   0.0800 
 44 H        1.4330     5.4260     0.9500 H     1 <1>   0.0800 
 45 H        3.0160     4.7390     1.1680 H     1 <1>   0.0800 
 46 H       -0.2920     2.9820     1.6130 H     1 <1>   0.0800 
 47 H       -0.3080     2.3040    -0.0010 H     1 <1>   0.0800 
 48 H       -0.4910     4.0220     0.2220 H     1 <1>   0.0800 
 49 H        0.6280    -8.0110     0.1030 H     1 <1>   0.0800 
 50 H       -1.1110    -7.9530    -0.0580 H     1 <1>   0.0800 
 51 H       -2.0900    -5.8390    -0.8000 H     1 <1>   0.0800 
 52 H       -1.2860    -4.3380    -0.4340 H     1 <1>   0.0800 
 53 H        0.2770    -6.8700     2.3990 H     1 <1>   0.0800 
 54 H        0.0150    -8.5640     2.2250 H     1 <1>   0.0800 
 55 H       -3.0050    -4.5730     1.1230 H     1 <1>   0.0800 
 56 H       -1.5480    -4.8220     2.0160 H     1 <1>   0.0800 
 57 H       -1.7160    -7.1120     3.5170 H     1 <1>   0.0800 
 58 H       -2.2200    -8.4650     2.5710 H     1 <1>   0.0800 
 59 H       -3.1580    -7.1350     0.8780 H     1 <1>   0.0800 
 60 H       -3.6090    -6.3950     2.3710 H     1 <1>   0.0800 
@<TRIPOS>BOND
  1   1   2  2   
  2   2   3  am  
  3   2   4  1   
  4   3   5  1   
  5   3  28  1   
  6   4   6  ar  
  7   4   7  ar  
  8   5   8  1   
  9   5  29  1   
 10   5  30  1   
 11   6   9  ar  
 12   6  31  1   
 13   7  10  ar  
 14   7  32  1   
 15   8  11  1   
 16   8  12  2   
 17   9  13  ar  
 18   9  33  1   
 19  10  13  ar  
 20  10  34  1   
 21  11  14  1   
 22  11  15  1   
 23  12  16  1   
 24  12  35  1   
 25  13  17  1   
 26  14  16  2   
 27  14  36  1   
 28  15  18  1   
 29  15  37  1   
 30  15  38  1   
 31  17  19  1   
 32  17  39  1   
 33  17  40  1   
 34  18  20  1   
 35  18  21  1   
 36  18  41  1   
 37  19  22  1   
 38  19  23  1   
 39  19  42  1   
 40  20  43  1   
 41  20  44  1   
 42  20  45  1   
 43  21  46  1   
 44  21  47  1   
 45  21  48  1   
 46  22  24  1   
 47  22  49  1   
 48  22  50  1   
 49  23  25  1   
 50  23  51  1   
 51  23  52  1   
 52  24  26  1   
 53  24  53  1   
 54  24  54  1   
 55  25  27  1   
 56  25  55  1   
 57  25  56  1   
 58  26  27  1   
 59  26  57  1   
 60  26  58  1   
 61  27  59  1   
 62  27  60  1   
@<TRIPOS>SUBSTRUCTURE
  1 ****   6 GROUP 4 **** **** 0

# MOE 2024.06 (io_trps.svl 2023.06)
