@<TRIPOS>MOLECULE
NONAME
55 56 1 0 0 
SMALL
USER_CHARGES


@<TRIPOS>ATOM
  1 O       -0.8420     1.6560    -2.7210 O.2   1 <1>  -0.5700 
  2 C       -1.2990     2.3640    -1.8580 C.2   1 <1>   0.5690 
  3 N       -2.4540     2.1690    -1.1830 N.am  1 <1>  -0.6600 
  4 C       -0.5980     3.5990    -1.3790 C.3   1 <1>  -0.0990 
  5 C       -2.7310     3.2750    -0.2440 C.3   1 <1>   0.3000 
  6 C       -3.3850     1.0310    -1.4190 C.3   1 <1>   0.0600 
  7 C       -1.3070     3.8770    -0.0420 C.3   1 <1>  -0.0190 
  8 C       -3.7520     4.1830    -0.9510 C.3   1 <1>  -0.2400 
  9 C       -3.3120     2.7410     1.0710 C.3   1 <1>  -0.2400 
 10 C       -1.1620     5.3110     0.4880 C.2   1 <1>   0.5690 
 11 O       -2.1660     5.9350     0.7360 O.2   1 <1>  -0.5700 
 12 N        0.0730     5.8800     0.7260 N.am  1 <1>  -0.6600 
 13 C        1.3750     5.1400     0.7450 C.3   1 <1>   0.1400 
 14 C        0.1150     7.2910     1.2230 C.3   1 <1>   0.1400 
 15 C        2.2210     5.4260    -0.5090 C.3   1 <1>   0.1100 
 16 C        1.4370     8.0310     0.9830 C.3   1 <1>  -0.1600 
 17 N        2.9260     6.7200    -0.4730 N.3   1 <1>  -0.8100 
 18 C        1.9990     7.8640    -0.4290 C.3   1 <1>   0.1100 
 19 C        3.8400     6.8320    -1.6540 C.3   1 <1>   0.1710 
 20 C        4.9190     7.9160    -1.5350 C.2   1 <1>   0.5690 
 21 O        5.4360     8.3520    -2.5350 O.2   1 <1>  -0.5700 
 22 N        5.2610     8.3520    -0.2990 N.am  1 <1>  -0.7300 
 23 C        6.2720     9.3650     0.0090 C.3   1 <1>   0.2780 
 24 C        6.8600     9.0180     1.3590 C.2   1 <1>  -0.2880 
 25 C        6.7650     9.7650     2.4630 C.2   1 <1>  -0.3000 
 26 H       -0.7560     4.3940    -2.0840 H     1 <1>   0.0800 
 27 H        0.4460     3.3910    -1.2660 H     1 <1>   0.0800 
 28 H       -3.0120     0.4130    -2.2190 H     1 <1>   0.0800 
 29 H       -4.3580     1.3960    -1.6920 H     1 <1>   0.0800 
 30 H       -3.4630     0.4310    -0.5300 H     1 <1>   0.0800 
 31 H       -0.8350     3.2520     0.6940 H     1 <1>   0.0800 
 32 H       -3.3110     4.6620    -1.8060 H     1 <1>   0.0800 
 33 H       -4.1160     4.9450    -0.2880 H     1 <1>   0.0800 
 34 H       -4.6060     3.6190    -1.2730 H     1 <1>   0.0800 
 35 H       -2.6720     1.9880     1.4930 H     1 <1>   0.0800 
 36 H       -4.2900     2.3260     0.9140 H     1 <1>   0.0800 
 37 H       -3.4040     3.5470     1.7770 H     1 <1>   0.0800 
 38 H        1.1940     4.0840     0.8040 H     1 <1>   0.0800 
 39 H        1.9370     5.4030     1.6240 H     1 <1>   0.0800 
 40 H       -0.1050     7.2910     2.2770 H     1 <1>   0.0800 
 41 H       -0.6660     7.8480     0.7340 H     1 <1>   0.0800 
 42 H        1.6010     5.3730    -1.3880 H     1 <1>   0.0800 
 43 H        2.9590     4.6450    -0.5790 H     1 <1>   0.0800 
 44 H        2.1720     7.7420     1.7130 H     1 <1>   0.0800 
 45 H        1.2420     9.0760     1.1420 H     1 <1>   0.0800 
 46 H        2.5340     8.7650    -0.6760 H     1 <1>   0.0800 
 47 H        1.2060     7.7450    -1.1490 H     1 <1>   0.0800 
 48 H        3.2640     7.0170    -2.5440 H     1 <1>   0.0800 
 49 H        4.3600     5.9020    -1.7910 H     1 <1>   0.0800 
 50 H        4.7370     7.9720     0.4940 H     1 <1>   0.3700 
 51 H        5.8070    10.3360     0.0370 H     1 <1>   0.0800 
 52 H        7.0380     9.3680    -0.7490 H     1 <1>   0.0800 
 53 H        7.3800     8.0750     1.3400 H     1 <1>   0.1500 
 54 H        7.1950     9.4910     3.4110 H     1 <1>   0.1500 
 55 H        6.2530    10.7110     2.5150 H     1 <1>   0.1500 
@<TRIPOS>BOND
  1   1   2  2   
  2   2   3  am  
  3   2   4  1   
  4   3   5  1   
  5   3   6  1   
  6   4   7  1   
  7   4  26  1   
  8   4  27  1   
  9   5   7  1   
 10   5   8  1   
 11   5   9  1   
 12   6  28  1   
 13   6  29  1   
 14   6  30  1   
 15   7  10  1   
 16   7  31  1   
 17   8  32  1   
 18   8  33  1   
 19   8  34  1   
 20   9  35  1   
 21   9  36  1   
 22   9  37  1   
 23  10  11  2   
 24  10  12  am  
 25  12  13  1   
 26  12  14  1   
 27  13  15  1   
 28  13  38  1   
 29  13  39  1   
 30  14  16  1   
 31  14  40  1   
 32  14  41  1   
 33  15  17  1   
 34  15  42  1   
 35  15  43  1   
 36  16  18  1   
 37  16  44  1   
 38  16  45  1   
 39  17  18  1   
 40  17  19  1   
 41  18  46  1   
 42  18  47  1   
 43  19  20  1   
 44  19  48  1   
 45  19  49  1   
 46  20  21  2   
 47  20  22  am  
 48  22  23  1   
 49  22  50  1   
 50  23  24  1   
 51  23  51  1   
 52  23  52  1   
 53  24  25  2   
 54  24  53  1   
 55  25  54  1   
 56  25  55  1   
@<TRIPOS>SUBSTRUCTURE
  1 ****  15 GROUP 4 **** **** 0

# MOE 2024.06 (io_trps.svl 2023.06)
