@<TRIPOS>MOLECULE
NONAME
59 63 1 0 0 
SMALL
USER_CHARGES


@<TRIPOS>ATOM
  1 N        1.8020     0.8710     1.3640 N.ar  1 <1>  -0.6200 
  2 C        1.2240     2.0160     1.7060 C.ar  1 <1>   0.4760 
  3 C        2.5590     0.9540     0.2950 C.ar  1 <1>   0.1660 
  4 N        1.3390     3.1950     1.1090 N.ar  1 <1>  -0.6200 
  5 C        0.3340     1.9810     2.9240 C.3   1 <1>  -0.0960 
  6 C        2.7560     2.1060    -0.4010 C.ar  1 <1>  -0.1440 
  7 C        3.3250    -0.2030    -0.2990 C.3   1 <1>   0.1430 
  8 C        2.1140     3.2340     0.0450 C.ar  1 <1>   0.1600 
  9 C        3.6860     1.8990    -1.5700 C.3   1 <1>  -0.0160 
 10 C        4.0650    -0.9230     0.8390 C.3   1 <1>   0.3430 
 11 C        2.3600    -1.1740    -1.0110 C.3   1 <1>  -0.1600 
 12 C        4.2860     0.5060    -1.2930 C.3   1 <1>  -0.1600 
 13 N        4.7500    -2.1760     0.3600 N.4   1 <1>  -0.9590 
 14 C        3.0500    -2.4940    -1.4020 C.3   1 <1>  -0.1600 
 15 C        3.7730    -3.1420    -0.2170 C.3   1 <1>   0.3430 
 16 C        5.5720    -2.7820     1.4360 C.3   1 <1>   0.5240 
 17 C        6.6890    -1.8100     1.7390 C.2   1 <1>  -0.1810 
 18 C        6.8560    -1.1140     2.9290 C.2   1 <1>   0.1390 
 19 C        7.7090    -1.3930     0.9560 C.2   1 <1>  -0.3020 
 20 N        7.8750    -0.3210     2.8840 N.2   1 <1>  -0.7070 
 21 N        8.4380    -0.4880     1.6600 N.pl3 1 <1>   0.5930 
 22 C        9.5580     0.2530     1.1860 C.ar  1 <1>  -0.0230 
 23 C       10.4820    -0.3170     0.3140 C.ar  1 <1>  -0.1500 
 24 C        9.7500     1.5720     1.5780 C.ar  1 <1>  -0.1500 
 25 C       11.5580     0.4070    -0.1730 C.ar  1 <1>  -0.1440 
 26 C       10.8210     2.3020     1.0980 C.ar  1 <1>  -0.1500 
 27 C       11.7280     1.7300     0.2200 C.ar  1 <1>  -0.1440 
 28 C       12.5360    -0.2660    -1.1260 C.3   1 <1>  -0.0970 
 29 C       12.8920     2.5700    -0.2860 C.3   1 <1>  -0.0970 
 30 H       -0.0060     0.9800     3.1140 H     1 <1>   0.0800 
 31 H       -0.5210     2.6130     2.7690 H     1 <1>   0.0800 
 32 H        0.8820     2.3370     3.7760 H     1 <1>   0.0800 
 33 H        2.2320     4.1750    -0.4670 H     1 <1>   0.1500 
 34 H        4.4470     2.6600    -1.6130 H     1 <1>   0.0800 
 35 H        3.1190     1.8990    -2.4850 H     1 <1>   0.0800 
 36 H        3.3480    -1.1720     1.6050 H     1 <1>   0.0800 
 37 H        4.7820    -0.2420     1.2690 H     1 <1>   0.0800 
 38 H        1.9370    -0.7030    -1.8830 H     1 <1>   0.0800 
 39 H        1.5420    -1.3980    -0.3460 H     1 <1>   0.0800 
 40 H        4.4260    -0.0410    -2.2080 H     1 <1>   0.0800 
 41 H        5.2470     0.6490    -0.8290 H     1 <1>   0.0800 
 42 H        5.4090    -1.8960    -0.3760 H     1 <1>   0.4500 
 43 H        3.7510    -2.3290    -2.2020 H     1 <1>   0.0800 
 44 H        2.3070    -3.1800    -1.7720 H     1 <1>   0.0800 
 45 H        3.0490    -3.4220     0.5320 H     1 <1>   0.0800 
 46 H        4.2810    -4.0340    -0.5500 H     1 <1>   0.0800 
 47 H        5.9920    -3.7180     1.1050 H     1 <1>   0.0800 
 48 H        4.9750    -2.9580     2.3170 H     1 <1>   0.0800 
 49 H        6.2240    -1.1970     3.8000 H     1 <1>   0.1500 
 50 H        7.9760    -1.6620    -0.0490 H     1 <1>   0.1500 
 51 H       10.3630    -1.3430     0.0150 H     1 <1>   0.1500 
 52 H        9.0590     2.0320     2.2650 H     1 <1>   0.1500 
 53 H       10.9440     3.3220     1.4180 H     1 <1>   0.1500 
 54 H       12.2710    -1.2940    -1.2940 H     1 <1>   0.0800 
 55 H       13.5290    -0.2390    -0.7140 H     1 <1>   0.0800 
 56 H       12.5360     0.2430    -2.0730 H     1 <1>   0.0800 
 57 H       13.8230     2.1310     0.0240 H     1 <1>   0.0800 
 58 H       12.8450     3.5700     0.1030 H     1 <1>   0.0800 
 59 H       12.8690     2.6250    -1.3590 H     1 <1>   0.0800 
@<TRIPOS>BOND
  1   1   2  ar  
  2   1   3  ar  
  3   2   4  ar  
  4   2   5  1   
  5   3   6  ar  
  6   3   7  1   
  7   4   8  ar  
  8   5  30  1   
  9   5  31  1   
 10   5  32  1   
 11   6   8  ar  
 12   6   9  1   
 13   7  10  1   
 14   7  11  1   
 15   7  12  1   
 16   8  33  1   
 17   9  12  1   
 18   9  34  1   
 19   9  35  1   
 20  10  13  1   
 21  10  36  1   
 22  10  37  1   
 23  11  14  1   
 24  11  38  1   
 25  11  39  1   
 26  12  40  1   
 27  12  41  1   
 28  13  15  1   
 29  13  16  1   
 30  13  42  1   
 31  14  15  1   
 32  14  43  1   
 33  14  44  1   
 34  15  45  1   
 35  15  46  1   
 36  16  17  1   
 37  16  47  1   
 38  16  48  1   
 39  17  18  1   
 40  17  19  2   
 41  18  20  2   
 42  18  49  1   
 43  19  21  1   
 44  19  50  1   
 45  20  21  1   
 46  21  22  1   
 47  22  23  ar  
 48  22  24  ar  
 49  23  25  ar  
 50  23  51  1   
 51  24  26  ar  
 52  24  52  1   
 53  25  27  ar  
 54  25  28  1   
 55  26  27  ar  
 56  26  53  1   
 57  27  29  1   
 58  28  54  1   
 59  28  55  1   
 60  28  56  1   
 61  29  57  1   
 62  29  58  1   
 63  29  59  1   
@<TRIPOS>SUBSTRUCTURE
  1 ****  10 GROUP 4 **** **** 0

# MOE 2024.06 (io_trps.svl 2023.06)
