@<TRIPOS>MOLECULE
NONAME
57 60 1 0 0 
SMALL
USER_CHARGES


@<TRIPOS>ATOM
  1 O       -2.8190     0.4250    -2.3340 O.2   1 <1>  -0.5700 
  2 C       -2.4920     0.6000    -1.1860 C.2   1 <1>   0.5690 
  3 N       -2.1830    -0.4310    -0.3660 N.am  1 <1>  -0.7300 
  4 C       -2.4420     2.0080    -0.6300 C.3   1 <1>  -0.0990 
  5 C       -2.1290    -1.8550    -0.7700 C.3   1 <1>   0.2200 
  6 C       -0.9960     2.5230    -0.5050 C.3   1 <1>  -0.1600 
  7 C       -3.3510    -2.6220    -0.2770 C.3   1 <1>  -0.0800 
  8 C       -1.0320    -2.5430     0.0290 C.3   1 <1>   0.1200 
  9 C       -0.8890     3.8960     0.1860 C.3   1 <1>  -0.0800 
 10 C       -2.9780    -2.9390     1.1780 C.3   1 <1>   0.1200 
 11 C       -4.6980    -1.8890    -0.4540 C.3   1 <1>  -0.0160 
 12 O       -1.5930    -2.7770     1.2860 O.3   1 <1>  -0.5600 
 13 C       -1.5730     5.0130    -0.6280 C.3   1 <1>  -0.1600 
 14 C        0.5940     4.2400     0.4190 C.3   1 <1>  -0.1600 
 15 C       -5.9630    -2.6710    -0.0780 C.ar  1 <1>  -0.1440 
 16 C       -1.3990     6.3860     0.0350 C.3   1 <1>  -0.1600 
 17 C        0.7620     5.6100     1.0890 C.3   1 <1>  -0.1600 
 18 C       -7.2130    -2.0030    -0.0520 C.ar  1 <1>   0.0000 
 19 C       -5.9680    -4.0020     0.2340 C.ar  1 <1>  -0.1500 
 20 C        0.0810     6.7110     0.2680 C.3   1 <1>  -0.1600 
 21 C       -8.3580    -2.7460     0.3270 C.ar  1 <1>   0.3100 
 22 C       -7.3960    -0.6400    -0.3870 C.ar  1 <1>  -0.1500 
 23 C       -7.1600    -4.6460     0.5860 C.ar  1 <1>   0.1600 
 24 N       -8.3140    -4.0640     0.6430 N.ar  1 <1>  -0.6200 
 25 C       -9.6040    -2.1020     0.3770 C.ar  1 <1>  -0.1500 
 26 C       -8.6260    -0.0420    -0.3320 C.ar  1 <1>  -0.1500 
 27 C       -9.7460    -0.7790     0.0580 C.ar  1 <1>  -0.1500 
 28 H       -1.9360    -0.2660     0.6120 H     1 <1>   0.3700 
 29 H       -3.0040     2.6430    -1.2890 H     1 <1>   0.0800 
 30 H       -2.9220     2.0180     0.3310 H     1 <1>   0.0800 
 31 H       -1.9820    -1.9440    -1.8340 H     1 <1>   0.0800 
 32 H       -0.5560     2.5760    -1.4870 H     1 <1>   0.0800 
 33 H       -0.4270     1.8080     0.0640 H     1 <1>   0.0800 
 34 H       -3.3870    -3.5450    -0.8260 H     1 <1>   0.0800 
 35 H       -0.1470    -1.9410     0.1300 H     1 <1>   0.0800 
 36 H       -0.7820    -3.4960    -0.4050 H     1 <1>   0.0800 
 37 H       -1.3700     3.8340     1.1480 H     1 <1>   0.0800 
 38 H       -3.2300    -3.9480     1.4520 H     1 <1>   0.0800 
 39 H       -3.4410    -2.2500     1.8640 H     1 <1>   0.0800 
 40 H       -4.7840    -1.5860    -1.4830 H     1 <1>   0.0800 
 41 H       -4.6750    -0.9970     0.1460 H     1 <1>   0.0800 
 42 H       -1.1510     5.0440    -1.6180 H     1 <1>   0.0800 
 43 H       -2.6250     4.8150    -0.7230 H     1 <1>   0.0800 
 44 H        1.0480     3.4890     1.0420 H     1 <1>   0.0800 
 45 H        1.1140     4.2450    -0.5240 H     1 <1>   0.0800 
 46 H       -1.8400     7.1450    -0.5880 H     1 <1>   0.0800 
 47 H       -1.9170     6.3940     0.9790 H     1 <1>   0.0800 
 48 H        0.3310     5.5820     2.0750 H     1 <1>   0.0800 
 49 H        1.8090     5.8350     1.1920 H     1 <1>   0.0800 
 50 H       -5.0820    -4.6060     0.2230 H     1 <1>   0.1500 
 51 H        0.1670     7.6520     0.7830 H     1 <1>   0.0800 
 52 H        0.5780     6.8080    -0.6820 H     1 <1>   0.0800 
 53 H       -6.5530    -0.0520    -0.7000 H     1 <1>   0.1500 
 54 H       -7.1120    -5.6940     0.8260 H     1 <1>   0.1500 
 55 H      -10.4520    -2.6910     0.6760 H     1 <1>   0.1500 
 56 H       -8.7470     0.9960    -0.5890 H     1 <1>   0.1500 
 57 H      -10.7080    -0.2990     0.1000 H     1 <1>   0.1500 
@<TRIPOS>BOND
  1   1   2  2   
  2   2   3  am  
  3   2   4  1   
  4   3   5  1   
  5   3  28  1   
  6   4   6  1   
  7   4  29  1   
  8   4  30  1   
  9   5   7  1   
 10   5   8  1   
 11   5  31  1   
 12   6   9  1   
 13   6  32  1   
 14   6  33  1   
 15   7  10  1   
 16   7  11  1   
 17   7  34  1   
 18   8  12  1   
 19   8  35  1   
 20   8  36  1   
 21   9  13  1   
 22   9  14  1   
 23   9  37  1   
 24  10  12  1   
 25  10  38  1   
 26  10  39  1   
 27  11  15  1   
 28  11  40  1   
 29  11  41  1   
 30  13  16  1   
 31  13  42  1   
 32  13  43  1   
 33  14  17  1   
 34  14  44  1   
 35  14  45  1   
 36  15  18  ar  
 37  15  19  ar  
 38  16  20  1   
 39  16  46  1   
 40  16  47  1   
 41  17  20  1   
 42  17  48  1   
 43  17  49  1   
 44  18  21  ar  
 45  18  22  ar  
 46  19  23  ar  
 47  19  50  1   
 48  20  51  1   
 49  20  52  1   
 50  21  24  ar  
 51  21  25  ar  
 52  22  26  ar  
 53  22  53  1   
 54  23  24  ar  
 55  23  54  1   
 56  25  27  ar  
 57  25  55  1   
 58  26  27  ar  
 59  26  56  1   
 60  27  57  1   
@<TRIPOS>SUBSTRUCTURE
  1 ****   3 GROUP 4 **** **** 0

# MOE 2024.06 (io_trps.svl 2023.06)
