@<TRIPOS>MOLECULE
NONAME
51 53 1 0 0 
SMALL
USER_CHARGES


@<TRIPOS>ATOM
  1 O        0.9850    -0.4380    -1.5170 O.2   1 <1>  -0.5700 
  2 C        1.5630    -1.1060    -0.6920 C.2   1 <1>   0.5690 
  3 N        2.4610    -0.4950     0.1600 N.am  1 <1>  -0.6600 
  4 C        1.2810    -2.6150    -0.7020 C.3   1 <1>   0.1810 
  5 C        3.5500    -1.1870     0.9170 C.3   1 <1>   0.1400 
  6 C        2.3290     0.9600     0.4310 C.3   1 <1>   0.1400 
  7 O        1.2910    -3.1880     0.5870 O.3   1 <1>  -0.5600 
  8 C        4.9530    -0.8920     0.3400 C.3   1 <1>   0.3430 
  9 C        3.1590     1.7690    -0.5710 C.3   1 <1>  -0.1600 
 10 C        0.8320    -4.5080     0.6480 C.3   1 <1>   0.2640 
 11 N        5.2420     0.5690     0.0790 N.4   1 <1>  -0.9590 
 12 C        4.4140     1.0560    -1.0720 C.3   1 <1>   0.3430 
 13 C       -0.6570    -4.5780     0.3370 C.ar  1 <1>  -0.1440 
 14 C        6.7130     0.7670    -0.1520 C.3   1 <1>   0.3430 
 15 C       -1.1340    -5.4590    -0.6230 C.ar  1 <1>  -0.1500 
 16 C       -1.5510    -3.7590     1.0110 C.ar  1 <1>  -0.1500 
 17 C        7.1300     2.2450    -0.1370 C.3   1 <1>   0.0960 
 18 C       -2.4870    -5.5170    -0.9070 C.ar  1 <1>  -0.1500 
 19 C       -2.9050    -3.8170     0.7270 C.ar  1 <1>  -0.1500 
 20 N        8.5850     2.3210    -0.3310 N.pl3 1 <1>   0.0480 
 21 C       -3.3730    -4.6970    -0.2320 C.ar  1 <1>  -0.1500 
 22 C        9.2720     2.3530    -1.4740 C.2   1 <1>   0.0360 
 23 C        9.5510     2.3130     0.5910 C.2   1 <1>   0.0360 
 24 N       10.5410     2.3480    -1.2670 N.2   1 <1>  -0.3380 
 25 N       10.7190     2.3230     0.0550 N.2   1 <1>  -0.3380 
 26 H        2.0140    -3.1160    -1.3050 H     1 <1>   0.0800 
 27 H        0.3100    -2.7620    -1.1410 H     1 <1>   0.0800 
 28 H        3.4110    -2.2510     0.8980 H     1 <1>   0.0800 
 29 H        3.5080    -0.8890     1.9500 H     1 <1>   0.0800 
 30 H        2.6450     1.1690     1.4390 H     1 <1>   0.0800 
 31 H        1.2930     1.2510     0.3570 H     1 <1>   0.0800 
 32 H        5.0620    -1.4440    -0.5790 H     1 <1>   0.0800 
 33 H        5.6800    -1.2830     1.0330 H     1 <1>   0.0800 
 34 H        3.4090     2.7240    -0.1470 H     1 <1>   0.0800 
 35 H        2.5350     1.9660    -1.4250 H     1 <1>   0.0800 
 36 H        1.0060    -4.8650     1.6490 H     1 <1>   0.0800 
 37 H        1.4060    -5.1070    -0.0370 H     1 <1>   0.0800 
 38 H        4.9440     1.0900     0.9140 H     1 <1>   0.4500 
 39 H        4.9770     1.7380    -1.6880 H     1 <1>   0.0800 
 40 H        4.1190     0.2220    -1.6910 H     1 <1>   0.0800 
 41 H        6.9880     0.3300    -1.1000 H     1 <1>   0.0800 
 42 H        7.2630     0.2550     0.6220 H     1 <1>   0.0800 
 43 H       -0.4580    -6.1040    -1.1560 H     1 <1>   0.1500 
 44 H       -1.1920    -3.0700     1.7550 H     1 <1>   0.1500 
 45 H        6.8860     2.6980     0.8070 H     1 <1>   0.0800 
 46 H        6.6530     2.7910    -0.9310 H     1 <1>   0.0800 
 47 H       -2.8520    -6.2020    -1.6530 H     1 <1>   0.1500 
 48 H       -3.5910    -3.1770     1.2530 H     1 <1>   0.1500 
 49 H       -4.4260    -4.7410    -0.4530 H     1 <1>   0.1500 
 50 H        8.8210     2.3760    -2.4500 H     1 <1>   0.1500 
 51 H        9.3730     2.2970     1.6510 H     1 <1>   0.1500 
@<TRIPOS>BOND
  1   1   2  2   
  2   2   3  am  
  3   2   4  1   
  4   3   5  1   
  5   3   6  1   
  6   4   7  1   
  7   4  26  1   
  8   4  27  1   
  9   5   8  1   
 10   5  28  1   
 11   5  29  1   
 12   6   9  1   
 13   6  30  1   
 14   6  31  1   
 15   7  10  1   
 16   8  11  1   
 17   8  32  1   
 18   8  33  1   
 19   9  12  1   
 20   9  34  1   
 21   9  35  1   
 22  10  13  1   
 23  10  36  1   
 24  10  37  1   
 25  11  12  1   
 26  11  14  1   
 27  11  38  1   
 28  12  39  1   
 29  12  40  1   
 30  13  15  ar  
 31  13  16  ar  
 32  14  17  1   
 33  14  41  1   
 34  14  42  1   
 35  15  18  ar  
 36  15  43  1   
 37  16  19  ar  
 38  16  44  1   
 39  17  20  1   
 40  17  45  1   
 41  17  46  1   
 42  18  21  ar  
 43  18  47  1   
 44  19  21  ar  
 45  19  48  1   
 46  20  22  1   
 47  20  23  1   
 48  21  49  1   
 49  22  24  2   
 50  22  50  1   
 51  23  25  2   
 52  23  51  1   
 53  24  25  1   
@<TRIPOS>SUBSTRUCTURE
  1 ****   3 GROUP 4 **** **** 0

# MOE 2024.06 (io_trps.svl 2023.06)
