@<TRIPOS>MOLECULE
NONAME
36 37 1 0 0 
SMALL
USER_CHARGES


@<TRIPOS>ATOM
  1 S       -0.6490     0.5900    -1.9750 S.o2  1 <1>   1.4470 
  2 O       -1.3050     1.8300    -2.3360 O.2   1 <1>  -0.6500 
  3 O       -0.3280    -0.3310    -3.0460 O.2   1 <1>  -0.6500 
  4 N       -1.6540    -0.2450    -0.8980 N.am  1 <1>  -0.8490 
  5 C        0.8410     0.9250    -1.0100 C.ar  1 <1>  -0.0090 
  6 C       -1.0810    -1.5280    -0.4270 C.3   1 <1>   0.1960 
  7 C       -3.0370    -0.3370    -1.3580 C.3   1 <1>   0.1960 
  8 C        0.8350     1.8280     0.0400 C.ar  1 <1>   0.1900 
  9 C        2.0430     0.2740    -1.2670 C.ar  1 <1>  -0.1500 
 10 C       -2.1300    -2.6080    -0.1550 C.3   1 <1>  -0.1860 
 11 C       -3.9470    -0.8410    -0.2270 C.3   1 <1>  -0.1600 
 12 F       -0.2620     2.4700     0.3370 F     1 <1>  -0.1900 
 13 C        1.9520     2.0970     0.8100 C.ar  1 <1>  -0.1500 
 14 C        3.1760     0.5270    -0.5080 C.ar  1 <1>  -0.1500 
 15 C       -1.4950    -3.7320     0.6220 C.2   1 <1>   0.9060 
 16 C       -3.3700    -2.0440     0.5380 C.3   1 <1>   0.2000 
 17 C        3.1390     1.4410     0.5330 C.ar  1 <1>  -0.1440 
 18 O       -1.2340    -4.7800     0.0300 O.co2 1 <1>  -0.9000 
 19 O       -1.2410    -3.5600     1.8210 O.co2 1 <1>  -0.9000 
 20 O       -3.0250    -1.6340     1.8100 O.3   1 <1>  -0.6800 
 21 C        4.3840     1.7060     1.3600 C.3   1 <1>  -0.0970 
 22 H       -0.3810    -1.9250    -1.1430 H     1 <1>   0.0800 
 23 H       -0.5380    -1.3340     0.4850 H     1 <1>   0.0800 
 24 H       -3.3850     0.6320    -1.6740 H     1 <1>   0.0800 
 25 H       -3.0860    -1.0030    -2.2040 H     1 <1>   0.0800 
 26 H        2.0940    -0.4450    -2.0690 H     1 <1>   0.1500 
 27 H       -2.4300    -3.0270    -1.0960 H     1 <1>   0.0800 
 28 H       -4.8850    -1.1280    -0.6630 H     1 <1>   0.0800 
 29 H       -4.1420    -0.0310     0.4530 H     1 <1>   0.0800 
 30 H        1.8800     2.8080     1.6140 H     1 <1>   0.1500 
 31 H        4.0900     0.0040    -0.7320 H     1 <1>   0.1500 
 32 H       -4.1120    -2.8170     0.6480 H     1 <1>   0.0800 
 33 H       -2.3370    -2.2880     2.1360 H     1 <1>   0.4000 
 34 H        5.2410     1.8100     0.7190 H     1 <1>   0.0800 
 35 H        4.5520     0.8870     2.0360 H     1 <1>   0.0800 
 36 H        4.2770     2.6100     1.9330 H     1 <1>   0.0800 
@<TRIPOS>BOND
  1   1   2  2   
  2   1   3  2   
  3   1   4  am  
  4   1   5  1   
  5   4   6  1   
  6   4   7  1   
  7   5   8  ar  
  8   5   9  ar  
  9   6  10  1   
 10   6  22  1   
 11   6  23  1   
 12   7  11  1   
 13   7  24  1   
 14   7  25  1   
 15   8  12  1   
 16   8  13  ar  
 17   9  14  ar  
 18   9  26  1   
 19  10  15  1   
 20  10  16  1   
 21  10  27  1   
 22  11  16  1   
 23  11  28  1   
 24  11  29  1   
 25  13  17  ar  
 26  13  30  1   
 27  14  17  ar  
 28  14  31  1   
 29  15  18  ar  
 30  15  19  ar  
 31  16  20  1   
 32  16  32  1   
 33  17  21  1   
 34  20  33  1   
 35  21  34  1   
 36  21  35  1   
 37  21  36  1   
@<TRIPOS>SUBSTRUCTURE
  1 ****   6 GROUP 4 **** **** 0

# MOE 2024.06 (io_trps.svl 2023.06)
