@<TRIPOS>MOLECULE
NONAME
50 52 1 0 0 
SMALL
USER_CHARGES


@<TRIPOS>ATOM
  1 O       -1.1380    -0.3170    -0.9910 O.2   1 <1>  -0.5700 
  2 C       -2.0520     0.2410    -0.4430 C.2   1 <1>   0.4230 
  3 C       -3.2930    -0.4190    -0.1490 C.ar  1 <1>   0.0860 
  4 C       -1.8100     1.6730    -0.0080 C.3   1 <1>  -0.1790 
  5 C       -4.5720     0.1090    -0.3230 C.ar  1 <1>   0.1660 
  6 C       -3.2620    -1.7080     0.3600 C.ar  1 <1>   0.1600 
  7 N       -5.6520    -0.5390     0.0300 N.ar  1 <1>  -0.6200 
  8 C       -4.8220     1.4660    -0.9610 C.3   1 <1>  -0.0960 
  9 N       -4.3290    -2.3790     0.7120 N.ar  1 <1>  -0.6200 
 10 C       -5.4840    -1.7490     0.5420 C.ar  1 <1>   0.7200 
 11 N       -6.6210    -2.3720     0.8960 N.pl3 1 <1>  -0.8690 
 12 C       -6.7950    -3.8160     1.2060 C.3   1 <1>   0.2090 
 13 C       -7.5460    -4.5690     0.0800 C.3   1 <1>   0.1430 
 14 C       -8.9290    -3.9200    -0.1310 C.ar  1 <1>  -0.1430 
 15 C       -6.7010    -4.6360    -1.2060 C.3   1 <1>  -0.1600 
 16 C       -7.6470    -6.0630     0.4370 C.3   1 <1>  -0.1600 
 17 C      -10.0190    -4.2930     0.6490 C.ar  1 <1>  -0.1500 
 18 C       -9.1180    -2.9270    -1.0870 C.ar  1 <1>  -0.1500 
 19 C       -5.6820    -5.7570    -0.9900 C.3   1 <1>  -0.1600 
 20 C       -6.3120    -6.7010     0.0360 C.3   1 <1>  -0.1600 
 21 C      -11.2610    -3.7100     0.4710 C.ar  1 <1>  -0.1500 
 22 C      -10.3570    -2.3410    -1.2680 C.ar  1 <1>  -0.1500 
 23 C      -11.4390    -2.7280    -0.4960 C.ar  1 <1>   0.0830 
 24 O      -12.6210    -2.1080    -0.7400 O.3   1 <1>  -0.3630 
 25 C      -13.7820    -2.4330    -0.0090 C.3   1 <1>   0.0400 
 26 H       -2.5010     1.9630     0.7620 H     1 <1>   0.0800 
 27 H       -1.9070     2.3330    -0.8510 H     1 <1>   0.0800 
 28 H       -0.8120     1.7610     0.3800 H     1 <1>   0.0800 
 29 H       -2.3050    -2.1890     0.4820 H     1 <1>   0.1500 
 30 H       -4.1020     1.6690    -1.7320 H     1 <1>   0.0800 
 31 H       -4.7840     2.2360    -0.2140 H     1 <1>   0.0800 
 32 H       -5.7980     1.4830    -1.4130 H     1 <1>   0.0800 
 33 H       -7.4780    -1.8770     0.6460 H     1 <1>   0.4000 
 34 H       -7.3600    -3.8960     2.1180 H     1 <1>   0.0800 
 35 H       -5.8370    -4.2720     1.3800 H     1 <1>   0.0800 
 36 H       -6.2150    -3.7040    -1.4360 H     1 <1>   0.0800 
 37 H       -7.3370    -4.9050    -2.0310 H     1 <1>   0.0800 
 38 H       -8.4280    -6.5090    -0.1550 H     1 <1>   0.0800 
 39 H       -7.8660    -6.2270     1.4770 H     1 <1>   0.0800 
 40 H       -9.9130    -5.0430     1.4110 H     1 <1>   0.1500 
 41 H       -8.2990    -2.5910    -1.6990 H     1 <1>   0.1500 
 42 H       -4.7690    -5.3450    -0.5930 H     1 <1>   0.0800 
 43 H       -5.4620    -6.2620    -1.9150 H     1 <1>   0.0800 
 44 H       -6.4700    -7.6820    -0.3800 H     1 <1>   0.0800 
 45 H       -5.6660    -6.7870     0.8930 H     1 <1>   0.0800 
 46 H      -12.0740    -4.0310     1.0930 H     1 <1>   0.1500 
 47 H      -10.4940    -1.5770    -2.0110 H     1 <1>   0.1500 
 48 H      -14.5870    -1.8210    -0.3730 H     1 <1>   0.0800 
 49 H      -13.6080    -2.2270     1.0320 H     1 <1>   0.0800 
 50 H      -14.0120    -3.4720    -0.1640 H     1 <1>   0.0800 
@<TRIPOS>BOND
  1   1   2  2   
  2   2   3  1   
  3   2   4  1   
  4   3   5  ar  
  5   3   6  ar  
  6   4  26  1   
  7   4  27  1   
  8   4  28  1   
  9   5   7  ar  
 10   5   8  1   
 11   6   9  ar  
 12   6  29  1   
 13   7  10  ar  
 14   8  30  1   
 15   8  31  1   
 16   8  32  1   
 17   9  10  ar  
 18  10  11  1   
 19  11  12  1   
 20  11  33  1   
 21  12  13  1   
 22  12  34  1   
 23  12  35  1   
 24  13  14  1   
 25  13  15  1   
 26  13  16  1   
 27  14  17  ar  
 28  14  18  ar  
 29  15  19  1   
 30  15  36  1   
 31  15  37  1   
 32  16  20  1   
 33  16  38  1   
 34  16  39  1   
 35  17  21  ar  
 36  17  40  1   
 37  18  22  ar  
 38  18  41  1   
 39  19  20  1   
 40  19  42  1   
 41  19  43  1   
 42  20  44  1   
 43  20  45  1   
 44  21  23  ar  
 45  21  46  1   
 46  22  23  ar  
 47  22  47  1   
 48  23  24  1   
 49  24  25  1   
 50  25  48  1   
 51  25  49  1   
 52  25  50  1   
@<TRIPOS>SUBSTRUCTURE
  1 ****  11 GROUP 4 **** **** 0

# MOE 2024.06 (io_trps.svl 2023.06)
