@<TRIPOS>MOLECULE
NONAME
43 44 1 0 0 
SMALL
USER_CHARGES


@<TRIPOS>ATOM
  1 O        0.1270     1.2100    -1.3740 O.3   1 <1>  -0.5600 
  2 C        0.0950     2.2230    -0.4340 C.3   1 <1>   0.1200 
  3 C       -1.0780     0.5290    -1.5260 C.3   1 <1>   0.0400 
  4 C        1.4870     2.8490    -0.4250 C.3   1 <1>  -0.1600 
  5 C        1.5750     3.9620     0.6140 C.3   1 <1>   0.3430 
  6 N        2.8860     4.6580     0.5160 N.4   1 <1>  -0.9590 
  7 C        4.0830     3.8160     0.8560 C.3   1 <1>   0.3430 
  8 C        2.9240     5.9530     1.2730 C.3   1 <1>   0.3430 
  9 C        5.4030     4.5900     0.6030 C.3   1 <1>   0.1100 
 10 C        4.2630     6.6970     1.0490 C.3   1 <1>   0.1100 
 11 N        5.1610     5.9680     0.1170 N.3   1 <1>  -0.8100 
 12 C        6.4190     6.6950    -0.1210 C.3   1 <1>   0.2900 
 13 C        6.1340     7.9840    -0.8680 C.2   1 <1>  -0.3320 
 14 N        6.8240     9.1350    -0.6970 N.pl3 1 <1>   0.3140 
 15 C        5.2000     8.2330    -1.8140 C.2   1 <1>  -0.1500 
 16 N        6.3500    10.1110    -1.4860 N.2   1 <1>  -0.7070 
 17 C        7.9610     9.3890     0.1990 C.3   1 <1>   0.0160 
 18 C        5.3840     9.5650    -2.1560 C.2   1 <1>   0.1390 
 19 H       -0.1490     1.7940     0.5240 H     1 <1>   0.0800 
 20 H       -0.6560     2.9400    -0.7240 H     1 <1>   0.0800 
 21 H       -0.9400    -0.2310    -2.2750 H     1 <1>   0.0800 
 22 H       -1.8400     1.2180    -1.8480 H     1 <1>   0.0800 
 23 H       -1.3500     0.0700    -0.5910 H     1 <1>   0.0800 
 24 H        1.6840     3.2480    -1.4040 H     1 <1>   0.0800 
 25 H        2.1970     2.0730    -0.2020 H     1 <1>   0.0800 
 26 H        1.4460     3.5540     1.6030 H     1 <1>   0.0800 
 27 H        0.7820     4.6700     0.4330 H     1 <1>   0.0800 
 28 H        3.0620     4.9450    -0.4610 H     1 <1>   0.4500 
 29 H        4.0900     2.9220     0.2550 H     1 <1>   0.0800 
 30 H        4.0400     3.5150     1.8900 H     1 <1>   0.0800 
 31 H        2.7930     5.7700     2.3270 H     1 <1>   0.0800 
 32 H        2.1170     6.5900     0.9490 H     1 <1>   0.0800 
 33 H        5.9820     4.0510    -0.1280 H     1 <1>   0.0800 
 34 H        5.9760     4.6150     1.5150 H     1 <1>   0.0800 
 35 H        4.7520     6.8360     1.9980 H     1 <1>   0.0800 
 36 H        4.0440     7.6760     0.6560 H     1 <1>   0.0800 
 37 H        7.0820     6.0930    -0.7200 H     1 <1>   0.0800 
 38 H        6.9020     6.8990     0.8200 H     1 <1>   0.0800 
 39 H        4.4690     7.5650    -2.2310 H     1 <1>   0.1500 
 40 H        8.7410     8.6800    -0.0070 H     1 <1>   0.0800 
 41 H        7.6370     9.3020     1.2180 H     1 <1>   0.0800 
 42 H        8.3290    10.3830     0.0250 H     1 <1>   0.0800 
 43 H        4.8000    10.0950    -2.8900 H     1 <1>   0.1500 
@<TRIPOS>BOND
  1   1   2  1   
  2   1   3  1   
  3   2   4  1   
  4   2  19  1   
  5   2  20  1   
  6   3  21  1   
  7   3  22  1   
  8   3  23  1   
  9   4   5  1   
 10   4  24  1   
 11   4  25  1   
 12   5   6  1   
 13   5  26  1   
 14   5  27  1   
 15   6   7  1   
 16   6   8  1   
 17   6  28  1   
 18   7   9  1   
 19   7  29  1   
 20   7  30  1   
 21   8  10  1   
 22   8  31  1   
 23   8  32  1   
 24   9  11  1   
 25   9  33  1   
 26   9  34  1   
 27  10  11  1   
 28  10  35  1   
 29  10  36  1   
 30  11  12  1   
 31  12  13  1   
 32  12  37  1   
 33  12  38  1   
 34  13  14  1   
 35  13  15  2   
 36  14  16  1   
 37  14  17  1   
 38  15  18  1   
 39  15  39  1   
 40  16  18  2   
 41  17  40  1   
 42  17  41  1   
 43  17  42  1   
 44  18  43  1   
@<TRIPOS>SUBSTRUCTURE
  1 ****  11 GROUP 4 **** **** 0

# MOE 2024.06 (io_trps.svl 2023.06)
