@<TRIPOS>MOLECULE
NONAME
46 49 1 0 0 
SMALL
USER_CHARGES


@<TRIPOS>ATOM
  1 O        0.0950     0.3500    -0.1310 O.3   1 <1>  -0.6800 
  2 C        1.2210     0.0220    -0.8760 C.3   1 <1>   0.2000 
  3 C        1.6720    -1.3750    -0.4490 C.3   1 <1>  -0.0800 
  4 C        2.3760     0.9370    -0.4320 C.3   1 <1>   0.3430 
  5 C        2.3660    -1.0580     0.8780 C.3   1 <1>   0.3430 
  6 C        2.6090    -2.0080    -1.5140 C.3   1 <1>   0.0210 
  7 N        3.1570     0.1550     0.5780 N.4   1 <1>  -0.9590 
  8 C        3.9340    -2.5230    -0.9730 C.2   1 <1>   0.1080 
  9 C        3.5850     0.9330     1.7610 C.3   1 <1>   0.4860 
 10 N        4.9240    -1.7400    -0.6560 N.2   1 <1>  -0.7070 
 11 C        4.2350    -3.8640    -0.7710 C.2   1 <1>  -0.1500 
 12 C        4.3770     2.1370     1.2900 C.ar  1 <1>  -0.1440 
 13 N        5.9080    -2.5850    -0.2690 N.pl3 1 <1>   0.3000 
 14 C        5.5050    -3.8710    -0.3180 C.2   1 <1>  -0.3320 
 15 C        5.5880     1.9770     0.6490 C.ar  1 <1>  -0.1500 
 16 C        3.8600     3.4250     1.5030 C.ar  1 <1>  -0.1500 
 17 C        6.3790    -5.0530     0.0640 C.3   1 <1>  -0.0600 
 18 C        6.2910     3.1010     0.2070 C.ar  1 <1>   0.0000 
 19 C        4.5440     4.5390     1.0730 C.ar  1 <1>  -0.1500 
 20 C        5.7660     4.3700     0.4210 C.ar  1 <1>  -0.1520 
 21 C        7.5170     3.2840    -0.4670 C.2   1 <1>  -0.1500 
 22 N        6.6400     5.2910    -0.1000 N.pl3 1 <1>   0.0330 
 23 C        7.6990     4.6150    -0.6370 C.2   1 <1>  -0.3020 
 24 H       -0.7140    -0.0570    -0.5080 H     1 <1>   0.4000 
 25 H        0.9850     0.1240    -1.9230 H     1 <1>   0.0800 
 26 H        0.8360    -2.0320    -0.2830 H     1 <1>   0.0800 
 27 H        1.9820     1.8480    -0.0120 H     1 <1>   0.0800 
 28 H        3.0120     1.1760    -1.2680 H     1 <1>   0.0800 
 29 H        2.9920    -1.8700     1.2150 H     1 <1>   0.0800 
 30 H        1.6220    -0.8360     1.6260 H     1 <1>   0.0800 
 31 H        2.8430    -1.2980    -2.2880 H     1 <1>   0.0800 
 32 H        2.0940    -2.8210    -1.9940 H     1 <1>   0.0800 
 33 H        4.0110    -0.2030     0.0970 H     1 <1>   0.4500 
 34 H        2.7230     1.2590     2.3190 H     1 <1>   0.0800 
 35 H        4.2010     0.3240     2.4020 H     1 <1>   0.0800 
 36 H        3.5850    -4.7030    -0.9540 H     1 <1>   0.1500 
 37 H        6.8460    -2.2660     0.0090 H     1 <1>   0.2700 
 38 H        6.0190     1.0080     0.4700 H     1 <1>   0.1500 
 39 H        2.9170     3.5510     2.0080 H     1 <1>   0.1500 
 40 H        5.8350    -5.9730    -0.0650 H     1 <1>   0.0800 
 41 H        6.6830    -4.9780     1.0930 H     1 <1>   0.0800 
 42 H        7.2550    -5.0870    -0.5590 H     1 <1>   0.0800 
 43 H        4.1550     5.5290     1.2340 H     1 <1>   0.1500 
 44 H        8.1660     2.4820    -0.7740 H     1 <1>   0.1500 
 45 H        6.5130     6.3080    -0.0820 H     1 <1>   0.2700 
 46 H        8.5210     5.1250    -1.1080 H     1 <1>   0.1500 
@<TRIPOS>BOND
  1   1   2  1   
  2   1  24  1   
  3   2   3  1   
  4   2   4  1   
  5   2  25  1   
  6   3   5  1   
  7   3   6  1   
  8   3  26  1   
  9   4   7  1   
 10   4  27  1   
 11   4  28  1   
 12   5   7  1   
 13   5  29  1   
 14   5  30  1   
 15   6   8  1   
 16   6  31  1   
 17   6  32  1   
 18   7   9  1   
 19   7  33  1   
 20   8  10  2   
 21   8  11  1   
 22   9  12  1   
 23   9  34  1   
 24   9  35  1   
 25  10  13  1   
 26  11  14  2   
 27  11  36  1   
 28  12  15  ar  
 29  12  16  ar  
 30  13  14  1   
 31  13  37  1   
 32  14  17  1   
 33  15  18  ar  
 34  15  38  1   
 35  16  19  ar  
 36  16  39  1   
 37  17  40  1   
 38  17  41  1   
 39  17  42  1   
 40  18  20  ar  
 41  18  21  1   
 42  19  20  ar  
 43  19  43  1   
 44  20  22  1   
 45  21  23  2   
 46  21  44  1   
 47  22  23  1   
 48  22  45  1   
 49  23  46  1   
@<TRIPOS>SUBSTRUCTURE
  1 ****   7 GROUP 4 **** **** 0

# MOE 2024.06 (io_trps.svl 2023.06)
