@<TRIPOS>MOLECULE
NONAME
52 56 1 0 0 
SMALL
USER_CHARGES


@<TRIPOS>ATOM
  1 S       -0.5340    -0.0610     1.5890 S.o2  1 <1>   1.5010 
  2 O       -0.3360     1.0240     2.5240 O.2   1 <1>  -0.6500 
  3 O       -1.2390    -1.2540     2.0080 O.2   1 <1>  -0.6500 
  4 N       -1.3970     0.5750     0.2770 N.am  1 <1>  -0.8490 
  5 C        1.0460    -0.5020     0.8540 C.2   1 <1>  -0.0630 
  6 C       -2.6200     1.2660     0.7330 C.3   1 <1>   0.1960 
  7 C       -1.7300    -0.4480    -0.7210 C.3   1 <1>   0.1960 
  8 C        1.9220     0.4150     0.2900 C.2   1 <1>   0.1390 
  9 C        1.6710    -1.6930     0.6790 C.2   1 <1>  -0.3020 
 10 C       -3.3310     1.9940    -0.4260 C.3   1 <1>   0.1440 
 11 C       -2.3850     0.1990    -1.9470 C.3   1 <1>  -0.1600 
 12 N        2.9900    -0.1430    -0.1940 N.2   1 <1>  -0.7070 
 13 N        2.8360    -1.4510     0.0530 N.pl3 1 <1>   0.3140 
 14 C       -4.5800     2.6640     0.1150 C.ar  1 <1>   0.1660 
 15 C       -3.6430     0.9900    -1.5550 C.3   1 <1>  -0.1600 
 16 C       -2.4960     3.2020    -0.9330 C.3   1 <1>  -0.1600 
 17 C        3.8560    -2.4300    -0.3390 C.3   1 <1>   0.0160 
 18 N       -5.6810     2.0460     0.4700 N.ar  1 <1>  -0.6200 
 19 C       -4.4260     4.0120     0.2100 C.ar  1 <1>  -0.1440 
 20 C       -3.0570     4.4570    -0.2420 C.3   1 <1>  -0.0170 
 21 C       -6.6700     2.8280     0.9250 C.ar  1 <1>   0.6200 
 22 C       -5.4810     4.7430     0.6880 C.ar  1 <1>   0.1600 
 23 N       -6.6040     4.1620     1.0440 N.ar  1 <1>  -0.6200 
 24 C       -7.9120     2.1770     1.3200 C.ar  1 <1>   0.0000 
 25 C       -9.1430     2.8350     1.2380 C.ar  1 <1>  -0.1500 
 26 C       -7.9330     0.8630     1.8000 C.ar  1 <1>  -0.1500 
 27 C      -10.3250     2.2200     1.6120 C.ar  1 <1>  -0.1500 
 28 C       -9.1100     0.2420     2.1750 C.ar  1 <1>  -0.1500 
 29 C      -10.3110     0.9200     2.0820 C.ar  1 <1>  -0.1500 
 30 H       -2.3700     1.9920     1.4890 H     1 <1>   0.0800 
 31 H       -3.2960     0.5520     1.1760 H     1 <1>   0.0800 
 32 H       -2.4000    -1.1770    -0.2920 H     1 <1>   0.0800 
 33 H       -0.8340    -0.9590    -1.0350 H     1 <1>   0.0800 
 34 H        1.7380     1.4770     0.2550 H     1 <1>   0.1500 
 35 H        1.3450    -2.6750     0.9690 H     1 <1>   0.1500 
 36 H       -2.6500    -0.5690    -2.6520 H     1 <1>   0.0800 
 37 H       -1.6710     0.8470    -2.4230 H     1 <1>   0.0800 
 38 H       -4.0510     1.4990    -2.4100 H     1 <1>   0.0800 
 39 H       -4.3910     0.2970    -1.2070 H     1 <1>   0.0800 
 40 H       -2.6340     3.3150    -1.9940 H     1 <1>   0.0800 
 41 H       -1.4430     3.0830    -0.7430 H     1 <1>   0.0800 
 42 H        3.5190    -3.4210    -0.1030 H     1 <1>   0.0800 
 43 H        4.7650    -2.2170     0.1930 H     1 <1>   0.0800 
 44 H        4.0320    -2.3450    -1.3960 H     1 <1>   0.0800 
 45 H       -3.1110     5.2910    -0.9200 H     1 <1>   0.0800 
 46 H       -2.4590     4.7180     0.6140 H     1 <1>   0.0800 
 47 H       -5.4070     5.8130     0.7810 H     1 <1>   0.1500 
 48 H       -9.1740     3.8470     0.8740 H     1 <1>   0.1500 
 49 H       -7.0080     0.3190     1.8810 H     1 <1>   0.1500 
 50 H      -11.2560     2.7550     1.5370 H     1 <1>   0.1500 
 51 H       -9.0920    -0.7700     2.5400 H     1 <1>   0.1500 
 52 H      -11.2290     0.4400     2.3730 H     1 <1>   0.1500 
@<TRIPOS>BOND
  1   1   2  2   
  2   1   3  2   
  3   1   4  am  
  4   1   5  1   
  5   4   6  1   
  6   4   7  1   
  7   5   8  1   
  8   5   9  2   
  9   6  10  1   
 10   6  30  1   
 11   6  31  1   
 12   7  11  1   
 13   7  32  1   
 14   7  33  1   
 15   8  12  2   
 16   8  34  1   
 17   9  13  1   
 18   9  35  1   
 19  10  14  1   
 20  10  15  1   
 21  10  16  1   
 22  11  15  1   
 23  11  36  1   
 24  11  37  1   
 25  12  13  1   
 26  13  17  1   
 27  14  18  ar  
 28  14  19  ar  
 29  15  38  1   
 30  15  39  1   
 31  16  20  1   
 32  16  40  1   
 33  16  41  1   
 34  17  42  1   
 35  17  43  1   
 36  17  44  1   
 37  18  21  ar  
 38  19  20  1   
 39  19  22  ar  
 40  20  45  1   
 41  20  46  1   
 42  21  23  ar  
 43  21  24  1   
 44  22  23  ar  
 45  22  47  1   
 46  24  25  ar  
 47  24  26  ar  
 48  25  27  ar  
 49  25  48  1   
 50  26  28  ar  
 51  26  49  1   
 52  27  29  ar  
 53  27  50  1   
 54  28  29  ar  
 55  28  51  1   
 56  29  52  1   
@<TRIPOS>SUBSTRUCTURE
  1 ****   6 GROUP 4 **** **** 0

# MOE 2024.06 (io_trps.svl 2023.06)
