@<TRIPOS>MOLECULE
NONAME
53 57 1 0 0 
SMALL
USER_CHARGES


@<TRIPOS>ATOM
  1 O       -1.1890     1.2460     2.0820 O.2   1 <1>  -0.5700 
  2 C       -1.9750     1.5760     1.2120 C.2   1 <1>   0.7150 
  3 N       -3.2270     1.0010     1.1820 N.am  1 <1>  -0.6600 
  4 C       -1.5770     2.5450     0.2330 C.2   1 <1>  -0.2370 
  5 C       -3.7230     0.1300     2.2840 C.3   1 <1>   0.1400 
  6 C       -4.1250     1.0330    -0.0030 C.3   1 <1>   0.1400 
  7 N       -0.4390     2.4080    -0.5140 N.pl3 1 <1>   0.2940 
  8 C       -2.1850     3.7200    -0.1340 C.2   1 <1>  -0.1500 
  9 C       -3.8700    -1.3000     1.7630 C.3   1 <1>  -0.1600 
 10 C       -4.2770    -0.3880    -0.5500 C.3   1 <1>  -0.1600 
 11 C       -0.3480     3.4850    -1.3330 C.2   1 <1>  -0.3020 
 12 C        0.5170     1.2760    -0.4710 C.3   1 <1>  -0.0910 
 13 C       -1.4080     4.3120    -1.1240 C.2   1 <1>  -0.1500 
 14 C       -4.7770    -1.3700     0.5250 C.3   1 <1>   0.4240 
 15 C        1.0910     0.7100    -1.7370 C.3   1 <1>  -0.2000 
 16 C        0.0720    -0.0690    -0.9660 C.3   1 <1>  -0.2000 
 17 O       -6.0390    -0.9260     0.9650 O.3   1 <1>  -0.5600 
 18 C       -4.8320    -2.8140    -0.0210 C.ar  1 <1>  -0.1430 
 19 C       -7.1530    -1.3010     0.2150 C.3   1 <1>   0.1200 
 20 C       -6.0380    -3.5000    -0.1230 C.ar  1 <1>  -0.1430 
 21 C       -3.6680    -3.4560    -0.4300 C.ar  1 <1>  -0.1500 
 22 C       -7.3210    -2.8150     0.3050 C.3   1 <1>  -0.0170 
 23 C       -6.0770    -4.7960    -0.6110 C.ar  1 <1>  -0.1500 
 24 C       -3.7050    -4.7490    -0.9200 C.ar  1 <1>  -0.1500 
 25 C       -4.9060    -5.4290    -1.0130 C.ar  1 <1>   0.0830 
 26 O       -4.8560    -6.6940    -1.5020 O.3   1 <1>  -0.3630 
 27 C       -6.0200    -7.4820    -1.6160 C.3   1 <1>   0.0400 
 28 H       -4.6760     0.5000     2.6230 H     1 <1>   0.0800 
 29 H       -3.0450     0.1460     3.1210 H     1 <1>   0.0800 
 30 H       -3.7310     1.6680    -0.7760 H     1 <1>   0.0800 
 31 H       -5.0860     1.4200     0.2930 H     1 <1>   0.0800 
 32 H       -3.0970     4.1260     0.2680 H     1 <1>   0.1500 
 33 H       -4.2780    -1.9290     2.5330 H     1 <1>   0.0800 
 34 H       -2.8900    -1.6710     1.5310 H     1 <1>   0.0800 
 35 H       -3.3190    -0.7110    -0.9110 H     1 <1>   0.0800 
 36 H       -4.9450    -0.3900    -1.3910 H     1 <1>   0.0800 
 37 H        0.4670     3.6090    -2.0210 H     1 <1>   0.1500 
 38 H        1.1280     1.3090     0.4140 H     1 <1>   0.1000 
 39 H       -1.6210     5.2480    -1.6150 H     1 <1>   0.1500 
 40 H        2.1080     0.3570    -1.7340 H     1 <1>   0.1000 
 41 H        0.8040     1.1340    -2.6840 H     1 <1>   0.1000 
 42 H       -0.9170    -0.1720    -1.3750 H     1 <1>   0.1000 
 43 H        0.3930    -0.9440    -0.4280 H     1 <1>   0.1000 
 44 H       -7.0170    -0.9870    -0.8050 H     1 <1>   0.0800 
 45 H       -8.0110    -0.8020     0.6270 H     1 <1>   0.0800 
 46 H       -2.7170    -2.9570    -0.3710 H     1 <1>   0.1500 
 47 H       -8.1350    -3.1180    -0.3270 H     1 <1>   0.0800 
 48 H       -7.5570    -3.0880     1.3180 H     1 <1>   0.0800 
 49 H       -7.0220    -5.3000    -0.6720 H     1 <1>   0.1500 
 50 H       -2.8020    -5.2400    -1.2320 H     1 <1>   0.1500 
 51 H       -5.7360    -8.4390    -2.0140 H     1 <1>   0.0800 
 52 H       -6.7060    -6.9960    -2.2870 H     1 <1>   0.0800 
 53 H       -6.4540    -7.6060    -0.6400 H     1 <1>   0.0800 
@<TRIPOS>BOND
  1   1   2  2   
  2   2   3  am  
  3   2   4  1   
  4   3   5  1   
  5   3   6  1   
  6   4   7  1   
  7   4   8  2   
  8   5   9  1   
  9   5  28  1   
 10   5  29  1   
 11   6  10  1   
 12   6  30  1   
 13   6  31  1   
 14   7  11  1   
 15   7  12  1   
 16   8  13  1   
 17   8  32  1   
 18   9  14  1   
 19   9  33  1   
 20   9  34  1   
 21  10  14  1   
 22  10  35  1   
 23  10  36  1   
 24  11  13  2   
 25  11  37  1   
 26  12  15  1   
 27  12  16  1   
 28  12  38  1   
 29  13  39  1   
 30  14  17  1   
 31  14  18  1   
 32  15  16  1   
 33  15  40  1   
 34  15  41  1   
 35  16  42  1   
 36  16  43  1   
 37  17  19  1   
 38  18  20  ar  
 39  18  21  ar  
 40  19  22  1   
 41  19  44  1   
 42  19  45  1   
 43  20  22  1   
 44  20  23  ar  
 45  21  24  ar  
 46  21  46  1   
 47  22  47  1   
 48  22  48  1   
 49  23  25  ar  
 50  23  49  1   
 51  24  25  ar  
 52  24  50  1   
 53  25  26  1   
 54  26  27  1   
 55  27  51  1   
 56  27  52  1   
 57  27  53  1   
@<TRIPOS>SUBSTRUCTURE
  1 ****  10 GROUP 4 **** **** 0

# MOE 2024.06 (io_trps.svl 2023.06)
