@<TRIPOS>MOLECULE
NONAME
42 44 1 0 0 
SMALL
USER_CHARGES


@<TRIPOS>ATOM
  1 O        0.1330     0.8980    -0.0830 O.2   1 <1>  -0.5700 
  2 C        0.0550     2.0890     0.0770 C.2   1 <1>   0.5690 
  3 N       -1.0830     2.6470     0.5440 N.am  1 <1>  -0.7300 
  4 C        1.2370     2.9920    -0.2840 C.3   1 <1>   0.1810 
  5 C       -1.2590     4.1050     0.7580 C.3   1 <1>   0.3640 
  6 O        1.1480     4.2750     0.2950 O.3   1 <1>  -0.5600 
  7 C       -2.6040     4.5160     0.1670 C.ar  1 <1>  -0.1440 
  8 C       -0.1010     4.9270     0.1250 C.3   1 <1>   0.2610 
  9 C       -3.4410     5.3680     0.8760 C.ar  1 <1>   0.1600 
 10 C       -3.0200     4.0660    -1.0740 C.ar  1 <1>  -0.1500 
 11 C       -0.0400     6.3640     0.6820 C.2   1 <1>   0.5690 
 12 N       -4.6250     5.7890     0.4590 N.ar  1 <1>  -0.6200 
 13 C       -4.2500     4.4970    -1.5220 C.ar  1 <1>  -0.1500 
 14 O       -0.7190     6.6370     1.6480 O.2   1 <1>  -0.5700 
 15 N        0.7520     7.3240     0.0930 N.am  1 <1>  -0.6600 
 16 C       -5.0020     5.3440    -0.7280 C.ar  1 <1>   0.1600 
 17 C        0.8530     8.6850     0.7100 C.3   1 <1>   0.3200 
 18 C        1.6470     7.0740    -1.0780 C.3   1 <1>   0.0600 
 19 C        2.2820     9.2020     0.7310 C.2   1 <1>  -0.0400 
 20 O        3.1970     8.5720     1.4190 O.3   1 <1>  -0.0190 
 21 C        2.8640    10.2590     0.1420 C.2   1 <1>  -0.1500 
 22 N        4.3600     9.1480     1.3170 N.2   1 <1>  -0.4100 
 23 C        4.1900    10.1680     0.5560 C.2   1 <1>   0.1080 
 24 C        5.2890    11.1310     0.1680 C.3   1 <1>  -0.0590 
 25 H       -1.8640     2.0370     0.7920 H     1 <1>   0.3700 
 26 H        1.2900     3.1030    -1.3510 H     1 <1>   0.0800 
 27 H        2.1490     2.5400     0.0630 H     1 <1>   0.0800 
 28 H       -1.2680     4.2750     1.8220 H     1 <1>   0.0800 
 29 H       -0.2860     4.9960    -0.9310 H     1 <1>   0.0800 
 30 H       -3.1230     5.7300     1.8400 H     1 <1>   0.1500 
 31 H       -2.4200     3.4030    -1.6730 H     1 <1>   0.1500 
 32 H       -4.6280     4.1790    -2.4770 H     1 <1>   0.1500 
 33 H       -5.9630     5.6740    -1.0860 H     1 <1>   0.1500 
 34 H        0.2370     9.3640     0.1480 H     1 <1>   0.0800 
 35 H        0.4890     8.6710     1.7230 H     1 <1>   0.0800 
 36 H        1.6790     7.9450    -1.7100 H     1 <1>   0.0800 
 37 H        1.3050     6.2440    -1.6680 H     1 <1>   0.0800 
 38 H        2.6430     6.8600    -0.7280 H     1 <1>   0.0800 
 39 H        2.4440    11.0120    -0.4980 H     1 <1>   0.1500 
 40 H        5.3970    11.1530    -0.9000 H     1 <1>   0.0800 
 41 H        6.2210    10.8190     0.6050 H     1 <1>   0.0800 
 42 H        5.0520    12.1170     0.5230 H     1 <1>   0.0800 
@<TRIPOS>BOND
  1   1   2  2   
  2   2   3  am  
  3   2   4  1   
  4   3   5  1   
  5   3  25  1   
  6   4   6  1   
  7   4  26  1   
  8   4  27  1   
  9   5   7  1   
 10   5   8  1   
 11   5  28  1   
 12   6   8  1   
 13   7   9  ar  
 14   7  10  ar  
 15   8  11  1   
 16   8  29  1   
 17   9  12  ar  
 18   9  30  1   
 19  10  13  ar  
 20  10  31  1   
 21  11  14  2   
 22  11  15  am  
 23  12  16  ar  
 24  13  16  ar  
 25  13  32  1   
 26  15  17  1   
 27  15  18  1   
 28  16  33  1   
 29  17  19  1   
 30  17  34  1   
 31  17  35  1   
 32  18  36  1   
 33  18  37  1   
 34  18  38  1   
 35  19  20  1   
 36  19  21  2   
 37  20  22  1   
 38  21  23  1   
 39  21  39  1   
 40  22  23  2   
 41  23  24  1   
 42  24  40  1   
 43  24  41  1   
 44  24  42  1   
@<TRIPOS>SUBSTRUCTURE
  1 ****  11 GROUP 4 **** **** 0

# MOE 2024.06 (io_trps.svl 2023.06)
