@<TRIPOS>MOLECULE
NONAME
45 48 1 0 0 
SMALL
USER_CHARGES


@<TRIPOS>ATOM
  1 O        0.4030     0.3770    -0.7110 O.3   1 <1>  -0.5600 
  2 C        1.6550    -0.2520    -0.6760 C.3   1 <1>   0.3440 
  3 C        0.4630     1.7630    -0.8880 C.3   1 <1>   0.2950 
  4 C        1.4650    -1.7540    -0.4810 C.ar  1 <1>  -0.1440 
  5 C        2.5120     0.3370     0.4640 C.3   1 <1>   0.1100 
  6 C       -0.9900     2.2610    -0.9870 C.3   1 <1>  -0.1950 
  7 C        1.2930     2.4020     0.2510 C.3   1 <1>   0.1100 
  8 C        0.4590    -2.2500     0.3370 C.ar  1 <1>  -0.1500 
  9 C        2.3180    -2.6460    -1.1160 C.ar  1 <1>  -0.1500 
 10 N        2.6490     1.8060     0.3510 N.3   1 <1>  -0.8100 
 11 C       -1.4210     3.6490    -0.6170 C.3   1 <1>  -0.2000 
 12 C       -1.8820     2.4710     0.1980 C.3   1 <1>  -0.2000 
 13 C        0.3090    -3.6140     0.5190 C.ar  1 <1>  -0.1500 
 14 C        2.1700    -4.0100    -0.9350 C.ar  1 <1>  -0.1500 
 15 C        3.3700     2.3520     1.5210 C.3   1 <1>   0.2900 
 16 C        1.1660    -4.4950    -0.1160 C.ar  1 <1>  -0.1500 
 17 C        3.6980     3.8220     1.3260 C.2   1 <1>   0.0070 
 18 N        4.1270     4.2920     0.1370 N.pl3 1 <1>   0.0330 
 19 N        3.5990     4.7350     2.2390 N.2   1 <1>  -0.5650 
 20 C        4.3140     5.6120     0.3200 C.2   1 <1>  -0.3320 
 21 C        3.9880     5.8610     1.6080 C.2   1 <1>   0.0770 
 22 C        4.7970     6.5520    -0.7690 C.3   1 <1>  -0.0600 
 23 H        2.1390    -0.0740    -1.6200 H     1 <1>   0.0800 
 24 H        0.9540     1.9580    -1.8260 H     1 <1>   0.0800 
 25 H        3.4860    -0.1180     0.4350 H     1 <1>   0.0800 
 26 H        2.0520     0.0780     1.4030 H     1 <1>   0.0800 
 27 H       -1.4600     1.8440    -1.8620 H     1 <1>   0.1000 
 28 H        0.7700     2.2720     1.1820 H     1 <1>   0.0800 
 29 H        1.3800     3.4580     0.0660 H     1 <1>   0.0800 
 30 H       -0.2150    -1.5710     0.8300 H     1 <1>   0.1500 
 31 H        3.1030    -2.2840    -1.7560 H     1 <1>   0.1500 
 32 H       -0.7350     4.3380    -0.1570 H     1 <1>   0.1000 
 33 H       -2.1370     4.1490    -1.2450 H     1 <1>   0.1000 
 34 H       -2.9070     2.1520     0.1220 H     1 <1>   0.1000 
 35 H       -1.4880     2.3360     1.1890 H     1 <1>   0.1000 
 36 H       -0.4750    -3.9880     1.1540 H     1 <1>   0.1500 
 37 H        2.8350    -4.6950    -1.4310 H     1 <1>   0.1500 
 38 H        2.7800     2.2330     2.4150 H     1 <1>   0.0800 
 39 H        4.2940     1.8180     1.6550 H     1 <1>   0.0800 
 40 H        1.0500    -5.5560     0.0250 H     1 <1>   0.1500 
 41 H        4.2420     3.7270    -0.7090 H     1 <1>   0.2700 
 42 H        4.0110     6.8060     2.1240 H     1 <1>   0.1500 
 43 H        4.8660     7.5550    -0.3870 H     1 <1>   0.0800 
 44 H        4.1100     6.5470    -1.5960 H     1 <1>   0.0800 
 45 H        5.7680     6.2490    -1.1170 H     1 <1>   0.0800 
@<TRIPOS>BOND
  1   1   2  1   
  2   1   3  1   
  3   2   4  1   
  4   2   5  1   
  5   2  23  1   
  6   3   6  1   
  7   3   7  1   
  8   3  24  1   
  9   4   8  ar  
 10   4   9  ar  
 11   5  10  1   
 12   5  25  1   
 13   5  26  1   
 14   6  11  1   
 15   6  12  1   
 16   6  27  1   
 17   7  10  1   
 18   7  28  1   
 19   7  29  1   
 20   8  13  ar  
 21   8  30  1   
 22   9  14  ar  
 23   9  31  1   
 24  10  15  1   
 25  11  12  1   
 26  11  32  1   
 27  11  33  1   
 28  12  34  1   
 29  12  35  1   
 30  13  16  ar  
 31  13  36  1   
 32  14  16  ar  
 33  14  37  1   
 34  15  17  1   
 35  15  38  1   
 36  15  39  1   
 37  16  40  1   
 38  17  18  1   
 39  17  19  2   
 40  18  20  1   
 41  18  41  1   
 42  19  21  1   
 43  20  21  2   
 44  20  22  1   
 45  21  42  1   
 46  22  43  1   
 47  22  44  1   
 48  22  45  1   
@<TRIPOS>SUBSTRUCTURE
  1 ****  10 GROUP 4 **** **** 0

# MOE 2024.06 (io_trps.svl 2023.06)
