@<TRIPOS>MOLECULE
NONAME
47 49 1 0 0 
SMALL
USER_CHARGES


@<TRIPOS>ATOM
  1 O        1.2110     0.3250     1.8270 O.2   1 <1>  -0.5700 
  2 C        1.7290    -0.1320     0.8250 C.2   1 <1>   0.5440 
  3 N        2.0270     0.7210    -0.2240 N.am  1 <1>  -0.6600 
  4 C        1.9820    -1.5590     0.7680 C.ar  1 <1>   0.0860 
  5 C        2.4090     0.2290    -1.5920 C.3   1 <1>   0.1400 
  6 C        1.9270     2.1990    -0.0460 C.3   1 <1>   0.1400 
  7 C        0.9320    -2.4710     0.8730 C.ar  1 <1>  -0.1500 
  8 C        3.2700    -2.0760     0.6200 C.ar  1 <1>  -0.1500 
  9 C        3.4920     1.0700    -2.2930 C.3   1 <1>   0.1400 
 10 C        3.2830     2.7810     0.3740 C.3   1 <1>  -0.1600 
 11 C        1.1470    -3.8360     0.8130 C.ar  1 <1>  -0.1500 
 12 C        3.4940    -3.4380     0.5550 C.ar  1 <1>  -0.1500 
 13 N        4.5600     1.5100    -1.3460 N.am  1 <1>  -0.6600 
 14 C        4.3170     2.8520    -0.7560 C.3   1 <1>   0.1400 
 15 C        2.4380    -4.3310     0.6490 C.ar  1 <1>   0.0830 
 16 C        5.5380     0.6150    -0.9250 C.2   1 <1>   0.7160 
 17 O        2.7370    -5.6480     0.5770 O.3   1 <1>  -0.3630 
 18 O        5.6040    -0.4430    -1.5360 O.2   1 <1>  -0.5700 
 19 C        6.4680     0.8250     0.1910 C.2   1 <1>   0.2030 
 20 C        1.7470    -6.6430     0.6940 C.3   1 <1>   0.1200 
 21 N        6.5430     1.8410     1.0400 N.2   1 <1>  -0.7070 
 22 C        7.4560    -0.1180     0.5180 C.2   1 <1>  -0.1500 
 23 C        2.4290    -8.0030     0.5850 C.3   1 <1>  -0.2400 
 24 N        7.5430     1.5470     1.8810 N.pl3 1 <1>   0.3000 
 25 C        8.1130     0.3680     1.5870 C.2   1 <1>  -0.3020 
 26 H        1.5300     0.2130    -2.2110 H     1 <1>   0.0800 
 27 H        2.7710    -0.7800    -1.5390 H     1 <1>   0.0800 
 28 H        1.2010     2.4220     0.7170 H     1 <1>   0.0800 
 29 H        1.5820     2.6580    -0.9560 H     1 <1>   0.0800 
 30 H       -0.0650    -2.0890     1.0070 H     1 <1>   0.1500 
 31 H        4.1000    -1.3950     0.5530 H     1 <1>   0.1500 
 32 H        3.0340     1.9290    -2.7490 H     1 <1>   0.0800 
 33 H        3.9290     0.4900    -3.0880 H     1 <1>   0.0800 
 34 H        3.6790     2.2140     1.1980 H     1 <1>   0.0800 
 35 H        3.1210     3.7810     0.7310 H     1 <1>   0.0800 
 36 H        0.3050    -4.4950     0.8970 H     1 <1>   0.1500 
 37 H        4.4920    -3.8190     0.4330 H     1 <1>   0.1500 
 38 H        5.2340     3.2780    -0.3960 H     1 <1>   0.0800 
 39 H        3.9580     3.5130    -1.5250 H     1 <1>   0.0800 
 40 H        1.0340    -6.5090    -0.1010 H     1 <1>   0.0800 
 41 H        1.2660    -6.5340     1.6510 H     1 <1>   0.0800 
 42 H        7.6210    -1.0430    -0.0090 H     1 <1>   0.1500 
 43 H        2.9190    -8.0950    -0.3680 H     1 <1>   0.0800 
 44 H        1.6990    -8.7860     0.6730 H     1 <1>   0.0800 
 45 H        3.1520    -8.1170     1.3730 H     1 <1>   0.0800 
 46 H        7.8160     2.1700     2.6520 H     1 <1>   0.2700 
 47 H        8.9340    -0.0490     2.1430 H     1 <1>   0.1500 
@<TRIPOS>BOND
  1   1   2  2   
  2   2   3  am  
  3   2   4  1   
  4   3   5  1   
  5   3   6  1   
  6   4   7  ar  
  7   4   8  ar  
  8   5   9  1   
  9   5  26  1   
 10   5  27  1   
 11   6  10  1   
 12   6  28  1   
 13   6  29  1   
 14   7  11  ar  
 15   7  30  1   
 16   8  12  ar  
 17   8  31  1   
 18   9  13  1   
 19   9  32  1   
 20   9  33  1   
 21  10  14  1   
 22  10  34  1   
 23  10  35  1   
 24  11  15  ar  
 25  11  36  1   
 26  12  15  ar  
 27  12  37  1   
 28  13  14  1   
 29  13  16  am  
 30  14  38  1   
 31  14  39  1   
 32  15  17  1   
 33  16  18  2   
 34  16  19  1   
 35  17  20  1   
 36  19  21  2   
 37  19  22  1   
 38  20  23  1   
 39  20  40  1   
 40  20  41  1   
 41  21  24  1   
 42  22  25  2   
 43  22  42  1   
 44  23  43  1   
 45  23  44  1   
 46  23  45  1   
 47  24  25  1   
 48  24  46  1   
 49  25  47  1   
@<TRIPOS>SUBSTRUCTURE
  1 ****   8 GROUP 4 **** **** 0

# MOE 2024.06 (io_trps.svl 2023.06)
