@<TRIPOS>MOLECULE
NONAME
29 29 1 0 0 
SMALL
USER_CHARGES


@<TRIPOS>ATOM
  1 O        0.2690    -0.4190     1.1210 O.2   1 <1>  -0.5700 
  2 C        1.1640    -0.9890     0.5240 C.2   1 <1>   0.7290 
  3 O        2.1160    -0.2740    -0.0960 O.3   1 <1>  -0.4300 
  4 N        1.2740    -2.4130     0.4490 N.pl3 1 <1>   0.5610 
  5 C        2.2390     1.1290    -0.1790 C.3   1 <1>   0.2800 
  6 N        0.1880    -3.2720     0.3700 N.2   1 <1>  -0.7070 
  7 C        2.4280    -3.1740     0.4400 C.2   1 <1>  -0.3320 
  8 C        2.4300     1.7260     1.2190 C.3   1 <1>  -0.2400 
  9 C        3.5010     1.3700    -1.0090 C.3   1 <1>  -0.2400 
 10 C        1.0300     1.7230    -0.9110 C.3   1 <1>  -0.2400 
 11 C        0.6810    -4.4500     0.3100 C.2   1 <1>   0.3720 
 12 C        2.0680    -4.4680     0.3510 C.2   1 <1>  -0.1500 
 13 C        3.8470    -2.6270     0.5250 C.3   1 <1>  -0.0600 
 14 N       -0.1580    -5.5230     0.2320 N.pl3 1 <1>  -0.8830 
 15 H        3.2420     1.2400     1.7290 H     1 <1>   0.0800 
 16 H        1.5360     1.6350     1.8080 H     1 <1>   0.0800 
 17 H        2.6580     2.7730     1.1410 H     1 <1>   0.0800 
 18 H        4.3580     0.9410    -0.5220 H     1 <1>   0.0800 
 19 H        3.6730     2.4240    -1.1280 H     1 <1>   0.0800 
 20 H        3.3950     0.9330    -1.9850 H     1 <1>   0.0800 
 21 H        0.1350     1.6310    -0.3230 H     1 <1>   0.0800 
 22 H        0.8850     1.2320    -1.8560 H     1 <1>   0.0800 
 23 H        1.1900     2.7700    -1.0920 H     1 <1>   0.0800 
 24 H        2.6700    -5.3570     0.3140 H     1 <1>   0.1500 
 25 H        3.9590    -2.0040     1.3940 H     1 <1>   0.0800 
 26 H        4.0790    -2.0500    -0.3530 H     1 <1>   0.0800 
 27 H        4.5530    -3.4360     0.5920 H     1 <1>   0.0800 
 28 H       -0.1270    -6.0430     1.1080 H     1 <1>   0.4000 
 29 H       -1.0990    -5.1340     0.1430 H     1 <1>   0.4000 
@<TRIPOS>BOND
  1   1   2  2   
  2   2   3  1   
  3   2   4  1   
  4   3   5  1   
  5   4   6  1   
  6   4   7  1   
  7   5   8  1   
  8   5   9  1   
  9   5  10  1   
 10   6  11  2   
 11   7  12  2   
 12   7  13  1   
 13   8  15  1   
 14   8  16  1   
 15   8  17  1   
 16   9  18  1   
 17   9  19  1   
 18   9  20  1   
 19  10  21  1   
 20  10  22  1   
 21  10  23  1   
 22  11  12  1   
 23  11  14  1   
 24  12  24  1   
 25  13  25  1   
 26  13  26  1   
 27  13  27  1   
 28  14  28  1   
 29  14  29  1   
@<TRIPOS>SUBSTRUCTURE
  1 ****   2 GROUP 4 **** **** 0

# MOE 2024.06 (io_trps.svl 2023.06)
