@<TRIPOS>MOLECULE
NONAME
48 50 1 0 0 
SMALL
USER_CHARGES


@<TRIPOS>ATOM
  1 O       -2.9690     0.1220    -2.7650 O.2   1 <1>  -0.5700 
  2 C       -2.5800     0.4180    -1.6600 C.2   1 <1>   0.5690 
  3 N       -2.2030    -0.5250    -0.7620 N.am  1 <1>  -0.7300 
  4 C       -2.5250     1.8900    -1.2570 C.3   1 <1>   0.1810 
  5 C       -2.1800    -1.9890    -0.9820 C.3   1 <1>   0.2200 
  6 O       -2.2930     2.0400     0.1260 O.3   1 <1>  -0.5600 
  7 C       -3.3340    -2.6790    -0.2670 C.3   1 <1>  -0.0800 
  8 C       -0.9900    -2.5860    -0.2430 C.3   1 <1>   0.1200 
  9 C       -2.2250     3.3490     0.5800 C.3   1 <1>   0.2000 
 10 C       -2.7990    -2.8100     1.1630 C.3   1 <1>   0.1200 
 11 C       -4.6970    -1.9630    -0.3770 C.3   1 <1>  -0.0160 
 12 O       -1.4050    -2.7450     1.0820 O.3   1 <1>  -0.5600 
 13 C       -0.7930     3.8540     0.4050 C.3   1 <1>  -0.2400 
 14 C       -2.6250     3.3200     2.0500 C.3   1 <1>  -0.2400 
 15 C       -5.9090    -2.6950     0.2130 C.ar  1 <1>  -0.1440 
 16 C       -7.1540    -2.0240     0.3050 C.ar  1 <1>   0.0000 
 17 C       -5.8710    -3.9880     0.6590 C.ar  1 <1>  -0.1500 
 18 C       -8.2480    -2.7230     0.8720 C.ar  1 <1>   0.3100 
 19 C       -7.3790    -0.6990    -0.1400 C.ar  1 <1>  -0.1500 
 20 C       -7.0150    -4.5890     1.1970 C.ar  1 <1>   0.1600 
 21 N       -8.1630    -4.0020     1.3130 N.ar  1 <1>  -0.6200 
 22 C       -9.4880    -2.0730     0.9850 C.ar  1 <1>  -0.1500 
 23 C       -8.6010    -0.0960    -0.0180 C.ar  1 <1>  -0.1500 
 24 C       -9.6710    -0.7880     0.5530 C.ar  1 <1>  -0.1500 
 25 H       -1.9300    -0.2040     0.1740 H     1 <1>   0.3700 
 26 H       -3.4620     2.3540    -1.5010 H     1 <1>   0.0800 
 27 H       -1.7310     2.3680    -1.8000 H     1 <1>   0.0800 
 28 H       -2.1560    -2.2080    -2.0370 H     1 <1>   0.0800 
 29 H       -3.4220    -3.6640    -0.6900 H     1 <1>   0.0800 
 30 H       -0.1190    -1.9560    -0.2780 H     1 <1>   0.0800 
 31 H       -0.7540    -3.5620    -0.6300 H     1 <1>   0.0800 
 32 H       -2.9220     3.9590     0.0280 H     1 <1>   0.0800 
 33 H       -3.0780    -3.7410     1.6240 H     1 <1>   0.0800 
 34 H       -3.1250    -1.9890     1.7790 H     1 <1>   0.0800 
 35 H       -4.8950    -1.7720    -1.4180 H     1 <1>   0.0800 
 36 H       -4.6140    -1.0120     0.1170 H     1 <1>   0.0800 
 37 H       -0.1040     3.2020     0.9120 H     1 <1>   0.0800 
 38 H       -0.7010     4.8390     0.8260 H     1 <1>   0.0800 
 39 H       -0.5310     3.9130    -0.6340 H     1 <1>   0.0800 
 40 H       -1.9510     2.6960     2.6090 H     1 <1>   0.0800 
 41 H       -3.6260     2.9410     2.1510 H     1 <1>   0.0800 
 42 H       -2.5940     4.3130     2.4610 H     1 <1>   0.0800 
 43 H       -4.9860    -4.5920     0.6190 H     1 <1>   0.1500 
 44 H       -6.5760    -0.1460    -0.5900 H     1 <1>   0.1500 
 45 H       -6.9340    -5.6070     1.5370 H     1 <1>   0.1500 
 46 H      -10.2960    -2.6280     1.4240 H     1 <1>   0.1500 
 47 H       -8.7550     0.9140    -0.3600 H     1 <1>   0.1500 
 48 H      -10.6270    -0.3030     0.6460 H     1 <1>   0.1500 
@<TRIPOS>BOND
  1   1   2  2   
  2   2   3  am  
  3   2   4  1   
  4   3   5  1   
  5   3  25  1   
  6   4   6  1   
  7   4  26  1   
  8   4  27  1   
  9   5   7  1   
 10   5   8  1   
 11   5  28  1   
 12   6   9  1   
 13   7  10  1   
 14   7  11  1   
 15   7  29  1   
 16   8  12  1   
 17   8  30  1   
 18   8  31  1   
 19   9  13  1   
 20   9  14  1   
 21   9  32  1   
 22  10  12  1   
 23  10  33  1   
 24  10  34  1   
 25  11  15  1   
 26  11  35  1   
 27  11  36  1   
 28  13  37  1   
 29  13  38  1   
 30  13  39  1   
 31  14  40  1   
 32  14  41  1   
 33  14  42  1   
 34  15  16  ar  
 35  15  17  ar  
 36  16  18  ar  
 37  16  19  ar  
 38  17  20  ar  
 39  17  43  1   
 40  18  21  ar  
 41  18  22  ar  
 42  19  23  ar  
 43  19  44  1   
 44  20  21  ar  
 45  20  45  1   
 46  22  24  ar  
 47  22  46  1   
 48  23  24  ar  
 49  23  47  1   
 50  24  48  1   
@<TRIPOS>SUBSTRUCTURE
  1 ****  11 GROUP 4 **** **** 0

# MOE 2024.06 (io_trps.svl 2023.06)
