@<TRIPOS>MOLECULE
NONAME
33 35 1 0 0 
SMALL
USER_CHARGES


@<TRIPOS>ATOM
  1 S       -0.4150    -0.5070    -1.3760 S.3   1 <1>  -0.2820 
  2 C       -0.7400     0.8180    -0.2750 C.2   1 <1>   0.7320 
  3 C       -1.8420    -1.3090    -0.7670 C.2   1 <1>   0.6510 
  4 S        0.4240     2.1730    -0.3280 S.3   1 <1>  -0.3710 
  5 N       -1.7640     0.7030     0.4600 N.2   1 <1>  -0.5120 
  6 N       -2.2370    -2.4600    -1.1990 N.2   1 <1>  -0.6210 
  7 N       -2.4170    -0.5180     0.1960 N.am  1 <1>  -0.0580 
  8 C       -0.2250     3.3550     0.9370 C.3   1 <1>  -0.0100 
  9 C       -3.3760    -2.9500    -0.6240 C.2   1 <1>   0.0330 
 10 C       -3.5720    -0.9990     0.7930 C.2   1 <1>   0.6160 
 11 C       -4.0400    -2.2580     0.3410 C.2   1 <1>  -0.1360 
 12 C       -3.8450    -4.3030    -1.1610 C.3   1 <1>   0.2480 
 13 O       -4.1590    -0.3680     1.6620 O.2   1 <1>  -0.5700 
 14 N       -4.7230    -5.0250    -0.2190 N.3   1 <1>  -0.8100 
 15 C       -3.9440    -5.5810     0.9360 C.3   1 <1>   0.1710 
 16 C       -5.4630    -6.1090    -0.8960 C.3   1 <1>   0.1100 
 17 C       -4.7150    -6.5750     1.8190 C.2   1 <1>   0.5690 
 18 C       -6.4730    -6.7870     0.0530 C.3   1 <1>   0.1400 
 19 O       -4.3040    -6.8490     2.9190 O.2   1 <1>  -0.5700 
 20 N       -5.8450    -7.1570     1.3460 N.am  1 <1>  -0.7300 
 21 H        0.4320     4.2060     0.9620 H     1 <1>   0.0800 
 22 H       -0.2390     2.8520     1.8870 H     1 <1>   0.0800 
 23 H       -1.2190     3.6450     0.6430 H     1 <1>   0.0800 
 24 H       -4.9410    -2.6240     0.7970 H     1 <1>   0.1500 
 25 H       -2.9870    -4.9110    -1.3950 H     1 <1>   0.0800 
 26 H       -4.3740    -4.1190    -2.0800 H     1 <1>   0.0800 
 27 H       -3.6090    -4.7740     1.5610 H     1 <1>   0.0800 
 28 H       -3.0730    -6.0950     0.5690 H     1 <1>   0.0800 
 29 H       -4.7720    -6.8490    -1.2640 H     1 <1>   0.0800 
 30 H       -6.0010    -5.7090    -1.7380 H     1 <1>   0.0800 
 31 H       -6.8700    -7.6700    -0.4180 H     1 <1>   0.0800 
 32 H       -7.2880    -6.1100     0.2410 H     1 <1>   0.0800 
 33 H       -6.3580    -7.7680     1.9840 H     1 <1>   0.3700 
@<TRIPOS>BOND
  1   1   2  1   
  2   1   3  1   
  3   2   4  1   
  4   2   5  2   
  5   3   6  2   
  6   3   7  1   
  7   4   8  1   
  8   5   7  1   
  9   6   9  1   
 10   7  10  am  
 11   8  21  1   
 12   8  22  1   
 13   8  23  1   
 14   9  11  2   
 15   9  12  1   
 16  10  11  1   
 17  10  13  2   
 18  11  24  1   
 19  12  14  1   
 20  12  25  1   
 21  12  26  1   
 22  14  15  1   
 23  14  16  1   
 24  15  17  1   
 25  15  27  1   
 26  15  28  1   
 27  16  18  1   
 28  16  29  1   
 29  16  30  1   
 30  17  19  2   
 31  17  20  am  
 32  18  20  1   
 33  18  31  1   
 34  18  32  1   
 35  20  33  1   
@<TRIPOS>SUBSTRUCTURE
  1 ****   9 GROUP 4 **** **** 0

# MOE 2024.06 (io_trps.svl 2023.06)
