@<TRIPOS>MOLECULE
NONAME
56 58 1 0 0 
SMALL
USER_CHARGES


@<TRIPOS>ATOM
  1 CL      -0.3670     4.8370    -0.9810 Cl    1 <1>  -0.1770 
  2 C       -1.5290     3.5870    -0.5870 C.ar  1 <1>   0.1770 
  3 C       -1.5530     3.0080     0.6760 C.ar  1 <1>  -0.1440 
  4 C       -2.4110     3.1930    -1.5780 C.ar  1 <1>  -0.1500 
  5 C       -2.4860     2.0120     0.9290 C.ar  1 <1>  -0.1500 
  6 C       -0.5900     3.4370     1.7680 C.3   1 <1>   0.2840 
  7 C       -3.3360     2.2000    -1.3110 C.ar  1 <1>  -0.1500 
  8 C       -3.3710     1.6110    -0.0580 C.ar  1 <1>  -0.1500 
  9 N        0.7490     2.9120     1.4340 N.am  1 <1>  -0.7300 
 10 C        1.8550     3.6780     1.3260 C.2   1 <1>   0.5690 
 11 O        1.8890     4.8270     1.6930 O.2   1 <1>  -0.5700 
 12 C        3.0750     3.1270     0.6360 C.3   1 <1>  -0.0990 
 13 C        3.2010     3.7710    -0.7460 C.3   1 <1>   0.3430 
 14 N        3.3840     5.2520    -0.6610 N.4   1 <1>  -0.9590 
 15 C        2.9370     5.9260    -1.9270 C.3   1 <1>   0.3430 
 16 C        4.7390     5.6540    -0.1980 C.3   1 <1>   0.3430 
 17 C        3.2210     7.4420    -1.9970 C.3   1 <1>   0.2090 
 18 C        4.6200     6.8140     0.7910 C.3   1 <1>  -0.1600 
 19 N        3.0670     8.1350    -0.6760 N.pl3 1 <1>  -0.8380 
 20 C        4.3010     8.1710     0.1600 C.3   1 <1>   0.2090 
 21 C        2.1420     9.1200    -0.5200 C.ar  1 <1>   0.1000 
 22 C        1.0890     9.0430     0.4110 C.ar  1 <1>  -0.1430 
 23 C        2.2280    10.2850    -1.2930 C.ar  1 <1>  -0.1500 
 24 C        0.2050    10.0880     0.5360 C.ar  1 <1>   0.2110 
 25 C        0.9170     7.8010     1.2750 C.3   1 <1>  -0.0970 
 26 C        1.3270    11.3050    -1.1390 C.ar  1 <1>   0.2110 
 27 N        0.3280    11.2010    -0.2300 N.ar  1 <1>  -0.1790 
 28 H       -2.3760     3.6580    -2.5460 H     1 <1>   0.1500 
 29 H       -2.5340     1.5400     1.8970 H     1 <1>   0.1500 
 30 H       -0.8980     3.0430     2.7220 H     1 <1>   0.0800 
 31 H       -0.5700     4.5120     1.8420 H     1 <1>   0.0800 
 32 H       -4.0280     1.8860    -2.0740 H     1 <1>   0.1500 
 33 H       -4.0920     0.8380     0.1490 H     1 <1>   0.1500 
 34 H        0.7450     1.9310     1.1450 H     1 <1>   0.3700 
 35 H        2.9740     2.0630     0.5220 H     1 <1>   0.0800 
 36 H        3.9460     3.3140     1.2340 H     1 <1>   0.0800 
 37 H        2.2970     3.5580    -1.2970 H     1 <1>   0.0800 
 38 H        4.0270     3.3320    -1.2810 H     1 <1>   0.0800 
 39 H        2.7370     5.5960     0.0810 H     1 <1>   0.4500 
 40 H        1.8740     5.7870    -2.0320 H     1 <1>   0.0800 
 41 H        3.4060     5.4560    -2.7750 H     1 <1>   0.0800 
 42 H        5.3630     5.9270    -1.0320 H     1 <1>   0.0800 
 43 H        5.2050     4.8260     0.3110 H     1 <1>   0.0800 
 44 H        2.5460     7.8760    -2.7140 H     1 <1>   0.0800 
 45 H        4.2180     7.5980    -2.3700 H     1 <1>   0.0800 
 46 H        5.5660     6.9130     1.2930 H     1 <1>   0.0800 
 47 H        3.8970     6.5830     1.5510 H     1 <1>   0.0800 
 48 H        5.1310     8.4950    -0.4460 H     1 <1>   0.0800 
 49 H        4.1770     8.8980     0.9470 H     1 <1>   0.0800 
 50 H        3.0270    10.3690    -2.0080 H     1 <1>   0.1500 
 51 H       -0.6060    10.0440     1.2450 H     1 <1>   0.1500 
 52 H        1.7790     7.6600     1.9010 H     1 <1>   0.0800 
 53 H        0.8020     6.9390     0.6460 H     1 <1>   0.0800 
 54 H        0.0500     7.8710     1.9080 H     1 <1>   0.0800 
 55 H        1.3980    12.2030    -1.7330 H     1 <1>   0.1500 
 56 H       -0.3420    11.9710    -0.1180 H     1 <1>   0.4570 
@<TRIPOS>BOND
  1   1   2  1   
  2   2   3  ar  
  3   2   4  ar  
  4   3   5  ar  
  5   3   6  1   
  6   4   7  ar  
  7   4  28  1   
  8   5   8  ar  
  9   5  29  1   
 10   6   9  1   
 11   6  30  1   
 12   6  31  1   
 13   7   8  ar  
 14   7  32  1   
 15   8  33  1   
 16   9  10  am  
 17   9  34  1   
 18  10  11  2   
 19  10  12  1   
 20  12  13  1   
 21  12  35  1   
 22  12  36  1   
 23  13  14  1   
 24  13  37  1   
 25  13  38  1   
 26  14  15  1   
 27  14  16  1   
 28  14  39  1   
 29  15  17  1   
 30  15  40  1   
 31  15  41  1   
 32  16  18  1   
 33  16  42  1   
 34  16  43  1   
 35  17  19  1   
 36  17  44  1   
 37  17  45  1   
 38  18  20  1   
 39  18  46  1   
 40  18  47  1   
 41  19  20  1   
 42  19  21  1   
 43  20  48  1   
 44  20  49  1   
 45  21  22  ar  
 46  21  23  ar  
 47  22  24  ar  
 48  22  25  1   
 49  23  26  ar  
 50  23  50  1   
 51  24  27  ar  
 52  24  51  1   
 53  25  52  1   
 54  25  53  1   
 55  25  54  1   
 56  26  27  ar  
 57  26  55  1   
 58  27  56  1   
@<TRIPOS>SUBSTRUCTURE
  1 ****   1 GROUP 4 **** **** 0

# MOE 2024.06 (io_trps.svl 2023.06)
