@<TRIPOS>MOLECULE
NONAME
41 42 1 0 0 
SMALL
USER_CHARGES


@<TRIPOS>ATOM
  1 O        0.0790     0.1240    -0.7670 O.2   1 <1>  -0.5700 
  2 C        1.0000    -0.3560    -0.1330 C.2   1 <1>   0.7160 
  3 N        1.7590     0.4860     0.6200 N.am  1 <1>  -0.7300 
  4 C        1.3120    -1.7710    -0.1500 C.2   1 <1>  -0.0860 
  5 C        1.6160     1.9510     0.6640 C.3   1 <1>   0.3200 
  6 C        0.5380    -2.8700    -0.4540 C.2   1 <1>  -0.3320 
  7 C        2.5790    -2.3020     0.1690 C.2   1 <1>  -0.1500 
  8 C        2.9870     2.5730     0.8230 C.2   1 <1>  -0.0400 
  9 N        1.2690    -4.0090    -0.3400 N.pl3 1 <1>   0.0480 
 10 C       -0.9320    -2.8820    -0.8570 C.3   1 <1>  -0.0600 
 11 C        2.5230    -3.6490     0.0500 C.2   1 <1>  -0.3320 
 12 O        3.6630     2.3870     1.9250 O.3   1 <1>  -0.0190 
 13 C        3.7280     3.3390     0.0080 C.2   1 <1>  -0.1500 
 14 C        0.8070    -5.3910    -0.5770 C.3   1 <1>   0.0160 
 15 C        3.6500    -4.6360     0.2980 C.3   1 <1>  -0.0600 
 16 N        4.8180     2.9850     1.8900 N.2   1 <1>  -0.4100 
 17 C        4.8870     3.5670     0.7460 C.2   1 <1>   0.1080 
 18 C        6.0730     4.3850     0.2730 C.3   1 <1>   0.0210 
 19 C        6.9360     3.5840    -0.7110 C.3   1 <1>  -0.1600 
 20 C        8.1420     4.3960    -1.1970 C.3   1 <1>  -0.2400 
 21 H        2.5100     0.0960     1.1870 H     1 <1>   0.3700 
 22 H        0.9910     2.2250     1.4960 H     1 <1>   0.0800 
 23 H        1.1580     2.3040    -0.2440 H     1 <1>   0.0800 
 24 H        3.4370    -1.7180     0.4510 H     1 <1>   0.1500 
 25 H       -1.3690    -1.9050    -0.7650 H     1 <1>   0.0800 
 26 H       -1.4850    -3.5510    -0.2230 H     1 <1>   0.0800 
 27 H       -1.0300    -3.2000    -1.8790 H     1 <1>   0.0800 
 28 H        3.5160     3.7020    -0.9810 H     1 <1>   0.1500 
 29 H       -0.0490    -5.3860    -1.2250 H     1 <1>   0.0800 
 30 H        0.5460    -5.8390     0.3640 H     1 <1>   0.0800 
 31 H        1.5920    -5.9570    -1.0420 H     1 <1>   0.0800 
 32 H        4.5330    -4.1150     0.6230 H     1 <1>   0.0800 
 33 H        3.8830    -5.1700    -0.6060 H     1 <1>   0.0800 
 34 H        3.3670    -5.3390     1.0620 H     1 <1>   0.0800 
 35 H        6.6640     4.6670     1.1260 H     1 <1>   0.0800 
 36 H        5.7150     5.2830    -0.1970 H     1 <1>   0.0800 
 37 H        6.3390     3.2910    -1.5580 H     1 <1>   0.0800 
 38 H        7.2820     2.6870    -0.2250 H     1 <1>   0.0800 
 39 H        7.8180     5.2880    -1.7050 H     1 <1>   0.0800 
 40 H        8.7290     3.8080    -1.8810 H     1 <1>   0.0800 
 41 H        8.7660     4.6760    -0.3670 H     1 <1>   0.0800 
@<TRIPOS>BOND
  1   1   2  2   
  2   2   3  am  
  3   2   4  1   
  4   3   5  1   
  5   3  21  1   
  6   4   6  2   
  7   4   7  1   
  8   5   8  1   
  9   5  22  1   
 10   5  23  1   
 11   6   9  1   
 12   6  10  1   
 13   7  11  2   
 14   7  24  1   
 15   8  12  1   
 16   8  13  2   
 17   9  11  1   
 18   9  14  1   
 19  10  25  1   
 20  10  26  1   
 21  10  27  1   
 22  11  15  1   
 23  12  16  1   
 24  13  17  1   
 25  13  28  1   
 26  14  29  1   
 27  14  30  1   
 28  14  31  1   
 29  15  32  1   
 30  15  33  1   
 31  15  34  1   
 32  16  17  2   
 33  17  18  1   
 34  18  19  1   
 35  18  35  1   
 36  18  36  1   
 37  19  20  1   
 38  19  37  1   
 39  19  38  1   
 40  20  39  1   
 41  20  40  1   
 42  20  41  1   
@<TRIPOS>SUBSTRUCTURE
  1 ****   3 GROUP 4 **** **** 0

# MOE 2024.06 (io_trps.svl 2023.06)
