@<TRIPOS>MOLECULE
NONAME
56 58 1 0 0 
SMALL
USER_CHARGES


@<TRIPOS>ATOM
  1 N        0.0980    -0.5720     0.0700 N.ar  1 <1>  -0.6200 
  2 C        1.1590     0.1730    -0.2150 C.ar  1 <1>   0.7710 
  3 C        0.2960    -1.7860     0.5240 C.ar  1 <1>   0.4100 
  4 N        2.4080    -0.2890    -0.0300 N.ar  1 <1>  -0.1790 
  5 N        0.9880     1.4340    -0.6990 N.pl3 1 <1>  -0.8380 
  6 N       -0.8300    -2.4720     0.7780 N.pl3 1 <1>  -0.8690 
  7 C        1.5850    -2.3100     0.7290 C.ar  1 <1>  -0.1500 
  8 C        2.6580    -1.5330     0.4430 C.ar  1 <1>   0.2170 
  9 C       -0.3620     2.0880    -0.7400 C.3   1 <1>   0.2090 
 10 C        2.0460     2.3510    -1.2290 C.3   1 <1>   0.2090 
 11 C       -1.0350    -3.8600     1.2310 C.3   1 <1>   0.2090 
 12 C        4.1020    -1.9810     0.6270 C.3   1 <1>  -0.0170 
 13 C       -0.3400     3.3360     0.1500 C.3   1 <1>  -0.1600 
 14 C        2.1290     3.5900    -0.3340 C.3   1 <1>  -0.1600 
 15 C       -2.3000    -4.3940     0.5610 C.3   1 <1>  -0.1600 
 16 C        4.8560    -2.0600    -0.7070 C.3   1 <1>  -0.2400 
 17 C        0.7750     4.3110    -0.2560 C.3   1 <1>  -0.1600 
 18 C       -2.5690    -5.8490     0.9520 C.3   1 <1>   0.3540 
 19 N       -3.8520    -6.3030     0.3570 N.pl3 1 <1>  -0.4570 
 20 N       -5.0330    -5.9620     0.9350 N.2   1 <1>  -0.2600 
 21 C       -4.0700    -7.0450    -0.7130 C.cat 1 <1>   0.6560 
 22 C       -5.9230    -6.5130     0.1890 C.2   1 <1>   0.4850 
 23 N       -5.3650    -7.1940    -0.8400 N.pl3 1 <1>  -0.7000 
 24 C       -3.0300    -7.6300    -1.6420 C.3   1 <1>  -0.0960 
 25 C       -7.4180    -6.4380     0.4000 C.3   1 <1>  -0.0720 
 26 H        3.1500     0.3610    -0.2490 H     1 <1>   0.4570 
 27 H       -1.6920    -1.9250     0.6650 H     1 <1>   0.4000 
 28 H        1.6930    -3.3050     1.1120 H     1 <1>   0.1500 
 29 H       -1.1450     1.4320    -0.4010 H     1 <1>   0.0800 
 30 H       -0.5920     2.3690    -1.7540 H     1 <1>   0.0800 
 31 H        1.7780     2.6520    -2.2290 H     1 <1>   0.0800 
 32 H        3.0070     1.8750    -1.2840 H     1 <1>   0.0800 
 33 H       -1.1450    -3.8690     2.3030 H     1 <1>   0.0800 
 34 H       -0.1880    -4.4670     0.9600 H     1 <1>   0.0800 
 35 H        4.1180    -2.9540     1.0890 H     1 <1>   0.0800 
 36 H        4.6110    -1.3050     1.2930 H     1 <1>   0.0800 
 37 H       -0.2030     3.0300     1.1730 H     1 <1>   0.0800 
 38 H       -1.2920     3.8320     0.0860 H     1 <1>   0.0800 
 39 H        2.8670     4.2670    -0.7270 H     1 <1>   0.0800 
 40 H        2.4410     3.3010     0.6540 H     1 <1>   0.0800 
 41 H       -2.1890    -4.3260    -0.5060 H     1 <1>   0.0800 
 42 H       -3.1350    -3.7890     0.8690 H     1 <1>   0.0800 
 43 H        4.3590    -2.7360    -1.3820 H     1 <1>   0.0800 
 44 H        5.8530    -2.4300    -0.5400 H     1 <1>   0.0800 
 45 H        4.9330    -1.0960    -1.1760 H     1 <1>   0.0800 
 46 H        0.8290     5.1180     0.4550 H     1 <1>   0.0800 
 47 H        0.5400     4.7350    -1.2180 H     1 <1>   0.0800 
 48 H       -2.6380    -5.9340     2.0240 H     1 <1>   0.0800 
 49 H       -1.7650    -6.4800     0.6150 H     1 <1>   0.0800 
 50 H       -5.8730    -7.7110    -1.5580 H     1 <1>   0.4500 
 51 H       -2.3740    -6.8540    -1.9920 H     1 <1>   0.0800 
 52 H       -3.5030    -8.0870    -2.4920 H     1 <1>   0.0800 
 53 H       -2.4550    -8.3750    -1.1240 H     1 <1>   0.0800 
 54 H       -7.6380    -5.8490     1.2720 H     1 <1>   0.0800 
 55 H       -7.8210    -7.4240     0.5400 H     1 <1>   0.0800 
 56 H       -7.8870    -5.9800    -0.4520 H     1 <1>   0.0800 
@<TRIPOS>BOND
  1   1   2  ar  
  2   1   3  ar  
  3   2   4  ar  
  4   2   5  1   
  5   3   6  1   
  6   3   7  ar  
  7   4   8  ar  
  8   4  26  1   
  9   5   9  1   
 10   5  10  1   
 11   6  11  1   
 12   6  27  1   
 13   7   8  ar  
 14   7  28  1   
 15   8  12  1   
 16   9  13  1   
 17   9  29  1   
 18   9  30  1   
 19  10  14  1   
 20  10  31  1   
 21  10  32  1   
 22  11  15  1   
 23  11  33  1   
 24  11  34  1   
 25  12  16  1   
 26  12  35  1   
 27  12  36  1   
 28  13  17  1   
 29  13  37  1   
 30  13  38  1   
 31  14  17  1   
 32  14  39  1   
 33  14  40  1   
 34  15  18  1   
 35  15  41  1   
 36  15  42  1   
 37  16  43  1   
 38  16  44  1   
 39  16  45  1   
 40  17  46  1   
 41  17  47  1   
 42  18  19  1   
 43  18  48  1   
 44  18  49  1   
 45  19  20  1   
 46  19  21  ar  
 47  20  22  2   
 48  21  23  ar  
 49  21  24  1   
 50  22  23  1   
 51  22  25  1   
 52  23  50  1   
 53  24  51  1   
 54  24  52  1   
 55  24  53  1   
 56  25  54  1   
 57  25  55  1   
 58  25  56  1   
@<TRIPOS>SUBSTRUCTURE
  1 ****   6 GROUP 4 **** **** 0

# MOE 2024.06 (io_trps.svl 2023.06)
