@<TRIPOS>MOLECULE
NONAME
54 55 1 0 0 
SMALL
USER_CHARGES


@<TRIPOS>ATOM
  1 S        0.5040     0.2690    -0.3870 S.o2  1 <1>   1.3330 
  2 O       -0.5240     0.0160    -1.3680 O.2   1 <1>  -0.6500 
  3 O        1.7980     0.7430    -0.8260 O.2   1 <1>  -0.6500 
  4 N        0.7010    -1.0870     0.6060 N.am  1 <1>  -0.8490 
  5 C       -0.1070     1.5350     0.7230 C.3   1 <1>  -0.0550 
  6 C       -0.5330    -1.8590     0.7920 C.3   1 <1>   0.1160 
  7 C        1.7720    -1.9730     0.1370 C.3   1 <1>   0.1160 
  8 C       -0.3970     2.8640    -0.0130 C.3   1 <1>  -0.0800 
  9 C       -0.8170     4.0260     0.8810 C.3   1 <1>   0.2000 
 10 C        0.7950     3.4210    -0.7990 C.3   1 <1>   0.3430 
 11 O       -0.0200     4.0680     2.0190 O.3   1 <1>  -0.6800 
 12 C       -0.5410     5.2640     0.0220 C.3   1 <1>   0.3430 
 13 N        0.5880     4.9000    -0.9080 N.4   1 <1>  -0.9590 
 14 C        1.8640     5.6400    -0.6240 C.3   1 <1>   0.3430 
 15 C        1.7660     7.1370    -0.9270 C.3   1 <1>   0.1200 
 16 O        2.9820     7.7140    -0.5270 O.3   1 <1>  -0.3630 
 17 C        3.1880     9.0530    -0.5990 C.ar  1 <1>   0.0820 
 18 C        4.3620     9.5320    -0.0450 C.ar  1 <1>  -0.1500 
 19 C        2.2940     9.9450    -1.1880 C.ar  1 <1>  -0.1500 
 20 C        4.6560    10.8840    -0.0640 C.ar  1 <1>   0.0820 
 21 C        2.5840    11.2990    -1.2100 C.ar  1 <1>  -0.1500 
 22 O        5.8280    11.2610     0.5060 O.3   1 <1>  -0.3630 
 23 C        3.7580    11.7720    -0.6510 C.ar  1 <1>  -0.1500 
 24 C        6.2290    12.6110     0.5360 C.3   1 <1>   0.1200 
 25 C        7.5820    12.6850     1.2380 C.3   1 <1>  -0.2400 
 26 H       -1.0090     1.1910     1.1920 H     1 <1>   0.0800 
 27 H        0.6210     1.6850     1.4970 H     1 <1>   0.0800 
 28 H       -0.3680    -2.6590     1.4930 H     1 <1>   0.0800 
 29 H       -0.8610    -2.2780    -0.1460 H     1 <1>   0.0800 
 30 H       -1.3140    -1.2280     1.1790 H     1 <1>   0.0800 
 31 H        1.8860    -2.8080     0.8070 H     1 <1>   0.0800 
 32 H        2.7070    -1.4390     0.1050 H     1 <1>   0.0800 
 33 H        1.5490    -2.3410    -0.8520 H     1 <1>   0.0800 
 34 H       -1.1880     2.6820    -0.7230 H     1 <1>   0.0800 
 35 H       -1.8460     3.9690     1.1970 H     1 <1>   0.0800 
 36 H        0.8700     2.9580    -1.7720 H     1 <1>   0.0800 
 37 H        1.7040     3.2150    -0.2560 H     1 <1>   0.0800 
 38 H        0.9370     4.0650     1.8250 H     1 <1>   0.4000 
 39 H       -0.3070     6.1120     0.6440 H     1 <1>   0.0800 
 40 H       -1.4220     5.4860    -0.5590 H     1 <1>   0.0800 
 41 H        0.3000     5.1040    -1.8770 H     1 <1>   0.4500 
 42 H        2.1280     5.5170     0.4130 H     1 <1>   0.0800 
 43 H        2.6580     5.2270    -1.2260 H     1 <1>   0.0800 
 44 H        0.9800     7.6040    -0.3600 H     1 <1>   0.0800 
 45 H        1.6420     7.3120    -1.9810 H     1 <1>   0.0800 
 46 H        5.0580     8.8520     0.4090 H     1 <1>   0.1500 
 47 H        1.3760     9.6150    -1.6340 H     1 <1>   0.1500 
 48 H        1.8940    11.9900    -1.6650 H     1 <1>   0.1500 
 49 H        3.9560    12.8260    -0.6830 H     1 <1>   0.1500 
 50 H        6.3060    12.9660    -0.4770 H     1 <1>   0.0800 
 51 H        5.4890    13.1750     1.0760 H     1 <1>   0.0800 
 52 H        8.3090    12.1040     0.6990 H     1 <1>   0.0800 
 53 H        7.4970    12.3120     2.2430 H     1 <1>   0.0800 
 54 H        7.9170    13.7060     1.2760 H     1 <1>   0.0800 
@<TRIPOS>BOND
  1   1   2  2   
  2   1   3  2   
  3   1   4  am  
  4   1   5  1   
  5   4   6  1   
  6   4   7  1   
  7   5   8  1   
  8   5  26  1   
  9   5  27  1   
 10   6  28  1   
 11   6  29  1   
 12   6  30  1   
 13   7  31  1   
 14   7  32  1   
 15   7  33  1   
 16   8   9  1   
 17   8  10  1   
 18   8  34  1   
 19   9  11  1   
 20   9  12  1   
 21   9  35  1   
 22  10  13  1   
 23  10  36  1   
 24  10  37  1   
 25  11  38  1   
 26  12  13  1   
 27  12  39  1   
 28  12  40  1   
 29  13  14  1   
 30  13  41  1   
 31  14  15  1   
 32  14  42  1   
 33  14  43  1   
 34  15  16  1   
 35  15  44  1   
 36  15  45  1   
 37  16  17  1   
 38  17  18  ar  
 39  17  19  ar  
 40  18  20  ar  
 41  18  46  1   
 42  19  21  ar  
 43  19  47  1   
 44  20  22  1   
 45  20  23  ar  
 46  21  23  ar  
 47  21  48  1   
 48  22  24  1   
 49  23  49  1   
 50  24  25  1   
 51  24  50  1   
 52  24  51  1   
 53  25  52  1   
 54  25  53  1   
 55  25  54  1   
@<TRIPOS>SUBSTRUCTURE
  1 ****  14 GROUP 4 **** **** 0

# MOE 2024.06 (io_trps.svl 2023.06)
