@<TRIPOS>MOLECULE
NONAME
46 47 1 0 0 
SMALL
USER_CHARGES


@<TRIPOS>ATOM
  1 CL      -0.2580     0.0310    -0.3620 Cl    1 <1>  -0.1770 
  2 C       -1.7830     0.8400    -0.6150 C.ar  1 <1>   0.1770 
  3 C       -2.9030     0.3980     0.0630 C.ar  1 <1>  -0.1500 
  4 C       -1.8460     1.9060    -1.4900 C.ar  1 <1>  -0.1500 
  5 C       -4.1340     1.0220    -0.1170 C.ar  1 <1>  -0.0090 
  6 C       -3.0610     2.5360    -1.6850 C.ar  1 <1>  -0.1500 
  7 S       -5.6010     0.4330     0.7680 S.o2  1 <1>   1.4470 
  8 C       -4.1900     2.0970    -1.0030 C.ar  1 <1>   0.0830 
  9 O       -5.1880    -0.6330     1.6570 O.2   1 <1>  -0.6500 
 10 O       -6.3060     1.5580     1.3480 O.2   1 <1>  -0.6500 
 11 N       -6.5590    -0.2440    -0.4580 N.am  1 <1>  -0.8490 
 12 O       -5.3580     2.7250    -1.2380 O.3   1 <1>  -0.3630 
 13 C       -6.1520    -1.5780    -0.9490 C.3   1 <1>   0.1960 
 14 C       -8.0030    -0.1270    -0.2850 C.3   1 <1>   0.1960 
 15 C       -5.5440     3.9800    -0.6240 C.3   1 <1>   0.0400 
 16 C       -7.0400    -2.7670    -0.4770 C.3   1 <1>  -0.1060 
 17 C       -8.5060    -1.0680     0.8130 C.3   1 <1>  -0.1600 
 18 C       -8.0750    -3.0490    -1.5830 C.2   1 <1>   0.9060 
 19 C       -7.7320    -2.3950     0.8620 C.3   1 <1>   0.2000 
 20 C       -6.1680    -4.0520    -0.3320 C.3   1 <1>  -0.1600 
 21 O       -9.2680    -3.2400    -1.2950 O.co2 1 <1>  -0.9000 
 22 O       -7.6930    -3.1220    -2.7570 O.co2 1 <1>  -0.9000 
 23 O       -8.6210    -3.3880     1.2260 O.3   1 <1>  -0.6800 
 24 C       -5.1490    -4.0690     0.8250 C.3   1 <1>  -0.1600 
 25 C       -4.2710    -5.3220     0.7580 C.3   1 <1>  -0.2400 
 26 H       -2.8110    -0.4380     0.7350 H     1 <1>   0.1500 
 27 H       -0.9620     2.2300    -2.0090 H     1 <1>   0.1500 
 28 H       -3.1430     3.3610    -2.3710 H     1 <1>   0.1500 
 29 H       -6.1400    -1.5380    -2.0250 H     1 <1>   0.0800 
 30 H       -5.1310    -1.7520    -0.6650 H     1 <1>   0.0800 
 31 H       -8.2740     0.8900    -0.0600 H     1 <1>   0.0800 
 32 H       -8.4800    -0.3870    -1.2160 H     1 <1>   0.0800 
 33 H       -6.5400     4.3170    -0.8480 H     1 <1>   0.0800 
 34 H       -4.8210     4.6750    -1.0140 H     1 <1>   0.0800 
 35 H       -5.4270     3.8700     0.4400 H     1 <1>   0.0800 
 36 H       -9.5500    -1.2510     0.6310 H     1 <1>   0.0800 
 37 H       -8.4170    -0.5800     1.7660 H     1 <1>   0.0800 
 38 H       -7.0010    -2.3250     1.6460 H     1 <1>   0.0800 
 39 H       -6.8310    -4.8910    -0.2040 H     1 <1>   0.0800 
 40 H       -5.6500    -4.2110    -1.2630 H     1 <1>   0.0800 
 41 H       -9.1580    -3.5550     0.3970 H     1 <1>   0.4000 
 42 H       -4.5180    -3.2000     0.7970 H     1 <1>   0.0800 
 43 H       -5.6720    -4.0690     1.7660 H     1 <1>   0.0800 
 44 H       -3.7160    -5.3410    -0.1630 H     1 <1>   0.0800 
 45 H       -4.8810    -6.2060     0.8140 H     1 <1>   0.0800 
 46 H       -3.5780    -5.3290     1.5800 H     1 <1>   0.0800 
@<TRIPOS>BOND
  1   1   2  1   
  2   2   3  ar  
  3   2   4  ar  
  4   3   5  ar  
  5   3  26  1   
  6   4   6  ar  
  7   4  27  1   
  8   5   7  1   
  9   5   8  ar  
 10   6   8  ar  
 11   6  28  1   
 12   7   9  2   
 13   7  10  2   
 14   7  11  am  
 15   8  12  1   
 16  11  13  1   
 17  11  14  1   
 18  12  15  1   
 19  13  16  1   
 20  13  29  1   
 21  13  30  1   
 22  14  17  1   
 23  14  31  1   
 24  14  32  1   
 25  15  33  1   
 26  15  34  1   
 27  15  35  1   
 28  16  18  1   
 29  16  19  1   
 30  16  20  1   
 31  17  19  1   
 32  17  36  1   
 33  17  37  1   
 34  18  21  ar  
 35  18  22  ar  
 36  19  23  1   
 37  19  38  1   
 38  20  24  1   
 39  20  39  1   
 40  20  40  1   
 41  23  41  1   
 42  24  25  1   
 43  24  42  1   
 44  24  43  1   
 45  25  44  1   
 46  25  45  1   
 47  25  46  1   
@<TRIPOS>SUBSTRUCTURE
  1 ****  11 GROUP 4 **** **** 0

# MOE 2024.06 (io_trps.svl 2023.06)
