@<TRIPOS>MOLECULE
NONAME
57 60 1 0 0 
SMALL
USER_CHARGES


@<TRIPOS>ATOM
  1 O       -0.5210     0.9720     1.6720 O.2   1 <1>  -0.5700 
  2 C       -0.5150     2.0390     1.0890 C.2   1 <1>   0.5440 
  3 N       -1.6170     2.8660     1.1820 N.am  1 <1>  -0.6600 
  4 C        0.6460     2.4020     0.3090 C.ar  1 <1>   0.0860 
  5 C       -1.8890     4.0110     0.2720 C.3   1 <1>   0.1400 
  6 C       -2.7120     2.6130     2.1570 C.3   1 <1>   0.1400 
  7 C        1.3330     3.5860     0.5610 C.ar  1 <1>   0.1600 
  8 C        1.1270     1.5950    -0.7120 C.ar  1 <1>  -0.1500 
  9 C       -3.1910     3.7550    -0.4930 C.3   1 <1>  -0.1600 
 10 C       -4.0220     2.3650     1.4060 C.3   1 <1>  -0.1600 
 11 N        2.3860     4.0290    -0.1070 N.ar  1 <1>  -0.6200 
 12 C        2.2300     2.0230    -1.4200 C.ar  1 <1>  -0.1430 
 13 C       -4.3960     3.5160     0.4510 C.3   1 <1>   0.2800 
 14 C        2.8100     3.2370    -1.0800 C.ar  1 <1>   0.1600 
 15 C        2.7950     1.1780    -2.5490 C.3   1 <1>  -0.0970 
 16 O       -4.5620     4.6430     1.2770 O.3   1 <1>  -0.5600 
 17 C       -5.7530     3.1670    -0.2450 C.3   1 <1>   0.2000 
 18 C       -5.1150     5.8030     0.7340 C.3   1 <1>   0.1200 
 19 O       -5.5890     2.1900    -1.2380 O.3   1 <1>  -0.6800 
 20 C       -6.5880     4.3840    -0.7590 C.3   1 <1>   0.3000 
 21 C       -6.5440     5.5180     0.2730 C.3   1 <1>  -0.1600 
 22 N       -8.0080     4.0390    -1.0110 N.am  1 <1>  -0.7300 
 23 C       -6.1120     4.9200    -2.1240 C.3   1 <1>  -0.2400 
 24 C       -8.9930     3.4280    -0.3080 C.2   1 <1>   0.6300 
 25 O      -10.0900     3.3750    -0.8050 O.2   1 <1>  -0.5700 
 26 C       -8.7870     2.8220     1.0800 C.3   1 <1>  -0.1000 
 27 C       -8.4230     1.3720     1.2420 C.3   1 <1>  -0.2000 
 28 C       -9.7760     1.8490     1.6620 C.3   1 <1>  -0.2000 
 29 H       -1.9770     4.9110     0.8570 H     1 <1>   0.0800 
 30 H       -1.0890     4.1440    -0.4330 H     1 <1>   0.0800 
 31 H       -2.4840     1.7620     2.7770 H     1 <1>   0.0800 
 32 H       -2.8150     3.4700     2.8000 H     1 <1>   0.0800 
 33 H        0.9780     4.2040     1.3680 H     1 <1>   0.1500 
 34 H        0.6380     0.6600    -0.9290 H     1 <1>   0.1500 
 35 H       -3.0430     2.8860    -1.1080 H     1 <1>   0.0800 
 36 H       -3.3600     4.5800    -1.1500 H     1 <1>   0.0800 
 37 H       -4.8090     2.2190     2.1240 H     1 <1>   0.0800 
 38 H       -3.9240     1.4500     0.8490 H     1 <1>   0.0800 
 39 H        3.6690     3.5750    -1.6350 H     1 <1>   0.1500 
 40 H        2.5870     0.1360    -2.3810 H     1 <1>   0.0800 
 41 H        3.8620     1.3020    -2.6150 H     1 <1>   0.0800 
 42 H        2.3520     1.4730    -3.4840 H     1 <1>   0.0800 
 43 H       -6.3320     2.6960     0.5180 H     1 <1>   0.0800 
 44 H       -5.1210     6.5480     1.5120 H     1 <1>   0.0800 
 45 H       -4.4900     6.1570    -0.0660 H     1 <1>   0.0800 
 46 H       -5.1910     2.5780    -2.0390 H     1 <1>   0.4000 
 47 H       -7.1170     5.2590     1.1430 H     1 <1>   0.0800 
 48 H       -6.9690     6.4150    -0.1400 H     1 <1>   0.0800 
 49 H       -8.3300     4.3370    -1.9300 H     1 <1>   0.3700 
 50 H       -5.1110     5.2930    -2.0870 H     1 <1>   0.0800 
 51 H       -6.7380     5.7360    -2.4410 H     1 <1>   0.0800 
 52 H       -6.1600     4.1520    -2.8750 H     1 <1>   0.0800 
 53 H       -8.3810     3.5320     1.7750 H     1 <1>   0.1000 
 54 H       -8.3400     0.7650     0.3560 H     1 <1>   0.1000 
 55 H       -7.7110     1.0960     1.9990 H     1 <1>   0.1000 
 56 H      -10.0040     1.9110     2.7110 H     1 <1>   0.1000 
 57 H      -10.6300     1.5650     1.0710 H     1 <1>   0.1000 
@<TRIPOS>BOND
  1   1   2  2   
  2   2   3  am  
  3   2   4  1   
  4   3   5  1   
  5   3   6  1   
  6   4   7  ar  
  7   4   8  ar  
  8   5   9  1   
  9   5  29  1   
 10   5  30  1   
 11   6  10  1   
 12   6  31  1   
 13   6  32  1   
 14   7  11  ar  
 15   7  33  1   
 16   8  12  ar  
 17   8  34  1   
 18   9  13  1   
 19   9  35  1   
 20   9  36  1   
 21  10  13  1   
 22  10  37  1   
 23  10  38  1   
 24  11  14  ar  
 25  12  14  ar  
 26  12  15  1   
 27  13  16  1   
 28  13  17  1   
 29  14  39  1   
 30  15  40  1   
 31  15  41  1   
 32  15  42  1   
 33  16  18  1   
 34  17  19  1   
 35  17  20  1   
 36  17  43  1   
 37  18  21  1   
 38  18  44  1   
 39  18  45  1   
 40  19  46  1   
 41  20  21  1   
 42  20  22  1   
 43  20  23  1   
 44  21  47  1   
 45  21  48  1   
 46  22  24  am  
 47  22  49  1   
 48  23  50  1   
 49  23  51  1   
 50  23  52  1   
 51  24  25  2   
 52  24  26  1   
 53  26  27  1   
 54  26  28  1   
 55  26  53  1   
 56  27  28  1   
 57  27  54  1   
 58  27  55  1   
 59  28  56  1   
 60  28  57  1   
@<TRIPOS>SUBSTRUCTURE
  1 ****   9 GROUP 4 **** **** 0

# MOE 2024.06 (io_trps.svl 2023.06)
