@<TRIPOS>MOLECULE
NONAME
46 48 1 0 0 
SMALL
USER_CHARGES


@<TRIPOS>ATOM
  1 O       -3.5870     2.1550    -1.9270 O.2   1 <1>  -0.5700 
  2 C       -3.0470     1.5700    -1.0170 C.2   1 <1>   0.5690 
  3 N       -3.3070     0.2390    -0.7880 N.am  1 <1>  -0.6600 
  4 C       -2.1380     2.4180    -0.1410 C.3   1 <1>  -0.0990 
  5 C       -2.6340    -0.5950     0.2760 C.3   1 <1>   0.3640 
  6 C       -4.5660    -0.3110    -1.3970 C.3   1 <1>   0.1400 
  7 C       -0.8930     2.8890    -0.9030 C.3   1 <1>  -0.0170 
  8 C       -1.1110    -0.5490     0.1360 C.ar  1 <1>  -0.1440 
  9 C       -3.0450    -2.0940     0.2790 C.3   1 <1>   0.2000 
 10 C       -4.6980    -1.8350    -1.3250 C.3   1 <1>   0.1200 
 11 C       -0.0310     3.7780    -0.0220 C.ar  1 <1>  -0.1440 
 12 C       -0.5050    -0.7280    -1.1010 C.ar  1 <1>  -0.1500 
 13 C       -0.3110    -0.3560     1.2550 C.ar  1 <1>  -0.1500 
 14 O       -4.3990    -2.2750    -0.0400 O.3   1 <1>  -0.5600 
 15 C       -2.7720    -2.7570     1.6380 C.3   1 <1>   0.1200 
 16 C       -0.3680     5.0910     0.2380 C.ar  1 <1>  -0.1500 
 17 C        1.1310     3.3210     0.5630 C.ar  1 <1>  -0.1500 
 18 C        0.8740    -0.7170    -1.2170 C.ar  1 <1>  -0.1500 
 19 C        1.0680    -0.3490     1.1410 C.ar  1 <1>  -0.1500 
 20 O       -3.3410    -4.0200     1.6580 O.3   1 <1>  -0.6800 
 21 C        0.4470     5.8590     1.0530 C.ar  1 <1>   0.1600 
 22 C        1.8770     4.1710     1.3620 C.ar  1 <1>   0.1600 
 23 C        1.6610    -0.5300    -0.0960 C.ar  1 <1>  -0.1500 
 24 N        1.5610     5.4300     1.6240 N.ar  1 <1>  -0.6200 
 25 H       -2.7010     3.2810     0.1610 H     1 <1>   0.0800 
 26 H       -1.8500     1.9080     0.7550 H     1 <1>   0.0800 
 27 H       -2.9120    -0.1790     1.2290 H     1 <1>   0.0800 
 28 H       -5.4080     0.1280    -0.8910 H     1 <1>   0.0800 
 29 H       -4.6250    -0.0130    -2.4300 H     1 <1>   0.0800 
 30 H       -1.1920     3.4390    -1.7790 H     1 <1>   0.0800 
 31 H       -0.3230     2.0390    -1.2330 H     1 <1>   0.0800 
 32 H       -2.4640    -2.6170    -0.4610 H     1 <1>   0.0800 
 33 H       -4.0380    -2.3130    -2.0290 H     1 <1>   0.0800 
 34 H       -5.7090    -2.1270    -1.5500 H     1 <1>   0.0800 
 35 H       -1.1070    -0.8760    -1.9820 H     1 <1>   0.1500 
 36 H       -0.7530    -0.2130     2.2270 H     1 <1>   0.1500 
 37 H       -3.2140    -2.1840     2.4340 H     1 <1>   0.0800 
 38 H       -1.7160    -2.8600     1.8190 H     1 <1>   0.0800 
 39 H       -1.2570     5.5220    -0.1870 H     1 <1>   0.1500 
 40 H        1.4620     2.3120     0.4030 H     1 <1>   0.1500 
 41 H        1.3330    -0.8560    -2.1800 H     1 <1>   0.1500 
 42 H        1.6800    -0.2040     2.0140 H     1 <1>   0.1500 
 43 H       -4.2110    -3.9590     1.2040 H     1 <1>   0.4000 
 44 H        0.1670     6.8800     1.2440 H     1 <1>   0.1500 
 45 H        2.7810     3.7970     1.8090 H     1 <1>   0.1500 
 46 H        2.7340    -0.5260    -0.1860 H     1 <1>   0.1500 
@<TRIPOS>BOND
  1   1   2  2   
  2   2   3  am  
  3   2   4  1   
  4   3   5  1   
  5   3   6  1   
  6   4   7  1   
  7   4  25  1   
  8   4  26  1   
  9   5   8  1   
 10   5   9  1   
 11   5  27  1   
 12   6  10  1   
 13   6  28  1   
 14   6  29  1   
 15   7  11  1   
 16   7  30  1   
 17   7  31  1   
 18   8  12  ar  
 19   8  13  ar  
 20   9  14  1   
 21   9  15  1   
 22   9  32  1   
 23  10  14  1   
 24  10  33  1   
 25  10  34  1   
 26  11  16  ar  
 27  11  17  ar  
 28  12  18  ar  
 29  12  35  1   
 30  13  19  ar  
 31  13  36  1   
 32  15  20  1   
 33  15  37  1   
 34  15  38  1   
 35  16  21  ar  
 36  16  39  1   
 37  17  22  ar  
 38  17  40  1   
 39  18  23  ar  
 40  18  41  1   
 41  19  23  ar  
 42  19  42  1   
 43  20  43  1   
 44  21  24  ar  
 45  21  44  1   
 46  22  24  ar  
 47  22  45  1   
 48  23  46  1   
@<TRIPOS>SUBSTRUCTURE
  1 ****   8 GROUP 4 **** **** 0

# MOE 2024.06 (io_trps.svl 2023.06)
