@<TRIPOS>MOLECULE
NONAME
42 44 1 0 0 
SMALL
USER_CHARGES


@<TRIPOS>ATOM
  1 F       -2.2920    -0.7630     2.5140 F     1 <1>  -0.1900 
  2 C       -2.9360    -1.2410     1.4840 C.ar  1 <1>   0.1900 
  3 C       -2.4090    -2.3270     0.8140 C.ar  1 <1>  -0.1500 
  4 C       -4.1210    -0.6430     1.1030 C.ar  1 <1>  -0.1500 
  5 C       -3.0990    -2.8320    -0.2760 C.ar  1 <1>  -0.1500 
  6 C       -4.8020    -1.1560     0.0120 C.ar  1 <1>  -0.1500 
  7 C       -4.2970    -2.2530    -0.6780 C.ar  1 <1>  -0.1430 
  8 C       -5.0540    -2.8280    -1.8730 C.3   1 <1>   0.0450 
  9 C       -5.2580    -4.3350    -1.7870 C.2   1 <1>   0.5690 
 10 O       -4.7430    -5.0240    -2.6360 O.2   1 <1>  -0.5700 
 11 N       -6.0110    -4.8890    -0.7870 N.am  1 <1>  -0.6600 
 12 C       -6.6540    -4.1670     0.3400 C.3   1 <1>   0.1400 
 13 C       -6.1830    -6.3540    -0.6390 C.3   1 <1>   0.1400 
 14 C       -7.4220    -5.2440     1.1040 C.3   1 <1>   0.2000 
 15 C       -6.7050    -6.5540     0.7850 C.3   1 <1>  -0.0800 
 16 O       -7.4100    -5.0100     2.4690 O.3   1 <1>  -0.6800 
 17 C       -7.6060    -7.7870     0.9440 C.3   1 <1>   0.0200 
 18 C       -6.8730    -9.0520     0.5420 C.2   1 <1>  -0.0400 
 19 O       -5.8120    -9.4310     1.2040 O.3   1 <1>  -0.0190 
 20 C       -7.0900    -9.9440    -0.4360 C.2   1 <1>  -0.1500 
 21 N       -5.3050   -10.5270     0.7190 N.2   1 <1>  -0.4100 
 22 C       -6.0550   -10.8600    -0.2700 C.2   1 <1>   0.1080 
 23 C       -5.8320   -12.0830    -1.1310 C.3   1 <1>  -0.0590 
 24 H       -1.4820    -2.7650     1.1370 H     1 <1>   0.1500 
 25 H       -4.4960     0.2040     1.6480 H     1 <1>   0.1500 
 26 H       -2.6990    -3.6790    -0.8090 H     1 <1>   0.1500 
 27 H       -5.7250    -0.6950    -0.2960 H     1 <1>   0.1500 
 28 H       -4.4990    -2.6080    -2.7670 H     1 <1>   0.0800 
 29 H       -6.0160    -2.3630    -1.9700 H     1 <1>   0.0800 
 30 H       -5.8920    -3.7320     0.9640 H     1 <1>   0.0800 
 31 H       -7.3200    -3.4060    -0.0250 H     1 <1>   0.0800 
 32 H       -6.8990    -6.6950    -1.3680 H     1 <1>   0.0800 
 33 H       -5.2480    -6.8690    -0.7920 H     1 <1>   0.0800 
 34 H       -8.4460    -5.2650     0.7710 H     1 <1>   0.0800 
 35 H       -5.8450    -6.6560     1.4240 H     1 <1>   0.0800 
 36 H       -6.4960    -5.0350     2.8130 H     1 <1>   0.4000 
 37 H       -8.4860    -7.6810     0.3350 H     1 <1>   0.0800 
 38 H       -7.9190    -7.8750     1.9700 H     1 <1>   0.0800 
 39 H       -7.8590    -9.9780    -1.1850 H     1 <1>   0.1500 
 40 H       -6.6920   -12.7250    -1.0830 H     1 <1>   0.0800 
 41 H       -4.9720   -12.6260    -0.7820 H     1 <1>   0.0800 
 42 H       -5.6650   -11.7860    -2.1500 H     1 <1>   0.0800 
@<TRIPOS>BOND
  1   1   2  1   
  2   2   3  ar  
  3   2   4  ar  
  4   3   5  ar  
  5   3  24  1   
  6   4   6  ar  
  7   4  25  1   
  8   5   7  ar  
  9   5  26  1   
 10   6   7  ar  
 11   6  27  1   
 12   7   8  1   
 13   8   9  1   
 14   8  28  1   
 15   8  29  1   
 16   9  10  2   
 17   9  11  am  
 18  11  12  1   
 19  11  13  1   
 20  12  14  1   
 21  12  30  1   
 22  12  31  1   
 23  13  15  1   
 24  13  32  1   
 25  13  33  1   
 26  14  15  1   
 27  14  16  1   
 28  14  34  1   
 29  15  17  1   
 30  15  35  1   
 31  16  36  1   
 32  17  18  1   
 33  17  37  1   
 34  17  38  1   
 35  18  19  1   
 36  18  20  2   
 37  19  21  1   
 38  20  22  1   
 39  20  39  1   
 40  21  22  2   
 41  22  23  1   
 42  23  40  1   
 43  23  41  1   
 44  23  42  1   
@<TRIPOS>SUBSTRUCTURE
  1 ****  11 GROUP 4 **** **** 0

# MOE 2024.06 (io_trps.svl 2023.06)
