@<TRIPOS>MOLECULE
NONAME
36 36 1 0 0 
SMALL
USER_CHARGES


@<TRIPOS>ATOM
  1 O        1.8490     3.1370     0.0270 O.co2 1 <1>  -0.9000 
  2 C        1.1920     2.9780     1.0630 C.2   1 <1>   0.9060 
  3 O        1.7220     2.8800     2.1670 O.co2 1 <1>  -0.9000 
  4 C       -0.3150     2.9610     0.9750 C.3   1 <1>  -0.2660 
  5 C       -0.8880     3.4980    -0.3580 C.3   1 <1>  -0.0990 
  6 C       -0.6710     4.9860    -0.6010 C.2   1 <1>   0.5690 
  7 O       -1.6530     5.6870    -0.7080 O.2   1 <1>  -0.5700 
  8 N        0.6060     5.4590    -0.7180 N.am  1 <1>  -0.4940 
  9 C        1.0610     6.7670    -1.0310 C.2   1 <1>  -0.0880 
 10 N        2.3400     7.2330    -0.9090 N.pl3 1 <1>   0.3140 
 11 C        0.3300     7.7990    -1.5140 C.2   1 <1>  -0.1500 
 12 N        2.4290     8.5290    -1.3180 N.2   1 <1>  -0.7070 
 13 C        3.5590     6.5380    -0.3980 C.3   1 <1>   0.1760 
 14 C        1.2230     8.8480    -1.6690 C.2   1 <1>   0.1390 
 15 C        3.9800     5.4200    -1.3740 C.3   1 <1>  -0.1600 
 16 C        3.3960     6.0810     1.0700 C.3   1 <1>  -0.1600 
 17 C        5.3250     4.7670    -1.0260 C.3   1 <1>  -0.2400 
 18 C        3.0040     7.2190     2.0240 C.3   1 <1>  -0.2400 
 19 H       -0.6980     3.5410     1.7940 H     1 <1>   0.0800 
 20 H       -0.6240     1.9440     1.1150 H     1 <1>   0.0800 
 21 H       -1.9460     3.3090    -0.3750 H     1 <1>   0.0800 
 22 H       -0.4530     2.9560    -1.1780 H     1 <1>   0.0800 
 23 H        1.3220     4.7280    -0.5180 H     1 <1>   0.3700 
 24 H       -0.7200     7.8160    -1.7360 H     1 <1>   0.1500 
 25 H        4.3440     7.2730    -0.4080 H     1 <1>   0.0800 
 26 H        0.9530     9.8210    -2.0400 H     1 <1>   0.1500 
 27 H        4.0550     5.8440    -2.3610 H     1 <1>   0.0800 
 28 H        3.2260     4.6540    -1.4030 H     1 <1>   0.0800 
 29 H        4.3230     5.6630     1.4150 H     1 <1>   0.0800 
 30 H        2.6640     5.2990     1.1340 H     1 <1>   0.0800 
 31 H        6.0950     5.5090    -0.9170 H     1 <1>   0.0800 
 32 H        5.6090     4.0850    -1.8080 H     1 <1>   0.0800 
 33 H        5.2420     4.2030    -0.1130 H     1 <1>   0.0800 
 34 H        3.7190     8.0200     1.9720 H     1 <1>   0.0800 
 35 H        2.9680     6.8470     3.0330 H     1 <1>   0.0800 
 36 H        2.0300     7.6040     1.7740 H     1 <1>   0.0800 
@<TRIPOS>BOND
  1   1   2  ar  
  2   2   3  ar  
  3   2   4  1   
  4   4   5  1   
  5   4  19  1   
  6   4  20  1   
  7   5   6  1   
  8   5  21  1   
  9   5  22  1   
 10   6   7  2   
 11   6   8  am  
 12   8   9  1   
 13   8  23  1   
 14   9  10  1   
 15   9  11  2   
 16  10  12  1   
 17  10  13  1   
 18  11  14  1   
 19  11  24  1   
 20  12  14  2   
 21  13  15  1   
 22  13  16  1   
 23  13  25  1   
 24  14  26  1   
 25  15  17  1   
 26  15  27  1   
 27  15  28  1   
 28  16  18  1   
 29  16  29  1   
 30  16  30  1   
 31  17  31  1   
 32  17  32  1   
 33  17  33  1   
 34  18  34  1   
 35  18  35  1   
 36  18  36  1   
@<TRIPOS>SUBSTRUCTURE
  1 ****   8 GROUP 4 **** **** 0

# MOE 2024.06 (io_trps.svl 2023.06)
