@<TRIPOS>MOLECULE
NONAME
56 59 1 0 0 
SMALL
USER_CHARGES


@<TRIPOS>ATOM
  1 F       -0.1310    -0.2510     0.5980 F     1 <1>  -0.1900 
  2 C       -1.1610     0.5420     0.4760 C.ar  1 <1>   0.1900 
  3 C       -2.4270    -0.0080     0.2690 C.ar  1 <1>   0.0000 
  4 C       -0.9320     1.9030     0.5560 C.ar  1 <1>  -0.1500 
  5 C       -2.6620    -1.4320     0.1850 C.ar  1 <1>   0.0000 
  6 C       -3.4820     0.8940     0.1410 C.ar  1 <1>  -0.1500 
  7 C       -2.0020     2.7710     0.4240 C.ar  1 <1>  -0.1500 
  8 C       -3.2210    -2.0000    -0.9550 C.ar  1 <1>  -0.1500 
  9 C       -2.3440    -2.2840     1.2380 C.ar  1 <1>  -0.1500 
 10 C       -3.2750     2.2620     0.2170 C.ar  1 <1>  -0.1500 
 11 C       -3.4590    -3.3590    -1.0360 C.ar  1 <1>  -0.1500 
 12 C       -2.5830    -3.6430     1.1560 C.ar  1 <1>  -0.1500 
 13 C       -3.1550    -4.2180     0.0220 C.ar  1 <1>   0.0860 
 14 C       -3.4150    -5.6460    -0.0490 C.2   1 <1>   0.5440 
 15 O       -2.7070    -6.4380     0.5480 O.2   1 <1>  -0.5700 
 16 N       -4.4840    -6.1670    -0.7470 N.am  1 <1>  -0.6600 
 17 C       -4.4770    -7.6090    -1.1020 C.3   1 <1>   0.1400 
 18 C       -5.8490    -5.6050    -0.5650 C.3   1 <1>   0.1400 
 19 C       -5.1250    -8.4030     0.0530 C.3   1 <1>   0.4230 
 20 C       -6.5360    -6.3760     0.5730 C.3   1 <1>  -0.1600 
 21 N       -4.9860    -9.9130    -0.0780 N.4   1 <1>  -0.9590 
 22 C       -6.5770    -7.9180     0.3520 C.3   1 <1>   0.0000 
 23 C       -5.9360   -10.6920     0.7810 C.3   1 <1>   0.3430 
 24 C       -5.0030   -10.4460    -1.4800 C.3   1 <1>   0.2630 
 25 C       -7.0850    -8.5960     1.6590 C.3   1 <1>  -0.1600 
 26 C       -7.5140    -8.2670    -0.8400 C.3   1 <1>   0.1200 
 27 C       -6.3350    -9.8930     2.0200 C.3   1 <1>  -0.1600 
 28 O       -8.7590    -7.6770    -0.7050 O.3   1 <1>  -0.6800 
 29 H        0.0640     2.2730     0.7160 H     1 <1>   0.1500 
 30 H       -4.4770     0.5170    -0.0160 H     1 <1>   0.1500 
 31 H       -1.8470     3.8350     0.4830 H     1 <1>   0.1500 
 32 H       -3.4650    -1.3650    -1.7890 H     1 <1>   0.1500 
 33 H       -1.9010    -1.8730     2.1280 H     1 <1>   0.1500 
 34 H       -4.1080     2.9380     0.1160 H     1 <1>   0.1500 
 35 H       -3.8820    -3.7660    -1.9370 H     1 <1>   0.1500 
 36 H       -2.3190    -4.2780     1.9850 H     1 <1>   0.1500 
 37 H       -5.0050    -7.7410    -2.0280 H     1 <1>   0.0800 
 38 H       -3.4590    -7.9320    -1.2420 H     1 <1>   0.0800 
 39 H       -5.7990    -4.5600    -0.3090 H     1 <1>   0.0800 
 40 H       -6.4090    -5.6960    -1.4810 H     1 <1>   0.0800 
 41 H       -4.5530    -8.1270     0.9250 H     1 <1>   0.0800 
 42 H       -5.9950    -6.1530     1.4770 H     1 <1>   0.0800 
 43 H       -7.5280    -5.9830     0.7070 H     1 <1>   0.0800 
 44 H       -4.0440   -10.1040     0.2990 H     1 <1>   0.4500 
 45 H       -6.8280   -10.9220     0.2210 H     1 <1>   0.0800 
 46 H       -5.4810   -11.6240     1.0780 H     1 <1>   0.0800 
 47 H       -5.9480   -10.2360    -1.9530 H     1 <1>   0.0800 
 48 H       -4.8530   -11.5140    -1.4740 H     1 <1>   0.0800 
 49 H       -4.2150    -9.9990    -2.0640 H     1 <1>   0.0800 
 50 H       -6.9850    -7.9270     2.4970 H     1 <1>   0.0800 
 51 H       -8.1360    -8.8130     1.5780 H     1 <1>   0.0800 
 52 H       -7.6690    -9.3280    -0.9220 H     1 <1>   0.0800 
 53 H       -7.1140    -7.9110    -1.7720 H     1 <1>   0.0800 
 54 H       -6.9650   -10.5010     2.6460 H     1 <1>   0.0800 
 55 H       -5.4520    -9.6640     2.5910 H     1 <1>   0.0800 
 56 H       -9.2310    -7.9850     0.0940 H     1 <1>   0.4000 
@<TRIPOS>BOND
  1   1   2  1   
  2   2   3  ar  
  3   2   4  ar  
  4   3   5  1   
  5   3   6  ar  
  6   4   7  ar  
  7   4  29  1   
  8   5   8  ar  
  9   5   9  ar  
 10   6  10  ar  
 11   6  30  1   
 12   7  10  ar  
 13   7  31  1   
 14   8  11  ar  
 15   8  32  1   
 16   9  12  ar  
 17   9  33  1   
 18  10  34  1   
 19  11  13  ar  
 20  11  35  1   
 21  12  13  ar  
 22  12  36  1   
 23  13  14  1   
 24  14  15  2   
 25  14  16  am  
 26  16  17  1   
 27  16  18  1   
 28  17  19  1   
 29  17  37  1   
 30  17  38  1   
 31  18  20  1   
 32  18  39  1   
 33  18  40  1   
 34  19  21  1   
 35  19  22  1   
 36  19  41  1   
 37  20  22  1   
 38  20  42  1   
 39  20  43  1   
 40  21  23  1   
 41  21  24  1   
 42  21  44  1   
 43  22  25  1   
 44  22  26  1   
 45  23  27  1   
 46  23  45  1   
 47  23  46  1   
 48  24  47  1   
 49  24  48  1   
 50  24  49  1   
 51  25  27  1   
 52  25  50  1   
 53  25  51  1   
 54  26  28  1   
 55  26  52  1   
 56  26  53  1   
 57  27  54  1   
 58  27  55  1   
 59  28  56  1   
@<TRIPOS>SUBSTRUCTURE
  1 ****  13 GROUP 4 **** **** 0

# MOE 2024.06 (io_trps.svl 2023.06)
