@<TRIPOS>MOLECULE
NONAME
59 62 1 0 0 
SMALL
USER_CHARGES


@<TRIPOS>ATOM
  1 O        1.9110    -1.5000     1.7990 O.3   1 <1>  -0.0190 
  2 N        2.0380    -0.2120     1.7150 N.2   1 <1>  -0.4100 
  3 C        1.4360    -1.8470     0.6280 C.2   1 <1>   0.2980 
  4 C        1.6560     0.1280     0.5490 C.2   1 <1>   0.3350 
  5 N        1.2500    -0.8940    -0.1930 N.2   1 <1>  -0.5650 
  6 C        1.1440    -3.3120     0.3550 C.3   1 <1>   0.1000 
  7 C        1.6420     1.5510     0.0200 C.3   1 <1>   0.0210 
  8 C        0.0760    -3.8200     1.3330 C.3   1 <1>   0.2090 
  9 C        2.4240    -4.1680     0.4380 C.3   1 <1>  -0.1600 
 10 C        3.0290     2.0290    -0.4560 C.3   1 <1>  -0.0800 
 11 N       -0.2040    -5.2870     1.0970 N.pl3 1 <1>  -0.8380 
 12 C        2.1040    -5.6660     0.3070 C.3   1 <1>  -0.1600 
 13 C        2.9770     3.5110    -0.8480 C.3   1 <1>  -0.2400 
 14 C        3.5460     1.2020    -1.6420 C.3   1 <1>  -0.2400 
 15 C       -1.4270    -5.7270     0.7100 C.ar  1 <1>   0.7710 
 16 C        1.0330    -6.1050     1.3100 C.3   1 <1>   0.2090 
 17 N       -2.4070    -4.8460     0.5290 N.ar  1 <1>  -0.6200 
 18 N       -1.6320    -7.0320     0.5100 N.ar  1 <1>  -0.1790 
 19 C       -3.5800    -5.2700     0.1520 C.ar  1 <1>   0.4100 
 20 C       -2.8410    -7.5520     0.1140 C.ar  1 <1>   0.3610 
 21 N       -4.4960    -4.3090    -0.0030 N.pl3 1 <1>  -0.9000 
 22 C       -3.8820    -6.6470    -0.0820 C.ar  1 <1>   0.0000 
 23 C       -3.0320    -8.9190    -0.0870 C.ar  1 <1>  -0.1500 
 24 C       -5.1290    -7.1460    -0.4880 C.ar  1 <1>  -0.1500 
 25 C       -4.2650    -9.3980    -0.4870 C.ar  1 <1>   0.0820 
 26 C       -5.3270    -8.4990    -0.6900 C.ar  1 <1>   0.0820 
 27 O       -4.5030   -10.7160    -0.6960 O.3   1 <1>  -0.3620 
 28 O       -6.5220    -9.0200    -1.0840 O.3   1 <1>  -0.3620 
 29 C       -3.5350   -11.7280    -0.5290 C.3   1 <1>   0.0400 
 30 C       -7.6580    -8.2170    -1.3170 C.3   1 <1>   0.0400 
 31 H        0.7420    -3.3830    -0.6400 H     1 <1>   0.0800 
 32 H        1.2990     2.1920     0.8120 H     1 <1>   0.0800 
 33 H        0.9330     1.6180    -0.7860 H     1 <1>   0.0800 
 34 H       -0.8060    -3.2110     1.2240 H     1 <1>   0.0800 
 35 H        0.4240    -3.6890     2.3440 H     1 <1>   0.0800 
 36 H        2.9100    -3.9940     1.3840 H     1 <1>   0.0800 
 37 H        3.1060    -3.8690    -0.3390 H     1 <1>   0.0800 
 38 H        3.7220     1.9200     0.3630 H     1 <1>   0.0800 
 39 H        3.0030    -6.2340     0.4740 H     1 <1>   0.0800 
 40 H        1.7670    -5.8790    -0.6930 H     1 <1>   0.0800 
 41 H        2.2970     3.6660    -1.6670 H     1 <1>   0.0800 
 42 H        3.9540     3.8520    -1.1450 H     1 <1>   0.0800 
 43 H        2.6540     4.1100    -0.0140 H     1 <1>   0.0800 
 44 H        2.8620     1.2550    -2.4700 H     1 <1>   0.0800 
 45 H        3.6630     0.1700    -1.3610 H     1 <1>   0.0800 
 46 H        4.5050     1.5680    -1.9630 H     1 <1>   0.0800 
 47 H        0.8490    -7.1580     1.1970 H     1 <1>   0.0800 
 48 H        1.3950    -5.9440     2.3140 H     1 <1>   0.0800 
 49 H       -0.8430    -7.6410     0.6660 H     1 <1>   0.4570 
 50 H       -5.4650    -4.4490    -0.2920 H     1 <1>   0.4000 
 51 H       -4.2450    -3.3320     0.1720 H     1 <1>   0.4000 
 52 H       -2.2150    -9.5950     0.0710 H     1 <1>   0.1500 
 53 H       -5.9320    -6.4510    -0.6390 H     1 <1>   0.1500 
 54 H       -4.0000   -12.6700    -0.7610 H     1 <1>   0.0800 
 55 H       -3.2030   -11.7320     0.4940 H     1 <1>   0.0800 
 56 H       -2.7200   -11.5510    -1.2070 H     1 <1>   0.0800 
 57 H       -8.4650    -8.8620    -1.6140 H     1 <1>   0.0800 
 58 H       -7.4390    -7.5210    -2.1080 H     1 <1>   0.0800 
 59 H       -7.9190    -7.7050    -0.4080 H     1 <1>   0.0800 
@<TRIPOS>BOND
  1   1   2  1   
  2   1   3  1   
  3   2   4  2   
  4   3   5  2   
  5   3   6  1   
  6   4   5  1   
  7   4   7  1   
  8   6   8  1   
  9   6   9  1   
 10   6  31  1   
 11   7  10  1   
 12   7  32  1   
 13   7  33  1   
 14   8  11  1   
 15   8  34  1   
 16   8  35  1   
 17   9  12  1   
 18   9  36  1   
 19   9  37  1   
 20  10  13  1   
 21  10  14  1   
 22  10  38  1   
 23  11  15  1   
 24  11  16  1   
 25  12  16  1   
 26  12  39  1   
 27  12  40  1   
 28  13  41  1   
 29  13  42  1   
 30  13  43  1   
 31  14  44  1   
 32  14  45  1   
 33  14  46  1   
 34  15  17  ar  
 35  15  18  ar  
 36  16  47  1   
 37  16  48  1   
 38  17  19  ar  
 39  18  20  ar  
 40  18  49  1   
 41  19  21  1   
 42  19  22  ar  
 43  20  22  ar  
 44  20  23  ar  
 45  21  50  1   
 46  21  51  1   
 47  22  24  ar  
 48  23  25  ar  
 49  23  52  1   
 50  24  26  ar  
 51  24  53  1   
 52  25  26  ar  
 53  25  27  1   
 54  26  28  1   
 55  27  29  1   
 56  28  30  1   
 57  29  54  1   
 58  29  55  1   
 59  29  56  1   
 60  30  57  1   
 61  30  58  1   
 62  30  59  1   
@<TRIPOS>SUBSTRUCTURE
  1 ****  15 GROUP 4 **** **** 0

# MOE 2024.06 (io_trps.svl 2023.06)
