@<TRIPOS>MOLECULE
NONAME
46 48 1 0 0 
SMALL
USER_CHARGES


@<TRIPOS>ATOM
  1 O        3.0370     0.1830    -0.5930 O.3   1 <1>  -0.0190 
  2 N        2.4710     0.3050    -1.7580 N.2   1 <1>  -0.4100 
  3 C        2.1590     0.0840     0.3720 C.2   1 <1>  -0.0400 
  4 C        1.2050     0.2450    -1.5450 C.2   1 <1>   0.1080 
  5 C        0.9380     0.1040    -0.1860 C.2   1 <1>  -0.1500 
  6 C        2.6160    -0.0180     1.8250 C.3   1 <1>   0.3890 
  7 C        0.1530     0.3200    -2.6300 C.3   1 <1>  -0.0590 
  8 N        3.2630     1.2390     2.3270 N.pl3 1 <1>  -0.8380 
  9 C        3.9400     2.0160     1.4530 C.ar  1 <1>   0.4100 
 10 C        3.6870     1.1850     3.7510 C.3   1 <1>   0.1290 
 11 N        5.2040     1.7010     1.2710 N.ar  1 <1>  -0.6200 
 12 C        3.2780     3.0170     0.6970 C.ar  1 <1>  -0.1430 
 13 C        5.8060     2.2130     0.2120 C.ar  1 <1>   0.7710 
 14 C        3.9280     3.5130    -0.3910 C.ar  1 <1>   0.2180 
 15 C        1.8750     3.4680     1.1150 C.3   1 <1>  -0.0970 
 16 N        5.1870     3.0690    -0.6150 N.ar  1 <1>  -0.1790 
 17 N        7.0900     1.8640    -0.0520 N.pl3 1 <1>  -0.8380 
 18 C        3.3690     4.5170    -1.3900 C.3   1 <1>  -0.0970 
 19 C        7.8360     0.9300     0.8370 C.3   1 <1>   0.2090 
 20 C        7.9260     2.2220    -1.2290 C.3   1 <1>   0.2090 
 21 C        9.2580     0.9140     0.2940 C.3   1 <1>  -0.1600 
 22 C        9.1080     1.2640    -1.1810 C.3   1 <1>  -0.1600 
 23 H       -0.0330     0.0390     0.2710 H     1 <1>   0.1500 
 24 H        3.3150    -0.8330     1.9130 H     1 <1>   0.0800 
 25 H        1.7630    -0.2380     2.4410 H     1 <1>   0.0800 
 26 H        0.6210     0.4560    -3.5890 H     1 <1>   0.0800 
 27 H       -0.5090     1.1460    -2.4440 H     1 <1>   0.0800 
 28 H       -0.4140    -0.5920    -2.6490 H     1 <1>   0.0800 
 29 H        2.8250     1.1170     4.3910 H     1 <1>   0.0800 
 30 H        4.2380     2.0750     4.0050 H     1 <1>   0.0800 
 31 H        4.3220     0.3310     3.9150 H     1 <1>   0.0800 
 32 H        1.7420     3.3530     2.1770 H     1 <1>   0.0800 
 33 H        1.1330     2.8740     0.6150 H     1 <1>   0.0800 
 34 H        1.7080     4.5040     0.8880 H     1 <1>   0.0800 
 35 H        5.7270     3.3630    -1.4140 H     1 <1>   0.4570 
 36 H        2.3100     4.6520    -1.2660 H     1 <1>   0.0800 
 37 H        3.5290     4.1700    -2.3950 H     1 <1>   0.0800 
 38 H        3.8500     5.4710    -1.2670 H     1 <1>   0.0800 
 39 H        7.3980    -0.0520     0.7670 H     1 <1>   0.0800 
 40 H        7.8110     1.2610     1.8620 H     1 <1>   0.0800 
 41 H        8.2780     3.2360    -1.1250 H     1 <1>   0.0800 
 42 H        7.3860     2.1060    -2.1540 H     1 <1>   0.0800 
 43 H        9.7310    -0.0410     0.4440 H     1 <1>   0.0800 
 44 H        9.8340     1.6720     0.7970 H     1 <1>   0.0800 
 45 H       10.0000     1.7040    -1.5900 H     1 <1>   0.0800 
 46 H        8.8660     0.3780    -1.7420 H     1 <1>   0.0800 
@<TRIPOS>BOND
  1   1   2  1   
  2   1   3  1   
  3   2   4  2   
  4   3   5  2   
  5   3   6  1   
  6   4   5  1   
  7   4   7  1   
  8   5  23  1   
  9   6   8  1   
 10   6  24  1   
 11   6  25  1   
 12   7  26  1   
 13   7  27  1   
 14   7  28  1   
 15   8   9  1   
 16   8  10  1   
 17   9  11  ar  
 18   9  12  ar  
 19  10  29  1   
 20  10  30  1   
 21  10  31  1   
 22  11  13  ar  
 23  12  14  ar  
 24  12  15  1   
 25  13  16  ar  
 26  13  17  1   
 27  14  16  ar  
 28  14  18  1   
 29  15  32  1   
 30  15  33  1   
 31  15  34  1   
 32  16  35  1   
 33  17  19  1   
 34  17  20  1   
 35  18  36  1   
 36  18  37  1   
 37  18  38  1   
 38  19  21  1   
 39  19  39  1   
 40  19  40  1   
 41  20  22  1   
 42  20  41  1   
 43  20  42  1   
 44  21  22  1   
 45  21  43  1   
 46  21  44  1   
 47  22  45  1   
 48  22  46  1   
@<TRIPOS>SUBSTRUCTURE
  1 ****   9 GROUP 4 **** **** 0

# MOE 2024.06 (io_trps.svl 2023.06)
