@<TRIPOS>MOLECULE
NONAME
48 50 1 0 0 
SMALL
USER_CHARGES


@<TRIPOS>ATOM
  1 CL       0.7440    -0.8640    -0.4650 Cl    1 <1>  -0.1770 
  2 C       -0.3940    -2.1850    -0.4500 C.ar  1 <1>   0.1770 
  3 C       -1.7490    -1.9190    -0.4530 C.ar  1 <1>  -0.1500 
  4 C        0.0730    -3.4850    -0.4380 C.ar  1 <1>  -0.1500 
  5 C       -2.6460    -2.9710    -0.4440 C.ar  1 <1>  -0.1500 
  6 C       -0.8350    -4.5290    -0.4260 C.ar  1 <1>  -0.1500 
  7 C       -2.2140    -4.3000    -0.4270 C.ar  1 <1>   0.0530 
  8 C       -3.1420    -5.4070    -0.4160 C.2   1 <1>   0.0870 
  9 O       -2.7840    -6.5700    -0.9030 O.3   1 <1>  -0.0190 
 10 C       -4.4160    -5.5460     0.0280 C.2   1 <1>  -0.2330 
 11 N       -3.7300    -7.4660    -0.8210 N.2   1 <1>  -0.4100 
 12 C       -4.7360    -6.8750    -0.2710 C.2   1 <1>   0.3720 
 13 C       -5.2350    -4.5860     0.6880 C.2   1 <1>   1.0330 
 14 N       -5.9440    -7.5630    -0.0530 N.pl3 1 <1>  -0.8210 
 15 O       -5.9250    -3.7880     0.0310 O.co2 1 <1>  -0.9000 
 16 O       -5.3010    -4.5510     1.9270 O.co2 1 <1>  -0.9000 
 17 C       -7.1520    -6.7950     0.3850 C.3   1 <1>   0.2090 
 18 C       -5.8130    -8.9330     0.5410 C.3   1 <1>   0.2090 
 19 C       -8.4180    -7.6690     0.3770 C.3   1 <1>   0.1400 
 20 C       -6.8720    -9.2350     1.6180 C.3   1 <1>   0.1400 
 21 N       -8.2610    -8.9660     1.1200 N.am  1 <1>  -0.6600 
 22 C       -9.2570    -9.8960     1.2770 C.2   1 <1>   0.5690 
 23 O       -9.0770   -10.9190     1.8960 O.2   1 <1>  -0.5700 
 24 C      -10.6460    -9.6920     0.6840 C.3   1 <1>  -0.0990 
 25 C      -10.9060   -10.5670    -0.5570 C.3   1 <1>  -0.0800 
 26 C       -9.9780   -10.2050    -1.7240 C.3   1 <1>  -0.2400 
 27 C      -12.3670   -10.4360    -1.0030 C.3   1 <1>  -0.2400 
 28 H       -2.1000    -0.9030    -0.4620 H     1 <1>   0.1500 
 29 H        1.1310    -3.6730    -0.4360 H     1 <1>   0.1500 
 30 H       -3.7010    -2.7550    -0.4530 H     1 <1>   0.1500 
 31 H       -0.4740    -5.5430    -0.4120 H     1 <1>   0.1500 
 32 H       -7.3040    -5.9580    -0.2760 H     1 <1>   0.0800 
 33 H       -6.9990    -6.4130     1.3800 H     1 <1>   0.0800 
 34 H       -4.8360    -9.0460     0.9790 H     1 <1>   0.0800 
 35 H       -5.9030    -9.6560    -0.2490 H     1 <1>   0.0800 
 36 H       -8.6680    -7.8790    -0.6470 H     1 <1>   0.0800 
 37 H       -9.2190    -7.1020     0.8140 H     1 <1>   0.0800 
 38 H       -6.6810    -8.6190     2.4790 H     1 <1>   0.0800 
 39 H       -6.7710   -10.2610     1.9220 H     1 <1>   0.0800 
 40 H      -10.8220    -8.6610     0.4480 H     1 <1>   0.0800 
 41 H      -11.3520    -9.9610     1.4490 H     1 <1>   0.0800 
 42 H      -10.7260   -11.5960    -0.2870 H     1 <1>   0.0800 
 43 H      -10.1300    -9.1850    -2.0310 H     1 <1>   0.0800 
 44 H      -10.1710   -10.8470    -2.5650 H     1 <1>   0.0800 
 45 H       -8.9470   -10.3300    -1.4420 H     1 <1>   0.0800 
 46 H      -12.5920    -9.4210    -1.2820 H     1 <1>   0.0800 
 47 H      -13.0290   -10.7290    -0.2060 H     1 <1>   0.0800 
 48 H      -12.5580   -11.0750    -1.8470 H     1 <1>   0.0800 
@<TRIPOS>BOND
  1   1   2  1   
  2   2   3  ar  
  3   2   4  ar  
  4   3   5  ar  
  5   3  28  1   
  6   4   6  ar  
  7   4  29  1   
  8   5   7  ar  
  9   5  30  1   
 10   6   7  ar  
 11   6  31  1   
 12   7   8  1   
 13   8   9  1   
 14   8  10  2   
 15   9  11  1   
 16  10  12  1   
 17  10  13  1   
 18  11  12  2   
 19  12  14  1   
 20  13  15  ar  
 21  13  16  ar  
 22  14  17  1   
 23  14  18  1   
 24  17  19  1   
 25  17  32  1   
 26  17  33  1   
 27  18  20  1   
 28  18  34  1   
 29  18  35  1   
 30  19  21  1   
 31  19  36  1   
 32  19  37  1   
 33  20  21  1   
 34  20  38  1   
 35  20  39  1   
 36  21  22  am  
 37  22  23  2   
 38  22  24  1   
 39  24  25  1   
 40  24  40  1   
 41  24  41  1   
 42  25  26  1   
 43  25  27  1   
 44  25  42  1   
 45  26  43  1   
 46  26  44  1   
 47  26  45  1   
 48  27  46  1   
 49  27  47  1   
 50  27  48  1   
@<TRIPOS>SUBSTRUCTURE
  1 ****  12 GROUP 4 **** **** 0

# MOE 2024.06 (io_trps.svl 2023.06)
