@<TRIPOS>MOLECULE
NONAME
50 53 1 0 0 
SMALL
USER_CHARGES


@<TRIPOS>ATOM
  1 O       -1.4390     1.6390    -1.2840 O.2   1 <1>  -0.5700 
  2 C       -0.9650     2.5770    -0.6980 C.2   1 <1>   0.5690 
  3 N       -1.6700     3.7190    -0.5440 N.am  1 <1>  -0.7300 
  4 C        0.4630     2.4950    -0.1460 C.3   1 <1>   0.1810 
  5 C       -1.1600     4.8980     0.1940 C.3   1 <1>   0.3640 
  6 O        0.7570     3.5110     0.7890 O.3   1 <1>  -0.5600 
  7 C       -1.5840     6.1500    -0.5650 C.ar  1 <1>  -0.1440 
  8 C        0.3770     4.8170     0.3840 C.3   1 <1>   0.2610 
  9 C       -1.2940     6.3060    -1.9140 C.ar  1 <1>   0.1600 
 10 C       -2.2730     7.1580     0.0820 C.ar  1 <1>  -0.1500 
 11 C        0.8930     5.8800     1.3680 C.2   1 <1>   0.5690 
 12 N       -1.6200     7.3590    -2.6450 N.ar  1 <1>  -0.6200 
 13 C       -2.6330     8.2570    -0.6680 C.ar  1 <1>  -0.1500 
 14 O        0.1010     6.4300     2.1040 O.2   1 <1>  -0.5700 
 15 N        2.2210     6.2270     1.3750 N.am  1 <1>  -0.6600 
 16 C       -2.2870     8.3070    -2.0070 C.ar  1 <1>   0.1600 
 17 C        2.6830     7.4800     2.0450 C.3   1 <1>   0.3210 
 18 C        3.2890     5.5280     0.6030 C.3   1 <1>   0.0600 
 19 C        3.1330     8.4920     0.9990 C.2   1 <1>   0.1080 
 20 N        4.3810     8.7370     0.7180 N.2   1 <1>  -0.7070 
 21 C        2.2680     9.2460     0.2110 C.2   1 <1>  -0.1810 
 22 N        4.3360     9.6640    -0.2620 N.pl3 1 <1>   0.3000 
 23 C        3.0670     9.9770    -0.5860 C.2   1 <1>  -0.3320 
 24 C        0.7530     9.2980     0.1660 C.3   1 <1>   0.0210 
 25 C        2.5930    10.9650    -1.6350 C.3   1 <1>   0.0200 
 26 C        0.3000    10.5730    -0.5690 C.3   1 <1>  -0.1600 
 27 C        1.0830    10.7780    -1.8830 C.3   1 <1>  -0.1600 
 28 H       -2.6310     3.7560    -0.8890 H     1 <1>   0.3700 
 29 H        1.1630     2.5690    -0.9580 H     1 <1>   0.0800 
 30 H        0.6000     1.5490     0.3440 H     1 <1>   0.0800 
 31 H       -1.6240     4.9030     1.1660 H     1 <1>   0.0800 
 32 H        0.8470     5.0080    -0.5630 H     1 <1>   0.0800 
 33 H       -0.7650     5.5200    -2.4270 H     1 <1>   0.1500 
 34 H       -2.5190     7.0970     1.1300 H     1 <1>   0.1500 
 35 H       -3.1750     9.0700    -0.2190 H     1 <1>   0.1500 
 36 H       -2.5710     9.1710    -2.5820 H     1 <1>   0.1500 
 37 H        1.9000     7.9120     2.6400 H     1 <1>   0.0800 
 38 H        3.5080     7.2530     2.6960 H     1 <1>   0.0800 
 39 H        4.2230     5.5930     1.1340 H     1 <1>   0.0800 
 40 H        3.4090     5.9990    -0.3570 H     1 <1>   0.0800 
 41 H        3.0520     4.4880     0.4680 H     1 <1>   0.0800 
 42 H        5.1850    10.0570    -0.6850 H     1 <1>   0.2700 
 43 H        0.3990     8.4310    -0.3610 H     1 <1>   0.0800 
 44 H        0.3470     9.2800     1.1620 H     1 <1>   0.0800 
 45 H        2.7790    11.9640    -1.2820 H     1 <1>   0.0800 
 46 H        3.1290    10.8210    -2.5560 H     1 <1>   0.0800 
 47 H       -0.7530    10.5130    -0.7760 H     1 <1>   0.0800 
 48 H        0.4640    11.4220     0.0720 H     1 <1>   0.0800 
 49 H        0.6980    11.6330    -2.4100 H     1 <1>   0.0800 
 50 H        0.9370     9.9130    -2.5070 H     1 <1>   0.0800 
@<TRIPOS>BOND
  1   1   2  2   
  2   2   3  am  
  3   2   4  1   
  4   3   5  1   
  5   3  28  1   
  6   4   6  1   
  7   4  29  1   
  8   4  30  1   
  9   5   7  1   
 10   5   8  1   
 11   5  31  1   
 12   6   8  1   
 13   7   9  ar  
 14   7  10  ar  
 15   8  11  1   
 16   8  32  1   
 17   9  12  ar  
 18   9  33  1   
 19  10  13  ar  
 20  10  34  1   
 21  11  14  2   
 22  11  15  am  
 23  12  16  ar  
 24  13  16  ar  
 25  13  35  1   
 26  15  17  1   
 27  15  18  1   
 28  16  36  1   
 29  17  19  1   
 30  17  37  1   
 31  17  38  1   
 32  18  39  1   
 33  18  40  1   
 34  18  41  1   
 35  19  20  2   
 36  19  21  1   
 37  20  22  1   
 38  21  23  2   
 39  21  24  1   
 40  22  23  1   
 41  22  42  1   
 42  23  25  1   
 43  24  26  1   
 44  24  43  1   
 45  24  44  1   
 46  25  27  1   
 47  25  45  1   
 48  25  46  1   
 49  26  27  1   
 50  26  47  1   
 51  26  48  1   
 52  27  49  1   
 53  27  50  1   
@<TRIPOS>SUBSTRUCTURE
  1 ****  11 GROUP 4 **** **** 0

# MOE 2024.06 (io_trps.svl 2023.06)
