@<TRIPOS>MOLECULE
NONAME
45 48 1 0 0 
SMALL
USER_CHARGES


@<TRIPOS>ATOM
  1 S        0.2680    -0.2380     1.9630 S.o2  1 <1>   1.4470 
  2 O       -0.3310     0.7760     2.8020 O.2   1 <1>  -0.6500 
  3 O        0.9130    -1.3750     2.5850 O.2   1 <1>  -0.6500 
  4 N        1.4670     0.5220     1.0360 N.am  1 <1>  -0.8490 
  5 C       -0.9330    -0.7940     0.7210 C.ar  1 <1>  -0.0090 
  6 C        2.2180     1.5230     1.8190 C.3   1 <1>   0.1960 
  7 C        2.3050    -0.4320     0.2980 C.3   1 <1>   0.1960 
  8 C       -1.6480    -1.9550     0.8800 C.ar  1 <1>  -0.1500 
  9 C       -1.1650    -0.0340    -0.4410 C.ar  1 <1>  -0.1500 
 10 C        3.3180     2.2900     1.0460 C.3   1 <1>   0.2200 
 11 C        3.0630     0.1760    -0.9020 C.3   1 <1>  -0.0190 
 12 C       -2.5820    -2.4070    -0.0720 C.ar  1 <1>   0.0000 
 13 C       -2.0630    -0.4430    -1.3870 C.ar  1 <1>  -0.1500 
 14 N        2.8620     2.6050    -0.3470 N.am  1 <1>  -0.6600 
 15 C        4.6820     1.5490     1.1150 C.3   1 <1>   0.1200 
 16 C        2.6530     1.5980    -1.2550 C.2   1 <1>   0.5690 
 17 C        4.5900     0.0570    -0.7550 C.3   1 <1>   0.1200 
 18 C       -2.7930    -1.6370    -1.2330 C.ar  1 <1>   0.0000 
 19 C       -3.3120    -3.6020     0.0890 C.ar  1 <1>  -0.1500 
 20 C        2.5530     4.0270    -0.6480 C.3   1 <1>   0.0600 
 21 O        5.1800     1.1570    -0.1300 O.3   1 <1>  -0.5600 
 22 O        2.1530     1.7920    -2.3390 O.2   1 <1>  -0.5700 
 23 C       -3.7230    -2.0900    -2.1900 C.ar  1 <1>  -0.1500 
 24 C       -4.2090    -4.0190    -0.8550 C.ar  1 <1>  -0.1500 
 25 C       -4.4170    -3.2540    -2.0080 C.ar  1 <1>  -0.1500 
 26 H        1.5190     2.2630     2.1710 H     1 <1>   0.0800 
 27 H        2.6420     1.0580     2.6940 H     1 <1>   0.0800 
 28 H        2.9880    -0.9100     0.9800 H     1 <1>   0.0800 
 29 H        1.6690    -1.2080    -0.0950 H     1 <1>   0.0800 
 30 H       -1.4980    -2.5550     1.7610 H     1 <1>   0.1500 
 31 H       -0.6180     0.8850    -0.5790 H     1 <1>   0.1500 
 32 H        3.4600     3.2170     1.5720 H     1 <1>   0.0800 
 33 H        2.8080    -0.4400    -1.7460 H     1 <1>   0.0800 
 34 H       -2.2250     0.1480    -2.2710 H     1 <1>   0.1500 
 35 H        4.6380     0.6860     1.7550 H     1 <1>   0.0800 
 36 H        5.4100     2.2210     1.5350 H     1 <1>   0.0800 
 37 H        5.0300     0.0040    -1.7360 H     1 <1>   0.0800 
 38 H        4.8700    -0.8320    -0.2180 H     1 <1>   0.0800 
 39 H       -3.1500    -4.1870     0.9770 H     1 <1>   0.1500 
 40 H        3.4280     4.6310    -0.4810 H     1 <1>   0.0800 
 41 H        1.7530     4.3680    -0.0160 H     1 <1>   0.0800 
 42 H        2.2520     4.1390    -1.6760 H     1 <1>   0.0800 
 43 H       -3.8780    -1.4980    -3.0740 H     1 <1>   0.1500 
 44 H       -4.7640    -4.9320    -0.7260 H     1 <1>   0.1500 
 45 H       -5.1260    -3.5960    -2.7420 H     1 <1>   0.1500 
@<TRIPOS>BOND
  1   1   2  2   
  2   1   3  2   
  3   1   4  am  
  4   1   5  1   
  5   4   6  1   
  6   4   7  1   
  7   5   8  ar  
  8   5   9  ar  
  9   6  10  1   
 10   6  26  1   
 11   6  27  1   
 12   7  11  1   
 13   7  28  1   
 14   7  29  1   
 15   8  12  ar  
 16   8  30  1   
 17   9  13  ar  
 18   9  31  1   
 19  10  14  1   
 20  10  15  1   
 21  10  32  1   
 22  11  16  1   
 23  11  17  1   
 24  11  33  1   
 25  12  18  ar  
 26  12  19  ar  
 27  13  18  ar  
 28  13  34  1   
 29  14  16  am  
 30  14  20  1   
 31  15  21  1   
 32  15  35  1   
 33  15  36  1   
 34  16  22  2   
 35  17  21  1   
 36  17  37  1   
 37  17  38  1   
 38  18  23  ar  
 39  19  24  ar  
 40  19  39  1   
 41  20  40  1   
 42  20  41  1   
 43  20  42  1   
 44  23  25  ar  
 45  23  43  1   
 46  24  25  ar  
 47  24  44  1   
 48  25  45  1   
@<TRIPOS>SUBSTRUCTURE
  1 ****   4 GROUP 4 **** **** 0

# MOE 2024.06 (io_trps.svl 2023.06)
