@<TRIPOS>MOLECULE
NONAME
46 49 1 0 0 
SMALL
USER_CHARGES


@<TRIPOS>ATOM
  1 O       -0.3770     0.2300    -0.1710 O.2   1 <1>  -0.5700 
  2 C       -1.3900     0.8500     0.0930 C.2   1 <1>   0.5440 
  3 N       -2.5560     0.1470     0.3000 N.am  1 <1>  -0.6600 
  4 C       -1.3460     2.2980     0.1600 C.ar  1 <1>   0.0860 
  5 C       -3.9210     0.7100     0.1370 C.3   1 <1>   0.1400 
  6 C       -2.5990    -1.3370     0.2460 C.3   1 <1>   0.1400 
  7 C       -0.6760     3.0380    -0.8140 C.ar  1 <1>  -0.1500 
  8 C       -1.9560     3.0160     1.1880 C.ar  1 <1>  -0.1500 
  9 C       -4.7760    -0.4710    -0.3190 C.3   1 <1>   0.2000 
 10 C       -4.0830    -1.7050     0.2520 C.3   1 <1>  -0.0800 
 11 C       -0.6300     4.4180    -0.7740 C.ar  1 <1>  -0.1500 
 12 C       -1.9120     4.3960     1.2290 C.ar  1 <1>  -0.1500 
 13 O       -6.0720    -0.3800     0.1600 O.3   1 <1>  -0.6800 
 14 C       -4.4000    -2.9920    -0.5240 C.3   1 <1>   0.0210 
 15 C       -1.2470     5.1350     0.2520 C.ar  1 <1>   0.0530 
 16 C       -3.6190    -4.1640     0.0340 C.2   1 <1>   0.1080 
 17 C       -1.2060     6.5780     0.3210 C.2   1 <1>   0.1340 
 18 N       -3.7940    -4.6160     1.2370 N.2   1 <1>  -0.7070 
 19 C       -2.6370    -4.8690    -0.6550 C.2   1 <1>  -0.1500 
 20 N       -2.0800     7.3430     0.9130 N.2   1 <1>  -0.3380 
 21 N       -0.2410     7.3350    -0.2150 N.pl3 1 <1>   0.0330 
 22 N       -2.9200    -5.6350     1.3480 N.pl3 1 <1>   0.3000 
 23 C       -2.2070    -5.8060     0.2150 C.2   1 <1>  -0.3320 
 24 N       -1.6880     8.6060     0.7610 N.2   1 <1>  -0.3380 
 25 C       -0.5910     8.5780     0.0880 C.2   1 <1>   0.0360 
 26 C       -1.1400    -6.8700     0.0320 C.3   1 <1>  -0.0600 
 27 H       -4.2650     1.0810     1.0860 H     1 <1>   0.0800 
 28 H       -3.9290     1.4950    -0.5990 H     1 <1>   0.0800 
 29 H       -2.1210    -1.6710    -0.6610 H     1 <1>   0.0800 
 30 H       -2.0860    -1.7650     1.0910 H     1 <1>   0.0800 
 31 H       -0.1860     2.5040    -1.6120 H     1 <1>   0.1500 
 32 H       -2.4660     2.4780     1.9680 H     1 <1>   0.1500 
 33 H       -4.8100    -0.4990    -1.3950 H     1 <1>   0.0800 
 34 H       -4.3700    -1.8370     1.2810 H     1 <1>   0.0800 
 35 H       -0.1120     4.9390    -1.5580 H     1 <1>   0.1500 
 36 H       -2.3980     4.9210     2.0340 H     1 <1>   0.1500 
 37 H       -6.0910    -0.5520     1.1220 H     1 <1>   0.4000 
 38 H       -4.1610    -2.8660    -1.5650 H     1 <1>   0.0800 
 39 H       -5.4500    -3.2090    -0.4460 H     1 <1>   0.0800 
 40 H       -2.3100    -4.6840    -1.6620 H     1 <1>   0.1500 
 41 H        0.5830     7.0140    -0.7240 H     1 <1>   0.2700 
 42 H       -2.8360    -6.1910     2.2070 H     1 <1>   0.2700 
 43 H       -0.0230     9.4460    -0.1960 H     1 <1>   0.1500 
 44 H       -0.7170    -6.8020    -0.9540 H     1 <1>   0.0800 
 45 H       -1.5660    -7.8500     0.1550 H     1 <1>   0.0800 
 46 H       -0.3520    -6.7350     0.7520 H     1 <1>   0.0800 
@<TRIPOS>BOND
  1   1   2  2   
  2   2   3  am  
  3   2   4  1   
  4   3   5  1   
  5   3   6  1   
  6   4   7  ar  
  7   4   8  ar  
  8   5   9  1   
  9   5  27  1   
 10   5  28  1   
 11   6  10  1   
 12   6  29  1   
 13   6  30  1   
 14   7  11  ar  
 15   7  31  1   
 16   8  12  ar  
 17   8  32  1   
 18   9  10  1   
 19   9  13  1   
 20   9  33  1   
 21  10  14  1   
 22  10  34  1   
 23  11  15  ar  
 24  11  35  1   
 25  12  15  ar  
 26  12  36  1   
 27  13  37  1   
 28  14  16  1   
 29  14  38  1   
 30  14  39  1   
 31  15  17  1   
 32  16  18  2   
 33  16  19  1   
 34  17  20  2   
 35  17  21  1   
 36  18  22  1   
 37  19  23  2   
 38  19  40  1   
 39  20  24  1   
 40  21  25  1   
 41  21  41  1   
 42  22  23  1   
 43  22  42  1   
 44  23  26  1   
 45  24  25  2   
 46  25  43  1   
 47  26  44  1   
 48  26  45  1   
 49  26  46  1   
@<TRIPOS>SUBSTRUCTURE
  1 ****   3 GROUP 4 **** **** 0

# MOE 2024.06 (io_trps.svl 2023.06)
