@<TRIPOS>MOLECULE
NONAME
54 57 1 0 0 
SMALL
USER_CHARGES


@<TRIPOS>ATOM
  1 F       -0.8030    -0.4200    -0.8790 F     1 <1>  -0.1900 
  2 C       -1.9990     0.0740    -0.6830 C.ar  1 <1>   0.1900 
  3 C       -2.2080     1.2410     0.0610 C.ar  1 <1>   0.0830 
  4 C       -3.0490    -0.6160    -1.2560 C.ar  1 <1>  -0.1500 
  5 O       -1.2580     2.0070     0.6710 O.3   1 <1>  -0.3630 
  6 C       -3.5120     1.6840     0.2070 C.ar  1 <1>  -0.1500 
  7 C       -4.3390    -0.1450    -1.0910 C.ar  1 <1>  -0.1500 
  8 C        0.1130     1.6750     0.6750 C.3   1 <1>   0.0400 
  9 C       -4.6000     1.0120    -0.3550 C.ar  1 <1>   0.0530 
 10 C       -5.9410     1.5170    -0.1830 C.2   1 <1>   0.0870 
 11 O       -6.1420     2.8100    -0.1670 O.3   1 <1>  -0.0190 
 12 C       -7.1570     0.9220    -0.0330 C.2   1 <1>  -0.0860 
 13 N       -7.3990     3.1300    -0.0270 N.2   1 <1>  -0.4100 
 14 C       -8.0320     2.0130     0.0590 C.2   1 <1>   0.3720 
 15 C       -7.4800    -0.4710     0.0500 C.2   1 <1>   0.7160 
 16 N       -9.4200     1.9480     0.2280 N.pl3 1 <1>  -0.8210 
 17 O       -6.6840    -1.2530     0.5420 O.2   1 <1>  -0.5700 
 18 N       -8.6560    -0.9770    -0.4370 N.am  1 <1>  -0.5100 
 19 C      -10.1660     2.0130    -1.0570 C.3   1 <1>   0.1290 
 20 C       -9.9640     2.9030     1.2310 C.3   1 <1>   0.1290 
 21 C       -9.8570    -1.1150     0.4610 C.3   1 <1>   0.2250 
 22 C       -8.8430    -2.4170    -0.8430 C.3   1 <1>   0.2250 
 23 C       -9.6230    -2.6350     0.4640 C.3   1 <1>   0.0850 
 24 N      -10.8620    -3.4190     0.2890 N.pl3 1 <1>   0.4850 
 25 N      -11.7690    -3.1530    -0.6760 N.2   1 <1>  -0.7070 
 26 C      -11.2570    -4.4750     1.0420 C.2   1 <1>  -0.3320 
 27 C      -12.7040    -4.0330    -0.5150 C.2   1 <1>   0.1080 
 28 C      -12.4410    -4.8900     0.5450 C.2   1 <1>  -0.1500 
 29 C      -10.4830    -5.0540     2.2170 C.3   1 <1>  -0.0600 
 30 C      -13.9260    -4.0890    -1.4010 C.3   1 <1>  -0.0590 
 31 H       -2.8570    -1.5100    -1.8220 H     1 <1>   0.1500 
 32 H       -3.6860     2.5790     0.7770 H     1 <1>   0.1500 
 33 H       -5.1540    -0.6840    -1.5410 H     1 <1>   0.1500 
 34 H        0.6350     2.4210     1.2470 H     1 <1>   0.0800 
 35 H        0.4760     1.6730    -0.3380 H     1 <1>   0.0800 
 36 H        0.2390     0.7100     1.1330 H     1 <1>   0.0800 
 37 H       -9.7410     1.3210    -1.7640 H     1 <1>   0.0800 
 38 H      -10.1110     3.0070    -1.4670 H     1 <1>   0.0800 
 39 H      -11.1970     1.7490    -0.8960 H     1 <1>   0.0800 
 40 H       -9.3640     2.8750     2.1240 H     1 <1>   0.0800 
 41 H      -10.9750     2.6330     1.4840 H     1 <1>   0.0800 
 42 H       -9.9500     3.9050     0.8360 H     1 <1>   0.0800 
 43 H      -10.7500    -0.7880    -0.0430 H     1 <1>   0.0000 
 44 H       -9.6980    -0.6550     1.4200 H     1 <1>   0.0000 
 45 H       -7.9130    -2.9560    -0.8890 H     1 <1>   0.0000 
 46 H       -9.4290    -2.4840    -1.7430 H     1 <1>   0.0000 
 47 H       -9.0090    -2.9720     1.2800 H     1 <1>   0.0000 
 48 H      -13.0660    -5.7010     0.8750 H     1 <1>   0.1500 
 49 H      -10.3530    -4.3090     2.9820 H     1 <1>   0.0800 
 50 H       -9.5170    -5.3990     1.8940 H     1 <1>   0.0800 
 51 H      -11.0180    -5.8860     2.6390 H     1 <1>   0.0800 
 52 H      -13.6230    -4.2590    -2.4180 H     1 <1>   0.0800 
 53 H      -14.4510    -3.1540    -1.3460 H     1 <1>   0.0800 
 54 H      -14.5810    -4.8810    -1.0900 H     1 <1>   0.0800 
@<TRIPOS>BOND
  1   1   2  1   
  2   2   3  ar  
  3   2   4  ar  
  4   3   5  1   
  5   3   6  ar  
  6   4   7  ar  
  7   4  31  1   
  8   5   8  1   
  9   6   9  ar  
 10   6  32  1   
 11   7   9  ar  
 12   7  33  1   
 13   8  34  1   
 14   8  35  1   
 15   8  36  1   
 16   9  10  1   
 17  10  11  1   
 18  10  12  2   
 19  11  13  1   
 20  12  14  1   
 21  12  15  1   
 22  13  14  2   
 23  14  16  1   
 24  15  17  2   
 25  15  18  am  
 26  16  19  1   
 27  16  20  1   
 28  18  21  1   
 29  18  22  1   
 30  19  37  1   
 31  19  38  1   
 32  19  39  1   
 33  20  40  1   
 34  20  41  1   
 35  20  42  1   
 36  21  23  1   
 37  21  43  1   
 38  21  44  1   
 39  22  23  1   
 40  22  45  1   
 41  22  46  1   
 42  23  24  1   
 43  23  47  1   
 44  24  25  1   
 45  24  26  1   
 46  25  27  2   
 47  26  28  2   
 48  26  29  1   
 49  27  28  1   
 50  27  30  1   
 51  28  48  1   
 52  29  49  1   
 53  29  50  1   
 54  29  51  1   
 55  30  52  1   
 56  30  53  1   
 57  30  54  1   
@<TRIPOS>SUBSTRUCTURE
  1 ****  15 GROUP 4 **** **** 0

# MOE 2024.06 (io_trps.svl 2023.06)
