@<TRIPOS>MOLECULE
NONAME
46 49 1 0 0 
SMALL
USER_CHARGES


@<TRIPOS>ATOM
  1 CL      -0.8250    -0.1470     2.7050 Cl    1 <1>  -0.1770 
  2 C       -2.0070     0.8320     1.8770 C.ar  1 <1>   0.1770 
  3 C       -1.6470     1.5090     0.7310 C.ar  1 <1>  -0.1500 
  4 C       -3.2900     0.9180     2.3780 C.ar  1 <1>  -0.1500 
  5 C       -2.5890     2.2860     0.0800 C.ar  1 <1>  -0.1500 
  6 C       -4.2270     1.6980     1.7210 C.ar  1 <1>  -0.1500 
  7 C       -3.8920     2.4020     0.5650 C.ar  1 <1>  -0.1430 
  8 C       -4.8860     3.3010    -0.2180 C.3   1 <1>   0.2040 
  9 C       -4.2720     4.7180    -0.3520 C.2   1 <1>   0.5690 
 10 C       -5.0950     2.6200    -1.6050 C.3   1 <1>  -0.1600 
 11 C       -6.2590     3.4920     0.4950 C.3   1 <1>  -0.1600 
 12 O       -4.4630     5.3750    -1.3490 O.2   1 <1>  -0.5700 
 13 N       -3.5510     5.2110     0.6980 N.am  1 <1>  -0.4940 
 14 C       -6.4750     2.8940    -2.2200 C.3   1 <1>  -0.1600 
 15 C       -7.2580     2.3690     0.1750 C.3   1 <1>  -0.1600 
 16 C       -3.0160     6.4810     0.9370 C.2   1 <1>   0.2510 
 17 C       -7.6050     2.3520    -1.3250 C.3   1 <1>  -0.1600 
 18 N       -2.9120     6.9240     2.1500 N.2   1 <1>  -0.3380 
 19 N       -2.5430     7.3710     0.0350 N.pl3 1 <1>   0.3340 
 20 N       -2.3830     8.1440     2.0900 N.2   1 <1>  -0.3380 
 21 C       -2.1640     8.4100     0.8360 C.2   1 <1>   0.3120 
 22 C       -2.2760     7.4390    -1.3300 C.2   1 <1>  -0.1810 
 23 N       -1.6060     9.5710     0.3470 N.2   1 <1>  -0.5760 
 24 C       -1.7130     8.5740    -1.8130 C.2   1 <1>  -0.1360 
 25 C       -1.4000     9.6390    -0.9220 C.2   1 <1>   0.3750 
 26 C       -0.7920    10.8990    -1.4980 C.3   1 <1>  -0.1790 
 27 H       -0.6430     1.4250     0.3550 H     1 <1>   0.1500 
 28 H       -3.5490     0.3760     3.2700 H     1 <1>   0.1500 
 29 H       -2.2930     2.8040    -0.8170 H     1 <1>   0.1500 
 30 H       -5.2170     1.7290     2.1380 H     1 <1>   0.1500 
 31 H       -4.9990     1.5530    -1.4950 H     1 <1>   0.0800 
 32 H       -4.3270     2.9340    -2.2900 H     1 <1>   0.0800 
 33 H       -6.7030     4.4120     0.1530 H     1 <1>   0.0800 
 34 H       -6.1320     3.6070     1.5560 H     1 <1>   0.0800 
 35 H       -3.5020     4.6000     1.5160 H     1 <1>   0.3700 
 36 H       -6.5410     2.4440    -3.1950 H     1 <1>   0.0800 
 37 H       -6.5970     3.9570    -2.3470 H     1 <1>   0.0800 
 38 H       -8.1600     2.5000     0.7490 H     1 <1>   0.0800 
 39 H       -6.8320     1.4190     0.4480 H     1 <1>   0.0800 
 40 H       -7.8350     1.3390    -1.6110 H     1 <1>   0.0800 
 41 H       -8.4890     2.9420    -1.4980 H     1 <1>   0.0800 
 42 H       -2.5280     6.5900    -1.9360 H     1 <1>   0.1500 
 43 H       -1.4890     8.6990    -2.8570 H     1 <1>   0.1500 
 44 H       -1.4630    11.3330    -2.2170 H     1 <1>   0.0800 
 45 H        0.1430    10.6690    -1.9750 H     1 <1>   0.0800 
 46 H       -0.6140    11.6160    -0.7170 H     1 <1>   0.0800 
@<TRIPOS>BOND
  1   1   2  1   
  2   2   3  ar  
  3   2   4  ar  
  4   3   5  ar  
  5   3  27  1   
  6   4   6  ar  
  7   4  28  1   
  8   5   7  ar  
  9   5  29  1   
 10   6   7  ar  
 11   6  30  1   
 12   7   8  1   
 13   8   9  1   
 14   8  10  1   
 15   8  11  1   
 16   9  12  2   
 17   9  13  am  
 18  10  14  1   
 19  10  31  1   
 20  10  32  1   
 21  11  15  1   
 22  11  33  1   
 23  11  34  1   
 24  13  16  1   
 25  13  35  1   
 26  14  17  1   
 27  14  36  1   
 28  14  37  1   
 29  15  17  1   
 30  15  38  1   
 31  15  39  1   
 32  16  18  2   
 33  16  19  1   
 34  17  40  1   
 35  17  41  1   
 36  18  20  1   
 37  19  21  1   
 38  19  22  1   
 39  20  21  2   
 40  21  23  1   
 41  22  24  2   
 42  22  42  1   
 43  23  25  2   
 44  24  25  1   
 45  24  43  1   
 46  25  26  1   
 47  26  44  1   
 48  26  45  1   
 49  26  46  1   
@<TRIPOS>SUBSTRUCTURE
  1 ****  13 GROUP 4 **** **** 0

# MOE 2024.06 (io_trps.svl 2023.06)
