@<TRIPOS>MOLECULE
NONAME
40 42 1 0 0 
SMALL
USER_CHARGES


@<TRIPOS>ATOM
  1 F        1.5450     1.2370     0.2360 F     1 <1>  -0.1900 
  2 C        1.8840     0.0200    -0.0890 C.ar  1 <1>   0.1900 
  3 C        3.2210    -0.3830     0.0230 C.ar  1 <1>   0.0860 
  4 C        0.8710    -0.8130    -0.5220 C.ar  1 <1>  -0.1500 
  5 C        4.2840     0.4990     0.4680 C.2   1 <1>   0.5440 
  6 C        3.5000    -1.7130    -0.3160 C.ar  1 <1>  -0.1500 
  7 C        1.2090    -2.1080    -0.8520 C.ar  1 <1>   0.1900 
  8 O        5.2480     0.0630     1.0680 O.2   1 <1>  -0.5700 
  9 N        4.3220     1.8370     0.1680 N.am  1 <1>  -0.6600 
 10 C        2.5070    -2.5750    -0.7530 C.ar  1 <1>  -0.1500 
 11 F        0.2770    -2.9180    -1.2670 F     1 <1>  -0.1900 
 12 C        4.7680     2.8130     1.2300 C.3   1 <1>   0.2200 
 13 C        4.3190     2.2620    -1.2590 C.3   1 <1>   0.1400 
 14 C        4.1950     4.2240     1.0230 C.3   1 <1>   0.1200 
 15 C        6.3120     2.8690     1.3360 C.3   1 <1>   0.3430 
 16 C        5.3630     3.3480    -1.5840 C.3   1 <1>  -0.0800 
 17 O        5.0260     4.9710     0.1830 O.3   1 <1>  -0.5600 
 18 N        6.9790     2.2670     0.1340 N.4   1 <1>  -0.9590 
 19 C        4.8740     4.7480    -1.1780 C.3   1 <1>   0.1200 
 20 C        6.8160     3.0680    -1.1260 C.3   1 <1>   0.3430 
 21 C        8.4040     1.9390     0.4150 C.3   1 <1>   0.2630 
 22 H       -0.1450    -0.4700    -0.5980 H     1 <1>   0.1500 
 23 H        4.5110    -2.0770    -0.2300 H     1 <1>   0.1500 
 24 H        2.7290    -3.5960    -1.0130 H     1 <1>   0.1500 
 25 H        4.3860     2.4610     2.1730 H     1 <1>   0.0800 
 26 H        4.5120     1.4010    -1.8780 H     1 <1>   0.0800 
 27 H        3.3340     2.6200    -1.5110 H     1 <1>   0.0800 
 28 H        4.1760     4.7390     1.9680 H     1 <1>   0.0800 
 29 H        3.1910     4.1990     0.6340 H     1 <1>   0.0800 
 30 H        6.5970     2.3090     2.2110 H     1 <1>   0.0800 
 31 H        6.6360     3.8870     1.4790 H     1 <1>   0.0800 
 32 H        5.4030     3.3890    -2.6570 H     1 <1>   0.0800 
 33 H        6.4500     1.3780     0.0230 H     1 <1>   0.4500 
 34 H        3.8410     4.9030    -1.4440 H     1 <1>   0.0800 
 35 H        5.4600     5.4990    -1.6810 H     1 <1>   0.0800 
 36 H        7.3250     4.0120    -1.0120 H     1 <1>   0.0800 
 37 H        7.3110     2.5360    -1.9220 H     1 <1>   0.0800 
 38 H        8.9660     2.8400     0.5990 H     1 <1>   0.0800 
 39 H        8.8400     1.4210    -0.4230 H     1 <1>   0.0800 
 40 H        8.4730     1.3030     1.2830 H     1 <1>   0.0800 
@<TRIPOS>BOND
  1   1   2  1   
  2   2   3  ar  
  3   2   4  ar  
  4   3   5  1   
  5   3   6  ar  
  6   4   7  ar  
  7   4  22  1   
  8   5   8  2   
  9   5   9  am  
 10   6  10  ar  
 11   6  23  1   
 12   7  10  ar  
 13   7  11  1   
 14   9  12  1   
 15   9  13  1   
 16  10  24  1   
 17  12  14  1   
 18  12  15  1   
 19  12  25  1   
 20  13  16  1   
 21  13  26  1   
 22  13  27  1   
 23  14  17  1   
 24  14  28  1   
 25  14  29  1   
 26  15  18  1   
 27  15  30  1   
 28  15  31  1   
 29  16  19  1   
 30  16  20  1   
 31  16  32  1   
 32  17  19  1   
 33  18  20  1   
 34  18  21  1   
 35  18  33  1   
 36  19  34  1   
 37  19  35  1   
 38  20  36  1   
 39  20  37  1   
 40  21  38  1   
 41  21  39  1   
 42  21  40  1   
@<TRIPOS>SUBSTRUCTURE
  1 ****   9 GROUP 4 **** **** 0

# MOE 2024.06 (io_trps.svl 2023.06)
