@<TRIPOS>MOLECULE
Untitled Document
55 57 1 0 0 
SMALL
USER_CHARGES


@<TRIPOS>ATOM
  1 O        1.3550     0.8180     2.0730 O.2   1 <1>  -0.5700 
  2 C        1.7790     1.1020     0.9800 C.2   1 <1>   0.4950 
  3 C        1.1490     2.1360     0.2000 C.2   1 <1>  -0.1240 
  4 C        3.0370     0.3580     0.4540 C.3   1 <1>   0.3410 
  5 C        0.2220     2.0350    -0.7780 C.2   1 <1>  -0.1900 
  6 C        1.6230     3.5260     0.6110 C.3   1 <1>  -0.1020 
  7 O        3.9760     0.2200     1.4790 O.3   1 <1>  -0.6800 
  8 C        2.6740    -1.0340    -0.0660 C.3   1 <1>  -0.0800 
  9 C        3.8020     1.0000    -0.7280 C.3   1 <1>  -0.1600 
 10 C       -0.5380     0.8850    -1.4440 C.3   1 <1>  -0.0600 
 11 C        2.0980    -2.0360     0.9720 C.3   1 <1>   0.3380 
 12 C        3.8570    -1.4560    -0.9470 C.3   1 <1>   0.2000 
 13 C        4.2410    -0.1470    -1.6630 C.3   1 <1>  -0.0800 
 14 C       -1.9540     0.7710    -0.9560 C.3   1 <1>  -0.1900 
 15 C       -1.1570    -0.4710    -1.1370 C.3   1 <1>  -0.1950 
 16 O        3.1200    -2.5930     1.7080 O.3   1 <1>  -0.6800 
 17 C        1.2290    -3.1360     0.3410 C.2   1 <1>  -0.2760 
 18 O        4.9140    -1.8800    -0.1590 O.3   1 <1>  -0.6800 
 19 C        5.7050    -0.0230    -2.1160 C.3   1 <1>  -0.2400 
 20 C       -3.0780     1.0800    -1.9510 C.3   1 <1>  -0.1450 
 21 C       -2.3320     1.2170     0.4660 C.3   1 <1>  -0.1450 
 22 C       -0.7270    -1.4070     0.0010 C.3   1 <1>  -0.0650 
 23 C        1.4340    -4.4490     0.5500 C.2   1 <1>  -0.3000 
 24 C        0.1140    -2.5800    -0.5630 C.3   1 <1>   0.3380 
 25 O       -0.7530    -3.6000    -0.8880 O.3   1 <1>  -0.6800 
 26 H       -0.1270     2.9440    -1.2380 H     1 <1>   0.1500 
 27 H        2.6880     3.6120     0.4880 H     1 <1>   0.0800 
 28 H        1.3850     3.6970     1.6470 H     1 <1>   0.0800 
 29 H        1.1520     4.2970     0.0280 H     1 <1>   0.0800 
 30 H        3.5270    -0.1810     2.2570 H     1 <1>   0.4000 
 31 H        1.8920    -0.8180    -0.7620 H     1 <1>   0.0800 
 32 H        3.1720     1.6590    -1.2950 H     1 <1>   0.0800 
 33 H        4.6400     1.5750    -0.3700 H     1 <1>   0.0800 
 34 H       -0.3680     0.9770    -2.5040 H     1 <1>   0.1000 
 35 H        1.4900    -1.5270     1.6950 H     1 <1>   0.0800 
 36 H        3.6070    -2.2480    -1.6340 H     1 <1>   0.0800 
 37 H        3.6250    -0.0930    -2.5460 H     1 <1>   0.0800 
 38 H       -1.4640    -1.0600    -1.9860 H     1 <1>   0.1000 
 39 H        3.8730    -2.7560     1.0910 H     1 <1>   0.4000 
 40 H        5.1270    -1.1510     0.4710 H     1 <1>   0.4000 
 41 H        6.3700     0.0020    -1.2710 H     1 <1>   0.0800 
 42 H        5.8440     0.8790    -2.6850 H     1 <1>   0.0800 
 43 H        5.9720    -0.8630    -2.7340 H     1 <1>   0.0800 
 44 H       -3.9780     0.5680    -1.6600 H     1 <1>   0.0800 
 45 H       -2.8130     0.7610    -2.9440 H     1 <1>   0.0800 
 46 H       -3.2730     2.1370    -1.9740 H     1 <1>   0.0800 
 47 H       -3.1970     0.6760     0.8040 H     1 <1>   0.0800 
 48 H       -2.5570     2.2680     0.4770 H     1 <1>   0.0800 
 49 H       -1.5310     1.0430     1.1630 H     1 <1>   0.0800 
 50 H       -1.5990    -1.8010     0.4920 H     1 <1>   0.0800 
 51 H       -0.2030    -0.8260     0.7260 H     1 <1>   0.0800 
 52 H        2.2080    -4.8480     1.1840 H     1 <1>   0.1500 
 53 H        0.8610    -5.2460     0.1090 H     1 <1>   0.1500 
 54 H        0.5580    -2.2740    -1.4950 H     1 <1>   0.0800 
 55 H       -0.9260    -4.1120    -0.0760 H     1 <1>   0.4000 
@<TRIPOS>BOND
  1   1   2  2   
  2   2   3  1   
  3   2   4  1   
  4   3   5  2   
  5   3   6  1   
  6   4   7  1   
  7   4   8  1   
  8   4   9  1   
  9   5  10  1   
 10   5  26  1   
 11   6  27  1   
 12   6  28  1   
 13   6  29  1   
 14   7  30  1   
 15   8  11  1   
 16   8  12  1   
 17   8  31  1   
 18   9  13  1   
 19   9  32  1   
 20   9  33  1   
 21  10  14  1   
 22  10  15  1   
 23  10  34  1   
 24  11  16  1   
 25  11  17  1   
 26  11  35  1   
 27  12  13  1   
 28  12  18  1   
 29  12  36  1   
 30  13  19  1   
 31  13  37  1   
 32  14  15  1   
 33  14  20  1   
 34  14  21  1   
 35  15  22  1   
 36  15  38  1   
 37  16  39  1   
 38  17  23  2   
 39  17  24  1   
 40  18  40  1   
 41  19  41  1   
 42  19  42  1   
 43  19  43  1   
 44  20  44  1   
 45  20  45  1   
 46  20  46  1   
 47  21  47  1   
 48  21  48  1   
 49  21  49  1   
 50  22  24  1   
 51  22  50  1   
 52  22  51  1   
 53  23  52  1   
 54  23  53  1   
 55  24  25  1   
 56  24  54  1   
 57  25  55  1   
@<TRIPOS>SUBSTRUCTURE
  1 ****   8 GROUP 4 **** **** 0

# MOE 2024.06 (io_trps.svl 2023.06)
