@<TRIPOS>MOLECULE
NONAME
42 44 1 0 0 
SMALL
USER_CHARGES


@<TRIPOS>ATOM
  1 CL       2.8360     4.8310     1.8340 Cl    1 <1>  -0.1770 
  2 C        1.6230     3.6950     1.2860 C.ar  1 <1>   0.1770 
  3 C        1.9690     2.6140     0.4840 C.ar  1 <1>  -0.1440 
  4 C        0.3170     3.9160     1.6810 C.ar  1 <1>  -0.1500 
  5 C        0.9570     1.7500     0.0800 C.ar  1 <1>  -0.1500 
  6 C        3.4130     2.3850     0.0450 C.3   1 <1>   0.3640 
  7 C       -0.6780     3.0460     1.2720 C.ar  1 <1>  -0.1500 
  8 C       -0.3550     1.9640     0.4720 C.ar  1 <1>  -0.1500 
  9 N        3.7470     0.9500     0.2260 N.am  1 <1>  -0.7300 
 10 C        3.6460     2.8330    -1.4200 C.3   1 <1>   0.2610 
 11 C        4.4460     0.2260    -0.6760 C.2   1 <1>   0.5690 
 12 O        4.8700     2.3050    -1.9140 O.3   1 <1>  -0.5600 
 13 C        3.6400     4.3600    -1.5010 C.2   1 <1>   0.5690 
 14 O        4.6870    -0.9370    -0.4750 O.2   1 <1>  -0.5700 
 15 C        4.9050     0.8940    -1.9770 C.3   1 <1>   0.1810 
 16 O        2.5920     4.9420    -1.6410 O.2   1 <1>  -0.5700 
 17 N        4.8120     5.0370    -1.4080 N.am  1 <1>  -0.7300 
 18 C        4.9340     6.5170    -1.3570 C.3   1 <1>   0.3200 
 19 C        5.9620     6.9550    -0.3250 C.2   1 <1>   0.2980 
 20 O        5.6960     6.7650     0.9430 O.3   1 <1>  -0.0190 
 21 N        7.0880     7.4970    -0.5740 N.2   1 <1>  -0.5650 
 22 N        6.7440     7.2280     1.5530 N.2   1 <1>  -0.4100 
 23 C        7.5470     7.6520     0.6590 C.2   1 <1>   0.3350 
 24 C        8.9110     8.2850     0.8950 C.3   1 <1>   0.0210 
 25 C        9.3010     8.4000     2.3770 C.3   1 <1>  -0.2400 
 26 H        0.0840     4.7640     2.3000 H     1 <1>   0.1500 
 27 H        1.1790     0.9010    -0.5450 H     1 <1>   0.1500 
 28 H        4.0810     2.9460     0.6740 H     1 <1>   0.0800 
 29 H       -1.6980     3.2100     1.5740 H     1 <1>   0.1500 
 30 H       -1.1280     1.2860     0.1520 H     1 <1>   0.1500 
 31 H        3.4540     0.5040     1.0970 H     1 <1>   0.3700 
 32 H        2.8510     2.4660    -2.0430 H     1 <1>   0.0800 
 33 H        4.2740     0.5740    -2.7860 H     1 <1>   0.0800 
 34 H        5.9170     0.6000    -2.1900 H     1 <1>   0.0800 
 35 H        5.6900     4.5080    -1.4090 H     1 <1>   0.3700 
 36 H        5.2340     6.8770    -2.3250 H     1 <1>   0.0800 
 37 H        3.9830     6.9580    -1.1130 H     1 <1>   0.0800 
 38 H        9.6480     7.6950     0.3810 H     1 <1>   0.0800 
 39 H        8.9070     9.2650     0.4530 H     1 <1>   0.0800 
 40 H        9.3270     7.4250     2.8310 H     1 <1>   0.0800 
 41 H        8.5830     9.0050     2.9030 H     1 <1>   0.0800 
 42 H       10.2710     8.8530     2.4720 H     1 <1>   0.0800 
@<TRIPOS>BOND
  1   1   2  1   
  2   2   3  ar  
  3   2   4  ar  
  4   3   5  ar  
  5   3   6  1   
  6   4   7  ar  
  7   4  26  1   
  8   5   8  ar  
  9   5  27  1   
 10   6   9  1   
 11   6  10  1   
 12   6  28  1   
 13   7   8  ar  
 14   7  29  1   
 15   8  30  1   
 16   9  11  am  
 17   9  31  1   
 18  10  12  1   
 19  10  13  1   
 20  10  32  1   
 21  11  14  2   
 22  11  15  1   
 23  12  15  1   
 24  13  16  2   
 25  13  17  am  
 26  15  33  1   
 27  15  34  1   
 28  17  18  1   
 29  17  35  1   
 30  18  19  1   
 31  18  36  1   
 32  18  37  1   
 33  19  20  1   
 34  19  21  2   
 35  20  22  1   
 36  21  23  1   
 37  22  23  2   
 38  23  24  1   
 39  24  25  1   
 40  24  38  1   
 41  24  39  1   
 42  25  40  1   
 43  25  41  1   
 44  25  42  1   
@<TRIPOS>SUBSTRUCTURE
  1 ****  13 GROUP 4 **** **** 0

# MOE 2024.06 (io_trps.svl 2023.06)
