@<TRIPOS>MOLECULE
NONAME
49 51 1 0 0 
SMALL
USER_CHARGES


@<TRIPOS>ATOM
  1 O       -0.0900    -0.2150    -0.1990 O.3   1 <1>  -0.5600 
  2 C        0.8540     0.5730    -0.8710 C.3   1 <1>   0.1200 
  3 C        0.1980    -1.5870    -0.1440 C.3   1 <1>   0.1200 
  4 C        2.2540     0.4090    -0.2370 C.3   1 <1>   0.4230 
  5 C        1.5710    -1.8350     0.5280 C.3   1 <1>   0.4230 
  6 N        2.6450    -1.0490    -0.1560 N.4   1 <1>  -0.9590 
  7 C        3.3260     1.2450    -0.9830 C.3   1 <1>   0.1100 
  8 C        1.9480    -3.3240     0.5930 C.3   1 <1>  -0.1600 
  9 C        3.0950    -1.5610    -1.4990 C.3   1 <1>   0.3430 
 10 N        4.5570     0.4570    -1.2230 N.3   1 <1>  -0.8100 
 11 C        1.0690    -4.1110     1.5780 C.3   1 <1>  -0.1600 
 12 C        4.2840    -0.7350    -2.0500 C.3   1 <1>   0.1100 
 13 C        5.7100     1.2610    -1.7050 C.3   1 <1>   0.2530 
 14 C        1.5290    -5.5680     1.6750 C.3   1 <1>  -0.2400 
 15 C        6.0460     2.4430    -0.7900 C.ar  1 <1>   0.1670 
 16 N        6.3380     2.1710     0.4760 N.ar  1 <1>  -0.6200 
 17 C        6.0280     3.7270    -1.3160 C.ar  1 <1>  -0.1500 
 18 C        6.6290     3.2060     1.2450 C.ar  1 <1>   0.1670 
 19 C        6.3270     4.8000    -0.5050 C.ar  1 <1>  -0.1500 
 20 C        6.6350     4.5210     0.8080 C.ar  1 <1>  -0.1500 
 21 C        6.9730     2.8820     2.6840 C.3   1 <1>  -0.0970 
 22 H        0.8590     0.2930    -1.9090 H     1 <1>   0.0800 
 23 H        0.5320     1.5970    -0.7940 H     1 <1>   0.0800 
 24 H       -0.5860    -2.0510     0.4270 H     1 <1>   0.0800 
 25 H        0.1730    -1.9860    -1.1420 H     1 <1>   0.0800 
 26 H        2.1910     0.8010     0.7650 H     1 <1>   0.0800 
 27 H        1.4910    -1.4800     1.5430 H     1 <1>   0.0800 
 28 H        3.5030    -1.0340     0.4150 H     1 <1>   0.4500 
 29 H        3.5510     2.1050    -0.3740 H     1 <1>   0.0800 
 30 H        2.9410     1.6070    -1.9210 H     1 <1>   0.0800 
 31 H        1.8600    -3.7740    -0.3800 H     1 <1>   0.0800 
 32 H        2.9700    -3.4090     0.9200 H     1 <1>   0.0800 
 33 H        3.4010    -2.5910    -1.4220 H     1 <1>   0.0800 
 34 H        2.2780    -1.5140    -2.1990 H     1 <1>   0.0800 
 35 H        1.1220    -3.6640     2.5570 H     1 <1>   0.0800 
 36 H        0.0390    -4.0990     1.2610 H     1 <1>   0.0800 
 37 H        4.0750    -0.4430    -3.0650 H     1 <1>   0.0800 
 38 H        5.1620    -1.3590    -2.0650 H     1 <1>   0.0800 
 39 H        6.5800     0.6280    -1.7500 H     1 <1>   0.0800 
 40 H        5.5090     1.6180    -2.6990 H     1 <1>   0.0800 
 41 H        2.5460    -5.6250     2.0240 H     1 <1>   0.0800 
 42 H        1.4630    -6.0540     0.7170 H     1 <1>   0.0800 
 43 H        0.9050    -6.1040     2.3690 H     1 <1>   0.0800 
 44 H        5.7870     3.8940    -2.3490 H     1 <1>   0.1500 
 45 H        6.3230     5.8100    -0.8790 H     1 <1>   0.1500 
 46 H        6.8800     5.3200     1.4840 H     1 <1>   0.1500 
 47 H        7.2100     3.7720     3.2370 H     1 <1>   0.0800 
 48 H        7.8210     2.2230     2.7080 H     1 <1>   0.0800 
 49 H        6.1400     2.3920     3.1510 H     1 <1>   0.0800 
@<TRIPOS>BOND
  1   1   2  1   
  2   1   3  1   
  3   2   4  1   
  4   2  22  1   
  5   2  23  1   
  6   3   5  1   
  7   3  24  1   
  8   3  25  1   
  9   4   6  1   
 10   4   7  1   
 11   4  26  1   
 12   5   6  1   
 13   5   8  1   
 14   5  27  1   
 15   6   9  1   
 16   6  28  1   
 17   7  10  1   
 18   7  29  1   
 19   7  30  1   
 20   8  11  1   
 21   8  31  1   
 22   8  32  1   
 23   9  12  1   
 24   9  33  1   
 25   9  34  1   
 26  10  12  1   
 27  10  13  1   
 28  11  14  1   
 29  11  35  1   
 30  11  36  1   
 31  12  37  1   
 32  12  38  1   
 33  13  15  1   
 34  13  39  1   
 35  13  40  1   
 36  14  41  1   
 37  14  42  1   
 38  14  43  1   
 39  15  16  ar  
 40  15  17  ar  
 41  16  18  ar  
 42  17  19  ar  
 43  17  44  1   
 44  18  20  ar  
 45  18  21  1   
 46  19  20  ar  
 47  19  45  1   
 48  20  46  1   
 49  21  47  1   
 50  21  48  1   
 51  21  49  1   
@<TRIPOS>SUBSTRUCTURE
  1 ****   7 GROUP 4 **** **** 0

# MOE 2024.06 (io_trps.svl 2023.06)
