@<TRIPOS>MOLECULE
Untitled Document
34 36 1 0 0 
SMALL
USER_CHARGES


@<TRIPOS>ATOM
  1 F       -0.2590    -2.0560     2.6540 F     1 <1>  -0.1500 
  2 C       -0.1690    -2.7980     1.5690 C.2   1 <1>   0.1640 
  3 C        1.1380    -3.1300     1.0870 C.2   1 <1>   0.6160 
  4 C       -1.2930    -3.2100     0.9540 C.2   1 <1>  -0.0410 
  5 O        2.1450    -2.6510     1.5830 O.2   1 <1>  -0.5700 
  6 N        1.2060    -3.9880    -0.0050 N.am  1 <1>  -0.4200 
  7 N       -1.1860    -3.9840    -0.1990 N.am  1 <1>  -0.4690 
  8 C        0.0580    -4.3600    -0.6840 C.2   1 <1>   0.6900 
  9 C        2.4630    -4.6690    -0.3850 C.3   1 <1>   0.5000 
 10 C       -2.3810    -4.4540    -0.9420 C.3   1 <1>   0.5000 
 11 O        0.1320    -5.0160    -1.7090 O.2   1 <1>  -0.5700 
 12 O        2.9560    -5.3510     0.7250 O.3   1 <1>  -0.5600 
 13 C        3.5720    -3.7460    -0.8900 C.3   1 <1>  -0.1600 
 14 O       -3.4110    -3.5320    -0.7390 O.3   1 <1>  -0.5600 
 15 C       -2.8840    -5.7930    -0.4040 C.3   1 <1>  -0.1600 
 16 C        4.2300    -4.9060     1.0730 C.3   1 <1>   0.1200 
 17 C        4.8080    -4.2670    -0.1800 C.3   1 <1>  -0.1600 
 18 C       -4.5740    -4.1520    -0.2920 C.3   1 <1>   0.1200 
 19 C       -4.1140    -5.4230     0.4020 C.3   1 <1>  -0.1600 
 20 H       -2.2750    -2.9570     1.3170 H     1 <1>   0.1500 
 21 H        2.2810    -5.4240    -1.1310 H     1 <1>   0.0800 
 22 H       -2.1810    -4.5050    -2.0000 H     1 <1>   0.0800 
 23 H        3.3830    -2.7240    -0.6150 H     1 <1>   0.0800 
 24 H        3.6690    -3.8080    -1.9590 H     1 <1>   0.0800 
 25 H       -2.1420    -6.3120     0.1760 H     1 <1>   0.0800 
 26 H       -3.1630    -6.4100    -1.2390 H     1 <1>   0.0800 
 27 H        4.8140    -5.7410     1.4200 H     1 <1>   0.0800 
 28 H        4.1240    -4.1810     1.8620 H     1 <1>   0.0800 
 29 H        5.5110    -3.4880     0.0550 H     1 <1>   0.0800 
 30 H        5.2950    -5.0230    -0.7720 H     1 <1>   0.0800 
 31 H       -5.1810    -4.3780    -1.1530 H     1 <1>   0.0800 
 32 H       -5.1010    -3.4850     0.3690 H     1 <1>   0.0800 
 33 H       -3.8460    -5.1980     1.4190 H     1 <1>   0.0800 
 34 H       -4.8690    -6.1890     0.3900 H     1 <1>   0.0800 
@<TRIPOS>BOND
  1   1   2  1   
  2   2   3  1   
  3   2   4  2   
  4   3   5  2   
  5   3   6  am  
  6   4   7  1   
  7   4  20  1   
  8   6   8  am  
  9   6   9  1   
 10   7   8  am  
 11   7  10  1   
 12   8  11  2   
 13   9  12  1   
 14   9  13  1   
 15   9  21  1   
 16  10  14  1   
 17  10  15  1   
 18  10  22  1   
 19  12  16  1   
 20  13  17  1   
 21  13  23  1   
 22  13  24  1   
 23  14  18  1   
 24  15  19  1   
 25  15  25  1   
 26  15  26  1   
 27  16  17  1   
 28  16  27  1   
 29  16  28  1   
 30  17  29  1   
 31  17  30  1   
 32  18  19  1   
 33  18  31  1   
 34  18  32  1   
 35  19  33  1   
 36  19  34  1   
@<TRIPOS>SUBSTRUCTURE
  1 ****   8 GROUP 4 **** **** 0

# MOE 2024.06 (io_trps.svl 2023.06)
