@<TRIPOS>MOLECULE
NONAME
42 43 1 0 0 
SMALL
USER_CHARGES


@<TRIPOS>ATOM
  1 S       -0.3180     0.6400     1.3550 S.o2  1 <1>   1.4470 
  2 O        0.5090     0.0700     2.3980 O.2   1 <1>  -0.6500 
  3 O       -1.0810     1.8310     1.6610 O.2   1 <1>  -0.6500 
  4 N       -1.4210    -0.5530     0.8870 N.am  1 <1>  -0.8490 
  5 C        0.6870     0.9590    -0.1280 C.ar  1 <1>  -0.0090 
  6 C       -0.7800    -1.8620     0.6820 C.3   1 <1>   0.1960 
  7 C       -2.5590    -0.6670     1.8070 C.3   1 <1>   0.1960 
  8 C        0.1640     0.8120    -1.4130 C.ar  1 <1>  -0.1500 
  9 C        2.0070     1.3940     0.0040 C.ar  1 <1>  -0.1500 
 10 C       -1.7030    -2.8670    -0.0570 C.3   1 <1>  -0.1060 
 11 C       -3.5160    -1.8010     1.4030 C.3   1 <1>  -0.1600 
 12 C        0.9450     1.1120    -2.5140 C.ar  1 <1>   0.1900 
 13 C        2.7980     1.6830    -1.1000 C.ar  1 <1>  -0.1500 
 14 C       -1.3730    -2.9350    -1.5510 C.2   1 <1>   0.9060 
 15 C       -3.1620    -2.3510     0.0230 C.3   1 <1>   0.2000 
 16 C       -1.5280    -4.2770     0.5920 C.3   1 <1>  -0.1600 
 17 F        0.4270     1.0070    -3.7110 F     1 <1>  -0.1900 
 18 C        2.2510     1.5400    -2.3600 C.ar  1 <1>   0.1900 
 19 O       -0.3550    -2.3910    -1.9960 O.co2 1 <1>  -0.9000 
 20 O       -2.1540    -3.5530    -2.2910 O.co2 1 <1>  -0.9000 
 21 O       -4.0530    -3.3460    -0.3230 O.3   1 <1>  -0.6800 
 22 C       -0.0940    -4.8330     0.5150 C.3   1 <1>  -0.1600 
 23 F        2.9880     1.8270    -3.4020 F     1 <1>  -0.1900 
 24 C       -0.0120    -6.2240     1.1490 C.3   1 <1>  -0.2400 
 25 H        0.1510    -1.7450     0.1550 H     1 <1>   0.0800 
 26 H       -0.5280    -2.2570     1.6510 H     1 <1>   0.0800 
 27 H       -2.2020    -0.8350     2.8100 H     1 <1>   0.0800 
 28 H       -3.1010     0.2650     1.8000 H     1 <1>   0.0800 
 29 H       -0.8420     0.4570    -1.5630 H     1 <1>   0.1500 
 30 H        2.4220     1.5060     0.9920 H     1 <1>   0.1500 
 31 H       -4.5230    -1.4270     1.3930 H     1 <1>   0.0800 
 32 H       -3.4590    -2.5890     2.1310 H     1 <1>   0.0800 
 33 H        3.8160     2.0130    -0.9870 H     1 <1>   0.1500 
 34 H       -3.2890    -1.5610    -0.7000 H     1 <1>   0.0800 
 35 H       -1.8410    -4.2430     1.6200 H     1 <1>   0.0800 
 36 H       -2.1730    -4.9760     0.0860 H     1 <1>   0.0800 
 37 H       -3.7040    -3.7070    -1.1840 H     1 <1>   0.4000 
 38 H        0.2100    -4.9000    -0.5170 H     1 <1>   0.0800 
 39 H        0.5960    -4.1800     1.0190 H     1 <1>   0.0800 
 40 H       -0.6700    -6.9050     0.6360 H     1 <1>   0.0800 
 41 H       -0.2940    -6.1830     2.1860 H     1 <1>   0.0800 
 42 H        0.9930    -6.6000     1.0780 H     1 <1>   0.0800 
@<TRIPOS>BOND
  1   1   2  2   
  2   1   3  2   
  3   1   4  am  
  4   1   5  1   
  5   4   6  1   
  6   4   7  1   
  7   5   8  ar  
  8   5   9  ar  
  9   6  10  1   
 10   6  25  1   
 11   6  26  1   
 12   7  11  1   
 13   7  27  1   
 14   7  28  1   
 15   8  12  ar  
 16   8  29  1   
 17   9  13  ar  
 18   9  30  1   
 19  10  14  1   
 20  10  15  1   
 21  10  16  1   
 22  11  15  1   
 23  11  31  1   
 24  11  32  1   
 25  12  17  1   
 26  12  18  ar  
 27  13  18  ar  
 28  13  33  1   
 29  14  19  ar  
 30  14  20  ar  
 31  15  21  1   
 32  15  34  1   
 33  16  22  1   
 34  16  35  1   
 35  16  36  1   
 36  18  23  1   
 37  21  37  1   
 38  22  24  1   
 39  22  38  1   
 40  22  39  1   
 41  24  40  1   
 42  24  41  1   
 43  24  42  1   
@<TRIPOS>SUBSTRUCTURE
  1 ****   6 GROUP 4 **** **** 0

# MOE 2024.06 (io_trps.svl 2023.06)
