@<TRIPOS>MOLECULE
NONAME
65 69 1 0 0 
SMALL
USER_CHARGES


@<TRIPOS>ATOM
  1 O        0.1090     2.4450    -0.7540 O.2   1 <1>  -0.5700 
  2 C        1.2510     2.8600    -0.6460 C.2   1 <1>   0.5440 
  3 N        1.6130     3.9820    -1.3490 N.am  1 <1>  -0.6600 
  4 C        2.2050     2.1970     0.2100 C.ar  1 <1>   0.0860 
  5 C        2.8850     4.6320    -1.0290 C.3   1 <1>   0.7690 
  6 C        0.5730     4.9450    -1.8230 C.3   1 <1>   0.1400 
  7 C        3.5460     2.5960     0.1390 C.ar  1 <1>   0.1000 
  8 C        1.8570     1.1740     1.0930 C.ar  1 <1>  -0.1500 
  9 N        3.9290     3.6090    -0.7380 N.pl3 1 <1>  -0.8380 
 10 C        2.6110     5.6380     0.0870 C.2   1 <1>  -0.3320 
 11 C        0.2110     5.9460    -0.7060 C.3   1 <1>   0.0210 
 12 C        4.4970     1.9520     0.9240 C.ar  1 <1>  -0.1500 
 13 C        2.8080     0.5520     1.8780 C.ar  1 <1>  -0.1500 
 14 C        4.5320     3.0700    -1.9930 C.3   1 <1>   0.1290 
 15 N        3.4270     6.0810     1.1050 N.pl3 1 <1>   0.0480 
 16 C        1.4140     6.2670     0.1720 C.2   1 <1>  -0.1810 
 17 C        4.1350     0.9410     1.7910 C.ar  1 <1>  -0.1500 
 18 C        2.7450     7.0750     1.7770 C.ar  1 <1>  -0.1520 
 19 C        4.7580     5.5950     1.5270 C.3   1 <1>   0.1570 
 20 C        1.4760     7.2020     1.2220 C.ar  1 <1>   0.0000 
 21 C        3.1370     7.9030     2.8360 C.ar  1 <1>  -0.1500 
 22 C        5.8010     6.2870     0.6870 C.2   1 <1>   0.5690 
 23 C        0.5800     8.1470     1.7290 C.ar  1 <1>  -0.1500 
 24 C        2.2500     8.8360     3.3210 C.ar  1 <1>  -0.1500 
 25 O        6.3900     7.2370     1.1440 O.2   1 <1>  -0.5700 
 26 N        5.9810     5.8730    -0.5950 N.am  1 <1>  -0.7300 
 27 C        0.9700     8.9580     2.7690 C.ar  1 <1>  -0.1500 
 28 C        6.9610     6.3730    -1.5930 C.3   1 <1>   0.1400 
 29 C        6.9730     7.9050    -1.7510 C.3   1 <1>  -0.1600 
 30 C        5.5850     8.5540    -1.8400 C.3   1 <1>   0.3430 
 31 N        5.2000     9.1500    -0.5320 N.4   1 <1>  -0.9590 
 32 C        3.7180     9.2210    -0.3590 C.3   1 <1>   0.2630 
 33 C        5.8360    10.4770    -0.2860 C.3   1 <1>   0.2630 
 34 H        3.2000     5.1890    -1.8940 H     1 <1>   0.0800 
 35 H       -0.3100     4.4170    -2.1420 H     1 <1>   0.0800 
 36 H        0.9590     5.4800    -2.6730 H     1 <1>   0.0800 
 37 H        0.8260     0.8700     1.1550 H     1 <1>   0.1500 
 38 H       -0.5510     5.5040    -0.0870 H     1 <1>   0.0800 
 39 H       -0.1950     6.8430    -1.1360 H     1 <1>   0.0800 
 40 H        5.5270     2.2480     0.8510 H     1 <1>   0.1500 
 41 H        2.5200    -0.2340     2.5550 H     1 <1>   0.1500 
 42 H        4.9510     3.8630    -2.5880 H     1 <1>   0.0800 
 43 H        3.7800     2.5580    -2.5710 H     1 <1>   0.0800 
 44 H        5.3130     2.3670    -1.7550 H     1 <1>   0.0800 
 45 H        4.8770     0.4520     2.3980 H     1 <1>   0.1500 
 46 H        4.8210     4.5350     1.4160 H     1 <1>   0.0800 
 47 H        4.9150     5.8260     2.5620 H     1 <1>   0.0800 
 48 H        4.1170     7.8120     3.2700 H     1 <1>   0.1500 
 49 H       -0.4030     8.2250     1.3010 H     1 <1>   0.1500 
 50 H        2.5290     9.4790     4.1390 H     1 <1>   0.1500 
 51 H        5.5130     4.9820    -0.8360 H     1 <1>   0.3700 
 52 H        0.2920     9.6890     3.1730 H     1 <1>   0.1500 
 53 H        6.7250     5.9290    -2.5450 H     1 <1>   0.0800 
 54 H        7.9460     6.0350    -1.3140 H     1 <1>   0.0800 
 55 H        7.4960     8.1190    -2.6660 H     1 <1>   0.0800 
 56 H        7.5580     8.3420    -0.9610 H     1 <1>   0.0800 
 57 H        4.8670     7.8020    -2.1250 H     1 <1>   0.0800 
 58 H        5.5860     9.3220    -2.5960 H     1 <1>   0.0800 
 59 H        5.5720     8.4990     0.1960 H     1 <1>   0.4500 
 60 H        3.2880     9.9150    -1.0620 H     1 <1>   0.0800 
 61 H        3.4720     9.5420     0.6410 H     1 <1>   0.0800 
 62 H        3.2770     8.2500    -0.5150 H     1 <1>   0.0800 
 63 H        5.5030    11.1950    -1.0170 H     1 <1>   0.0800 
 64 H        6.9090    10.3930    -0.3440 H     1 <1>   0.0800 
 65 H        5.5760    10.8360     0.6970 H     1 <1>   0.0800 
@<TRIPOS>BOND
  1   1   2  2   
  2   2   3  am  
  3   2   4  1   
  4   3   5  1   
  5   3   6  1   
  6   4   7  ar  
  7   4   8  ar  
  8   5   9  1   
  9   5  10  1   
 10   5  34  1   
 11   6  11  1   
 12   6  35  1   
 13   6  36  1   
 14   7   9  1   
 15   7  12  ar  
 16   8  13  ar  
 17   8  37  1   
 18   9  14  1   
 19  10  15  1   
 20  10  16  2   
 21  11  16  1   
 22  11  38  1   
 23  11  39  1   
 24  12  17  ar  
 25  12  40  1   
 26  13  17  ar  
 27  13  41  1   
 28  14  42  1   
 29  14  43  1   
 30  14  44  1   
 31  15  18  1   
 32  15  19  1   
 33  16  20  1   
 34  17  45  1   
 35  18  20  ar  
 36  18  21  ar  
 37  19  22  1   
 38  19  46  1   
 39  19  47  1   
 40  20  23  ar  
 41  21  24  ar  
 42  21  48  1   
 43  22  25  2   
 44  22  26  am  
 45  23  27  ar  
 46  23  49  1   
 47  24  27  ar  
 48  24  50  1   
 49  26  28  1   
 50  26  51  1   
 51  27  52  1   
 52  28  29  1   
 53  28  53  1   
 54  28  54  1   
 55  29  30  1   
 56  29  55  1   
 57  29  56  1   
 58  30  31  1   
 59  30  57  1   
 60  30  58  1   
 61  31  32  1   
 62  31  33  1   
 63  31  59  1   
 64  32  60  1   
 65  32  61  1   
 66  32  62  1   
 67  33  63  1   
 68  33  64  1   
 69  33  65  1   
@<TRIPOS>SUBSTRUCTURE
  1 ****  10 GROUP 4 **** **** 0

# MOE 2024.06 (io_trps.svl 2023.06)
