@<TRIPOS>MOLECULE
NONAME
53 56 1 0 0 
SMALL
USER_CHARGES


@<TRIPOS>ATOM
  1 O       -0.7590     0.1250     0.2270 O.2   1 <1>  -0.5700 
  2 C       -1.5330     0.8380     0.8470 C.2   1 <1>   0.7160 
  3 N       -2.7310     0.2880     1.2520 N.am  1 <1>  -0.6600 
  4 C       -1.2220     2.2040     1.1250 C.2   1 <1>  -0.0860 
  5 C       -2.9000    -1.1960     1.3330 C.3   1 <1>   0.1400 
  6 C       -4.0230     0.9900     0.9790 C.3   1 <1>   0.1400 
  7 C       -0.4050     3.0880     0.4660 C.2   1 <1>  -0.0680 
  8 C       -1.7150     2.9770     2.1880 C.2   1 <1>   0.1390 
  9 C       -3.6700    -1.7280     0.1120 C.3   1 <1>   0.3440 
 10 C       -4.7450     0.3530    -0.2340 C.3   1 <1>   0.2000 
 11 N       -0.4650     4.2560     1.1230 N.pl3 1 <1>   0.6010 
 12 N        0.4420     3.2110    -0.6170 N.pl3 1 <1>  -0.5530 
 13 N       -1.2870     4.2040     2.2000 N.2   1 <1>  -0.7070 
 14 O       -4.8800    -1.0300    -0.0250 O.3   1 <1>  -0.5600 
 15 C       -3.9530    -3.2190     0.2660 C.ar  1 <1>  -0.1430 
 16 C       -6.1440     0.9630    -0.5510 C.3   1 <1>   0.0000 
 17 C        0.3550     5.1530     0.4640 C.2   1 <1>  -0.1810 
 18 C        0.9070     4.5170    -0.5900 C.2   1 <1>  -0.0500 
 19 C        0.8540     2.1250    -1.5330 C.3   1 <1>   0.1290 
 20 C       -3.0440    -4.1420    -0.2330 C.ar  1 <1>  -0.1500 
 21 C       -5.0950    -3.6790     0.9090 C.ar  1 <1>  -0.1500 
 22 C       -7.1470     0.7480     0.5990 C.3   1 <1>  -0.2400 
 23 C       -6.0360     2.4740    -0.8270 C.3   1 <1>  -0.2400 
 24 C       -6.7160     0.3000    -1.8180 C.3   1 <1>  -0.2400 
 25 C       -3.2720    -5.5000    -0.0910 C.ar  1 <1>  -0.1500 
 26 C       -5.3240    -5.0360     1.0520 C.ar  1 <1>  -0.1500 
 27 C       -4.4120    -5.9480     0.5520 C.ar  1 <1>  -0.1500 
 28 H       -1.9420    -1.6830     1.3890 H     1 <1>   0.0800 
 29 H       -3.4450    -1.4450     2.2270 H     1 <1>   0.0800 
 30 H       -4.6470     0.9240     1.8520 H     1 <1>   0.0800 
 31 H       -3.8420     2.0290     0.7750 H     1 <1>   0.0800 
 32 H       -2.3900     2.5900     2.9330 H     1 <1>   0.1500 
 33 H       -3.0900    -1.5660    -0.7800 H     1 <1>   0.0800 
 34 H       -4.1230     0.4870    -1.1030 H     1 <1>   0.0800 
 35 H        0.4580     6.1570     0.8250 H     1 <1>   0.1500 
 36 H        1.6010     4.8900    -1.3250 H     1 <1>   0.1500 
 37 H        1.4850     2.5160    -2.3100 H     1 <1>   0.0800 
 38 H       -0.0190     1.6760    -1.9730 H     1 <1>   0.0800 
 39 H        1.3910     1.3750    -0.9780 H     1 <1>   0.0800 
 40 H       -2.1530    -3.8080    -0.7350 H     1 <1>   0.1500 
 41 H       -5.8120    -2.9770     1.2980 H     1 <1>   0.1500 
 42 H       -8.1180     1.1200     0.3250 H     1 <1>   0.0800 
 43 H       -6.8360     1.2590     1.4910 H     1 <1>   0.0800 
 44 H       -7.2420    -0.3000     0.8220 H     1 <1>   0.0800 
 45 H       -6.9860     2.8660    -1.1460 H     1 <1>   0.0800 
 46 H       -5.3170     2.6660    -1.6040 H     1 <1>   0.0800 
 47 H       -5.7410     3.0140     0.0550 H     1 <1>   0.0800 
 48 H       -7.6690     0.7250    -2.0780 H     1 <1>   0.0800 
 49 H       -6.8540    -0.7560    -1.6630 H     1 <1>   0.0800 
 50 H       -6.0470     0.4310    -2.6500 H     1 <1>   0.0800 
 51 H       -2.5620    -6.2090    -0.4820 H     1 <1>   0.1500 
 52 H       -6.2130    -5.3810     1.5500 H     1 <1>   0.1500 
 53 H       -4.5900    -7.0040     0.6620 H     1 <1>   0.1500 
@<TRIPOS>BOND
  1   1   2  2   
  2   2   3  am  
  3   2   4  1   
  4   3   5  1   
  5   3   6  1   
  6   4   7  2   
  7   4   8  1   
  8   5   9  1   
  9   5  28  1   
 10   5  29  1   
 11   6  10  1   
 12   6  30  1   
 13   6  31  1   
 14   7  11  1   
 15   7  12  1   
 16   8  13  2   
 17   8  32  1   
 18   9  14  1   
 19   9  15  1   
 20   9  33  1   
 21  10  14  1   
 22  10  16  1   
 23  10  34  1   
 24  11  13  1   
 25  11  17  1   
 26  12  18  1   
 27  12  19  1   
 28  15  20  ar  
 29  15  21  ar  
 30  16  22  1   
 31  16  23  1   
 32  16  24  1   
 33  17  18  2   
 34  17  35  1   
 35  18  36  1   
 36  19  37  1   
 37  19  38  1   
 38  19  39  1   
 39  20  25  ar  
 40  20  40  1   
 41  21  26  ar  
 42  21  41  1   
 43  22  42  1   
 44  22  43  1   
 45  22  44  1   
 46  23  45  1   
 47  23  46  1   
 48  23  47  1   
 49  24  48  1   
 50  24  49  1   
 51  24  50  1   
 52  25  27  ar  
 53  25  51  1   
 54  26  27  ar  
 55  26  52  1   
 56  27  53  1   
@<TRIPOS>SUBSTRUCTURE
  1 ****   3 GROUP 4 **** **** 0

# MOE 2024.06 (io_trps.svl 2023.06)
