@<TRIPOS>MOLECULE
NONAME
48 50 1 0 0 
SMALL
USER_CHARGES


@<TRIPOS>ATOM
  1 S        6.9880     1.3890     1.5280 S.3   1 <1>  -0.0800 
  2 C        6.0400     0.0450     0.9330 C.2   1 <1>   0.1980 
  3 C        5.7140     2.4640     1.0360 C.2   1 <1>  -0.1100 
  4 N        4.9140     0.3710     0.4390 N.2   1 <1>  -0.5650 
  5 C        6.6390    -1.3350     1.0600 C.3   1 <1>  -0.0600 
  6 C        4.7210     1.7430     0.4920 C.2   1 <1>   0.0460 
  7 C        3.4170     2.2690    -0.0790 C.3   1 <1>   0.0820 
  8 C        3.4100     3.7810    -0.2340 C.2   1 <1>   0.5690 
  9 O        2.8420     4.4190     0.6240 O.2   1 <1>  -0.5700 
 10 N        4.0090     4.3990    -1.3090 N.am  1 <1>  -0.6600 
 11 C        4.8340     3.6540    -2.3230 C.3   1 <1>   0.1400 
 12 C        3.8710     5.8730    -1.4810 C.3   1 <1>   0.1400 
 13 C        5.9420     4.4790    -3.0010 C.3   1 <1>   0.1400 
 14 C        5.0640     6.5990    -0.8470 C.3   1 <1>  -0.1600 
 15 N        6.7870     5.2090    -2.0110 N.am  1 <1>  -0.6600 
 16 C        6.3350     6.5930    -1.7010 C.3   1 <1>   0.1400 
 17 C        7.8230     4.5610    -1.3690 C.2   1 <1>   0.6160 
 18 O        7.9610     3.3650    -1.5420 O.2   1 <1>  -0.5700 
 19 C        8.7500     5.2530    -0.4990 C.2   1 <1>   0.0140 
 20 C        9.5150     6.3130    -0.9080 C.2   1 <1>  -0.1360 
 21 C        8.9060     4.8220     0.8520 C.2   1 <1>  -0.1500 
 22 C       10.3950     6.9810    -0.0240 C.2   1 <1>   0.6160 
 23 C        9.7540     5.4540     1.7060 C.2   1 <1>  -0.0290 
 24 O       11.0650     7.9470    -0.3520 O.2   1 <1>  -0.5700 
 25 N       10.4820     6.5300     1.2600 N.am  1 <1>  -0.5390 
 26 C        9.9550     5.0340     3.1470 C.3   1 <1>  -0.1020 
 27 H        5.8410     3.5180     1.2030 H     1 <1>   0.1500 
 28 H        7.5600    -1.3820     0.5080 H     1 <1>   0.0800 
 29 H        5.9560    -2.0650     0.6660 H     1 <1>   0.0800 
 30 H        6.8300    -1.5540     2.0930 H     1 <1>   0.0800 
 31 H        2.6170     1.9800     0.5770 H     1 <1>   0.0800 
 32 H        3.2330     1.8130    -1.0320 H     1 <1>   0.0800 
 33 H        4.1800     3.2690    -3.0850 H     1 <1>   0.0800 
 34 H        5.3130     2.8130    -1.8540 H     1 <1>   0.0800 
 35 H        2.9690     6.2030    -0.9930 H     1 <1>   0.0800 
 36 H        3.7760     6.1220    -2.5230 H     1 <1>   0.0800 
 37 H        5.5070     5.1740    -3.6960 H     1 <1>   0.0800 
 38 H        6.5650     3.8120    -3.5720 H     1 <1>   0.0800 
 39 H        5.2680     6.1830     0.1230 H     1 <1>   0.0800 
 40 H        4.7810     7.6240    -0.6950 H     1 <1>   0.0800 
 41 H        7.0980     7.1350    -1.1730 H     1 <1>   0.0800 
 42 H        6.1540     7.1170    -2.6240 H     1 <1>   0.0800 
 43 H        9.4780     6.6820    -1.9140 H     1 <1>   0.1500 
 44 H        8.3290     3.9710     1.1650 H     1 <1>   0.1500 
 45 H       11.1360     7.0390     1.8540 H     1 <1>   0.3700 
 46 H        9.6920     5.8420     3.8060 H     1 <1>   0.0800 
 47 H       10.9830     4.7670     3.3120 H     1 <1>   0.0800 
 48 H        9.3390     4.1850     3.3830 H     1 <1>   0.0800 
@<TRIPOS>BOND
  1   1   2  1   
  2   1   3  1   
  3   2   4  2   
  4   2   5  1   
  5   3   6  2   
  6   3  27  1   
  7   4   6  1   
  8   5  28  1   
  9   5  29  1   
 10   5  30  1   
 11   6   7  1   
 12   7   8  1   
 13   7  31  1   
 14   7  32  1   
 15   8   9  2   
 16   8  10  am  
 17  10  11  1   
 18  10  12  1   
 19  11  13  1   
 20  11  33  1   
 21  11  34  1   
 22  12  14  1   
 23  12  35  1   
 24  12  36  1   
 25  13  15  1   
 26  13  37  1   
 27  13  38  1   
 28  14  16  1   
 29  14  39  1   
 30  14  40  1   
 31  15  16  1   
 32  15  17  am  
 33  16  41  1   
 34  16  42  1   
 35  17  18  2   
 36  17  19  1   
 37  19  20  2   
 38  19  21  1   
 39  20  22  1   
 40  20  43  1   
 41  21  23  2   
 42  21  44  1   
 43  22  24  2   
 44  22  25  am  
 45  23  25  1   
 46  23  26  1   
 47  25  45  1   
 48  26  46  1   
 49  26  47  1   
 50  26  48  1   
@<TRIPOS>SUBSTRUCTURE
  1 ****  17 GROUP 4 **** **** 0

# MOE 2024.06 (io_trps.svl 2023.06)
