@<TRIPOS>MOLECULE
NONAME
48 50 1 0 0 
SMALL
USER_CHARGES


@<TRIPOS>ATOM
  1 S       -1.0250     0.3340     1.3700 S.o2  1 <1>   1.2040 
  2 O       -0.1140     0.3600     2.4920 O.2   1 <1>  -0.6500 
  3 O       -2.4260     0.6310     1.5770 O.2   1 <1>  -0.6500 
  4 C       -0.3690     1.3560     0.0290 C.ar  1 <1>  -0.0090 
  5 C       -0.9490    -1.3140     0.6750 C.3   1 <1>  -0.0550 
  6 C       -1.2160     2.0660    -0.8160 C.ar  1 <1>  -0.1500 
  7 C        0.9990     1.4300    -0.2090 C.ar  1 <1>  -0.1500 
  8 C       -1.8110    -1.4930    -0.5840 C.3   1 <1>  -0.0990 
  9 C       -0.7170     2.8160    -1.8670 C.ar  1 <1>  -0.1500 
 10 C        1.5050     2.1770    -1.2580 C.ar  1 <1>  -0.1500 
 11 C       -1.8410    -2.9500    -0.9880 C.2   1 <1>   0.5690 
 12 C        0.6460     2.8700    -2.0900 C.ar  1 <1>  -0.1500 
 13 O       -0.9110    -3.3640    -1.6350 O.2   1 <1>  -0.5700 
 14 N       -2.8680    -3.7630    -0.6000 N.am  1 <1>  -0.6600 
 15 C       -4.0160    -3.4060     0.2750 C.3   1 <1>   0.1400 
 16 C       -2.9110    -5.2020    -0.9480 C.3   1 <1>   0.1400 
 17 C       -4.7820    -4.7150     0.4800 C.3   1 <1>   0.2000 
 18 C       -3.8060    -5.8350     0.1180 C.3   1 <1>  -0.0800 
 19 O       -5.2050    -4.8580     1.7910 O.3   1 <1>  -0.6800 
 20 C       -4.5190    -7.1140    -0.3480 C.3   1 <1>   0.0200 
 21 C       -3.5630    -8.2480    -0.6760 C.2   1 <1>  -0.0400 
 22 O       -4.0370    -9.3170    -1.2590 O.3   1 <1>  -0.0190 
 23 C       -2.2460    -8.4350    -0.4920 C.2   1 <1>  -0.1500 
 24 N       -3.1110   -10.2040    -1.4800 N.2   1 <1>  -0.4100 
 25 C       -2.0200    -9.6990    -1.0290 C.2   1 <1>   0.1080 
 26 C       -0.6770   -10.3930    -1.0790 C.3   1 <1>  -0.0590 
 27 H        0.0690    -1.5610     0.4370 H     1 <1>   0.0800 
 28 H       -1.2820    -2.0120     1.4190 H     1 <1>   0.0800 
 29 H       -2.2800     2.0350    -0.6500 H     1 <1>   0.1500 
 30 H        1.6800     0.9000     0.4360 H     1 <1>   0.1500 
 31 H       -2.8080    -1.1320    -0.4140 H     1 <1>   0.0800 
 32 H       -1.3930    -0.9250    -1.3970 H     1 <1>   0.0800 
 33 H       -1.3900     3.3580    -2.5100 H     1 <1>   0.1500 
 34 H        2.5680     2.2210    -1.4260 H     1 <1>   0.1500 
 35 H        1.0370     3.4520    -2.9070 H     1 <1>   0.1500 
 36 H       -3.6520    -3.0200     1.2110 H     1 <1>   0.0800 
 37 H       -4.6430    -2.6780    -0.2100 H     1 <1>   0.0800 
 38 H       -3.3420    -5.3110    -1.9290 H     1 <1>   0.0800 
 39 H       -1.9210    -5.6280    -0.9470 H     1 <1>   0.0800 
 40 H       -5.6510    -4.7300    -0.1580 H     1 <1>   0.0800 
 41 H       -3.1880    -6.0580     0.9700 H     1 <1>   0.0800 
 42 H       -4.4430    -4.8980     2.4000 H     1 <1>   0.4000 
 43 H       -5.1080    -6.8990    -1.2230 H     1 <1>   0.0800 
 44 H       -5.1910    -7.4490     0.4230 H     1 <1>   0.0800 
 45 H       -1.5040    -7.8000    -0.0460 H     1 <1>   0.1500 
 46 H        0.0160    -9.8040    -1.6500 H     1 <1>   0.0800 
 47 H       -0.7800   -11.3570    -1.5430 H     1 <1>   0.0800 
 48 H       -0.2970   -10.5240    -0.0830 H     1 <1>   0.0800 
@<TRIPOS>BOND
  1   1   2  2   
  2   1   3  2   
  3   1   4  1   
  4   1   5  1   
  5   4   6  ar  
  6   4   7  ar  
  7   5   8  1   
  8   5  27  1   
  9   5  28  1   
 10   6   9  ar  
 11   6  29  1   
 12   7  10  ar  
 13   7  30  1   
 14   8  11  1   
 15   8  31  1   
 16   8  32  1   
 17   9  12  ar  
 18   9  33  1   
 19  10  12  ar  
 20  10  34  1   
 21  11  13  2   
 22  11  14  am  
 23  12  35  1   
 24  14  15  1   
 25  14  16  1   
 26  15  17  1   
 27  15  36  1   
 28  15  37  1   
 29  16  18  1   
 30  16  38  1   
 31  16  39  1   
 32  17  18  1   
 33  17  19  1   
 34  17  40  1   
 35  18  20  1   
 36  18  41  1   
 37  19  42  1   
 38  20  21  1   
 39  20  43  1   
 40  20  44  1   
 41  21  22  1   
 42  21  23  2   
 43  22  24  1   
 44  23  25  1   
 45  23  45  1   
 46  24  25  2   
 47  25  26  1   
 48  26  46  1   
 49  26  47  1   
 50  26  48  1   
@<TRIPOS>SUBSTRUCTURE
  1 ****  11 GROUP 4 **** **** 0

# MOE 2024.06 (io_trps.svl 2023.06)
