@<TRIPOS>MOLECULE
NONAME
57 59 1 0 0 
SMALL
USER_CHARGES


@<TRIPOS>ATOM
  1 F       -0.9740    -2.7520    -1.8720 F     1 <1>  -0.1900 
  2 C       -2.1910    -2.6880    -1.3730 C.ar  1 <1>   0.1900 
  3 C       -2.5340    -1.7730    -0.3760 C.ar  1 <1>   0.4100 
  4 C       -3.1380    -3.5580    -1.8370 C.ar  1 <1>   0.1600 
  5 N       -3.7630    -1.7810     0.1130 N.ar  1 <1>  -0.6200 
  6 N       -1.6550    -0.8340     0.1610 N.pl3 1 <1>  -0.8380 
  7 N       -4.3700    -3.5590    -1.3590 N.ar  1 <1>  -0.6200 
  8 C       -4.5920    -2.6640    -0.4020 C.ar  1 <1>   0.7200 
  9 C       -1.8920    -0.2310     1.5030 C.3   1 <1>   0.1290 
 10 C       -0.7190    -0.0690    -0.7090 C.3   1 <1>   0.1290 
 11 N       -5.8130    -2.6780     0.1890 N.pl3 1 <1>  -0.8690 
 12 C       -6.9980    -3.4020    -0.3740 C.3   1 <1>   0.2090 
 13 C       -7.1460    -4.9150     0.0460 C.3   1 <1>   0.5030 
 14 N       -5.7850    -5.5320     0.2820 N.4   1 <1>  -0.9590 
 15 C       -7.8680    -5.6490    -1.1110 C.3   1 <1>  -0.1600 
 16 C       -8.0060    -5.0490     1.3350 C.3   1 <1>  -0.1600 
 17 C       -5.5670    -6.9830    -0.0500 C.3   1 <1>   0.3430 
 18 C       -5.1160    -5.2040     1.5910 C.3   1 <1>   0.3430 
 19 C       -9.2660    -5.0770    -1.4250 C.3   1 <1>  -0.1600 
 20 C       -9.5140    -5.2940     1.1050 C.3   1 <1>  -0.1600 
 21 C       -4.1080    -7.4360     0.2120 C.3   1 <1>   0.1100 
 22 C       -3.5870    -5.4300     1.5000 C.3   1 <1>   0.1100 
 23 C      -10.0390    -4.6280    -0.1710 C.3   1 <1>  -0.1600 
 24 N       -3.1950    -6.2840     0.3510 N.3   1 <1>  -0.8100 
 25 C       -1.7900    -6.6950     0.4460 C.3   1 <1>   0.0300 
 26 H       -2.8790    -4.2660    -2.6050 H     1 <1>   0.1500 
 27 H       -2.3870    -0.9360     2.1480 H     1 <1>   0.0800 
 28 H       -2.5090     0.6450     1.4040 H     1 <1>   0.0800 
 29 H       -0.9540     0.0430     1.9540 H     1 <1>   0.0800 
 30 H       -0.9700    -0.2020    -1.7460 H     1 <1>   0.0800 
 31 H        0.2880    -0.4110    -0.5440 H     1 <1>   0.0800 
 32 H       -0.7760     0.9820    -0.4810 H     1 <1>   0.0800 
 33 H       -6.0020    -1.7720     0.6270 H     1 <1>   0.4000 
 34 H       -6.9420    -3.3430    -1.4480 H     1 <1>   0.0800 
 35 H       -7.8850    -2.8640    -0.0950 H     1 <1>   0.0800 
 36 H       -5.1620    -5.0290    -0.3840 H     1 <1>   0.4500 
 37 H       -8.0130    -6.6800    -0.8440 H     1 <1>   0.0800 
 38 H       -7.2700    -5.6150    -2.0060 H     1 <1>   0.0800 
 39 H       -7.8900    -4.1570     1.9250 H     1 <1>   0.0800 
 40 H       -7.6610    -5.8750     1.9290 H     1 <1>   0.0800 
 41 H       -5.7820    -7.1440    -1.0930 H     1 <1>   0.0800 
 42 H       -6.2380    -7.6000     0.5230 H     1 <1>   0.0800 
 43 H       -5.5160    -5.8330     2.3670 H     1 <1>   0.0800 
 44 H       -5.3020    -4.1820     1.8740 H     1 <1>   0.0800 
 45 H       -9.8360    -5.8360    -1.9350 H     1 <1>   0.0800 
 46 H       -9.1860    -4.2430    -2.1030 H     1 <1>   0.0800 
 47 H      -10.0730    -4.9420     1.9560 H     1 <1>   0.0800 
 48 H       -9.6930    -6.3550     1.0290 H     1 <1>   0.0800 
 49 H       -3.7870    -8.0590    -0.6060 H     1 <1>   0.0800 
 50 H       -4.0750    -8.0330     1.1080 H     1 <1>   0.0800 
 51 H       -3.2480    -5.8680     2.4230 H     1 <1>   0.0800 
 52 H       -3.1020    -4.4730     1.4000 H     1 <1>   0.0800 
 53 H      -11.0830    -4.8640    -0.2950 H     1 <1>   0.0800 
 54 H       -9.9770    -3.5590    -0.0630 H     1 <1>   0.0800 
 55 H       -1.5100    -7.2560    -0.4300 H     1 <1>   0.0800 
 56 H       -1.6280    -7.3050     1.3190 H     1 <1>   0.0800 
 57 H       -1.1570    -5.8250     0.5040 H     1 <1>   0.0800 
@<TRIPOS>BOND
  1   1   2  1   
  2   2   3  ar  
  3   2   4  ar  
  4   3   5  ar  
  5   3   6  1   
  6   4   7  ar  
  7   4  26  1   
  8   5   8  ar  
  9   6   9  1   
 10   6  10  1   
 11   7   8  ar  
 12   8  11  1   
 13   9  27  1   
 14   9  28  1   
 15   9  29  1   
 16  10  30  1   
 17  10  31  1   
 18  10  32  1   
 19  11  12  1   
 20  11  33  1   
 21  12  13  1   
 22  12  34  1   
 23  12  35  1   
 24  13  14  1   
 25  13  15  1   
 26  13  16  1   
 27  14  17  1   
 28  14  18  1   
 29  14  36  1   
 30  15  19  1   
 31  15  37  1   
 32  15  38  1   
 33  16  20  1   
 34  16  39  1   
 35  16  40  1   
 36  17  21  1   
 37  17  41  1   
 38  17  42  1   
 39  18  22  1   
 40  18  43  1   
 41  18  44  1   
 42  19  23  1   
 43  19  45  1   
 44  19  46  1   
 45  20  23  1   
 46  20  47  1   
 47  20  48  1   
 48  21  24  1   
 49  21  49  1   
 50  21  50  1   
 51  22  24  1   
 52  22  51  1   
 53  22  52  1   
 54  23  53  1   
 55  23  54  1   
 56  24  25  1   
 57  25  55  1   
 58  25  56  1   
 59  25  57  1   
@<TRIPOS>SUBSTRUCTURE
  1 ****   8 GROUP 4 **** **** 0

# MOE 2024.06 (io_trps.svl 2023.06)
