@<TRIPOS>MOLECULE
NONAME
50 52 1 0 0 
SMALL
USER_CHARGES


@<TRIPOS>ATOM
  1 CL       0.1690    -0.6280    -0.1040 Cl    1 <1>  -0.1770 
  2 C       -0.1240    -2.3420     0.0380 C.ar  1 <1>   0.1770 
  3 C        0.0960    -3.1610    -1.0530 C.ar  1 <1>  -0.1500 
  4 C       -0.5730    -2.8560     1.2400 C.ar  1 <1>  -0.1500 
  5 C       -0.1380    -4.5210    -0.9360 C.ar  1 <1>  -0.1500 
  6 C       -0.8050    -4.2170     1.3510 C.ar  1 <1>  -0.1500 
  7 C       -0.5880    -5.0530     0.2640 C.ar  1 <1>  -0.1440 
  8 C       -0.8450    -6.5480     0.3810 C.3   1 <1>  -0.0160 
  9 C       -2.2330    -6.8930    -0.1560 C.3   1 <1>   0.1400 
 10 N       -2.4760    -8.3470    -0.0280 N.am  1 <1>  -0.7300 
 11 C       -2.3820    -9.2610    -1.0280 C.2   1 <1>   0.5690 
 12 O       -2.0510    -8.9560    -2.1490 O.2   1 <1>  -0.5700 
 13 C       -2.7030   -10.7260    -0.7120 C.3   1 <1>   0.1710 
 14 N       -3.6750   -10.9280     0.4030 N.3   1 <1>  -0.8100 
 15 C       -5.0220   -10.4360     0.0710 C.3   1 <1>   0.1100 
 16 C       -3.8270   -12.3510     0.7610 C.3   1 <1>   0.1100 
 17 C       -5.9480   -11.2090     1.0010 C.3   1 <1>   0.2000 
 18 C       -5.3250   -12.6030     1.0160 C.3   1 <1>  -0.0800 
 19 O       -5.8130   -10.6720     2.2670 O.3   1 <1>  -0.6800 
 20 C       -5.9580   -13.5010    -0.0650 C.3   1 <1>  -0.0170 
 21 C       -5.3050   -14.8740    -0.1120 C.ar  1 <1>  -0.1440 
 22 C       -5.4530   -15.7860     0.9140 C.ar  1 <1>  -0.1500 
 23 C       -4.5300   -15.2800    -1.1800 C.ar  1 <1>  -0.1500 
 24 C       -4.8300   -17.0200     0.8290 C.ar  1 <1>   0.1600 
 25 C       -3.9500   -16.5380    -1.1670 C.ar  1 <1>   0.1600 
 26 N       -4.0790   -17.4160    -0.1860 N.ar  1 <1>  -0.6200 
 27 H        0.4450    -2.7380    -1.9770 H     1 <1>   0.1500 
 28 H       -0.7360    -2.1970     2.0740 H     1 <1>   0.1500 
 29 H        0.0320    -5.1640    -1.7840 H     1 <1>   0.1500 
 30 H       -1.1540    -4.6190     2.2860 H     1 <1>   0.1500 
 31 H       -0.7680    -6.8520     1.4090 H     1 <1>   0.0800 
 32 H       -0.1030    -7.0830    -0.1860 H     1 <1>   0.0800 
 33 H       -2.2980    -6.6060    -1.1930 H     1 <1>   0.0800 
 34 H       -2.9870    -6.3540     0.3910 H     1 <1>   0.0800 
 35 H       -2.8050    -8.6980     0.8770 H     1 <1>   0.3700 
 36 H       -1.7750   -11.2040    -0.4550 H     1 <1>   0.0800 
 37 H       -3.0740   -11.1910    -1.6080 H     1 <1>   0.0800 
 38 H       -5.1090    -9.3720     0.2160 H     1 <1>   0.0800 
 39 H       -5.2640   -10.6730    -0.9510 H     1 <1>   0.0800 
 40 H       -3.4550   -12.9870    -0.0250 H     1 <1>   0.0800 
 41 H       -3.2590   -12.5510     1.6540 H     1 <1>   0.0800 
 42 H       -6.9860   -11.1810     0.7180 H     1 <1>   0.0800 
 43 H       -5.4700   -13.0720     1.9740 H     1 <1>   0.0800 
 44 H       -4.8520   -10.5620     2.4220 H     1 <1>   0.4000 
 45 H       -5.8750   -13.0300    -1.0290 H     1 <1>   0.0800 
 46 H       -7.0060   -13.6250     0.1450 H     1 <1>   0.0800 
 47 H       -6.0460   -15.5490     1.7780 H     1 <1>   0.1500 
 48 H       -4.3700   -14.6340    -2.0230 H     1 <1>   0.1500 
 49 H       -4.9560   -17.7180     1.6390 H     1 <1>   0.1500 
 50 H       -3.3480   -16.8370    -2.0080 H     1 <1>   0.1500 
@<TRIPOS>BOND
  1   1   2  1   
  2   2   3  ar  
  3   2   4  ar  
  4   3   5  ar  
  5   3  27  1   
  6   4   6  ar  
  7   4  28  1   
  8   5   7  ar  
  9   5  29  1   
 10   6   7  ar  
 11   6  30  1   
 12   7   8  1   
 13   8   9  1   
 14   8  31  1   
 15   8  32  1   
 16   9  10  1   
 17   9  33  1   
 18   9  34  1   
 19  10  11  am  
 20  10  35  1   
 21  11  12  2   
 22  11  13  1   
 23  13  14  1   
 24  13  36  1   
 25  13  37  1   
 26  14  15  1   
 27  14  16  1   
 28  15  17  1   
 29  15  38  1   
 30  15  39  1   
 31  16  18  1   
 32  16  40  1   
 33  16  41  1   
 34  17  18  1   
 35  17  19  1   
 36  17  42  1   
 37  18  20  1   
 38  18  43  1   
 39  19  44  1   
 40  20  21  1   
 41  20  45  1   
 42  20  46  1   
 43  21  22  ar  
 44  21  23  ar  
 45  22  24  ar  
 46  22  47  1   
 47  23  25  ar  
 48  23  48  1   
 49  24  26  ar  
 50  24  49  1   
 51  25  26  ar  
 52  25  50  1   
@<TRIPOS>SUBSTRUCTURE
  1 ****  13 GROUP 4 **** **** 0

# MOE 2024.06 (io_trps.svl 2023.06)
