@<TRIPOS>MOLECULE
NONAME
49 51 1 0 0 
SMALL
USER_CHARGES


@<TRIPOS>ATOM
  1 O       -1.1040     0.4730    -2.3200 O.2   1 <1>  -0.5700 
  2 C       -1.3710     1.1950    -1.3860 C.2   1 <1>   0.5690 
  3 N       -1.9230     0.7010    -0.2350 N.am  1 <1>  -0.6600 
  4 C       -1.0660     2.6950    -1.5310 C.3   1 <1>   0.1710 
  5 C       -2.1970    -0.7350    -0.0240 C.3   1 <1>   0.1400 
  6 C       -2.1610     1.4810     1.0000 C.3   1 <1>   0.1400 
  7 N       -0.0420     3.2370    -0.5890 N.3   1 <1>  -0.8100 
  8 C       -2.3520    -0.8790     1.4860 C.3   1 <1>  -0.1600 
  9 C       -2.8190     0.4950     1.9590 C.3   1 <1>  -0.1600 
 10 C        1.2500     2.5390    -0.7670 C.3   1 <1>   0.2530 
 11 C        0.0830     4.7020    -0.7210 C.3   1 <1>   0.1100 
 12 C        2.2380     2.9300     0.3190 C.ar  1 <1>  -0.1440 
 13 C        0.0120     5.3660     0.6560 C.3   1 <1>  -0.0170 
 14 C        3.2900     3.7920     0.0460 C.ar  1 <1>   0.1600 
 15 C        2.0990     2.4380     1.6010 C.ar  1 <1>  -0.1500 
 16 C        0.3250     6.8470     0.5350 C.ar  1 <1>  -0.1440 
 17 N        4.1880     4.2000     0.9290 N.ar  1 <1>  -0.6200 
 18 C        3.0260     2.8490     2.5340 C.ar  1 <1>  -0.1500 
 19 C       -0.6850     7.7670     0.2980 C.ar  1 <1>  -0.1500 
 20 C        1.6340     7.2870     0.6540 C.ar  1 <1>  -0.1500 
 21 C        4.0340     3.7180     2.1510 C.ar  1 <1>   0.1600 
 22 C       -0.3880     9.1150     0.1810 C.ar  1 <1>  -0.1500 
 23 C        1.9320     8.6330     0.5370 C.ar  1 <1>  -0.1500 
 24 C        0.9210     9.5480     0.3000 C.ar  1 <1>  -0.1500 
 25 H       -1.9910     3.2220    -1.3830 H     1 <1>   0.0800 
 26 H       -0.7480     2.8750    -2.5420 H     1 <1>   0.0800 
 27 H       -1.3920    -1.3410    -0.4050 H     1 <1>   0.0800 
 28 H       -3.1130    -0.9930    -0.5270 H     1 <1>   0.0800 
 29 H       -2.7940     2.3300     0.8070 H     1 <1>   0.0800 
 30 H       -1.2160     1.8150     1.3930 H     1 <1>   0.0800 
 31 H       -1.3910    -1.1070     1.9130 H     1 <1>   0.0800 
 32 H       -3.0440    -1.6610     1.7430 H     1 <1>   0.0800 
 33 H       -3.8880     0.5720     1.8590 H     1 <1>   0.0800 
 34 H       -2.5480     0.6920     2.9810 H     1 <1>   0.0800 
 35 H        1.6540     2.7590    -1.7410 H     1 <1>   0.0800 
 36 H        1.1010     1.4740    -0.7090 H     1 <1>   0.0800 
 37 H       -0.7150     5.1010    -1.3250 H     1 <1>   0.0800 
 38 H        1.0100     4.9640    -1.2020 H     1 <1>   0.0800 
 39 H        0.7190     4.9130     1.3260 H     1 <1>   0.0800 
 40 H       -0.9710     5.2300     1.0690 H     1 <1>   0.0800 
 41 H        3.3980     4.1740    -0.9550 H     1 <1>   0.1500 
 42 H        1.2960     1.7690     1.8580 H     1 <1>   0.1500 
 43 H        2.9690     2.5020     3.5500 H     1 <1>   0.1500 
 44 H       -1.7050     7.4400     0.2050 H     1 <1>   0.1500 
 45 H        2.4280     6.5820     0.8400 H     1 <1>   0.1500 
 46 H        4.7510     4.0320     2.8900 H     1 <1>   0.1500 
 47 H       -1.1740     9.8260    -0.0010 H     1 <1>   0.1500 
 48 H        2.9510     8.9670     0.6310 H     1 <1>   0.1500 
 49 H        1.1530    10.5940     0.2100 H     1 <1>   0.1500 
@<TRIPOS>BOND
  1   1   2  2   
  2   2   3  am  
  3   2   4  1   
  4   3   5  1   
  5   3   6  1   
  6   4   7  1   
  7   4  25  1   
  8   4  26  1   
  9   5   8  1   
 10   5  27  1   
 11   5  28  1   
 12   6   9  1   
 13   6  29  1   
 14   6  30  1   
 15   7  10  1   
 16   7  11  1   
 17   8   9  1   
 18   8  31  1   
 19   8  32  1   
 20   9  33  1   
 21   9  34  1   
 22  10  12  1   
 23  10  35  1   
 24  10  36  1   
 25  11  13  1   
 26  11  37  1   
 27  11  38  1   
 28  12  14  ar  
 29  12  15  ar  
 30  13  16  1   
 31  13  39  1   
 32  13  40  1   
 33  14  17  ar  
 34  14  41  1   
 35  15  18  ar  
 36  15  42  1   
 37  16  19  ar  
 38  16  20  ar  
 39  17  21  ar  
 40  18  21  ar  
 41  18  43  1   
 42  19  22  ar  
 43  19  44  1   
 44  20  23  ar  
 45  20  45  1   
 46  21  46  1   
 47  22  24  ar  
 48  22  47  1   
 49  23  24  ar  
 50  23  48  1   
 51  24  49  1   
@<TRIPOS>SUBSTRUCTURE
  1 ****   7 GROUP 4 **** **** 0

# MOE 2024.06 (io_trps.svl 2023.06)
