@<TRIPOS>MOLECULE
NONAME
55 57 1 0 0 
SMALL
USER_CHARGES


@<TRIPOS>ATOM
  1 O        1.7110     0.2490     1.3720 O.2   1 <1>  -0.5700 
  2 C        2.2070    -0.3840     0.4670 C.2   1 <1>   0.5690 
  3 N        3.0910     0.2180    -0.4000 N.am  1 <1>  -0.6600 
  4 C        1.8370    -1.8730     0.3470 C.3   1 <1>  -0.0190 
  5 C        3.9570    -0.4620    -1.4200 C.3   1 <1>   0.1400 
  6 C        3.3000     1.6910    -0.3410 C.3   1 <1>   0.1400 
  7 C        0.3710    -2.1390     0.7630 C.3   1 <1>  -0.1600 
  8 C        2.8640    -2.7150     1.1370 C.3   1 <1>  -0.1600 
  9 C        5.4200    -0.5900    -0.9620 C.3   1 <1>   0.1400 
 10 C        4.3270     2.0730     0.7340 C.3   1 <1>  -0.1600 
 11 C       -0.2700    -3.3200     0.0140 C.3   1 <1>  -0.1600 
 12 C        2.4860    -4.1670     1.4690 C.3   1 <1>  -0.1600 
 13 N        6.0080     0.7170    -0.5300 N.am  1 <1>  -0.6600 
 14 C        5.5570     1.1600     0.8190 C.3   1 <1>   0.1400 
 15 C        0.2210    -4.7100     0.4370 C.3   1 <1>  -0.1600 
 16 C        1.7410    -4.9130     0.3550 C.3   1 <1>  -0.1600 
 17 C        6.8520     1.4120    -1.3590 C.2   1 <1>   0.5690 
 18 O        7.1060     1.0220    -2.4730 O.2   1 <1>  -0.5700 
 19 C        7.5170     2.7000    -0.9120 C.3   1 <1>  -0.0990 
 20 C        8.8450     2.4100    -0.2080 C.3   1 <1>   0.0210 
 21 C        9.4770     3.6980     0.2840 C.2   1 <1>  -0.1810 
 22 C        9.0950     4.4430     1.3960 C.2   1 <1>   0.1390 
 23 C       10.5170     4.3780    -0.2410 C.2   1 <1>  -0.3020 
 24 N        9.8280     5.5010     1.5560 N.2   1 <1>  -0.7070 
 25 N       10.7110     5.4590     0.5400 N.pl3 1 <1>   0.3000 
 26 H        1.9000    -2.1380    -0.6890 H     1 <1>   0.0800 
 27 H        3.9330     0.1020    -2.3370 H     1 <1>   0.0800 
 28 H        3.5880    -1.4410    -1.6520 H     1 <1>   0.0800 
 29 H        2.3640     2.1810    -0.1310 H     1 <1>   0.0800 
 30 H        3.6400     2.0430    -1.3000 H     1 <1>   0.0800 
 31 H       -0.2120    -1.2670     0.5200 H     1 <1>   0.0800 
 32 H        0.2990    -2.2730     1.8290 H     1 <1>   0.0800 
 33 H        3.0740    -2.2150     2.0680 H     1 <1>   0.0800 
 34 H        3.7810    -2.7280     0.5770 H     1 <1>   0.0800 
 35 H        5.9970    -1.0010    -1.7720 H     1 <1>   0.0800 
 36 H        5.4800    -1.2910    -0.1500 H     1 <1>   0.0800 
 37 H        3.8360     2.0670     1.6910 H     1 <1>   0.0800 
 38 H        4.6410     3.0840     0.5570 H     1 <1>   0.0800 
 39 H       -0.1190    -3.1970    -1.0450 H     1 <1>   0.0800 
 40 H       -1.3330    -3.2840     0.1810 H     1 <1>   0.0800 
 41 H        1.8930    -4.1820     2.3680 H     1 <1>   0.0800 
 42 H        3.3940    -4.7000     1.6930 H     1 <1>   0.0800 
 43 H        5.3000     0.2920     1.4040 H     1 <1>   0.0800 
 44 H        6.3540     1.6640     1.3370 H     1 <1>   0.0800 
 45 H       -0.2520    -5.4360    -0.2010 H     1 <1>   0.0800 
 46 H       -0.1130    -4.9120     1.4400 H     1 <1>   0.0800 
 47 H        1.9320    -5.9650     0.4800 H     1 <1>   0.0800 
 48 H        2.1150    -4.6350    -0.6150 H     1 <1>   0.0800 
 49 H        6.8660     3.2600    -0.2710 H     1 <1>   0.0800 
 50 H        7.7080     3.3040    -1.7810 H     1 <1>   0.0800 
 51 H        9.5140     1.9230    -0.8970 H     1 <1>   0.0800 
 52 H        8.6900     1.7490     0.6260 H     1 <1>   0.0800 
 53 H        8.2860     4.1840     2.0580 H     1 <1>   0.1500 
 54 H       11.1160     4.1600    -1.1070 H     1 <1>   0.1500 
 55 H       11.4300     6.1810     0.4090 H     1 <1>   0.2700 
@<TRIPOS>BOND
  1   1   2  2   
  2   2   3  am  
  3   2   4  1   
  4   3   5  1   
  5   3   6  1   
  6   4   7  1   
  7   4   8  1   
  8   4  26  1   
  9   5   9  1   
 10   5  27  1   
 11   5  28  1   
 12   6  10  1   
 13   6  29  1   
 14   6  30  1   
 15   7  11  1   
 16   7  31  1   
 17   7  32  1   
 18   8  12  1   
 19   8  33  1   
 20   8  34  1   
 21   9  13  1   
 22   9  35  1   
 23   9  36  1   
 24  10  14  1   
 25  10  37  1   
 26  10  38  1   
 27  11  15  1   
 28  11  39  1   
 29  11  40  1   
 30  12  16  1   
 31  12  41  1   
 32  12  42  1   
 33  13  14  1   
 34  13  17  am  
 35  14  43  1   
 36  14  44  1   
 37  15  16  1   
 38  15  45  1   
 39  15  46  1   
 40  16  47  1   
 41  16  48  1   
 42  17  18  2   
 43  17  19  1   
 44  19  20  1   
 45  19  49  1   
 46  19  50  1   
 47  20  21  1   
 48  20  51  1   
 49  20  52  1   
 50  21  22  1   
 51  21  23  2   
 52  22  24  2   
 53  22  53  1   
 54  23  25  1   
 55  23  54  1   
 56  24  25  1   
 57  25  55  1   
@<TRIPOS>SUBSTRUCTURE
  1 ****  14 GROUP 4 **** **** 0

# MOE 2024.06 (io_trps.svl 2023.06)
