@<TRIPOS>MOLECULE
NONAME
33 33 1 0 0 
SMALL
USER_CHARGES


@<TRIPOS>ATOM
  1 BR       1.6590     0.7660     1.7070 Br    1 <1>  -0.1110 
  2 C        0.7520     2.1440     0.7180 C.ar  1 <1>   0.1110 
  3 C       -0.4070     2.6810     1.2450 C.ar  1 <1>  -0.1500 
  4 C        1.2790     2.5580    -0.4880 C.ar  1 <1>  -0.1500 
  5 C       -1.0730     3.6690     0.5310 C.ar  1 <1>  -0.1440 
  6 C        0.6190     3.5510    -1.1900 C.ar  1 <1>  -0.1500 
  7 C       -0.5470     4.1040    -0.6820 C.ar  1 <1>  -0.1500 
  8 C       -2.3610     4.2630     1.0640 C.3   1 <1>   0.4870 
  9 N       -3.4930     3.6960     0.2620 N.4   1 <1>  -0.9590 
 10 C       -4.7280     4.5580     0.3880 C.3   1 <1>   0.3430 
 11 C       -3.6890     2.2580     0.6220 C.3   1 <1>   0.3430 
 12 C       -5.8970     4.1790    -0.5730 C.3   1 <1>   0.3430 
 13 C       -3.8240     1.4450    -0.6580 C.3   1 <1>  -0.2400 
 14 N       -7.0960     5.0880    -0.4910 N.4   1 <1>  -0.8530 
 15 H       -0.7570     2.3200     2.1960 H     1 <1>   0.1500 
 16 H        2.1860     2.1160    -0.8650 H     1 <1>   0.1500 
 17 H        1.0210     3.8940    -2.1290 H     1 <1>   0.1500 
 18 H       -1.0250     4.8850    -1.2500 H     1 <1>   0.1500 
 19 H       -2.3180     5.3350     0.9550 H     1 <1>   0.0800 
 20 H       -2.4770     4.0290     2.1110 H     1 <1>   0.0800 
 21 H       -3.1190     3.6990    -0.7010 H     1 <1>   0.4500 
 22 H       -4.4490     5.5800     0.1910 H     1 <1>   0.0800 
 23 H       -5.0820     4.5020     1.4060 H     1 <1>   0.0800 
 24 H       -4.5580     2.1300     1.2480 H     1 <1>   0.0800 
 25 H       -2.8340     1.8870     1.1670 H     1 <1>   0.0800 
 26 H       -6.2120     3.1720    -0.3480 H     1 <1>   0.0800 
 27 H       -5.5240     4.1900    -1.5850 H     1 <1>   0.0800 
 28 H       -4.6790     1.7320    -1.2400 H     1 <1>   0.0800 
 29 H       -3.9380     0.4060    -0.4000 H     1 <1>   0.0800 
 30 H       -2.9310     1.5300    -1.2550 H     1 <1>   0.0800 
 31 H       -7.5460     5.0960     0.4350 H     1 <1>   0.4500 
 32 H       -7.8270     4.7770    -1.1510 H     1 <1>   0.4500 
 33 H       -6.8900     6.0640    -0.7500 H     1 <1>   0.4500 
@<TRIPOS>BOND
  1   1   2  1   
  2   2   3  ar  
  3   2   4  ar  
  4   3   5  ar  
  5   3  15  1   
  6   4   6  ar  
  7   4  16  1   
  8   5   7  ar  
  9   5   8  1   
 10   6   7  ar  
 11   6  17  1   
 12   7  18  1   
 13   8   9  1   
 14   8  19  1   
 15   8  20  1   
 16   9  10  1   
 17   9  11  1   
 18   9  21  1   
 19  10  12  1   
 20  10  22  1   
 21  10  23  1   
 22  11  13  1   
 23  11  24  1   
 24  11  25  1   
 25  12  14  1   
 26  12  26  1   
 27  12  27  1   
 28  13  28  1   
 29  13  29  1   
 30  13  30  1   
 31  14  31  1   
 32  14  32  1   
 33  14  33  1   
@<TRIPOS>SUBSTRUCTURE
  1 ****   5 GROUP 4 **** **** 0

# MOE 2024.06 (io_trps.svl 2023.06)
