@<TRIPOS>MOLECULE
NONAME
38 40 1 0 0 
SMALL
USER_CHARGES


@<TRIPOS>ATOM
  1 O       -0.8340     0.3390    -1.2470 O.2   1 <1>  -0.5700 
  2 C       -1.6810     0.8510    -0.5360 C.2   1 <1>   0.5440 
  3 N       -2.5100     0.0430     0.1980 N.am  1 <1>  -0.6600 
  4 C       -1.7710     2.2990    -0.4860 C.ar  1 <1>   0.0860 
  5 C       -3.4720     0.4710     1.2550 C.3   1 <1>   0.2350 
  6 C       -2.8260    -1.3580    -0.1970 C.3   1 <1>   0.2350 
  7 C       -0.6500     3.0680    -0.1900 C.ar  1 <1>  -0.1500 
  8 C       -2.9630     2.9690    -0.7520 C.ar  1 <1>  -0.1500 
  9 C       -4.7090    -0.3760     1.0220 C.3   1 <1>  -0.2420 
 10 C       -4.3000    -1.5310     0.1380 C.3   1 <1>  -0.2420 
 11 C       -0.7100     4.4570    -0.1440 C.ar  1 <1>   0.0820 
 12 C       -3.0390     4.3490    -0.7040 C.ar  1 <1>  -0.1500 
 13 C       -5.6510    -0.2760     2.2240 C.2   1 <1>   0.9470 
 14 C       -5.3140    -0.5270    -0.3520 C.3   1 <1>  -0.2000 
 15 C       -4.6800    -3.0130     0.1820 C.2   1 <1>   0.9470 
 16 O        0.3710     5.2310     0.1400 O.3   1 <1>  -0.3630 
 17 C       -1.9170     5.1010    -0.4000 C.ar  1 <1>  -0.1440 
 18 O       -6.8010     0.1540     2.0600 O.co2 1 <1>  -0.9000 
 19 O       -5.1920    -0.4520     3.3610 O.co2 1 <1>  -0.9000 
 20 O       -5.5760    -3.4350    -0.5630 O.co2 1 <1>  -0.9000 
 21 O       -3.9820    -3.7910     0.8460 O.co2 1 <1>  -0.9000 
 22 C        1.6530     4.6720     0.3190 C.3   1 <1>   0.0400 
 23 C       -2.0140     6.6190    -0.3490 C.3   1 <1>  -0.0970 
 24 H       -3.0550     0.2420     2.2210 H     1 <1>   0.0800 
 25 H       -3.7130     1.5160     1.2130 H     1 <1>   0.0800 
 26 H       -2.6470    -1.5240    -1.2450 H     1 <1>   0.0800 
 27 H       -2.2270    -2.0370     0.3860 H     1 <1>   0.0800 
 28 H        0.2650     2.5400    -0.0010 H     1 <1>   0.1500 
 29 H       -3.8400     2.3920    -0.9940 H     1 <1>   0.1500 
 30 H       -3.9800     4.8290    -0.9060 H     1 <1>   0.1500 
 31 H       -5.0430     0.1510    -1.1380 H     1 <1>   0.1000 
 32 H       -6.3410    -0.8450    -0.4170 H     1 <1>   0.1000 
 33 H        2.3460     5.4760     0.4910 H     1 <1>   0.0800 
 34 H        1.9280     4.1360    -0.5720 H     1 <1>   0.0800 
 35 H        1.6330     4.0180     1.1730 H     1 <1>   0.0800 
 36 H       -3.0120     6.9530    -0.5640 H     1 <1>   0.0800 
 37 H       -1.3430     7.0500    -1.0700 H     1 <1>   0.0800 
 38 H       -1.7370     6.9670     0.6300 H     1 <1>   0.0800 
@<TRIPOS>BOND
  1   1   2  2   
  2   2   3  am  
  3   2   4  1   
  4   3   5  1   
  5   3   6  1   
  6   4   7  ar  
  7   4   8  ar  
  8   5   9  1   
  9   5  24  1   
 10   5  25  1   
 11   6  10  1   
 12   6  26  1   
 13   6  27  1   
 14   7  11  ar  
 15   7  28  1   
 16   8  12  ar  
 17   8  29  1   
 18   9  10  1   
 19   9  13  1   
 20   9  14  1   
 21  10  14  1   
 22  10  15  1   
 23  11  16  1   
 24  11  17  ar  
 25  12  17  ar  
 26  12  30  1   
 27  13  18  ar  
 28  13  19  ar  
 29  14  31  1   
 30  14  32  1   
 31  15  20  ar  
 32  15  21  ar  
 33  16  22  1   
 34  17  23  1   
 35  22  33  1   
 36  22  34  1   
 37  22  35  1   
 38  23  36  1   
 39  23  37  1   
 40  23  38  1   
@<TRIPOS>SUBSTRUCTURE
  1 ****   3 GROUP 4 **** **** 0

# MOE 2024.06 (io_trps.svl 2023.06)
