@<TRIPOS>MOLECULE
NONAME
50 52 1 0 0 
SMALL
USER_CHARGES


@<TRIPOS>ATOM
  1 CL       1.0540     0.4580    -0.8290 Cl    1 <1>  -0.1770 
  2 C        0.8870     2.1210    -0.3290 C.ar  1 <1>   0.1770 
  3 C       -0.1480     2.8810    -0.8380 C.ar  1 <1>  -0.1500 
  4 C        1.7940     2.6530     0.5680 C.ar  1 <1>  -0.1500 
  5 C       -0.2760     4.2020    -0.4410 C.ar  1 <1>  -0.1500 
  6 C        1.6600     3.9730     0.9620 C.ar  1 <1>  -0.1500 
  7 C        0.6270     4.7520     0.4590 C.ar  1 <1>  -0.1430 
  8 C        0.4890     6.2050     0.8860 C.3   1 <1>  -0.0160 
  9 C        1.2980     7.1110    -0.0540 C.3   1 <1>  -0.0990 
 10 C        1.2720     8.5830     0.3410 C.2   1 <1>   0.5690 
 11 O        0.4310     8.9440     1.1300 O.2   1 <1>  -0.5700 
 12 N        2.1810     9.4640    -0.1960 N.am  1 <1>  -0.6600 
 13 C        3.1440     9.1060    -1.2850 C.3   1 <1>   0.1400 
 14 C        2.1720    10.8930     0.2420 C.3   1 <1>   0.1400 
 15 C        4.5060     8.6800    -0.7180 C.3   1 <1>   0.1400 
 16 C        3.5670    11.5250     0.3500 C.3   1 <1>  -0.1600 
 17 N        5.2940     9.8330    -0.1790 N.am  1 <1>  -0.6600 
 18 C        4.6390    10.5940     0.9250 C.3   1 <1>   0.1400 
 19 C        6.5710    10.0800    -0.6310 C.2   1 <1>   0.6300 
 20 O        7.0900     9.3840    -1.4750 O.2   1 <1>  -0.5700 
 21 C        7.4050    11.2330    -0.0950 C.3   1 <1>   0.0000 
 22 C        8.1570    10.7730     1.1370 C.2   1 <1>   0.6300 
 23 C        8.1240    12.1370    -1.0670 C.3   1 <1>  -0.2000 
 24 C        6.9800    12.6700    -0.2690 C.3   1 <1>  -0.2000 
 25 O        7.7910    11.1140     2.2330 O.2   1 <1>  -0.5700 
 26 N        9.2390     9.9860     0.9960 N.am  1 <1>  -0.8000 
 27 H       -0.8420     2.4440    -1.5330 H     1 <1>   0.1500 
 28 H        2.5890     2.0400     0.9510 H     1 <1>   0.1500 
 29 H       -1.0810     4.7990    -0.8340 H     1 <1>   0.1500 
 30 H        2.3630     4.3920     1.6620 H     1 <1>   0.1500 
 31 H        0.8420     6.3220     1.8960 H     1 <1>   0.0800 
 32 H       -0.5480     6.4940     0.8700 H     1 <1>   0.0800 
 33 H        0.9050     7.0200    -1.0490 H     1 <1>   0.0800 
 34 H        2.3130     6.7670    -0.0560 H     1 <1>   0.0800 
 35 H        3.2750     9.9390    -1.9540 H     1 <1>   0.0800 
 36 H        2.7440     8.2970    -1.8690 H     1 <1>   0.0800 
 37 H        1.7050    10.9590     1.2100 H     1 <1>   0.0800 
 38 H        1.5690    11.4640    -0.4430 H     1 <1>   0.0800 
 39 H        5.0560     8.1990    -1.5080 H     1 <1>   0.0800 
 40 H        4.3660     7.9530     0.0620 H     1 <1>   0.0800 
 41 H        3.4780    12.3790     0.9980 H     1 <1>   0.0800 
 42 H        3.8750    11.8970    -0.6100 H     1 <1>   0.0800 
 43 H        4.2040     9.9100     1.6350 H     1 <1>   0.0800 
 44 H        5.3640    11.1810     1.4580 H     1 <1>   0.0800 
 45 H        7.9900    11.9620    -2.1210 H     1 <1>   0.1000 
 46 H        9.1180    12.4740    -0.8280 H     1 <1>   0.1000 
 47 H        7.1770    13.3570     0.5360 H     1 <1>   0.1000 
 48 H        6.0650    12.8920    -0.7880 H     1 <1>   0.1000 
 49 H        9.7460     9.6620     1.8200 H     1 <1>   0.3700 
 50 H        9.5290     9.6090     0.0920 H     1 <1>   0.3700 
@<TRIPOS>BOND
  1   1   2  1   
  2   2   3  ar  
  3   2   4  ar  
  4   3   5  ar  
  5   3  27  1   
  6   4   6  ar  
  7   4  28  1   
  8   5   7  ar  
  9   5  29  1   
 10   6   7  ar  
 11   6  30  1   
 12   7   8  1   
 13   8   9  1   
 14   8  31  1   
 15   8  32  1   
 16   9  10  1   
 17   9  33  1   
 18   9  34  1   
 19  10  11  2   
 20  10  12  am  
 21  12  13  1   
 22  12  14  1   
 23  13  15  1   
 24  13  35  1   
 25  13  36  1   
 26  14  16  1   
 27  14  37  1   
 28  14  38  1   
 29  15  17  1   
 30  15  39  1   
 31  15  40  1   
 32  16  18  1   
 33  16  41  1   
 34  16  42  1   
 35  17  18  1   
 36  17  19  am  
 37  18  43  1   
 38  18  44  1   
 39  19  20  2   
 40  19  21  1   
 41  21  22  1   
 42  21  23  1   
 43  21  24  1   
 44  22  25  2   
 45  22  26  am  
 46  23  24  1   
 47  23  45  1   
 48  23  46  1   
 49  24  47  1   
 50  24  48  1   
 51  26  49  1   
 52  26  50  1   
@<TRIPOS>SUBSTRUCTURE
  1 ****  15 GROUP 4 **** **** 0

# MOE 2024.06 (io_trps.svl 2023.06)
