@<TRIPOS>MOLECULE
NONAME
50 51 1 0 0 
SMALL
USER_CHARGES


@<TRIPOS>ATOM
  1 O       -2.1360     0.3170     1.3080 O.2   1 <1>  -0.5700 
  2 C       -2.2160     0.8430     0.2270 C.2   1 <1>   0.5690 
  3 N       -2.7590     0.1730    -0.8350 N.am  1 <1>  -0.6600 
  4 C       -1.7770     2.2920     0.0970 C.3   1 <1>  -0.0990 
  5 C       -2.6010    -1.3070    -0.9090 C.3   1 <1>   0.3200 
  6 C       -3.6450     0.8310    -1.8520 C.3   1 <1>   0.1400 
  7 C       -0.3760     2.5470     0.6740 C.3   1 <1>   0.0630 
  8 C       -3.9270    -1.9490    -0.5690 C.2   1 <1>  -0.3320 
  9 C       -4.8170     1.5950    -1.1910 C.3   1 <1>   0.3430 
 10 C       -0.0910     4.0470     0.6480 C.ar  1 <1>  -0.1440 
 11 C        0.7140     1.7590    -0.0680 C.3   1 <1>  -0.2400 
 12 N       -4.7400    -2.5690    -1.4480 N.pl3 1 <1>   0.0330 
 13 C       -4.5280    -2.0380     0.6380 C.2   1 <1>   0.0770 
 14 N       -5.4400     0.7840    -0.0980 N.4   1 <1>  -0.9590 
 15 C       -0.0520     4.7570     1.8390 C.ar  1 <1>  -0.1500 
 16 C        0.1190     4.7260    -0.5450 C.ar  1 <1>  -0.1500 
 17 C       -5.8110    -2.9520    -0.7210 C.2   1 <1>   0.0360 
 18 N       -5.7340    -2.6240     0.5280 N.2   1 <1>  -0.5650 
 19 C       -6.8220     0.3130    -0.4110 C.3   1 <1>   0.2630 
 20 C       -5.3970     1.4600     1.2340 C.3   1 <1>   0.2630 
 21 C        0.1890     6.1200     1.8400 C.ar  1 <1>  -0.1500 
 22 C        0.3600     6.0890    -0.5460 C.ar  1 <1>  -0.1500 
 23 C        0.3950     6.7880     0.6470 C.ar  1 <1>  -0.1500 
 24 H       -2.4790     2.9050     0.6280 H     1 <1>   0.0800 
 25 H       -1.7790     2.5940    -0.9320 H     1 <1>   0.0800 
 26 H       -1.8530    -1.6340    -0.2040 H     1 <1>   0.0800 
 27 H       -2.2710    -1.5930    -1.8940 H     1 <1>   0.0800 
 28 H       -4.0500     0.0860    -2.5130 H     1 <1>   0.0800 
 29 H       -3.0650     1.5070    -2.4560 H     1 <1>   0.0800 
 30 H       -0.3670     2.2190     1.7010 H     1 <1>   0.0800 
 31 H       -5.5530     1.8470    -1.9370 H     1 <1>   0.0800 
 32 H       -4.4400     2.5190    -0.7840 H     1 <1>   0.0800 
 33 H        0.7000     1.9680    -1.1220 H     1 <1>   0.0800 
 34 H        0.5800     0.7020     0.0770 H     1 <1>   0.0800 
 35 H        1.6810     2.0290     0.3200 H     1 <1>   0.0800 
 36 H       -4.5810    -2.7630    -2.4440 H     1 <1>   0.2700 
 37 H       -4.1520    -1.6940     1.5910 H     1 <1>   0.1500 
 38 H       -4.8440    -0.0670    -0.0080 H     1 <1>   0.4500 
 39 H       -0.2080     4.2550     2.7790 H     1 <1>   0.1500 
 40 H        0.1000     4.2030    -1.4840 H     1 <1>   0.1500 
 41 H       -6.6400    -3.4850    -1.1560 H     1 <1>   0.1500 
 42 H       -7.5010     1.1470    -0.4790 H     1 <1>   0.0800 
 43 H       -7.1660    -0.3560     0.3630 H     1 <1>   0.0800 
 44 H       -6.8300    -0.2250    -1.3440 H     1 <1>   0.0800 
 45 H       -5.9690     2.3720     1.2140 H     1 <1>   0.0800 
 46 H       -4.3790     1.6890     1.5050 H     1 <1>   0.0800 
 47 H       -5.8060     0.8090     1.9910 H     1 <1>   0.0800 
 48 H        0.2170     6.6600     2.7700 H     1 <1>   0.1500 
 49 H        0.5240     6.6070    -1.4750 H     1 <1>   0.1500 
 50 H        0.5840     7.8470     0.6470 H     1 <1>   0.1500 
@<TRIPOS>BOND
  1   1   2  2   
  2   2   3  am  
  3   2   4  1   
  4   3   5  1   
  5   3   6  1   
  6   4   7  1   
  7   4  24  1   
  8   4  25  1   
  9   5   8  1   
 10   5  26  1   
 11   5  27  1   
 12   6   9  1   
 13   6  28  1   
 14   6  29  1   
 15   7  10  1   
 16   7  11  1   
 17   7  30  1   
 18   8  12  1   
 19   8  13  2   
 20   9  14  1   
 21   9  31  1   
 22   9  32  1   
 23  10  15  ar  
 24  10  16  ar  
 25  11  33  1   
 26  11  34  1   
 27  11  35  1   
 28  12  17  1   
 29  12  36  1   
 30  13  18  1   
 31  13  37  1   
 32  14  19  1   
 33  14  20  1   
 34  14  38  1   
 35  15  21  ar  
 36  15  39  1   
 37  16  22  ar  
 38  16  40  1   
 39  17  18  2   
 40  17  41  1   
 41  19  42  1   
 42  19  43  1   
 43  19  44  1   
 44  20  45  1   
 45  20  46  1   
 46  20  47  1   
 47  21  23  ar  
 48  21  48  1   
 49  22  23  ar  
 50  22  49  1   
 51  23  50  1   
@<TRIPOS>SUBSTRUCTURE
  1 ****   2 GROUP 4 **** **** 0

# MOE 2024.06 (io_trps.svl 2023.06)
