@<TRIPOS>MOLECULE
NONAME
49 53 1 0 0 
SMALL
USER_CHARGES


@<TRIPOS>ATOM
  1 O       -0.6350     0.0630    -0.4750 O.2   1 <1>  -0.5700 
  2 C       -1.6060     0.7520    -0.7250 C.2   1 <1>   0.5440 
  3 N       -2.8090     0.1300    -0.9900 N.am  1 <1>  -0.6600 
  4 C       -1.4670     2.1960    -0.7340 C.ar  1 <1>   0.0860 
  5 C       -4.1450     0.7630    -0.7590 C.3   1 <1>   0.1400 
  6 C       -2.8930    -1.3310    -1.3020 C.3   1 <1>   0.1400 
  7 C       -0.7690     2.8490     0.2880 C.ar  1 <1>  -0.1500 
  8 C       -2.0100     2.9760    -1.7690 C.ar  1 <1>  -0.1500 
  9 C       -4.9730    -0.0410     0.2640 C.3   1 <1>   0.1900 
 10 C       -3.7560    -2.0710    -0.2680 C.3   1 <1>   0.1100 
 11 C       -0.6530     4.2230     0.2520 C.ar  1 <1>   0.0820 
 12 C       -1.8860     4.3580    -1.7920 C.ar  1 <1>  -0.1500 
 13 N       -5.1000    -1.4610    -0.1520 N.3   1 <1>  -0.8100 
 14 C       -6.3660     0.5960     0.4450 C.3   1 <1>   0.1200 
 15 O       -0.0330     5.0270     1.1220 O.3   1 <1>  -0.3630 
 16 C       -1.1970     4.9600    -0.7590 C.ar  1 <1>   0.0820 
 17 C       -5.9560    -2.1950     0.8100 C.3   1 <1>   0.3330 
 18 O       -7.1230    -0.1300     1.3710 O.3   1 <1>  -0.5600 
 19 C       -0.1790     6.3580     0.6280 C.3   1 <1>   0.4000 
 20 O       -0.9470     6.2560    -0.5690 O.3   1 <1>  -0.3630 
 21 C       -6.2130    -3.6250     0.3380 C.ar  1 <1>  -0.1430 
 22 C       -7.3060    -1.4720     1.0030 C.3   1 <1>   0.1200 
 23 C       -6.5950    -3.8860    -0.9710 C.ar  1 <1>  -0.1500 
 24 C       -6.0710    -4.6860     1.2210 C.ar  1 <1>  -0.1500 
 25 C       -6.8330    -5.1830    -1.3910 C.ar  1 <1>  -0.1500 
 26 C       -6.3080    -5.9850     0.8030 C.ar  1 <1>  -0.1500 
 27 C       -6.6900    -6.2340    -0.5030 C.ar  1 <1>  -0.1500 
 28 H       -4.0250     1.7660    -0.3930 H     1 <1>   0.0800 
 29 H       -4.6780     0.8050    -1.6930 H     1 <1>   0.0800 
 30 H       -3.3310    -1.4570    -2.2760 H     1 <1>   0.0800 
 31 H       -1.9120    -1.7720    -1.3250 H     1 <1>   0.0800 
 32 H       -0.3240     2.2870     1.0890 H     1 <1>   0.1500 
 33 H       -2.5300     2.4810    -2.5700 H     1 <1>   0.1500 
 34 H       -4.4640     0.0100     1.2120 H     1 <1>   0.0800 
 35 H       -3.2550    -2.0520     0.6850 H     1 <1>   0.0800 
 36 H       -3.8460    -3.0980    -0.5770 H     1 <1>   0.0800 
 37 H       -2.3030     4.9540    -2.5840 H     1 <1>   0.1500 
 38 H       -6.8970     0.6200    -0.4900 H     1 <1>   0.0800 
 39 H       -6.2730     1.5990     0.8200 H     1 <1>   0.0800 
 40 H       -5.4600    -2.2260     1.7650 H     1 <1>   0.0800 
 41 H       -0.7070     6.9570     1.3480 H     1 <1>   0.0800 
 42 H        0.7900     6.7660     0.4010 H     1 <1>   0.0800 
 43 H       -7.8710    -1.9530     1.7800 H     1 <1>   0.0800 
 44 H       -7.8790    -1.5030     0.0930 H     1 <1>   0.0800 
 45 H       -6.7020    -3.0710    -1.6670 H     1 <1>   0.1500 
 46 H       -5.7750    -4.5090     2.2400 H     1 <1>   0.1500 
 47 H       -7.1290    -5.3730    -2.4080 H     1 <1>   0.1500 
 48 H       -6.1960    -6.8020     1.4940 H     1 <1>   0.1500 
 49 H       -6.8750    -7.2420    -0.8280 H     1 <1>   0.1500 
@<TRIPOS>BOND
  1   1   2  2   
  2   2   3  am  
  3   2   4  1   
  4   3   5  1   
  5   3   6  1   
  6   4   7  ar  
  7   4   8  ar  
  8   5   9  1   
  9   5  28  1   
 10   5  29  1   
 11   6  10  1   
 12   6  30  1   
 13   6  31  1   
 14   7  11  ar  
 15   7  32  1   
 16   8  12  ar  
 17   8  33  1   
 18   9  13  1   
 19   9  14  1   
 20   9  34  1   
 21  10  13  1   
 22  10  35  1   
 23  10  36  1   
 24  11  15  1   
 25  11  16  ar  
 26  12  16  ar  
 27  12  37  1   
 28  13  17  1   
 29  14  18  1   
 30  14  38  1   
 31  14  39  1   
 32  15  19  1   
 33  16  20  1   
 34  17  21  1   
 35  17  22  1   
 36  17  40  1   
 37  18  22  1   
 38  19  20  1   
 39  19  41  1   
 40  19  42  1   
 41  21  23  ar  
 42  21  24  ar  
 43  22  43  1   
 44  22  44  1   
 45  23  25  ar  
 46  23  45  1   
 47  24  26  ar  
 48  24  46  1   
 49  25  27  ar  
 50  25  47  1   
 51  26  27  ar  
 52  26  48  1   
 53  27  49  1   
@<TRIPOS>SUBSTRUCTURE
  1 ****   5 GROUP 4 **** **** 0

# MOE 2024.06 (io_trps.svl 2023.06)
