@<TRIPOS>MOLECULE
NONAME
52 55 1 0 0 
SMALL
USER_CHARGES


@<TRIPOS>ATOM
  1 O       -2.9050     1.2870    -2.6560 O.2   1 <1>  -0.5700 
  2 C       -2.6350     1.5180    -1.5050 C.2   1 <1>   0.5690 
  3 N       -2.4980     0.5310    -0.5880 N.am  1 <1>  -0.7300 
  4 C       -2.4440     2.9530    -1.0590 C.3   1 <1>  -0.0990 
  5 C       -2.6020    -0.9160    -0.8760 C.3   1 <1>   0.2200 
  6 C       -0.9940     3.2430    -0.6370 C.3   1 <1>  -0.1600 
  7 C       -3.8150    -1.4830    -0.1580 C.3   1 <1>  -0.0800 
  8 C       -1.4610    -1.6530    -0.1850 C.3   1 <1>   0.1200 
  9 C       -0.8070     4.7060    -0.2150 C.3   1 <1>   0.0210 
 10 C       -3.2630    -1.7620     1.2460 C.3   1 <1>   0.1200 
 11 C       -4.3320    -2.7600    -0.8470 C.3   1 <1>  -0.0160 
 12 O       -1.8700    -1.8370     1.1370 O.3   1 <1>  -0.5600 
 13 C        0.6100     4.9970     0.2530 C.2   1 <1>  -0.1810 
 14 C       -5.5610    -3.3150    -0.1420 C.ar  1 <1>  -0.1440 
 15 C        1.0130     6.2600     0.7440 C.ar  1 <1>   0.0000 
 16 C        1.6920     4.1810     0.2950 C.2   1 <1>  -0.3020 
 17 C       -5.5040    -4.4400     0.6560 C.ar  1 <1>  -0.1500 
 18 C       -6.8000    -2.7190    -0.2680 C.ar  1 <1>  -0.1500 
 19 C        2.3600     6.1450     1.0730 C.ar  1 <1>  -0.1520 
 20 C        0.3600     7.4830     0.9390 C.ar  1 <1>  -0.1500 
 21 N        2.7630     4.8660     0.7930 N.pl3 1 <1>   0.0330 
 22 C       -6.6550    -4.8970     1.2770 C.ar  1 <1>   0.1600 
 23 C       -7.8890    -3.2580     0.3960 C.ar  1 <1>   0.1600 
 24 C        3.0690     7.2300     1.5950 C.ar  1 <1>  -0.1500 
 25 C        1.0580     8.5510     1.4530 C.ar  1 <1>  -0.1500 
 26 N       -7.8460    -4.3320     1.1670 N.ar  1 <1>  -0.6200 
 27 C        2.4130     8.4250     1.7810 C.ar  1 <1>  -0.1500 
 28 H       -2.2370     0.7510     0.3760 H     1 <1>   0.3700 
 29 H       -2.7180     3.6000    -1.8730 H     1 <1>   0.0800 
 30 H       -3.1130     3.1490    -0.2410 H     1 <1>   0.0800 
 31 H       -2.6150    -1.0890    -1.9390 H     1 <1>   0.0800 
 32 H       -0.7210     2.6040     0.1850 H     1 <1>   0.0800 
 33 H       -0.3360     3.0280    -1.4620 H     1 <1>   0.0800 
 34 H       -4.6140    -0.7630    -0.1220 H     1 <1>   0.0800 
 35 H       -0.5370    -1.1010    -0.2060 H     1 <1>   0.0800 
 36 H       -1.3150    -2.6250    -0.6210 H     1 <1>   0.0800 
 37 H       -1.4840     4.9380     0.5880 H     1 <1>   0.0800 
 38 H       -1.0350     5.3530    -1.0430 H     1 <1>   0.0800 
 39 H       -3.6280    -2.6810     1.6690 H     1 <1>   0.0800 
 40 H       -3.4920    -0.9490     1.9130 H     1 <1>   0.0800 
 41 H       -3.5620    -3.5100    -0.8730 H     1 <1>   0.0800 
 42 H       -4.5960    -2.5320    -1.8660 H     1 <1>   0.0800 
 43 H        1.7720     3.1500     0.0020 H     1 <1>   0.1500 
 44 H       -4.5780    -4.9650     0.8030 H     1 <1>   0.1500 
 45 H       -6.9280    -1.8420    -0.8760 H     1 <1>   0.1500 
 46 H       -0.6790     7.5690     0.6830 H     1 <1>   0.1500 
 47 H        3.7090     4.5000     0.9360 H     1 <1>   0.2700 
 48 H       -6.5920    -5.7760     1.8960 H     1 <1>   0.1500 
 49 H       -8.8470    -2.7790     0.2860 H     1 <1>   0.1500 
 50 H        4.1100     7.1240     1.8440 H     1 <1>   0.1500 
 51 H        0.5680     9.4960     1.6070 H     1 <1>   0.1500 
 52 H        2.9360     9.2760     2.1810 H     1 <1>   0.1500 
@<TRIPOS>BOND
  1   1   2  2   
  2   2   3  am  
  3   2   4  1   
  4   3   5  1   
  5   3  28  1   
  6   4   6  1   
  7   4  29  1   
  8   4  30  1   
  9   5   7  1   
 10   5   8  1   
 11   5  31  1   
 12   6   9  1   
 13   6  32  1   
 14   6  33  1   
 15   7  10  1   
 16   7  11  1   
 17   7  34  1   
 18   8  12  1   
 19   8  35  1   
 20   8  36  1   
 21   9  13  1   
 22   9  37  1   
 23   9  38  1   
 24  10  12  1   
 25  10  39  1   
 26  10  40  1   
 27  11  14  1   
 28  11  41  1   
 29  11  42  1   
 30  13  15  1   
 31  13  16  2   
 32  14  17  ar  
 33  14  18  ar  
 34  15  19  ar  
 35  15  20  ar  
 36  16  21  1   
 37  16  43  1   
 38  17  22  ar  
 39  17  44  1   
 40  18  23  ar  
 41  18  45  1   
 42  19  21  1   
 43  19  24  ar  
 44  20  25  ar  
 45  20  46  1   
 46  21  47  1   
 47  22  26  ar  
 48  22  48  1   
 49  23  26  ar  
 50  23  49  1   
 51  24  27  ar  
 52  24  50  1   
 53  25  27  ar  
 54  25  51  1   
 55  27  52  1   
@<TRIPOS>SUBSTRUCTURE
  1 ****   3 GROUP 4 **** **** 0

# MOE 2024.06 (io_trps.svl 2023.06)
