@<TRIPOS>MOLECULE
NONAME
55 58 1 0 0 
SMALL
USER_CHARGES


@<TRIPOS>ATOM
  1 O       -1.2570     0.6290     1.4740 O.2   1 <1>  -0.5700 
  2 C       -1.9430     0.6540     0.4810 C.2   1 <1>   0.5770 
  3 N       -2.3320    -0.5190    -0.1350 N.am  1 <1>  -0.6600 
  4 C       -2.3840     2.0120    -0.0700 C.3   1 <1>   0.0530 
  5 C       -1.8820    -1.8360     0.3880 C.3   1 <1>   0.1400 
  6 C       -3.2180    -0.6100    -1.3210 C.3   1 <1>   0.1400 
  7 C       -1.9910     3.2730     0.7540 C.3   1 <1>   0.0000 
  8 C       -3.8610     2.3780     0.2400 C.3   1 <1>   0.0000 
  9 C       -3.1150    -2.6210     0.8300 C.3   1 <1>  -0.1600 
 10 C       -4.4810    -1.3750    -0.9160 C.3   1 <1>  -0.1600 
 11 C       -3.3840     3.8460     0.3880 C.3   1 <1>   0.0000 
 12 C       -4.1240    -2.7420    -0.3140 C.3   1 <1>   0.4230 
 13 N       -5.3380    -3.3910     0.2220 N.4   1 <1>  -0.9060 
 14 C       -6.3290    -3.8690    -0.7830 C.3   1 <1>   0.4230 
 15 C       -7.5510    -4.3970    -0.0340 C.3   1 <1>  -0.0800 
 16 C       -5.8040    -5.1580    -1.4060 C.3   1 <1>   0.1200 
 17 C       -7.1680    -5.8600     0.2630 C.3   1 <1>   0.1200 
 18 C       -8.8320    -4.2960    -0.8870 C.3   1 <1>  -0.0170 
 19 O       -5.9400    -6.0700    -0.3690 O.3   1 <1>  -0.5600 
 20 C      -10.0370    -4.8210    -0.1240 C.ar  1 <1>  -0.1430 
 21 C      -10.5830    -6.0630    -0.3820 C.ar  1 <1>  -0.1500 
 22 C      -10.6510    -4.0800     0.8670 C.ar  1 <1>  -0.1500 
 23 C      -11.6760    -6.4960     0.3510 C.ar  1 <1>   0.1600 
 24 C      -11.7420    -4.6070     1.5400 C.ar  1 <1>   0.1600 
 25 N      -12.2640    -5.7990     1.3080 N.ar  1 <1>  -0.6200 
 26 H       -2.1440     2.1400    -1.1130 H     1 <1>   0.0000 
 27 H       -1.3490    -2.3630    -0.3860 H     1 <1>   0.0800 
 28 H       -1.2090    -1.7150     1.2220 H     1 <1>   0.0800 
 29 H       -3.4840     0.3640    -1.6920 H     1 <1>   0.0800 
 30 H       -2.6980    -1.1290    -2.1090 H     1 <1>   0.0800 
 31 H       -1.8970     3.0980     1.8120 H     1 <1>   0.0000 
 32 H       -1.1700     3.8290     0.3360 H     1 <1>   0.0000 
 33 H       -4.5350     2.2230    -0.5840 H     1 <1>   0.0000 
 34 H       -4.2130     1.9620     1.1690 H     1 <1>   0.0000 
 35 H       -3.5490    -2.1070     1.6700 H     1 <1>   0.0800 
 36 H       -2.7990    -3.5970     1.1510 H     1 <1>   0.0800 
 37 H       -5.0920    -1.4970    -1.7910 H     1 <1>   0.0800 
 38 H       -5.0180    -0.7780    -0.2000 H     1 <1>   0.0800 
 39 H       -3.3820     4.3790    -0.5480 H     1 <1>   0.0000 
 40 H       -3.8610     4.3800     1.1900 H     1 <1>   0.0000 
 41 H       -3.6860    -3.3580    -1.0840 H     1 <1>   0.0800 
 42 H       -5.7810    -2.7690     0.9050 H     1 <1>   0.4500 
 43 H       -5.0540    -4.2440     0.7300 H     1 <1>   0.4500 
 44 H       -6.5720    -3.1080    -1.5060 H     1 <1>   0.0800 
 45 H       -7.7190    -3.8610     0.8830 H     1 <1>   0.0800 
 46 H       -4.7760    -5.1100    -1.7170 H     1 <1>   0.0800 
 47 H       -6.4190    -5.4840    -2.2280 H     1 <1>   0.0800 
 48 H       -7.8770    -6.5650    -0.1380 H     1 <1>   0.0800 
 49 H       -7.0460    -6.0440     1.3180 H     1 <1>   0.0800 
 50 H       -8.7240    -4.8490    -1.8050 H     1 <1>   0.0800 
 51 H       -9.0180    -3.2690    -1.1500 H     1 <1>   0.0800 
 52 H      -10.1790    -6.7040    -1.1430 H     1 <1>   0.1500 
 53 H      -10.3020    -3.0980     1.1260 H     1 <1>   0.1500 
 54 H      -12.0900    -7.4680     0.1380 H     1 <1>   0.1500 
 55 H      -12.2110    -4.0170     2.3090 H     1 <1>   0.1500 
@<TRIPOS>BOND
  1   1   2  2   
  2   2   3  am  
  3   2   4  1   
  4   3   5  1   
  5   3   6  1   
  6   4   7  1   
  7   4   8  1   
  8   4  26  1   
  9   5   9  1   
 10   5  27  1   
 11   5  28  1   
 12   6  10  1   
 13   6  29  1   
 14   6  30  1   
 15   7  11  1   
 16   7  31  1   
 17   7  32  1   
 18   8  11  1   
 19   8  33  1   
 20   8  34  1   
 21   9  12  1   
 22   9  35  1   
 23   9  36  1   
 24  10  12  1   
 25  10  37  1   
 26  10  38  1   
 27  11  39  1   
 28  11  40  1   
 29  12  13  1   
 30  12  41  1   
 31  13  14  1   
 32  13  42  1   
 33  13  43  1   
 34  14  15  1   
 35  14  16  1   
 36  14  44  1   
 37  15  17  1   
 38  15  18  1   
 39  15  45  1   
 40  16  19  1   
 41  16  46  1   
 42  16  47  1   
 43  17  19  1   
 44  17  48  1   
 45  17  49  1   
 46  18  20  1   
 47  18  50  1   
 48  18  51  1   
 49  20  21  ar  
 50  20  22  ar  
 51  21  23  ar  
 52  21  52  1   
 53  22  24  ar  
 54  22  53  1   
 55  23  25  ar  
 56  23  54  1   
 57  24  25  ar  
 58  24  55  1   
@<TRIPOS>SUBSTRUCTURE
  1 ****  13 GROUP 4 **** **** 0

# MOE 2024.06 (io_trps.svl 2023.06)
