@<TRIPOS>MOLECULE
NONAME
47 49 1 0 0 
SMALL
USER_CHARGES


@<TRIPOS>ATOM
  1 O       -0.7070    -1.4310     0.0240 O.3   1 <1>  -0.6800 
  2 C        0.4620    -1.7940    -0.6240 C.3   1 <1>   0.1200 
  3 C        1.6240    -1.9490     0.4060 C.3   1 <1>   0.0000 
  4 C        2.9450    -2.4520    -0.2360 C.3   1 <1>   0.4230 
  5 C        1.9350    -0.5610     1.0240 C.3   1 <1>  -0.1600 
  6 C        1.2670    -2.9360     1.5400 C.3   1 <1>  -0.1600 
  7 N        2.9890    -3.9500    -0.5430 N.4   1 <1>  -0.9590 
  8 C        3.4120    -1.4780    -1.3440 C.3   1 <1>   0.2090 
  9 C        2.4740     0.4560     0.0050 C.3   1 <1>   0.2090 
 10 C        1.1060    -4.3890     1.0520 C.3   1 <1>  -0.1600 
 11 C        1.7110    -4.6900    -0.3250 C.3   1 <1>   0.3430 
 12 C        3.5900    -4.3130    -1.8640 C.3   1 <1>   0.2630 
 13 N        3.6270    -0.1240    -0.7510 N.pl3 1 <1>  -0.8380 
 14 C        4.9060     0.2000    -0.3180 C.ar  1 <1>   0.4100 
 15 N        5.5420    -0.7820     0.3210 N.ar  1 <1>  -0.6200 
 16 C        5.4590     1.4690    -0.5440 C.ar  1 <1>   0.0730 
 17 C        6.7550    -0.5080     0.7670 C.ar  1 <1>   0.1670 
 18 C        4.7300     2.4740    -1.2540 C.1   1 <1>   0.4840 
 19 C        6.7300     1.7260    -0.0690 C.ar  1 <1>  -0.1500 
 20 C        7.3840     0.7140     0.6000 C.ar  1 <1>  -0.1500 
 21 C        7.4640    -1.6260     1.5020 C.3   1 <1>  -0.0970 
 22 N        4.1520     3.2930    -1.7990 N.1   1 <1>  -0.5570 
 23 H       -1.4270    -1.2310    -0.6090 H     1 <1>   0.4000 
 24 H        0.2570    -2.7020    -1.1560 H     1 <1>   0.0800 
 25 H        0.6740    -1.0290    -1.3490 H     1 <1>   0.0800 
 26 H        3.6850    -2.3150     0.5350 H     1 <1>   0.0800 
 27 H        2.6710    -0.6610     1.8030 H     1 <1>   0.0800 
 28 H        1.0510    -0.1530     1.4840 H     1 <1>   0.0800 
 29 H        2.0530    -2.9160     2.2760 H     1 <1>   0.0800 
 30 H        0.3680    -2.6230     2.0460 H     1 <1>   0.0800 
 31 H        3.6280    -4.3160     0.1780 H     1 <1>   0.4500 
 32 H        2.6910    -1.4090    -2.1380 H     1 <1>   0.0800 
 33 H        4.3460    -1.8090    -1.7620 H     1 <1>   0.0800 
 34 H        2.7870     1.3440     0.5290 H     1 <1>   0.0800 
 35 H        1.7050     0.7510    -0.6880 H     1 <1>   0.0800 
 36 H        0.0550    -4.6220     1.0020 H     1 <1>   0.0800 
 37 H        1.5320    -5.0560     1.7810 H     1 <1>   0.0800 
 38 H        1.0060    -4.4190    -1.0910 H     1 <1>   0.0800 
 39 H        1.8810    -5.7520    -0.4090 H     1 <1>   0.0800 
 40 H        2.9830    -3.9330    -2.6700 H     1 <1>   0.0800 
 41 H        3.6590    -5.3850    -1.9620 H     1 <1>   0.0800 
 42 H        4.5830    -3.9010    -1.9510 H     1 <1>   0.0800 
 43 H        7.1980     2.6860    -0.2160 H     1 <1>   0.1500 
 44 H        8.3750     0.8780     0.9860 H     1 <1>   0.1500 
 45 H        8.4390    -1.3180     1.8300 H     1 <1>   0.0800 
 46 H        7.5710    -2.4750     0.8520 H     1 <1>   0.0800 
 47 H        6.8870    -1.9150     2.3610 H     1 <1>   0.0800 
@<TRIPOS>BOND
  1   1   2  1   
  2   1  23  1   
  3   2   3  1   
  4   2  24  1   
  5   2  25  1   
  6   3   4  1   
  7   3   5  1   
  8   3   6  1   
  9   4   7  1   
 10   4   8  1   
 11   4  26  1   
 12   5   9  1   
 13   5  27  1   
 14   5  28  1   
 15   6  10  1   
 16   6  29  1   
 17   6  30  1   
 18   7  11  1   
 19   7  12  1   
 20   7  31  1   
 21   8  13  1   
 22   8  32  1   
 23   8  33  1   
 24   9  13  1   
 25   9  34  1   
 26   9  35  1   
 27  10  11  1   
 28  10  36  1   
 29  10  37  1   
 30  11  38  1   
 31  11  39  1   
 32  12  40  1   
 33  12  41  1   
 34  12  42  1   
 35  13  14  1   
 36  14  15  ar  
 37  14  16  ar  
 38  15  17  ar  
 39  16  18  1   
 40  16  19  ar  
 41  17  20  ar  
 42  17  21  1   
 43  18  22  3   
 44  19  20  ar  
 45  19  43  1   
 46  20  44  1   
 47  21  45  1   
 48  21  46  1   
 49  21  47  1   
@<TRIPOS>SUBSTRUCTURE
  1 ****  13 GROUP 4 **** **** 0

# MOE 2024.06 (io_trps.svl 2023.06)
