@<TRIPOS>MOLECULE
NONAME
53 56 1 0 0 
SMALL
USER_CHARGES


@<TRIPOS>ATOM
  1 S        0.5930    -0.4630     1.0740 S.o2  1 <1>   1.5760 
  2 O        1.6670    -1.4290     1.0610 O.2   1 <1>  -0.6500 
  3 O       -0.0620    -0.1040     2.3100 O.2   1 <1>  -0.6500 
  4 N       -0.5900    -0.9520    -0.0210 N.am  1 <1>  -0.8490 
  5 N        1.1380     0.9380     0.3160 N.am  1 <1>  -0.8490 
  6 C       -1.0800    -2.3030     0.3040 C.3   1 <1>   0.1960 
  7 C       -1.7320    -0.0210    -0.0510 C.3   1 <1>   0.1960 
  8 C        1.9730     1.6920     1.2500 C.3   1 <1>   0.3390 
  9 C        1.8650     0.6500    -0.9290 C.3   1 <1>   0.1160 
 10 C       -2.2050    -2.7510    -0.6530 C.3   1 <1>   0.3440 
 11 C       -2.8370    -0.5140    -1.0090 C.3   1 <1>   0.2950 
 12 C        2.3980     3.0300     0.6580 C.ar  1 <1>  -0.1440 
 13 O       -3.2430    -1.8050    -0.6590 O.3   1 <1>  -0.5600 
 14 C       -2.7590    -4.1100    -0.2360 C.ar  1 <1>  -0.1440 
 15 C       -4.0740     0.3870    -0.9550 C.3   1 <1>  -0.1950 
 16 C        1.4400     3.9670     0.3000 C.ar  1 <1>  -0.1500 
 17 C        3.7410     3.3250     0.4680 C.ar  1 <1>  -0.1500 
 18 C       -3.7480    -4.2190     0.7330 C.ar  1 <1>  -0.1500 
 19 C       -2.2600    -5.2660    -0.8210 C.ar  1 <1>  -0.1500 
 20 C       -5.0520     0.4300    -2.0860 C.3   1 <1>  -0.2000 
 21 C       -4.1730     1.6160    -1.8040 C.3   1 <1>  -0.2000 
 22 C        1.8170     5.1840    -0.2400 C.ar  1 <1>  -0.1500 
 23 C        4.1190     4.5420    -0.0730 C.ar  1 <1>  -0.1500 
 24 C       -4.2280    -5.4600     1.1120 C.ar  1 <1>  -0.1500 
 25 C       -2.7400    -6.5090    -0.4430 C.ar  1 <1>  -0.1500 
 26 C        3.1580     5.4720    -0.4270 C.ar  1 <1>  -0.1500 
 27 C       -3.7240    -6.6060     0.5250 C.ar  1 <1>  -0.1500 
 28 H       -0.2670    -3.0060     0.2340 H     1 <1>   0.0800 
 29 H       -1.4520    -2.3290     1.3150 H     1 <1>   0.0800 
 30 H       -2.1530     0.0870     0.9350 H     1 <1>   0.0800 
 31 H       -1.3990     0.9490    -0.3750 H     1 <1>   0.0800 
 32 H        1.4180     1.8920     2.1520 H     1 <1>   0.0800 
 33 H        2.8400     1.1110     1.5180 H     1 <1>   0.0800 
 34 H        2.1130     1.5640    -1.4410 H     1 <1>   0.0800 
 35 H        1.2510     0.0590    -1.5880 H     1 <1>   0.0800 
 36 H        2.7720     0.1050    -0.7240 H     1 <1>   0.0800 
 37 H       -1.8180    -2.8170    -1.6550 H     1 <1>   0.0800 
 38 H       -2.4550    -0.5430    -2.0150 H     1 <1>   0.0800 
 39 H       -4.4800     0.4500     0.0400 H     1 <1>   0.1000 
 40 H        0.3970     3.7440     0.4400 H     1 <1>   0.1500 
 41 H        4.4990     2.6120     0.7390 H     1 <1>   0.1500 
 42 H       -4.1500    -3.3320     1.1920 H     1 <1>   0.1500 
 43 H       -1.4950    -5.2090    -1.5750 H     1 <1>   0.1500 
 44 H       -4.8590    -0.1730    -2.9570 H     1 <1>   0.1000 
 45 H       -6.1010     0.4860    -1.8510 H     1 <1>   0.1000 
 46 H       -4.6230     2.5010    -1.3870 H     1 <1>   0.1000 
 47 H       -3.3890     1.8450    -2.5060 H     1 <1>   0.1000 
 48 H        1.0680     5.9060    -0.5150 H     1 <1>   0.1500 
 49 H        5.1610     4.7660    -0.2180 H     1 <1>   0.1500 
 50 H       -4.9960    -5.5310     1.8630 H     1 <1>   0.1500 
 51 H       -2.3490    -7.4000    -0.9010 H     1 <1>   0.1500 
 52 H        3.4520     6.4180    -0.8470 H     1 <1>   0.1500 
 53 H       -4.0980    -7.5710     0.8190 H     1 <1>   0.1500 
@<TRIPOS>BOND
  1   1   2  2   
  2   1   3  2   
  3   1   4  am  
  4   1   5  am  
  5   4   6  1   
  6   4   7  1   
  7   5   8  1   
  8   5   9  1   
  9   6  10  1   
 10   6  28  1   
 11   6  29  1   
 12   7  11  1   
 13   7  30  1   
 14   7  31  1   
 15   8  12  1   
 16   8  32  1   
 17   8  33  1   
 18   9  34  1   
 19   9  35  1   
 20   9  36  1   
 21  10  13  1   
 22  10  14  1   
 23  10  37  1   
 24  11  13  1   
 25  11  15  1   
 26  11  38  1   
 27  12  16  ar  
 28  12  17  ar  
 29  14  18  ar  
 30  14  19  ar  
 31  15  20  1   
 32  15  21  1   
 33  15  39  1   
 34  16  22  ar  
 35  16  40  1   
 36  17  23  ar  
 37  17  41  1   
 38  18  24  ar  
 39  18  42  1   
 40  19  25  ar  
 41  19  43  1   
 42  20  21  1   
 43  20  44  1   
 44  20  45  1   
 45  21  46  1   
 46  21  47  1   
 47  22  26  ar  
 48  22  48  1   
 49  23  26  ar  
 50  23  49  1   
 51  24  27  ar  
 52  24  50  1   
 53  25  27  ar  
 54  25  51  1   
 55  26  52  1   
 56  27  53  1   
@<TRIPOS>SUBSTRUCTURE
  1 ****   4 GROUP 4 **** **** 0

# MOE 2024.06 (io_trps.svl 2023.06)
