@<TRIPOS>MOLECULE
NONAME
56 59 1 0 0 
SMALL
USER_CHARGES


@<TRIPOS>ATOM
  1 F       -0.6640    -2.6050    -2.4210 F     1 <1>  -0.1900 
  2 C        0.4850    -2.6100    -1.8000 C.ar  1 <1>   0.1900 
  3 C        0.5810    -3.2500    -0.5840 C.ar  1 <1>  -0.1500 
  4 C        1.5610    -1.9760    -2.3900 C.ar  1 <1>  -0.1500 
  5 C        1.7970    -3.2760     0.0970 C.ar  1 <1>   0.0860 
  6 C        2.7710    -1.9880    -1.7230 C.ar  1 <1>  -0.1500 
  7 C        1.8630    -3.9760     1.3570 C.2   1 <1>   0.5440 
  8 C        2.8960    -2.6190    -0.4910 C.ar  1 <1>   0.0830 
  9 O        1.5930    -3.4000     2.3890 O.2   1 <1>  -0.5700 
 10 N        2.2170    -5.2830     1.4710 N.am  1 <1>  -0.7300 
 11 O        4.1360    -2.5870     0.0540 O.3   1 <1>  -0.3630 
 12 C        2.5910    -6.2540     0.4260 C.3   1 <1>   0.2200 
 13 C        4.3520    -2.1440     1.3820 C.3   1 <1>   0.1200 
 14 C        2.4880    -7.6600     1.0300 C.3   1 <1>  -0.1600 
 15 C        4.0170    -5.9590    -0.0410 C.3   1 <1>  -0.1600 
 16 C        5.8480    -1.9000     1.5890 C.3   1 <1>   0.0960 
 17 C        3.0720    -8.7600     0.1320 C.3   1 <1>   0.2200 
 18 C        4.5610    -7.0550    -0.9520 C.3   1 <1>   0.1400 
 19 N        6.5970    -3.1720     1.5960 N.pl3 1 <1>   0.3140 
 20 N        4.4530    -8.3780    -0.2740 N.am  1 <1>  -0.6600 
 21 C        2.2120    -9.0430    -1.1030 C.3   1 <1>  -0.2400 
 22 N        7.1050    -3.6900     2.7180 N.2   1 <1>  -0.4180 
 23 C        6.8470    -3.9970     0.5770 C.2   1 <1>  -0.3020 
 24 C        5.5280    -9.1560     0.0980 C.2   1 <1>   0.5690 
 25 N        7.6590    -4.8180     2.4340 N.2   1 <1>  -0.2270 
 26 C        7.5020    -5.0320     1.1240 C.2   1 <1>   0.0460 
 27 O        5.3870   -10.2650     0.5540 O.2   1 <1>  -0.5700 
 28 C        6.9580    -8.6380    -0.0190 C.3   1 <1>  -0.0990 
 29 C        7.9850    -6.3020     0.4460 C.3   1 <1>   0.0210 
 30 C        7.2490    -7.5300     1.0180 C.3   1 <1>  -0.1600 
 31 H       -0.2840    -3.7280    -0.1600 H     1 <1>   0.1500 
 32 H        1.4470    -1.4890    -3.3430 H     1 <1>   0.1500 
 33 H        3.6290    -1.5040    -2.1570 H     1 <1>   0.1500 
 34 H        2.2880    -5.6260     2.4310 H     1 <1>   0.3700 
 35 H        1.9130    -6.1660    -0.4070 H     1 <1>   0.0800 
 36 H        3.7940    -1.2360     1.5290 H     1 <1>   0.0800 
 37 H        4.0180    -2.8930     2.0760 H     1 <1>   0.0800 
 38 H        1.4590    -7.8860     1.2440 H     1 <1>   0.0800 
 39 H        3.0320    -7.6870     1.9580 H     1 <1>   0.0800 
 40 H        4.0360    -5.0430    -0.5940 H     1 <1>   0.0800 
 41 H        4.6590    -5.8500     0.8130 H     1 <1>   0.0800 
 42 H        6.0010    -1.4210     2.5380 H     1 <1>   0.0800 
 43 H        6.2360    -1.2620     0.8170 H     1 <1>   0.0800 
 44 H        3.1050    -9.6670     0.7120 H     1 <1>   0.0800 
 45 H        5.5760    -6.8250    -1.2110 H     1 <1>   0.0800 
 46 H        4.0010    -7.0800    -1.8700 H     1 <1>   0.0800 
 47 H        2.0550    -8.1640    -1.6980 H     1 <1>   0.0800 
 48 H        1.2520    -9.4160    -0.7950 H     1 <1>   0.0800 
 49 H        2.6850    -9.7990    -1.7040 H     1 <1>   0.0800 
 50 H        6.5350    -3.8080    -0.4320 H     1 <1>   0.1500 
 51 H        7.6320    -9.4580     0.1510 H     1 <1>   0.0800 
 52 H        7.1240    -8.3090    -1.0260 H     1 <1>   0.0800 
 53 H        7.8010    -6.2020    -0.6070 H     1 <1>   0.0800 
 54 H        9.0450    -6.4080     0.5900 H     1 <1>   0.0800 
 55 H        6.3200    -7.2060     1.4520 H     1 <1>   0.0800 
 56 H        7.8220    -7.9380     1.8330 H     1 <1>   0.0800 
@<TRIPOS>BOND
  1   1   2  1   
  2   2   3  ar  
  3   2   4  ar  
  4   3   5  ar  
  5   3  31  1   
  6   4   6  ar  
  7   4  32  1   
  8   5   7  1   
  9   5   8  ar  
 10   6   8  ar  
 11   6  33  1   
 12   7   9  2   
 13   7  10  am  
 14   8  11  1   
 15  10  12  1   
 16  10  34  1   
 17  11  13  1   
 18  12  14  1   
 19  12  15  1   
 20  12  35  1   
 21  13  16  1   
 22  13  36  1   
 23  13  37  1   
 24  14  17  1   
 25  14  38  1   
 26  14  39  1   
 27  15  18  1   
 28  15  40  1   
 29  15  41  1   
 30  16  19  1   
 31  16  42  1   
 32  16  43  1   
 33  17  20  1   
 34  17  21  1   
 35  17  44  1   
 36  18  20  1   
 37  18  45  1   
 38  18  46  1   
 39  19  22  1   
 40  19  23  1   
 41  20  24  am  
 42  21  47  1   
 43  21  48  1   
 44  21  49  1   
 45  22  25  2   
 46  23  26  2   
 47  23  50  1   
 48  24  27  2   
 49  24  28  1   
 50  25  26  1   
 51  26  29  1   
 52  28  30  1   
 53  28  51  1   
 54  28  52  1   
 55  29  30  1   
 56  29  53  1   
 57  29  54  1   
 58  30  55  1   
 59  30  56  1   
@<TRIPOS>SUBSTRUCTURE
  1 ****  15 GROUP 4 **** **** 0

# MOE 2024.06 (io_trps.svl 2023.06)
