@<TRIPOS>MOLECULE
NONAME
48 50 1 0 0 
SMALL
USER_CHARGES


@<TRIPOS>ATOM
  1 O       -1.1360     1.2740    -0.9980 O.2   1 <1>  -0.5700 
  2 C       -2.1550     1.4150    -0.3400 C.2   1 <1>   0.7160 
  3 N       -2.9950     0.3160    -0.2610 N.am  1 <1>  -0.6600 
  4 C       -2.3740     2.6900     0.3500 C.2   1 <1>   0.1410 
  5 C       -4.4160     0.2760    -0.6960 C.3   1 <1>   0.2200 
  6 C       -2.3840    -1.0350    -0.1170 C.3   1 <1>   0.0600 
  7 N       -3.4860     3.0870     1.0540 N.2   1 <1>  -0.5650 
  8 C       -1.4510     3.6930     0.4320 C.2   1 <1>  -0.3020 
  9 C       -4.8590     1.4120    -1.6130 C.3   1 <1>  -0.1600 
 10 C       -5.3630     0.3130     0.4940 C.3   1 <1>  -0.1600 
 11 C       -3.1770     4.2440     1.5380 C.2   1 <1>   0.0360 
 12 N       -1.9480     4.6750     1.1850 N.pl3 1 <1>   0.0480 
 13 C       -6.3760     1.5260    -1.4060 C.3   1 <1>  -0.0800 
 14 C       -6.6870     0.8760    -0.0450 C.3   1 <1>  -0.0800 
 15 C       -1.2640     5.9170     1.5830 C.3   1 <1>   0.0160 
 16 C       -6.8420     2.9820    -1.3000 C.3   1 <1>  -0.1600 
 17 C       -7.2650     1.9860     0.8430 C.3   1 <1>  -0.1600 
 18 C       -6.7570     3.2680     0.1970 C.3   1 <1>   0.4230 
 19 N       -7.4910     4.4870     0.6470 N.4   1 <1>  -0.9590 
 20 C       -8.9440     4.5310     0.2820 C.3   1 <1>   0.2630 
 21 C       -6.7870     5.7090     0.1550 C.3   1 <1>   0.2630 
 22 H       -4.5920    -0.6440    -1.2300 H     1 <1>   0.0800 
 23 H       -2.9670    -1.6320     0.5620 H     1 <1>   0.0800 
 24 H       -1.3830    -0.9500     0.2720 H     1 <1>   0.0800 
 25 H       -2.3400    -1.5190    -1.0770 H     1 <1>   0.0800 
 26 H       -0.4680     3.7140    -0.0050 H     1 <1>   0.1500 
 27 H       -4.3860     2.3350    -1.3430 H     1 <1>   0.0800 
 28 H       -4.6200     1.1890    -2.6380 H     1 <1>   0.0800 
 29 H       -5.4990    -0.6720     0.9030 H     1 <1>   0.0800 
 30 H       -4.9540     0.9490     1.2570 H     1 <1>   0.0800 
 31 H       -3.8140     4.8310     2.1750 H     1 <1>   0.1500 
 32 H       -6.8910     1.0080    -2.2000 H     1 <1>   0.0800 
 33 H       -7.3980     0.0740    -0.1660 H     1 <1>   0.0800 
 34 H       -0.6130     6.2360     0.7890 H     1 <1>   0.0800 
 35 H       -0.6820     5.7330     2.4680 H     1 <1>   0.0800 
 36 H       -1.9880     6.6850     1.7800 H     1 <1>   0.0800 
 37 H       -7.8560     3.0340    -1.6490 H     1 <1>   0.0800 
 38 H       -6.2250     3.6450    -1.8800 H     1 <1>   0.0800 
 39 H       -6.9440     1.8970     1.8660 H     1 <1>   0.0800 
 40 H       -8.3370     1.9270     0.7980 H     1 <1>   0.0800 
 41 H       -5.7150     3.3670     0.4540 H     1 <1>   0.0800 
 42 H       -7.4240     4.4790     1.6750 H     1 <1>   0.4500 
 43 H       -9.0620     4.5520    -0.7880 H     1 <1>   0.0800 
 44 H       -9.4050     5.4140     0.6950 H     1 <1>   0.0800 
 45 H       -9.4580     3.6680     0.6700 H     1 <1>   0.0800 
 46 H       -6.8410     5.7620    -0.9210 H     1 <1>   0.0800 
 47 H       -5.7490     5.6830     0.4450 H     1 <1>   0.0800 
 48 H       -7.2400     6.5960     0.5680 H     1 <1>   0.0800 
@<TRIPOS>BOND
  1   1   2  2   
  2   2   3  am  
  3   2   4  1   
  4   3   5  1   
  5   3   6  1   
  6   4   7  1   
  7   4   8  2   
  8   5   9  1   
  9   5  10  1   
 10   5  22  1   
 11   6  23  1   
 12   6  24  1   
 13   6  25  1   
 14   7  11  2   
 15   8  12  1   
 16   8  26  1   
 17   9  13  1   
 18   9  27  1   
 19   9  28  1   
 20  10  14  1   
 21  10  29  1   
 22  10  30  1   
 23  11  12  1   
 24  11  31  1   
 25  12  15  1   
 26  13  14  1   
 27  13  16  1   
 28  13  32  1   
 29  14  17  1   
 30  14  33  1   
 31  15  34  1   
 32  15  35  1   
 33  15  36  1   
 34  16  18  1   
 35  16  37  1   
 36  16  38  1   
 37  17  18  1   
 38  17  39  1   
 39  17  40  1   
 40  18  19  1   
 41  18  41  1   
 42  19  20  1   
 43  19  21  1   
 44  19  42  1   
 45  20  43  1   
 46  20  44  1   
 47  20  45  1   
 48  21  46  1   
 49  21  47  1   
 50  21  48  1   
@<TRIPOS>SUBSTRUCTURE
  1 ****   7 GROUP 4 **** **** 0

# MOE 2024.06 (io_trps.svl 2023.06)
