@<TRIPOS>MOLECULE
NONAME
51 54 1 0 0 
SMALL
USER_CHARGES


@<TRIPOS>ATOM
  1 S        0.0020     0.6690     0.6770 S.o2  1 <1>   1.5760 
  2 O       -0.6710     0.1770     1.8600 O.2   1 <1>  -0.6500 
  3 O        0.5260     2.0180     0.6540 O.2   1 <1>  -0.6500 
  4 N       -1.0230     0.4690    -0.6500 N.am  1 <1>  -0.8490 
  5 N        1.2340    -0.4000     0.2540 N.am  1 <1>  -0.8490 
  6 C       -1.9750     1.5710    -0.8730 C.3   1 <1>   0.1960 
  7 C       -1.6060    -0.8800    -0.7580 C.3   1 <1>   0.1960 
  8 C        2.0970    -0.6990     1.3970 C.3   1 <1>   0.1960 
  9 C        2.0170     0.0900    -0.8860 C.3   1 <1>   0.1960 
 10 C       -3.2170     1.5460     0.0570 C.3   1 <1>   0.1440 
 11 C       -3.1400    -0.9020    -0.6310 C.3   1 <1>  -0.1600 
 12 C        3.1250    -1.7740     1.0330 C.3   1 <1>  -0.1600 
 13 C        3.0360    -0.9620    -1.3320 C.3   1 <1>  -0.1600 
 14 C       -4.3320     2.2880    -0.6670 C.ar  1 <1>   0.1670 
 15 C       -3.6340     0.1000     0.4230 C.3   1 <1>  -0.1600 
 16 C       -3.0320     2.4200     1.3290 C.3   1 <1>  -0.1600 
 17 C        3.9750    -1.3540    -0.1780 C.3   1 <1>  -0.1860 
 18 N       -5.0120     1.8330    -1.6940 N.ar  1 <1>  -0.6200 
 19 C       -4.5500     3.5240    -0.1290 C.ar  1 <1>  -0.1440 
 20 C       -3.6260     3.8040     1.0270 C.3   1 <1>  -0.0170 
 21 C        4.9740    -2.4340    -0.5790 C.2   1 <1>   0.9060 
 22 C       -5.9230     2.6750    -2.1570 C.ar  1 <1>   0.7200 
 23 C       -5.5300     4.3060    -0.6900 C.ar  1 <1>   0.1600 
 24 O        4.5600    -3.5010    -1.0460 O.co2 1 <1>  -0.9000 
 25 O        6.1770    -2.2040    -0.4170 O.co2 1 <1>  -0.9000 
 26 N       -6.2360     3.8840    -1.7150 N.ar  1 <1>  -0.6200 
 27 N       -6.6400     2.2360    -3.1930 N.pl3 1 <1>  -0.9000 
 28 H       -2.3160     1.4890    -1.8910 H     1 <1>   0.0800 
 29 H       -1.4710     2.5200    -0.7970 H     1 <1>   0.0800 
 30 H       -1.1860    -1.5220     0.0000 H     1 <1>   0.0800 
 31 H       -1.3250    -1.2990    -1.7100 H     1 <1>   0.0800 
 32 H        1.5000    -1.0610     2.2180 H     1 <1>   0.0800 
 33 H        2.6040     0.1970     1.7160 H     1 <1>   0.0800 
 34 H        2.5320     0.9970    -0.6160 H     1 <1>   0.0800 
 35 H        1.3610     0.3080    -1.7110 H     1 <1>   0.0800 
 36 H       -3.4560    -1.8950    -0.3690 H     1 <1>   0.0800 
 37 H       -3.5790    -0.6670    -1.5850 H     1 <1>   0.0800 
 38 H        2.6120    -2.6940     0.8080 H     1 <1>   0.0800 
 39 H        3.7720    -1.9580     1.8730 H     1 <1>   0.0800 
 40 H        3.6190    -0.5800    -2.1510 H     1 <1>   0.0800 
 41 H        2.5130    -1.8350    -1.6830 H     1 <1>   0.0800 
 42 H       -4.7030     0.0370     0.5230 H     1 <1>   0.0800 
 43 H       -3.2030    -0.1770     1.3690 H     1 <1>   0.0800 
 44 H       -2.0070     2.4990     1.6410 H     1 <1>   0.0800 
 45 H       -3.5930     1.9900     2.1410 H     1 <1>   0.0800 
 46 H        4.5520    -0.4900     0.0960 H     1 <1>   0.0800 
 47 H       -2.8550     4.4890     0.7190 H     1 <1>   0.0800 
 48 H       -4.1540     4.2020     1.8760 H     1 <1>   0.0800 
 49 H       -5.7370     5.2860    -0.2950 H     1 <1>   0.1500 
 50 H       -7.5200     2.7210    -3.3440 H     1 <1>   0.4000 
 51 H       -6.6390     1.2290    -3.3200 H     1 <1>   0.4000 
@<TRIPOS>BOND
  1   1   2  2   
  2   1   3  2   
  3   1   4  am  
  4   1   5  am  
  5   4   6  1   
  6   4   7  1   
  7   5   8  1   
  8   5   9  1   
  9   6  10  1   
 10   6  28  1   
 11   6  29  1   
 12   7  11  1   
 13   7  30  1   
 14   7  31  1   
 15   8  12  1   
 16   8  32  1   
 17   8  33  1   
 18   9  13  1   
 19   9  34  1   
 20   9  35  1   
 21  10  14  1   
 22  10  15  1   
 23  10  16  1   
 24  11  15  1   
 25  11  36  1   
 26  11  37  1   
 27  12  17  1   
 28  12  38  1   
 29  12  39  1   
 30  13  17  1   
 31  13  40  1   
 32  13  41  1   
 33  14  18  ar  
 34  14  19  ar  
 35  15  42  1   
 36  15  43  1   
 37  16  20  1   
 38  16  44  1   
 39  16  45  1   
 40  17  21  1   
 41  17  46  1   
 42  18  22  ar  
 43  19  20  1   
 44  19  23  ar  
 45  20  47  1   
 46  20  48  1   
 47  21  24  ar  
 48  21  25  ar  
 49  22  26  ar  
 50  22  27  1   
 51  23  26  ar  
 52  23  49  1   
 53  27  50  1   
 54  27  51  1   
@<TRIPOS>SUBSTRUCTURE
  1 ****   4 GROUP 4 **** **** 0

# MOE 2024.06 (io_trps.svl 2023.06)
