@<TRIPOS>MOLECULE
NONAME
42 44 1 0 0 
SMALL
USER_CHARGES


@<TRIPOS>ATOM
  1 S       -0.1430    -0.0330    -0.6340 S.3   1 <1>  -0.0800 
  2 C       -1.3270    -0.9410     0.3110 C.2   1 <1>  -0.0450 
  3 C       -0.6410     1.4980     0.0540 C.2   1 <1>  -0.1400 
  4 C       -1.3910    -2.3740     0.1390 C.2   1 <1>   0.7150 
  5 C       -2.0160    -0.0630     1.0870 C.2   1 <1>  -0.1500 
  6 C       -1.6350     1.3020     0.9400 C.2   1 <1>  -0.1500 
  7 C        0.0950     2.7320    -0.4380 C.3   1 <1>   0.0200 
  8 O       -0.3990    -3.0060    -0.1780 O.2   1 <1>  -0.5700 
  9 N       -2.5680    -3.0690     0.3210 N.am  1 <1>  -0.6600 
 10 C       -0.4210     4.0150     0.2200 C.3   1 <1>  -0.2400 
 11 C       -3.9200    -2.4720     0.1870 C.3   1 <1>   0.1400 
 12 C       -2.6330    -4.5420     0.1560 C.3   1 <1>   0.1400 
 13 C       -4.8070    -3.6130    -0.3070 C.3   1 <1>   0.2000 
 14 C       -4.1210    -4.8940     0.1650 C.3   1 <1>  -0.0800 
 15 O       -6.0850    -3.5320     0.2230 O.3   1 <1>  -0.6800 
 16 C       -4.4710    -6.1130    -0.7020 C.3   1 <1>  -0.0170 
 17 C       -3.7590    -7.3610    -0.2020 C.ar  1 <1>  -0.1430 
 18 C       -2.5680    -7.7950    -0.7470 C.ar  1 <1>  -0.1500 
 19 C       -4.2710    -8.1220     0.8290 C.ar  1 <1>  -0.1500 
 20 C       -1.9610    -8.9340    -0.2460 C.ar  1 <1>   0.1600 
 21 C       -3.5840    -9.2470     1.2550 C.ar  1 <1>   0.1600 
 22 N       -2.4400    -9.6700     0.7440 N.ar  1 <1>  -0.6200 
 23 H       -2.7910    -0.3360     1.7800 H     1 <1>   0.1500 
 24 H       -2.1240     2.0740     1.5090 H     1 <1>   0.1500 
 25 H        1.1440     2.6190    -0.2250 H     1 <1>   0.0800 
 26 H       -0.0220     2.8060    -1.5050 H     1 <1>   0.0800 
 27 H       -0.2900     3.9650     1.2860 H     1 <1>   0.0800 
 28 H       -1.4650     4.1520     0.0000 H     1 <1>   0.0800 
 29 H        0.1230     4.8640    -0.1540 H     1 <1>   0.0800 
 30 H       -4.2490    -2.1250     1.1500 H     1 <1>   0.0800 
 31 H       -3.9140    -1.6610    -0.5220 H     1 <1>   0.0800 
 32 H       -2.1810    -4.8080    -0.7850 H     1 <1>   0.0800 
 33 H       -2.1050    -5.0380     0.9540 H     1 <1>   0.0800 
 34 H       -4.8810    -3.5790    -1.3810 H     1 <1>   0.0800 
 35 H       -4.3940    -5.0910     1.1860 H     1 <1>   0.0800 
 36 H       -6.0600    -3.6140     1.1950 H     1 <1>   0.4000 
 37 H       -4.2000    -5.9280    -1.7270 H     1 <1>   0.0800 
 38 H       -5.5350    -6.2760    -0.6750 H     1 <1>   0.0800 
 39 H       -2.1030    -7.2610    -1.5560 H     1 <1>   0.1500 
 40 H       -5.1960    -7.8530     1.3040 H     1 <1>   0.1500 
 41 H       -1.0300    -9.2570    -0.6820 H     1 <1>   0.1500 
 42 H       -3.9990    -9.8290     2.0600 H     1 <1>   0.1500 
@<TRIPOS>BOND
  1   1   2  1   
  2   1   3  1   
  3   2   4  1   
  4   2   5  2   
  5   3   6  2   
  6   3   7  1   
  7   4   8  2   
  8   4   9  am  
  9   5   6  1   
 10   5  23  1   
 11   6  24  1   
 12   7  10  1   
 13   7  25  1   
 14   7  26  1   
 15   9  11  1   
 16   9  12  1   
 17  10  27  1   
 18  10  28  1   
 19  10  29  1   
 20  11  13  1   
 21  11  30  1   
 22  11  31  1   
 23  12  14  1   
 24  12  32  1   
 25  12  33  1   
 26  13  14  1   
 27  13  15  1   
 28  13  34  1   
 29  14  16  1   
 30  14  35  1   
 31  15  36  1   
 32  16  17  1   
 33  16  37  1   
 34  16  38  1   
 35  17  18  ar  
 36  17  19  ar  
 37  18  20  ar  
 38  18  39  1   
 39  19  21  ar  
 40  19  40  1   
 41  20  22  ar  
 42  20  41  1   
 43  21  22  ar  
 44  21  42  1   
@<TRIPOS>SUBSTRUCTURE
  1 ****   9 GROUP 4 **** **** 0

# MOE 2024.06 (io_trps.svl 2023.06)
