@<TRIPOS>MOLECULE
NONAME
51 53 1 0 0 
SMALL
USER_CHARGES


@<TRIPOS>ATOM
  1 O       -1.7470     0.8430     0.6120 O.2   1 <1>  -0.5700 
  2 C       -1.1610     1.8260     0.2390 C.2   1 <1>   0.5690 
  3 N       -1.3860     3.0250     0.8240 N.am  1 <1>  -0.7300 
  4 C       -0.1670     1.7330    -0.9270 C.3   1 <1>   0.1810 
  5 C       -0.6690     4.2610     0.4410 C.3   1 <1>   0.3640 
  6 O        0.6740     2.8640    -1.0390 O.3   1 <1>  -0.5600 
  7 C       -1.6370     5.4360     0.5220 C.ar  1 <1>  -0.1440 
  8 C       -0.0130     4.1040    -0.9510 C.3   1 <1>   0.2610 
  9 C       -1.3960     6.4680     1.4190 C.ar  1 <1>  -0.1500 
 10 C       -2.7650     5.4950    -0.2860 C.ar  1 <1>  -0.1500 
 11 C        0.8750     5.3100    -1.2900 C.2   1 <1>   0.5690 
 12 C       -2.2630     7.5440     1.5020 C.ar  1 <1>  -0.1500 
 13 C       -3.6290     6.5720    -0.2060 C.ar  1 <1>  -0.1500 
 14 O        0.5600     5.9280    -2.2830 O.2   1 <1>  -0.5700 
 15 N        1.9490     5.7130    -0.5170 N.am  1 <1>  -0.6600 
 16 C       -3.3790     7.5980     0.6880 C.ar  1 <1>  -0.1500 
 17 C        2.6510     6.9980    -0.8350 C.3   1 <1>   0.1400 
 18 C        2.7040     4.8010     0.3950 C.3   1 <1>   0.1400 
 19 C        2.0310     8.1920    -0.0830 C.3   1 <1>  -0.0800 
 20 C        2.7920     5.3790     1.8070 C.3   1 <1>  -0.2400 
 21 C        0.6910     8.6440    -0.6890 C.3   1 <1>  -0.1600 
 22 C        2.9940     9.3890    -0.0850 C.3   1 <1>  -0.1600 
 23 C        0.1780     9.9210    -0.0170 C.3   1 <1>   0.1200 
 24 C        2.3450    10.6140     0.5700 C.3   1 <1>   0.1200 
 25 O        1.1540    10.9160    -0.0870 O.3   1 <1>  -0.5600 
 26 H       -2.0760     3.0940     1.5750 H     1 <1>   0.3700 
 27 H       -0.7100     1.6260    -1.8490 H     1 <1>   0.0800 
 28 H        0.4590     0.8700    -0.7940 H     1 <1>   0.0800 
 29 H        0.1090     4.4170     1.1640 H     1 <1>   0.0800 
 30 H       -0.7910     4.0800    -1.6920 H     1 <1>   0.0800 
 31 H       -0.5320     6.4460     2.0590 H     1 <1>   0.1500 
 32 H       -2.9800     4.7030    -0.9830 H     1 <1>   0.1500 
 33 H       -2.0700     8.3400     2.2000 H     1 <1>   0.1500 
 34 H       -4.4990     6.6120    -0.8390 H     1 <1>   0.1500 
 35 H       -4.0520     8.4350     0.7490 H     1 <1>   0.1500 
 36 H        3.6890     6.9060    -0.5670 H     1 <1>   0.0800 
 37 H        2.6170     7.1830    -1.8960 H     1 <1>   0.0800 
 38 H        2.2420     3.8340     0.4450 H     1 <1>   0.0800 
 39 H        3.6960     4.6550     0.0010 H     1 <1>   0.0800 
 40 H        1.8630     7.9100     0.9400 H     1 <1>   0.0800 
 41 H        1.8140     5.6080     2.1880 H     1 <1>   0.0800 
 42 H        3.3990     6.2650     1.8180 H     1 <1>   0.0800 
 43 H        3.2500     4.6570     2.4590 H     1 <1>   0.0800 
 44 H       -0.0490     7.8740    -0.5780 H     1 <1>   0.0800 
 45 H        0.8040     8.8300    -1.7430 H     1 <1>   0.0800 
 46 H        3.2650     9.6460    -1.0950 H     1 <1>   0.0800 
 47 H        3.8940     9.1400     0.4480 H     1 <1>   0.0800 
 48 H       -0.0620     9.7470     1.0170 H     1 <1>   0.0800 
 49 H       -0.6990    10.2850    -0.5240 H     1 <1>   0.0800 
 50 H        2.9900    11.4720     0.4870 H     1 <1>   0.0800 
 51 H        2.1290    10.4360     1.6090 H     1 <1>   0.0800 
@<TRIPOS>BOND
  1   1   2  2   
  2   2   3  am  
  3   2   4  1   
  4   3   5  1   
  5   3  26  1   
  6   4   6  1   
  7   4  27  1   
  8   4  28  1   
  9   5   7  1   
 10   5   8  1   
 11   5  29  1   
 12   6   8  1   
 13   7   9  ar  
 14   7  10  ar  
 15   8  11  1   
 16   8  30  1   
 17   9  12  ar  
 18   9  31  1   
 19  10  13  ar  
 20  10  32  1   
 21  11  14  2   
 22  11  15  am  
 23  12  16  ar  
 24  12  33  1   
 25  13  16  ar  
 26  13  34  1   
 27  15  17  1   
 28  15  18  1   
 29  16  35  1   
 30  17  19  1   
 31  17  36  1   
 32  17  37  1   
 33  18  20  1   
 34  18  38  1   
 35  18  39  1   
 36  19  21  1   
 37  19  22  1   
 38  19  40  1   
 39  20  41  1   
 40  20  42  1   
 41  20  43  1   
 42  21  23  1   
 43  21  44  1   
 44  21  45  1   
 45  22  24  1   
 46  22  46  1   
 47  22  47  1   
 48  23  25  1   
 49  23  48  1   
 50  23  49  1   
 51  24  25  1   
 52  24  50  1   
 53  24  51  1   
@<TRIPOS>SUBSTRUCTURE
  1 ****  11 GROUP 4 **** **** 0

# MOE 2024.06 (io_trps.svl 2023.06)
