@<TRIPOS>MOLECULE
NONAME
43 44 1 0 0 
SMALL
USER_CHARGES


@<TRIPOS>ATOM
  1 S       -2.1650    -0.2520    -0.4880 S.3   1 <1>  -0.0800 
  2 C       -1.2540    -1.3930     0.4440 C.2   1 <1>   0.4420 
  3 C       -1.2250     0.9970     0.2530 C.2   1 <1>   0.1980 
  4 N       -0.3780    -0.8230     1.1880 N.2   1 <1>  -0.3380 
  5 N       -1.5750    -2.7210     0.2770 N.am  1 <1>  -0.4940 
  6 N       -0.3670     0.5400     1.0730 N.2   1 <1>  -0.3380 
  7 C       -1.5300     2.4300    -0.1510 C.3   1 <1>   0.0200 
  8 C       -1.0530    -3.8460     0.8390 C.2   1 <1>   0.5690 
  9 C       -0.6340     3.4540     0.5630 C.3   1 <1>  -0.1600 
 10 O       -0.1320    -3.8600     1.6160 O.2   1 <1>  -0.5700 
 11 C       -1.7130    -5.1650     0.4350 C.3   1 <1>   0.1710 
 12 C       -0.9620     4.8900     0.1370 C.3   1 <1>  -0.2400 
 13 N       -2.5110    -5.0700    -0.8320 N.3   1 <1>  -0.8100 
 14 C       -3.5030    -6.1680    -0.9330 C.3   1 <1>   0.1100 
 15 C       -1.6140    -5.1070    -2.0000 C.3   1 <1>   0.0300 
 16 C       -4.7370    -5.9410    -0.0450 C.3   1 <1>   0.2000 
 17 O       -5.6230    -7.0030    -0.2700 O.3   1 <1>  -0.5600 
 18 C       -5.4360    -4.6020    -0.3600 C.3   1 <1>   0.1200 
 19 C       -6.8220    -6.8920     0.4430 C.3   1 <1>   0.1200 
 20 O       -6.6370    -4.4930     0.3510 O.3   1 <1>  -0.5600 
 21 C       -7.5130    -5.5570     0.1180 C.3   1 <1>   0.1200 
 22 H       -2.3060    -2.9400    -0.4020 H     1 <1>   0.3700 
 23 H       -2.5600     2.6370     0.0760 H     1 <1>   0.0800 
 24 H       -1.3960     2.5200    -1.2140 H     1 <1>   0.0800 
 25 H        0.3980     3.2420     0.3390 H     1 <1>   0.0800 
 26 H       -0.7650     3.3590     1.6280 H     1 <1>   0.0800 
 27 H       -2.3500    -5.4500     1.2510 H     1 <1>   0.0800 
 28 H       -0.9520    -5.9210     0.3390 H     1 <1>   0.0800 
 29 H       -0.8130     5.0140    -0.9210 H     1 <1>   0.0800 
 30 H       -0.3190     5.5800     0.6540 H     1 <1>   0.0800 
 31 H       -1.9830     5.1320     0.3760 H     1 <1>   0.0800 
 32 H       -3.0420    -7.1060    -0.6720 H     1 <1>   0.0800 
 33 H       -3.8510    -6.2370    -1.9500 H     1 <1>   0.0800 
 34 H       -0.8830    -4.3180    -1.9420 H     1 <1>   0.0800 
 35 H       -2.1830    -4.9720    -2.9050 H     1 <1>   0.0800 
 36 H       -1.0990    -6.0520    -2.0520 H     1 <1>   0.0800 
 37 H       -4.4530    -5.9680     0.9910 H     1 <1>   0.0800 
 38 H       -5.6480    -4.5250    -1.4120 H     1 <1>   0.0800 
 39 H       -4.8090    -3.7780    -0.0730 H     1 <1>   0.0800 
 40 H       -6.6080    -6.9600     1.4950 H     1 <1>   0.0800 
 41 H       -7.4520    -7.7180     0.1620 H     1 <1>   0.0800 
 42 H       -8.3760    -5.4180     0.7450 H     1 <1>   0.0800 
 43 H       -7.8230    -5.5310    -0.9120 H     1 <1>   0.0800 
@<TRIPOS>BOND
  1   1   2  1   
  2   1   3  1   
  3   2   4  2   
  4   2   5  1   
  5   3   6  2   
  6   3   7  1   
  7   4   6  1   
  8   5   8  am  
  9   5  22  1   
 10   7   9  1   
 11   7  23  1   
 12   7  24  1   
 13   8  10  2   
 14   8  11  1   
 15   9  12  1   
 16   9  25  1   
 17   9  26  1   
 18  11  13  1   
 19  11  27  1   
 20  11  28  1   
 21  12  29  1   
 22  12  30  1   
 23  12  31  1   
 24  13  14  1   
 25  13  15  1   
 26  14  16  1   
 27  14  32  1   
 28  14  33  1   
 29  15  34  1   
 30  15  35  1   
 31  15  36  1   
 32  16  17  1   
 33  16  18  1   
 34  16  37  1   
 35  17  19  1   
 36  18  20  1   
 37  18  38  1   
 38  18  39  1   
 39  19  21  1   
 40  19  40  1   
 41  19  41  1   
 42  20  21  1   
 43  21  42  1   
 44  21  43  1   
@<TRIPOS>SUBSTRUCTURE
  1 ****   5 GROUP 4 **** **** 0

# MOE 2024.06 (io_trps.svl 2023.06)
