@<TRIPOS>MOLECULE
NONAME
49 52 1 0 0 
SMALL
USER_CHARGES


@<TRIPOS>ATOM
  1 S        0.9910    -0.1490     2.0290 S.3   1 <1>  -0.0800 
  2 C        1.7390    -1.1510     0.7860 C.ar  1 <1>   0.2970 
  3 C        1.3770     1.3120     1.1270 C.2   1 <1>  -0.1400 
  4 N        1.7740    -2.4660     0.8650 N.ar  1 <1>  -0.5670 
  5 C        2.2420    -0.3800    -0.2360 C.ar  1 <1>   0.0000 
  6 C        2.0340     1.0330    -0.0090 C.2   1 <1>  -0.1810 
  7 C        0.9670     2.6640     1.6690 C.3   1 <1>   0.0200 
  8 C        2.3710    -3.0210    -0.1730 C.ar  1 <1>   0.4770 
  9 C        2.8270    -1.1170    -1.2690 C.ar  1 <1>   0.4100 
 10 C        2.4890     2.1470    -0.9420 C.3   1 <1>   0.0210 
 11 C        1.1090     3.7130     0.5530 C.3   1 <1>  -0.1600 
 12 N        2.8920    -2.4310    -1.2380 N.ar  1 <1>  -0.6200 
 13 C        2.4100    -4.5500    -0.1640 C.3   1 <1>   0.4870 
 14 N        3.3620    -0.5630    -2.3830 N.pl3 1 <1>  -0.9000 
 15 C        2.4120     3.5240    -0.2500 C.3   1 <1>  -0.1600 
 16 N        1.0300    -5.1370     0.0060 N.4   1 <1>  -0.9590 
 17 C        1.0760    -6.6080     0.2900 C.3   1 <1>   0.3430 
 18 C        0.1710    -4.8080    -1.1690 C.3   1 <1>   0.3430 
 19 C       -0.3310    -7.2030     0.4900 C.3   1 <1>   0.2000 
 20 C       -1.2440    -5.3320    -0.9330 C.3   1 <1>  -0.1600 
 21 O       -0.1850    -8.5760     0.5770 O.3   1 <1>  -0.6800 
 22 C       -1.2680    -6.8570    -0.6820 C.3   1 <1>  -0.0800 
 23 C       -2.6980    -7.3690    -0.4330 C.3   1 <1>   0.1200 
 24 O       -3.4950    -7.0010    -1.5020 O.3   1 <1>  -0.6800 
 25 H       -0.0520     2.6330     2.0150 H     1 <1>   0.0800 
 26 H        1.6030     2.9150     2.4990 H     1 <1>   0.0800 
 27 H        3.5050     1.9770    -1.2490 H     1 <1>   0.0800 
 28 H        1.8600     2.1440    -1.8150 H     1 <1>   0.0800 
 29 H        0.2730     3.6230    -0.1190 H     1 <1>   0.0800 
 30 H        1.0810     4.6990     0.9830 H     1 <1>   0.0800 
 31 H        3.0420    -4.8600     0.6500 H     1 <1>   0.0800 
 32 H        2.8490    -4.8920    -1.0860 H     1 <1>   0.0800 
 33 H        3.8860    -1.1580    -3.0270 H     1 <1>   0.4000 
 34 H        3.5350     0.4380    -2.4610 H     1 <1>   0.4000 
 35 H        3.2470     3.6210     0.4230 H     1 <1>   0.0800 
 36 H        2.4990     4.3000    -0.9910 H     1 <1>   0.0800 
 37 H        0.6310    -4.6390     0.8180 H     1 <1>   0.4500 
 38 H        1.5390    -7.1160    -0.5400 H     1 <1>   0.0800 
 39 H        1.6590    -6.7940     1.1760 H     1 <1>   0.0800 
 40 H        0.1360    -3.7390    -1.3180 H     1 <1>   0.0800 
 41 H        0.5760    -5.2600    -2.0600 H     1 <1>   0.0800 
 42 H       -0.7400    -6.8550     1.4230 H     1 <1>   0.0800 
 43 H       -1.6910    -4.8060    -0.1070 H     1 <1>   0.0800 
 44 H       -1.8270    -5.1010    -1.8080 H     1 <1>   0.0800 
 45 H       -1.0310    -9.0220     0.7860 H     1 <1>   0.4000 
 46 H       -0.8920    -7.3470    -1.5650 H     1 <1>   0.0800 
 47 H       -3.1190    -6.9400     0.4610 H     1 <1>   0.0800 
 48 H       -2.7180    -8.4440    -0.3630 H     1 <1>   0.0800 
 49 H       -4.4040    -7.3510    -1.4060 H     1 <1>   0.4000 
@<TRIPOS>BOND
  1   1   2  1   
  2   1   3  1   
  3   2   4  ar  
  4   2   5  ar  
  5   3   6  2   
  6   3   7  1   
  7   4   8  ar  
  8   5   6  1   
  9   5   9  ar  
 10   6  10  1   
 11   7  11  1   
 12   7  25  1   
 13   7  26  1   
 14   8  12  ar  
 15   8  13  1   
 16   9  12  ar  
 17   9  14  1   
 18  10  15  1   
 19  10  27  1   
 20  10  28  1   
 21  11  15  1   
 22  11  29  1   
 23  11  30  1   
 24  13  16  1   
 25  13  31  1   
 26  13  32  1   
 27  14  33  1   
 28  14  34  1   
 29  15  35  1   
 30  15  36  1   
 31  16  17  1   
 32  16  18  1   
 33  16  37  1   
 34  17  19  1   
 35  17  38  1   
 36  17  39  1   
 37  18  20  1   
 38  18  40  1   
 39  18  41  1   
 40  19  21  1   
 41  19  22  1   
 42  19  42  1   
 43  20  22  1   
 44  20  43  1   
 45  20  44  1   
 46  21  45  1   
 47  22  23  1   
 48  22  46  1   
 49  23  24  1   
 50  23  47  1   
 51  23  48  1   
 52  24  49  1   
@<TRIPOS>SUBSTRUCTURE
  1 ****   4 GROUP 4 **** **** 0

# MOE 2024.06 (io_trps.svl 2023.06)
