@<TRIPOS>MOLECULE
NONAME
40 42 1 0 0 
SMALL
USER_CHARGES


@<TRIPOS>ATOM
  1 O        1.7080     0.3120     2.4310 O.3   1 <1>  -0.6800 
  2 C        1.3360    -0.3140     1.2440 C.3   1 <1>   0.2000 
  3 C        2.4440    -1.2960     0.8530 C.3   1 <1>  -0.0800 
  4 C        1.3590     0.7220     0.1170 C.3   1 <1>   0.3430 
  5 C        3.4540    -0.4420     0.0610 C.3   1 <1>   0.3430 
  6 C        1.8890    -2.4650     0.0100 C.3   1 <1>  -0.0170 
  7 N        2.7920     0.8600    -0.2390 N.4   1 <1>  -0.9590 
  8 C        2.9370    -3.5420    -0.2400 C.ar  1 <1>   0.1670 
  9 C        3.4460     1.9640     0.5120 C.3   1 <1>   0.5240 
 10 N        3.9400    -3.2110    -1.0360 N.ar  1 <1>  -0.6200 
 11 C        2.8080    -4.7990     0.3510 C.ar  1 <1>   0.1600 
 12 C        4.7290     2.3080    -0.2300 C.2   1 <1>   0.0460 
 13 C        4.7920    -4.2110    -1.2070 C.ar  1 <1>   0.1600 
 14 N        3.6620    -5.7930     0.1890 N.ar  1 <1>  -0.6200 
 15 N        4.7070     2.4020    -1.5780 N.2   1 <1>  -0.5650 
 16 C        5.9730     2.5360     0.2520 C.2   1 <1>  -0.3320 
 17 C        4.6580    -5.4600    -0.6130 C.ar  1 <1>   0.1600 
 18 C        5.9290     2.6950    -1.8860 C.2   1 <1>   0.0360 
 19 N        6.7500     2.7900    -0.8200 N.pl3 1 <1>   0.0330 
 20 C        6.5150     2.5410     1.6720 C.3   1 <1>  -0.0600 
 21 H        1.5590    -0.2740     3.2040 H     1 <1>   0.4000 
 22 H        0.3650    -0.7620     1.3780 H     1 <1>   0.0800 
 23 H        2.9170    -1.7100     1.7270 H     1 <1>   0.0800 
 24 H        0.9200     1.6560     0.4290 H     1 <1>   0.0800 
 25 H        0.8150     0.3380    -0.7300 H     1 <1>   0.0800 
 26 H        3.7310    -0.9300    -0.8590 H     1 <1>   0.0800 
 27 H        4.3490    -0.2850     0.6420 H     1 <1>   0.0800 
 28 H        1.5320    -2.1080    -0.9410 H     1 <1>   0.0800 
 29 H        1.0530    -2.9080     0.5220 H     1 <1>   0.0800 
 30 H        2.9660     1.1210    -1.2270 H     1 <1>   0.4500 
 31 H        2.8100     2.8330     0.5150 H     1 <1>   0.0800 
 32 H        3.6500     1.6740     1.5290 H     1 <1>   0.0800 
 33 H        1.9630    -4.9960     0.9860 H     1 <1>   0.1500 
 34 H        5.6390    -4.0360    -1.8480 H     1 <1>   0.1500 
 35 H        5.4040    -6.2100    -0.8100 H     1 <1>   0.1500 
 36 H        6.2820     2.8530    -2.8920 H     1 <1>   0.1500 
 37 H        7.7500     3.0150    -0.8340 H     1 <1>   0.2700 
 38 H        5.7390     2.3200     2.3820 H     1 <1>   0.0800 
 39 H        6.9250     3.5070     1.9090 H     1 <1>   0.0800 
 40 H        7.2920     1.8030     1.7770 H     1 <1>   0.0800 
@<TRIPOS>BOND
  1   1   2  1   
  2   1  21  1   
  3   2   3  1   
  4   2   4  1   
  5   2  22  1   
  6   3   5  1   
  7   3   6  1   
  8   3  23  1   
  9   4   7  1   
 10   4  24  1   
 11   4  25  1   
 12   5   7  1   
 13   5  26  1   
 14   5  27  1   
 15   6   8  1   
 16   6  28  1   
 17   6  29  1   
 18   7   9  1   
 19   7  30  1   
 20   8  10  ar  
 21   8  11  ar  
 22   9  12  1   
 23   9  31  1   
 24   9  32  1   
 25  10  13  ar  
 26  11  14  ar  
 27  11  33  1   
 28  12  15  1   
 29  12  16  2   
 30  13  17  ar  
 31  13  34  1   
 32  14  17  ar  
 33  15  18  2   
 34  16  19  1   
 35  16  20  1   
 36  17  35  1   
 37  18  19  1   
 38  18  36  1   
 39  19  37  1   
 40  20  38  1   
 41  20  39  1   
 42  20  40  1   
@<TRIPOS>SUBSTRUCTURE
  1 ****   5 GROUP 4 **** **** 0

# MOE 2024.06 (io_trps.svl 2023.06)
