@<TRIPOS>MOLECULE
NONAME
47 49 1 0 0 
SMALL
USER_CHARGES


@<TRIPOS>ATOM
  1 S       -0.4430     1.7970    -1.6340 S.3   1 <1>  -0.3320 
  2 C       -0.0120     2.7720    -0.2060 C.ar  1 <1>   0.7720 
  3 C       -1.1830     0.1930    -1.0730 C.3   1 <1>  -0.0100 
  4 N        0.5130     3.9300    -0.4180 N.ar  1 <1>  -0.6200 
  5 N       -0.2600     2.2390     1.0080 N.ar  1 <1>  -0.1790 
  6 C        0.8280     4.6540     0.6700 C.ar  1 <1>   0.4100 
  7 C        0.0460     2.9250     2.1190 C.ar  1 <1>   0.4610 
  8 N        1.3650     5.8690     0.4730 N.pl3 1 <1>  -0.8690 
  9 C        0.6070     4.1720     1.9430 C.ar  1 <1>  -0.1500 
 10 N       -0.1980     2.3880     3.3340 N.pl3 1 <1>  -0.9000 
 11 C        1.8810     6.4490    -0.7860 C.3   1 <1>   0.4690 
 12 C        3.2430     7.0750    -0.4680 C.2   1 <1>   0.0060 
 13 C        0.8930     7.4990    -1.3630 C.3   1 <1>  -0.0800 
 14 N        3.6740     7.3620     0.7200 N.2   1 <1>  -0.5650 
 15 N        4.1260     7.3870    -1.4520 N.pl3 1 <1>   0.0330 
 16 C        0.6020     8.6670    -0.4010 C.3   1 <1>  -0.2400 
 17 C       -0.4350     6.8640    -1.8110 C.3   1 <1>  -0.2400 
 18 C        4.9100     7.8970     0.5150 C.ar  1 <1>   0.2270 
 19 C        5.2080     7.9210    -0.8340 C.ar  1 <1>  -0.1520 
 20 C        5.8320     8.3860     1.4390 C.ar  1 <1>  -0.1500 
 21 C        6.4230     8.4270    -1.2980 C.ar  1 <1>  -0.1500 
 22 C        7.0370     8.8900     0.9960 C.ar  1 <1>  -0.1430 
 23 C        7.3270     8.9080    -0.3760 C.ar  1 <1>  -0.1500 
 24 C        8.0640     9.4300     1.9750 C.3   1 <1>  -0.0970 
 25 H       -1.4320    -0.3660    -1.9600 H     1 <1>   0.0800 
 26 H       -2.0750     0.4010    -0.5100 H     1 <1>   0.0800 
 27 H       -0.4500    -0.3440    -0.4970 H     1 <1>   0.0800 
 28 H       -0.6750     1.3210     1.0670 H     1 <1>   0.4570 
 29 H        1.8020     6.3910     1.2460 H     1 <1>   0.4000 
 30 H        0.8740     4.7750     2.7900 H     1 <1>   0.1500 
 31 H        0.0330     2.8980     4.1980 H     1 <1>   0.4000 
 32 H       -0.6100     1.4710     3.5430 H     1 <1>   0.4000 
 33 H        2.0260     5.6650    -1.5090 H     1 <1>   0.0800 
 34 H        1.3540     7.9150    -2.2410 H     1 <1>   0.0800 
 35 H        4.0170     7.2550    -2.4600 H     1 <1>   0.2700 
 36 H        0.1180     8.3140     0.4920 H     1 <1>   0.0800 
 37 H       -0.0410     9.3890    -0.8730 H     1 <1>   0.0800 
 38 H        1.5130     9.1660    -0.1180 H     1 <1>   0.0800 
 39 H       -0.9740     6.4790    -0.9630 H     1 <1>   0.0800 
 40 H       -0.2540     6.0570    -2.4980 H     1 <1>   0.0800 
 41 H       -1.0530     7.5960    -2.3020 H     1 <1>   0.0800 
 42 H        5.5720     8.3540     2.4800 H     1 <1>   0.1500 
 43 H        6.6430     8.4400    -2.3500 H     1 <1>   0.1500 
 44 H        8.2710     9.3040    -0.7070 H     1 <1>   0.1500 
 45 H        7.7080     9.3530     2.9860 H     1 <1>   0.0800 
 46 H        8.2650    10.4640     1.7600 H     1 <1>   0.0800 
 47 H        8.9790     8.8720     1.8900 H     1 <1>   0.0800 
@<TRIPOS>BOND
  1   1   2  1   
  2   1   3  1   
  3   2   4  ar  
  4   2   5  ar  
  5   3  25  1   
  6   3  26  1   
  7   3  27  1   
  8   4   6  ar  
  9   5   7  ar  
 10   5  28  1   
 11   6   8  1   
 12   6   9  ar  
 13   7   9  ar  
 14   7  10  1   
 15   8  11  1   
 16   8  29  1   
 17   9  30  1   
 18  10  31  1   
 19  10  32  1   
 20  11  12  1   
 21  11  13  1   
 22  11  33  1   
 23  12  14  2   
 24  12  15  1   
 25  13  16  1   
 26  13  17  1   
 27  13  34  1   
 28  14  18  1   
 29  15  19  1   
 30  15  35  1   
 31  16  36  1   
 32  16  37  1   
 33  16  38  1   
 34  17  39  1   
 35  17  40  1   
 36  17  41  1   
 37  18  19  ar  
 38  18  20  ar  
 39  19  21  ar  
 40  20  22  ar  
 41  20  42  1   
 42  21  23  ar  
 43  21  43  1   
 44  22  23  ar  
 45  22  24  1   
 46  23  44  1   
 47  24  45  1   
 48  24  46  1   
 49  24  47  1   
@<TRIPOS>SUBSTRUCTURE
  1 ****   8 GROUP 4 **** **** 0

# MOE 2024.06 (io_trps.svl 2023.06)
