@<TRIPOS>MOLECULE
Untitled Document
59 61 1 0 0 
SMALL
USER_CHARGES


@<TRIPOS>ATOM
  1 S       -0.3230    -0.3380     0.8880 S.o2  1 <1>   1.3330 
  2 O       -0.3950    -0.6010     2.3020 O.2   1 <1>  -0.6500 
  3 O       -1.2190     0.6210     0.2910 O.2   1 <1>  -0.6500 
  4 N       -0.6810    -1.8300     0.1140 N.am  1 <1>  -0.7300 
  5 C        1.3430     0.0830     0.4100 C.3   1 <1>  -0.1350 
  6 C        0.0820    -2.9290     0.3120 C.2   1 <1>   0.7450 
  7 C       -2.0620    -2.2720     0.1570 C.3   1 <1>   0.2760 
  8 O        1.2650    -2.8940     0.5360 O.2   1 <1>  -0.5700 
  9 C       -0.7260    -4.2320     0.1980 C.3   1 <1>  -0.0190 
 10 C       -1.9720    -3.6370    -0.4650 C.3   1 <1>   0.2200 
 11 C       -3.1840    -1.6510    -0.6540 C.3   1 <1>  -0.1600 
 12 C       -0.0320    -5.3490    -0.6320 C.3   1 <1>  -0.0800 
 13 N       -3.3900    -4.0670    -0.4500 N.am  1 <1>  -0.6600 
 14 C       -4.1730    -2.8320    -0.7900 C.3   1 <1>   0.1400 
 15 C       -1.0070    -6.4390    -1.1030 C.3   1 <1>  -0.2400 
 16 C        1.0870    -6.0300     0.1730 C.3   1 <1>  -0.2400 
 17 C       -3.9060    -5.0740     0.3240 C.2   1 <1>   0.6160 
 18 O       -3.2330    -5.5750     1.1980 O.2   1 <1>  -0.5700 
 19 C       -5.2520    -5.5500     0.1140 C.2   1 <1>  -0.1360 
 20 C       -5.9420    -6.3740     0.9270 C.2   1 <1>  -0.2880 
 21 C       -7.3360    -6.9050     0.6950 C.3   1 <1>   0.4810 
 22 N       -7.2510    -8.3820     0.6220 N.4   1 <1>  -0.9590 
 23 C       -6.4240    -8.8390    -0.5360 C.3   1 <1>   0.3430 
 24 C       -8.6090    -9.0000     0.6150 C.3   1 <1>   0.3430 
 25 C       -6.2580   -10.3590    -0.4830 C.3   1 <1>  -0.1600 
 26 C       -8.4830   -10.5230     0.6910 C.3   1 <1>  -0.1600 
 27 C       -7.6120   -11.0790    -0.4430 C.3   1 <1>  -0.1600 
 28 H        2.0470    -0.5950     0.8500 H     1 <1>   0.0800 
 29 H        1.5770     1.0730     0.7470 H     1 <1>   0.0800 
 30 H        1.4430     0.0490    -0.6560 H     1 <1>   0.0800 
 31 H       -2.3670    -2.3640     1.1890 H     1 <1>   0.0800 
 32 H       -0.9480    -4.5700     1.1930 H     1 <1>   0.0800 
 33 H       -1.7170    -3.5070    -1.5060 H     1 <1>   0.0800 
 34 H       -3.6300    -0.8140    -0.1460 H     1 <1>   0.0800 
 35 H       -2.8320    -1.3420    -1.6230 H     1 <1>   0.0800 
 36 H        0.4090    -4.9020    -1.5080 H     1 <1>   0.0800 
 37 H       -4.5580    -2.8940    -1.7940 H     1 <1>   0.0800 
 38 H       -4.9890    -2.7130    -0.0970 H     1 <1>   0.0800 
 39 H       -1.4780    -6.9120    -0.2590 H     1 <1>   0.0800 
 40 H       -0.4800    -7.1930    -1.6600 H     1 <1>   0.0800 
 41 H       -1.7680    -6.0320    -1.7430 H     1 <1>   0.0800 
 42 H        0.6910    -6.4800     1.0670 H     1 <1>   0.0800 
 43 H        1.8500    -5.3280     0.4560 H     1 <1>   0.0800 
 44 H        1.5570    -6.7990    -0.4150 H     1 <1>   0.0800 
 45 H       -5.6850    -5.1860    -0.8000 H     1 <1>   0.1500 
 46 H       -5.5100    -6.7260     1.8500 H     1 <1>   0.1500 
 47 H       -7.7410    -6.5090    -0.2220 H     1 <1>   0.0800 
 48 H       -7.9750    -6.6080     1.5120 H     1 <1>   0.0800 
 49 H       -6.7700    -8.7030     1.4710 H     1 <1>   0.4500 
 50 H       -6.9040    -8.5620    -1.4610 H     1 <1>   0.0800 
 51 H       -5.4500    -8.3750    -0.5060 H     1 <1>   0.0800 
 52 H       -9.1830    -8.6470     1.4560 H     1 <1>   0.0800 
 53 H       -9.1280    -8.7290    -0.2900 H     1 <1>   0.0800 
 54 H       -5.7080   -10.6820    -1.3500 H     1 <1>   0.0800 
 55 H       -5.6740   -10.6240     0.3820 H     1 <1>   0.0800 
 56 H       -8.0650   -10.8000     1.6440 H     1 <1>   0.0800 
 57 H       -9.4640   -10.9600     0.6320 H     1 <1>   0.0800 
 58 H       -7.4600   -12.1370    -0.3030 H     1 <1>   0.0800 
 59 H       -8.1180   -10.9440    -1.3850 H     1 <1>   0.0800 
@<TRIPOS>BOND
  1   1   2  2   
  2   1   3  2   
  3   1   4  am  
  4   1   5  1   
  5   4   6  am  
  6   4   7  1   
  7   5  28  1   
  8   5  29  1   
  9   5  30  1   
 10   6   8  2   
 11   6   9  1   
 12   7  10  1   
 13   7  11  1   
 14   7  31  1   
 15   9  10  1   
 16   9  12  1   
 17   9  32  1   
 18  10  13  1   
 19  10  33  1   
 20  11  14  1   
 21  11  34  1   
 22  11  35  1   
 23  12  15  1   
 24  12  16  1   
 25  12  36  1   
 26  13  14  1   
 27  13  17  am  
 28  14  37  1   
 29  14  38  1   
 30  15  39  1   
 31  15  40  1   
 32  15  41  1   
 33  16  42  1   
 34  16  43  1   
 35  16  44  1   
 36  17  18  2   
 37  17  19  1   
 38  19  20  2   
 39  19  45  1   
 40  20  21  1   
 41  20  46  1   
 42  21  22  1   
 43  21  47  1   
 44  21  48  1   
 45  22  23  1   
 46  22  24  1   
 47  22  49  1   
 48  23  25  1   
 49  23  50  1   
 50  23  51  1   
 51  24  26  1   
 52  24  52  1   
 53  24  53  1   
 54  25  27  1   
 55  25  54  1   
 56  25  55  1   
 57  26  27  1   
 58  26  56  1   
 59  26  57  1   
 60  27  58  1   
 61  27  59  1   
@<TRIPOS>SUBSTRUCTURE
  1 ****  17 GROUP 4 **** **** 0

# MOE 2024.06 (io_trps.svl 2023.06)
