@<TRIPOS>MOLECULE
NONAME
50 52 1 0 0 
SMALL
USER_CHARGES


@<TRIPOS>ATOM
  1 O        3.0560    -1.1540     2.3050 O.2   1 <1>  -0.5700 
  2 C        2.8550    -1.1510     1.1040 C.2   1 <1>   0.5440 
  3 N        3.0730     0.0210     0.4070 N.am  1 <1>  -0.6600 
  4 C        2.4540    -2.3700     0.4380 C.ar  1 <1>   0.0860 
  5 C        3.4640     1.2650     1.1690 C.3   1 <1>   0.2200 
  6 C        3.2100    -0.0070    -1.0860 C.3   1 <1>   0.1400 
  7 C        1.1710    -2.5280    -0.0880 C.ar  1 <1>   0.0830 
  8 C        3.3610    -3.4190     0.2880 C.ar  1 <1>  -0.1500 
  9 C        2.8820     2.5530     0.5660 C.3   1 <1>   0.1200 
 10 C        5.0000     1.3400     1.3270 C.3   1 <1>   0.3430 
 11 C        4.1700     1.0450    -1.6780 C.3   1 <1>  -0.0800 
 12 O        0.2910    -1.5050     0.0360 O.3   1 <1>  -0.3630 
 13 C        0.8040    -3.7030    -0.7520 C.ar  1 <1>   0.0830 
 14 C        3.0070    -4.5840    -0.3600 C.ar  1 <1>  -0.1500 
 15 O        3.7030     3.0660    -0.4390 O.3   1 <1>  -0.5600 
 16 N        5.6940     0.5300     0.2820 N.4   1 <1>  -0.9590 
 17 C        3.5720     2.4590    -1.6800 C.3   1 <1>   0.1200 
 18 C        5.6080     1.0160    -1.1220 C.3   1 <1>   0.3430 
 19 C       -0.7060    -1.6510     1.0220 C.3   1 <1>   0.0400 
 20 O       -0.4580    -3.7890    -1.2610 O.3   1 <1>  -0.3630 
 21 C        1.7320    -4.7310    -0.8790 C.ar  1 <1>  -0.1500 
 22 C        7.0690     0.0030     0.6280 C.3   1 <1>   0.2370 
 23 C       -0.8800    -4.9060    -2.0120 C.3   1 <1>   0.0400 
 24 C        7.3080    -1.3600    -0.0350 C.2   1 <1>   0.9060 
 25 O        8.4560    -1.7690    -0.1950 O.co2 1 <1>  -0.9000 
 26 O        6.2960    -1.9590    -0.4360 O.co2 1 <1>  -0.9000 
 27 H        3.0410     1.2030     2.1560 H     1 <1>   0.0800 
 28 H        3.5750    -0.9770    -1.3850 H     1 <1>   0.0800 
 29 H        2.2310     0.1110    -1.5200 H     1 <1>   0.0800 
 30 H        4.3610    -3.3080     0.6770 H     1 <1>   0.1500 
 31 H        2.8370     3.3060     1.3330 H     1 <1>   0.0800 
 32 H        1.8840     2.3970     0.1910 H     1 <1>   0.0800 
 33 H        5.2470     0.9410     2.2970 H     1 <1>   0.0800 
 34 H        5.3280     2.3650     1.2920 H     1 <1>   0.0800 
 35 H        4.2600     0.7910    -2.7190 H     1 <1>   0.0800 
 36 H        3.7310    -5.3750    -0.4640 H     1 <1>   0.1500 
 37 H        5.1570    -0.3650     0.2400 H     1 <1>   0.4500 
 38 H        2.5320     2.4510    -1.9620 H     1 <1>   0.0800 
 39 H        4.1040     3.0760    -2.3830 H     1 <1>   0.0800 
 40 H        6.0500     1.9950    -1.1990 H     1 <1>   0.0800 
 41 H        6.1830     0.3430    -1.7400 H     1 <1>   0.0800 
 42 H       -1.3070    -0.7600     1.0280 H     1 <1>   0.0800 
 43 H       -0.2300    -1.7840     1.9790 H     1 <1>   0.0800 
 44 H       -1.3160    -2.5040     0.7840 H     1 <1>   0.0800 
 45 H        1.4910    -5.6500    -1.3780 H     1 <1>   0.1500 
 46 H        7.8350     0.6830     0.3050 H     1 <1>   0.0800 
 47 H        7.1540    -0.1440     1.6880 H     1 <1>   0.0800 
 48 H       -1.8930    -4.7320    -2.3280 H     1 <1>   0.0800 
 49 H       -0.8370    -5.7820    -1.3900 H     1 <1>   0.0800 
 50 H       -0.2420    -5.0100    -2.8720 H     1 <1>   0.0800 
@<TRIPOS>BOND
  1   1   2  2   
  2   2   3  am  
  3   2   4  1   
  4   3   5  1   
  5   3   6  1   
  6   4   7  ar  
  7   4   8  ar  
  8   5   9  1   
  9   5  10  1   
 10   5  27  1   
 11   6  11  1   
 12   6  28  1   
 13   6  29  1   
 14   7  12  1   
 15   7  13  ar  
 16   8  14  ar  
 17   8  30  1   
 18   9  15  1   
 19   9  31  1   
 20   9  32  1   
 21  10  16  1   
 22  10  33  1   
 23  10  34  1   
 24  11  17  1   
 25  11  18  1   
 26  11  35  1   
 27  12  19  1   
 28  13  20  1   
 29  13  21  ar  
 30  14  21  ar  
 31  14  36  1   
 32  15  17  1   
 33  16  18  1   
 34  16  22  1   
 35  16  37  1   
 36  17  38  1   
 37  17  39  1   
 38  18  40  1   
 39  18  41  1   
 40  19  42  1   
 41  19  43  1   
 42  19  44  1   
 43  20  23  1   
 44  21  45  1   
 45  22  24  1   
 46  22  46  1   
 47  22  47  1   
 48  23  48  1   
 49  23  49  1   
 50  23  50  1   
 51  24  25  ar  
 52  24  26  ar  
@<TRIPOS>SUBSTRUCTURE
  1 ****   3 GROUP 4 **** **** 0

# MOE 2024.06 (io_trps.svl 2023.06)
