@<TRIPOS>MOLECULE
NONAME
50 52 1 0 0 
SMALL
USER_CHARGES


@<TRIPOS>ATOM
  1 F        2.9510     0.1700    -1.4540 F     1 <1>  -0.1900 
  2 C        3.0750     1.1350    -0.5840 C.ar  1 <1>   0.1900 
  3 C        3.7850     0.9230     0.5870 C.ar  1 <1>  -0.1440 
  4 C        2.4790     2.3430    -0.8930 C.ar  1 <1>  -0.1500 
  5 C        3.8840     1.9940     1.4710 C.ar  1 <1>  -0.1500 
  6 C        4.4160    -0.4440     0.8620 C.3   1 <1>   1.1640 
  7 C        2.5920     3.4020    -0.0050 C.ar  1 <1>  -0.1440 
  8 C        3.2950     3.2150     1.1790 C.ar  1 <1>  -0.1500 
  9 F        5.0490    -0.4860     2.0290 F     1 <1>  -0.3400 
 10 F        5.3160    -0.7790    -0.0530 F     1 <1>  -0.3400 
 11 F        3.5210    -1.4220     0.8980 F     1 <1>  -0.3400 
 12 C        1.9560     4.7440    -0.3250 C.3   1 <1>   0.4870 
 13 N        3.0210     5.7060    -0.7070 N.4   1 <1>  -0.9590 
 14 C        2.5440     7.1190    -0.8560 C.3   1 <1>   0.3430 
 15 C        3.8330     5.2900    -1.8990 C.3   1 <1>   0.3430 
 16 C        3.7260     8.0830    -1.1290 C.3   1 <1>   0.1100 
 17 C        5.0000     6.2780    -2.1480 C.3   1 <1>   0.1100 
 18 N        5.0360     7.3830    -1.1580 N.3   1 <1>  -0.8100 
 19 C        6.1560     8.3050    -1.4590 C.3   1 <1>   0.1100 
 20 C        6.5230     9.1750    -0.2540 C.3   1 <1>   0.1200 
 21 O        7.5770    10.0270    -0.6420 O.3   1 <1>  -0.3630 
 22 C        8.1120    10.9250     0.2230 C.ar  1 <1>   0.0830 
 23 C        9.1020    11.7570    -0.2760 C.ar  1 <1>  -0.1500 
 24 C        7.7210    11.0490     1.5540 C.ar  1 <1>  -0.1500 
 25 C        9.6990    12.7040     0.5360 C.ar  1 <1>  -0.1500 
 26 C        8.3190    11.9980     2.3660 C.ar  1 <1>  -0.1500 
 27 C        9.3070    12.8250     1.8580 C.ar  1 <1>  -0.1500 
 28 H        1.9370     2.4310    -1.8190 H     1 <1>   0.1500 
 29 H        4.4220     1.8860     2.4020 H     1 <1>   0.1500 
 30 H        3.3920     4.0170     1.8940 H     1 <1>   0.1500 
 31 H        1.4280     5.1020     0.5440 H     1 <1>   0.0800 
 32 H        1.2490     4.6320    -1.1310 H     1 <1>   0.0800 
 33 H        3.7220     5.7490     0.0480 H     1 <1>   0.4500 
 34 H        2.0400     7.4340     0.0430 H     1 <1>   0.0800 
 35 H        1.8390     7.1880    -1.6680 H     1 <1>   0.0800 
 36 H        3.2100     5.2470    -2.7770 H     1 <1>   0.0800 
 37 H        4.2440     4.3060    -1.7400 H     1 <1>   0.0800 
 38 H        3.7330     8.8370    -0.3610 H     1 <1>   0.0800 
 39 H        3.5590     8.5850    -2.0680 H     1 <1>   0.0800 
 40 H        4.9120     6.6810    -3.1440 H     1 <1>   0.0800 
 41 H        5.9270     5.7310    -2.1040 H     1 <1>   0.0800 
 42 H        5.9030     8.9340    -2.2960 H     1 <1>   0.0800 
 43 H        7.0300     7.7310    -1.7170 H     1 <1>   0.0800 
 44 H        6.8660     8.5610     0.5600 H     1 <1>   0.0800 
 45 H        5.6970     9.7910     0.0500 H     1 <1>   0.0800 
 46 H        9.4010    11.6570    -1.3040 H     1 <1>   0.1500 
 47 H        6.9610    10.4210     1.9760 H     1 <1>   0.1500 
 48 H       10.4660    13.3460     0.1400 H     1 <1>   0.1500 
 49 H        8.0180    12.0940     3.3940 H     1 <1>   0.1500 
 50 H        9.7700    13.5620     2.4910 H     1 <1>   0.1500 
@<TRIPOS>BOND
  1   1   2  1   
  2   2   3  ar  
  3   2   4  ar  
  4   3   5  ar  
  5   3   6  1   
  6   4   7  ar  
  7   4  28  1   
  8   5   8  ar  
  9   5  29  1   
 10   6   9  1   
 11   6  10  1   
 12   6  11  1   
 13   7   8  ar  
 14   7  12  1   
 15   8  30  1   
 16  12  13  1   
 17  12  31  1   
 18  12  32  1   
 19  13  14  1   
 20  13  15  1   
 21  13  33  1   
 22  14  16  1   
 23  14  34  1   
 24  14  35  1   
 25  15  17  1   
 26  15  36  1   
 27  15  37  1   
 28  16  18  1   
 29  16  38  1   
 30  16  39  1   
 31  17  18  1   
 32  17  40  1   
 33  17  41  1   
 34  18  19  1   
 35  19  20  1   
 36  19  42  1   
 37  19  43  1   
 38  20  21  1   
 39  20  44  1   
 40  20  45  1   
 41  21  22  1   
 42  22  23  ar  
 43  22  24  ar  
 44  23  25  ar  
 45  23  46  1   
 46  24  26  ar  
 47  24  47  1   
 48  25  27  ar  
 49  25  48  1   
 50  26  27  ar  
 51  26  49  1   
 52  27  50  1   
@<TRIPOS>SUBSTRUCTURE
  1 ****  18 GROUP 4 **** **** 0

# MOE 2024.06 (io_trps.svl 2023.06)
