@<TRIPOS>MOLECULE
NONAME
50 52 1 0 0 
SMALL
USER_CHARGES


@<TRIPOS>ATOM
  1 S       -0.2720    -0.8810    -1.3090 S.o2  1 <1>   1.4470 
  2 O       -0.7510    -2.1910    -1.6940 O.2   1 <1>  -0.6500 
  3 O       -0.1470     0.1510    -2.3150 O.2   1 <1>  -0.6500 
  4 N       -1.2820    -0.3130    -0.0670 N.am  1 <1>  -0.8490 
  5 C        1.3230    -1.1010    -0.4640 C.ar  1 <1>  -0.0090 
  6 C       -2.7310    -0.5370    -0.2970 C.3   1 <1>   0.1960 
  7 C       -0.9480     1.0030     0.4770 C.3   1 <1>   0.1960 
  8 C        1.4250    -1.8890     0.6740 C.ar  1 <1>  -0.1500 
  9 C        2.4820    -0.4920    -0.9280 C.ar  1 <1>  -0.1500 
 10 C       -3.5970     0.7470    -0.4450 C.3   1 <1>   0.0000 
 11 C       -1.4640     2.1590    -0.3980 C.3   1 <1>  -0.1600 
 12 C        2.6350    -2.0610     1.3240 C.ar  1 <1>  -0.1500 
 13 C        3.6930    -0.6650    -0.2790 C.ar  1 <1>  -0.1500 
 14 C       -4.1880     1.2840     0.8800 C.3   1 <1>   0.2000 
 15 C       -2.7600     1.8320    -1.1610 C.3   1 <1>  -0.1600 
 16 C       -4.8650     0.4580    -1.2690 C.3   1 <1>  -0.1600 
 17 C        3.7940    -1.4530     0.8590 C.ar  1 <1>  -0.0090 
 18 O       -4.6340     0.2160     1.6650 O.3   1 <1>  -0.5600 
 19 C       -5.4110     2.1080     0.4620 C.3   1 <1>  -0.1600 
 20 C       -5.8940     1.5220    -0.8710 C.3   1 <1>  -0.1600 
 21 S        5.3850    -1.7120     1.6860 S.o2  1 <1>   1.2040 
 22 C       -4.6830     0.4680     3.0340 C.3   1 <1>   0.0400 
 23 O        6.2840    -0.6310     1.3480 O.2   1 <1>  -0.6500 
 24 O        5.1540    -2.0570     3.0700 O.2   1 <1>  -0.6500 
 25 C        5.9930    -3.1760     0.8720 C.3   1 <1>  -0.1350 
 26 H       -2.8570    -1.1120    -1.1980 H     1 <1>   0.0800 
 27 H       -3.1100    -1.1540     0.4980 H     1 <1>   0.0800 
 28 H       -1.3970     1.0770     1.4530 H     1 <1>   0.0800 
 29 H        0.1160     1.0950     0.6140 H     1 <1>   0.0800 
 30 H        0.5390    -2.3720     1.0550 H     1 <1>   0.1500 
 31 H        2.4360     0.1270    -1.8100 H     1 <1>   0.1500 
 32 H       -1.6240     3.0120     0.2370 H     1 <1>   0.0800 
 33 H       -0.7030     2.4380    -1.1050 H     1 <1>   0.0800 
 34 H        2.6770    -2.6760     2.2090 H     1 <1>   0.1500 
 35 H        4.5730    -0.1740    -0.6640 H     1 <1>   0.1500 
 36 H       -3.4770     1.8650     1.4410 H     1 <1>   0.0800 
 37 H       -2.4880     1.4580    -2.1340 H     1 <1>   0.0800 
 38 H       -3.3250     2.7330    -1.3190 H     1 <1>   0.0800 
 39 H       -4.6780     0.4520    -2.3290 H     1 <1>   0.0800 
 40 H       -5.2530    -0.5070    -0.9870 H     1 <1>   0.0800 
 41 H       -6.1860     2.0910     1.2080 H     1 <1>   0.0800 
 42 H       -5.1090     3.1290     0.3070 H     1 <1>   0.0800 
 43 H       -6.8680     1.0770    -0.7650 H     1 <1>   0.0800 
 44 H       -5.9430     2.2960    -1.6180 H     1 <1>   0.0800 
 45 H       -5.0750    -0.4080     3.5190 H     1 <1>   0.0800 
 46 H       -5.3280     1.3070     3.2240 H     1 <1>   0.0800 
 47 H       -3.6870     0.6650     3.3920 H     1 <1>   0.0800 
 48 H        6.1020    -3.0020    -0.1810 H     1 <1>   0.0800 
 49 H        5.3170    -3.9950     1.0200 H     1 <1>   0.0800 
 50 H        6.9500    -3.4470     1.2740 H     1 <1>   0.0800 
@<TRIPOS>BOND
  1   1   2  2   
  2   1   3  2   
  3   1   4  am  
  4   1   5  1   
  5   4   6  1   
  6   4   7  1   
  7   5   8  ar  
  8   5   9  ar  
  9   6  10  1   
 10   6  26  1   
 11   6  27  1   
 12   7  11  1   
 13   7  28  1   
 14   7  29  1   
 15   8  12  ar  
 16   8  30  1   
 17   9  13  ar  
 18   9  31  1   
 19  10  14  1   
 20  10  15  1   
 21  10  16  1   
 22  11  15  1   
 23  11  32  1   
 24  11  33  1   
 25  12  17  ar  
 26  12  34  1   
 27  13  17  ar  
 28  13  35  1   
 29  14  18  1   
 30  14  19  1   
 31  14  36  1   
 32  15  37  1   
 33  15  38  1   
 34  16  20  1   
 35  16  39  1   
 36  16  40  1   
 37  17  21  1   
 38  18  22  1   
 39  19  20  1   
 40  19  41  1   
 41  19  42  1   
 42  20  43  1   
 43  20  44  1   
 44  21  23  2   
 45  21  24  2   
 46  21  25  1   
 47  22  45  1   
 48  22  46  1   
 49  22  47  1   
 50  25  48  1   
 51  25  49  1   
 52  25  50  1   
@<TRIPOS>SUBSTRUCTURE
  1 ****   4 GROUP 4 **** **** 0

# MOE 2024.06 (io_trps.svl 2023.06)
