@<TRIPOS>MOLECULE
NONAME
37 38 1 0 0 
SMALL
USER_CHARGES


@<TRIPOS>ATOM
  1 F       -0.1260    -1.7070     0.0380 F     1 <1>  -0.3400 
  2 C       -1.3590    -1.8910    -0.4120 C.3   1 <1>   1.1640 
  3 F       -1.6850    -3.1400    -0.1120 F     1 <1>  -0.3400 
  4 F       -1.2910    -1.8390    -1.7360 F     1 <1>  -0.3400 
  5 C       -2.3990    -0.8970     0.1410 C.ar  1 <1>  -0.1430 
  6 C       -3.7310    -0.8920    -0.2990 C.ar  1 <1>  -0.1430 
  7 C       -2.0110     0.0340     1.1030 C.ar  1 <1>  -0.1500 
  8 C       -4.6190     0.0460     0.2130 C.ar  1 <1>  -0.1500 
  9 C       -4.2720    -1.8740    -1.3350 C.3   1 <1>   0.4870 
 10 C       -2.9100     0.9510     1.6130 C.ar  1 <1>  -0.1500 
 11 C       -4.2140     0.9600     1.1660 C.ar  1 <1>  -0.1500 
 12 N       -5.2890    -2.7300    -0.6850 N.4   1 <1>  -0.9590 
 13 C       -4.6660    -3.7480     0.2510 C.3   1 <1>   0.3430 
 14 C       -6.1940    -3.3870    -1.6700 C.3   1 <1>   0.3430 
 15 C       -5.5720    -4.9620     0.5350 C.3   1 <1>   0.2000 
 16 C       -7.4080    -3.9560    -0.9270 C.3   1 <1>  -0.1600 
 17 O       -5.3330    -5.9180    -0.4380 O.3   1 <1>  -0.6800 
 18 C       -7.0490    -4.5660     0.4540 C.3   1 <1>  -0.1860 
 19 C       -7.9100    -5.7580     0.8000 C.2   1 <1>   0.9060 
 20 O       -8.7280    -5.6360     1.7080 O.co2 1 <1>  -0.9000 
 21 O       -7.7280    -6.8030     0.1650 O.co2 1 <1>  -0.9000 
 22 H       -0.9980     0.0640     1.4720 H     1 <1>   0.1500 
 23 H       -5.6420     0.0860    -0.1240 H     1 <1>   0.1500 
 24 H       -3.4930    -2.4880    -1.7550 H     1 <1>   0.0800 
 25 H       -4.7260    -1.3140    -2.1370 H     1 <1>   0.0800 
 26 H       -2.5900     1.6630     2.3570 H     1 <1>   0.1500 
 27 H       -4.9100     1.6830     1.5590 H     1 <1>   0.1500 
 28 H       -5.8840    -2.1310    -0.1010 H     1 <1>   0.4500 
 29 H       -3.7490    -4.1280    -0.1670 H     1 <1>   0.0800 
 30 H       -4.4320    -3.2640     1.1840 H     1 <1>   0.0800 
 31 H       -6.5240    -2.6890    -2.4210 H     1 <1>   0.0800 
 32 H       -5.6680    -4.1950    -2.1550 H     1 <1>   0.0800 
 33 H       -5.3380    -5.4060     1.4890 H     1 <1>   0.0800 
 34 H       -8.1610    -3.1990    -0.8000 H     1 <1>   0.0800 
 35 H       -7.8380    -4.7210    -1.5520 H     1 <1>   0.0800 
 36 H       -6.1090    -6.5590    -0.3840 H     1 <1>   0.4000 
 37 H       -7.2330    -3.8280     1.2140 H     1 <1>   0.0800 
@<TRIPOS>BOND
  1   1   2  1   
  2   2   3  1   
  3   2   4  1   
  4   2   5  1   
  5   5   6  ar  
  6   5   7  ar  
  7   6   8  ar  
  8   6   9  1   
  9   7  10  ar  
 10   7  22  1   
 11   8  11  ar  
 12   8  23  1   
 13   9  12  1   
 14   9  24  1   
 15   9  25  1   
 16  10  11  ar  
 17  10  26  1   
 18  11  27  1   
 19  12  13  1   
 20  12  14  1   
 21  12  28  1   
 22  13  15  1   
 23  13  29  1   
 24  13  30  1   
 25  14  16  1   
 26  14  31  1   
 27  14  32  1   
 28  15  17  1   
 29  15  18  1   
 30  15  33  1   
 31  16  18  1   
 32  16  34  1   
 33  16  35  1   
 34  17  36  1   
 35  18  19  1   
 36  18  37  1   
 37  19  20  ar  
 38  19  21  ar  
@<TRIPOS>SUBSTRUCTURE
  1 ****  13 GROUP 4 **** **** 0

# MOE 2024.06 (io_trps.svl 2023.06)
