@<TRIPOS>MOLECULE
NONAME
55 57 1 0 0 
SMALL
USER_CHARGES


@<TRIPOS>ATOM
  1 S       -0.1120    -0.3880    -0.4610 S.o2  1 <1>   1.5760 
  2 O        1.0430    -1.2560    -0.4490 O.2   1 <1>  -0.6500 
  3 O       -0.8920    -0.2510    -1.6700 O.2   1 <1>  -0.6500 
  4 N       -1.1470    -0.8760     0.7830 N.am  1 <1>  -0.8490 
  5 N        0.2970     1.1510     0.1040 N.am  1 <1>  -0.8490 
  6 C       -1.4210    -2.3260     0.7630 C.3   1 <1>   0.1960 
  7 C       -2.4180    -0.1250     0.8470 C.3   1 <1>   0.1960 
  8 C        1.1200     1.1800     1.3200 C.3   1 <1>   0.1960 
  9 C        0.7630     2.0750    -0.9320 C.3   1 <1>   0.1960 
 10 C       -2.4820    -2.7300    -0.2820 C.3   1 <1>   0.3440 
 11 C       -3.5140    -0.6160    -0.1430 C.3   1 <1>   0.2000 
 12 C        2.6220     1.0000     1.0430 C.3   1 <1>  -0.1600 
 13 C        2.2310     1.8280    -1.2950 C.3   1 <1>  -0.1600 
 14 O       -3.6590    -2.0100    -0.0420 O.3   1 <1>  -0.5600 
 15 C       -2.7720    -4.2260    -0.1980 C.ar  1 <1>  -0.1430 
 16 C       -4.9080     0.0550     0.0510 C.3   1 <1>   0.0000 
 17 C        3.1260     1.9420    -0.0560 C.3   1 <1>  -0.1600 
 18 C       -3.7280    -4.7340     0.6710 C.ar  1 <1>  -0.1500 
 19 C       -2.0550    -5.1060    -0.9970 C.ar  1 <1>  -0.1500 
 20 C       -4.8010     1.5860    -0.0810 C.3   1 <1>  -0.2400 
 21 C       -5.8700    -0.4380    -1.0470 C.3   1 <1>  -0.2400 
 22 C       -5.5340    -0.2740     1.4200 C.3   1 <1>  -0.2400 
 23 C       -3.9630    -6.0970     0.7410 C.ar  1 <1>  -0.1500 
 24 C       -2.2880    -6.4680    -0.9280 C.ar  1 <1>  -0.1500 
 25 C       -3.2420    -6.9650    -0.0590 C.ar  1 <1>  -0.1500 
 26 H       -0.5130    -2.8750     0.5840 H     1 <1>   0.0800 
 27 H       -1.7800    -2.6240     1.7320 H     1 <1>   0.0800 
 28 H       -2.8000    -0.2140     1.8480 H     1 <1>   0.0800 
 29 H       -2.2230     0.9190     0.6780 H     1 <1>   0.0800 
 30 H        0.9750     2.1340     1.7980 H     1 <1>   0.0800 
 31 H        0.7840     0.4220     2.0090 H     1 <1>   0.0800 
 32 H        0.1460     1.9900    -1.8120 H     1 <1>   0.0800 
 33 H        0.6590     3.0810    -0.5640 H     1 <1>   0.0800 
 34 H       -2.1420    -2.4930    -1.2750 H     1 <1>   0.0800 
 35 H       -3.2020    -0.4020    -1.1490 H     1 <1>   0.0800 
 36 H        3.1680     1.1850     1.9500 H     1 <1>   0.0800 
 37 H        2.8190    -0.0180     0.7630 H     1 <1>   0.0800 
 38 H        2.3360     0.8530    -1.7380 H     1 <1>   0.0800 
 39 H        2.5400     2.5520    -2.0280 H     1 <1>   0.0800 
 40 H        4.1420     1.6950    -0.3120 H     1 <1>   0.0800 
 41 H        3.1080     2.9560     0.3060 H     1 <1>   0.0800 
 42 H       -4.2970    -4.0660     1.2940 H     1 <1>   0.1500 
 43 H       -1.3090    -4.7340    -1.6790 H     1 <1>   0.1500 
 44 H       -5.7780     2.0350    -0.0530 H     1 <1>   0.0800 
 45 H       -4.3360     1.8520    -1.0140 H     1 <1>   0.0800 
 46 H       -4.2250     2.0080     0.7220 H     1 <1>   0.0800 
 47 H       -6.8310     0.0360    -0.9580 H     1 <1>   0.0800 
 48 H       -6.0140    -1.5020    -0.9730 H     1 <1>   0.0800 
 49 H       -5.4720    -0.2210    -2.0230 H     1 <1>   0.0800 
 50 H       -6.5220     0.1450     1.4920 H     1 <1>   0.0800 
 51 H       -4.9480     0.1230     2.2270 H     1 <1>   0.0800 
 52 H       -5.6140    -1.3400     1.5480 H     1 <1>   0.0800 
 53 H       -4.7080    -6.4780     1.4170 H     1 <1>   0.1500 
 54 H       -1.7270    -7.1420    -1.5520 H     1 <1>   0.1500 
 55 H       -3.4240    -8.0240    -0.0050 H     1 <1>   0.1500 
@<TRIPOS>BOND
  1   1   2  2   
  2   1   3  2   
  3   1   4  am  
  4   1   5  am  
  5   4   6  1   
  6   4   7  1   
  7   5   8  1   
  8   5   9  1   
  9   6  10  1   
 10   6  26  1   
 11   6  27  1   
 12   7  11  1   
 13   7  28  1   
 14   7  29  1   
 15   8  12  1   
 16   8  30  1   
 17   8  31  1   
 18   9  13  1   
 19   9  32  1   
 20   9  33  1   
 21  10  14  1   
 22  10  15  1   
 23  10  34  1   
 24  11  14  1   
 25  11  16  1   
 26  11  35  1   
 27  12  17  1   
 28  12  36  1   
 29  12  37  1   
 30  13  17  1   
 31  13  38  1   
 32  13  39  1   
 33  15  18  ar  
 34  15  19  ar  
 35  16  20  1   
 36  16  21  1   
 37  16  22  1   
 38  17  40  1   
 39  17  41  1   
 40  18  23  ar  
 41  18  42  1   
 42  19  24  ar  
 43  19  43  1   
 44  20  44  1   
 45  20  45  1   
 46  20  46  1   
 47  21  47  1   
 48  21  48  1   
 49  21  49  1   
 50  22  50  1   
 51  22  51  1   
 52  22  52  1   
 53  23  25  ar  
 54  23  53  1   
 55  24  25  ar  
 56  24  54  1   
 57  25  55  1   
@<TRIPOS>SUBSTRUCTURE
  1 ****   4 GROUP 4 **** **** 0

# MOE 2024.06 (io_trps.svl 2023.06)
