@<TRIPOS>MOLECULE
NONAME
52 54 1 0 0 
SMALL
USER_CHARGES


@<TRIPOS>ATOM
  1 F       -2.5540     0.0700    -1.9630 F     1 <1>  -0.3400 
  2 C       -3.8820     0.0140    -1.9040 C.3   1 <1>   1.1640 
  3 F       -4.3140     0.2330    -3.1440 F     1 <1>  -0.3400 
  4 F       -4.1700    -1.2590    -1.6430 F     1 <1>  -0.3400 
  5 C       -4.4880     1.0050    -0.8780 C.ar  1 <1>   0.1660 
  6 N       -4.0830     2.2690    -0.8650 N.ar  1 <1>  -0.6200 
  7 C       -5.4490     0.5830     0.0060 C.ar  1 <1>  -0.1500 
  8 C       -4.6480     3.0720     0.0310 C.ar  1 <1>   0.7200 
  9 C       -5.9800     1.4920     0.9010 C.ar  1 <1>   0.4100 
 10 N       -5.5740     2.7380     0.9130 N.ar  1 <1>  -0.6200 
 11 N       -4.2270     4.3890     0.0330 N.pl3 1 <1>  -0.8380 
 12 N       -6.9730     1.1470     1.8000 N.pl3 1 <1>  -0.8380 
 13 C       -3.4390     4.9750    -1.0860 C.3   1 <1>   0.1290 
 14 C       -4.5000     5.2980     1.1820 C.3   1 <1>   0.1290 
 15 C       -7.2370    -0.2670     2.2120 C.3   1 <1>   0.2090 
 16 C       -8.1280     2.0810     1.9970 C.3   1 <1>   0.2090 
 17 C       -8.4670    -0.8830     1.5060 C.3   1 <1>   0.2000 
 18 C       -9.4830     1.3540     1.9320 C.3   1 <1>  -0.1600 
 19 O       -8.0810    -1.7530     0.4940 O.3   1 <1>  -0.6800 
 20 C       -9.4880     0.1460     0.9520 C.3   1 <1>  -0.1060 
 21 C      -10.8180    -0.6080     0.9400 C.2   1 <1>   0.9060 
 22 C       -9.1620     0.5980    -0.5080 C.3   1 <1>  -0.0170 
 23 O      -11.7890    -0.1850     1.5750 O.co2 1 <1>  -0.9000 
 24 O      -10.8660    -1.6800     0.3150 O.co2 1 <1>  -0.9000 
 25 C       -9.8170     1.8990    -0.9680 C.ar  1 <1>  -0.1430 
 26 C       -9.0320     2.9980    -1.2850 C.ar  1 <1>  -0.1500 
 27 C      -11.1950     1.9980    -1.0820 C.ar  1 <1>  -0.1500 
 28 C       -9.6150     4.1800    -1.7080 C.ar  1 <1>  -0.1500 
 29 C      -11.7810     3.1790    -1.5040 C.ar  1 <1>  -0.1500 
 30 C      -10.9910     4.2720    -1.8190 C.ar  1 <1>  -0.1500 
 31 H       -5.8110    -0.4270     0.0000 H     1 <1>   0.1500 
 32 H       -3.6600     6.0230    -1.1850 H     1 <1>   0.0800 
 33 H       -3.6840     4.4890    -2.0150 H     1 <1>   0.0800 
 34 H       -2.3890     4.8480    -0.8920 H     1 <1>   0.0800 
 35 H       -3.6890     5.9930     1.3060 H     1 <1>   0.0800 
 36 H       -4.6040     4.7350     2.0940 H     1 <1>   0.0800 
 37 H       -5.4110     5.8410     1.0020 H     1 <1>   0.0800 
 38 H       -6.3710    -0.8870     2.0680 H     1 <1>   0.0800 
 39 H       -7.4400    -0.2530     3.2680 H     1 <1>   0.0800 
 40 H       -8.0240     2.5770     2.9460 H     1 <1>   0.0800 
 41 H       -8.1080     2.8390     1.2340 H     1 <1>   0.0800 
 42 H       -8.9620    -1.4970     2.2400 H     1 <1>   0.0800 
 43 H       -9.7360     1.0040     2.9180 H     1 <1>   0.0800 
 44 H      -10.2510     2.0580     1.6630 H     1 <1>   0.0800 
 45 H       -8.9360    -2.0840     0.1060 H     1 <1>   0.4000 
 46 H       -8.1030     0.7030    -0.6180 H     1 <1>   0.0800 
 47 H       -9.4510    -0.1770    -1.1970 H     1 <1>   0.0800 
 48 H       -7.9600     2.9380    -1.1990 H     1 <1>   0.1500 
 49 H      -11.8190     1.1540    -0.8350 H     1 <1>   0.1500 
 50 H       -8.9950     5.0250    -1.9490 H     1 <1>   0.1500 
 51 H      -12.8510     3.2400    -1.5830 H     1 <1>   0.1500 
 52 H      -11.4470     5.1880    -2.1460 H     1 <1>   0.1500 
@<TRIPOS>BOND
  1   1   2  1   
  2   2   3  1   
  3   2   4  1   
  4   2   5  1   
  5   5   6  ar  
  6   5   7  ar  
  7   6   8  ar  
  8   7   9  ar  
  9   7  31  1   
 10   8  10  ar  
 11   8  11  1   
 12   9  10  ar  
 13   9  12  1   
 14  11  13  1   
 15  11  14  1   
 16  12  15  1   
 17  12  16  1   
 18  13  32  1   
 19  13  33  1   
 20  13  34  1   
 21  14  35  1   
 22  14  36  1   
 23  14  37  1   
 24  15  17  1   
 25  15  38  1   
 26  15  39  1   
 27  16  18  1   
 28  16  40  1   
 29  16  41  1   
 30  17  19  1   
 31  17  20  1   
 32  17  42  1   
 33  18  20  1   
 34  18  43  1   
 35  18  44  1   
 36  19  45  1   
 37  20  21  1   
 38  20  22  1   
 39  21  23  ar  
 40  21  24  ar  
 41  22  25  1   
 42  22  46  1   
 43  22  47  1   
 44  25  26  ar  
 45  25  27  ar  
 46  26  28  ar  
 47  26  48  1   
 48  27  29  ar  
 49  27  49  1   
 50  28  30  ar  
 51  28  50  1   
 52  29  30  ar  
 53  29  51  1   
 54  30  52  1   
@<TRIPOS>SUBSTRUCTURE
  1 ****   9 GROUP 4 **** **** 0

# MOE 2024.06 (io_trps.svl 2023.06)
