@<TRIPOS>MOLECULE
NONAME
55 57 1 0 0 
SMALL
USER_CHARGES


@<TRIPOS>ATOM
  1 O       -0.3840     0.5720     0.5090 O.2   1 <1>  -0.5700 
  2 C       -1.3760     1.0280    -0.0110 C.2   1 <1>   0.5690 
  3 N       -2.5170     0.2870    -0.1290 N.am  1 <1>  -0.6600 
  4 C       -1.3550     2.4510    -0.5570 C.3   1 <1>  -0.0990 
  5 C       -3.7740     0.6780    -0.8170 C.3   1 <1>   0.1400 
  6 C       -2.6430    -1.0810     0.4180 C.3   1 <1>   0.1400 
  7 C       -0.0560     3.2280    -0.2670 C.3   1 <1>  -0.1600 
  8 C       -4.7440    -0.4950    -0.6090 C.3   1 <1>   0.2000 
  9 C       -3.8270    -1.6920    -0.3340 C.3   1 <1>  -0.0800 
 10 C       -0.1140     4.6560    -0.8220 C.3   1 <1>  -0.0160 
 11 O       -5.5310    -0.2600     0.5240 O.3   1 <1>  -0.5600 
 12 C       -4.4990    -2.8560     0.4160 C.3   1 <1>   0.0200 
 13 C        1.1720     5.4050    -0.5130 C.ar  1 <1>  -0.1440 
 14 C       -6.6990     0.4660     0.2990 C.3   1 <1>   0.0400 
 15 C       -3.6230    -4.0940     0.5150 C.2   1 <1>  -0.0400 
 16 C        1.3180     6.0780     0.6900 C.ar  1 <1>  -0.1500 
 17 C        2.2120     5.4220    -1.4300 C.ar  1 <1>  -0.1500 
 18 O       -4.0630    -5.1210     1.1910 O.3   1 <1>  -0.0190 
 19 C       -2.4100    -4.4140     0.0320 C.2   1 <1>  -0.1500 
 20 C        2.4860     6.7640     0.9770 C.ar  1 <1>  -0.1500 
 21 C        3.3800     6.1070    -1.1470 C.ar  1 <1>  -0.1500 
 22 N       -3.2130    -6.1080     1.1890 N.2   1 <1>  -0.4100 
 23 C       -2.2070    -5.7090     0.4990 C.2   1 <1>   0.1080 
 24 C        3.5270     6.7820     0.0530 C.ar  1 <1>   0.0820 
 25 C       -0.9710    -6.5400     0.2370 C.3   1 <1>  -0.0590 
 26 O        4.7030     7.4300     0.2520 O.3   1 <1>  -0.3620 
 27 C        4.9570     8.1330     1.4470 C.3   1 <1>   0.0400 
 28 H       -1.5040     2.4020    -1.6190 H     1 <1>   0.0800 
 29 H       -2.1800     2.9850    -0.1220 H     1 <1>   0.0800 
 30 H       -4.1680     1.5920    -0.4120 H     1 <1>   0.0800 
 31 H       -3.5700     0.7990    -1.8660 H     1 <1>   0.0800 
 32 H       -1.7340    -1.6390     0.2730 H     1 <1>   0.0800 
 33 H       -2.8570    -1.0130     1.4710 H     1 <1>   0.0800 
 34 H        0.1080     3.2650     0.7970 H     1 <1>   0.0800 
 35 H        0.7790     2.7080    -0.7060 H     1 <1>   0.0800 
 36 H       -5.3830    -0.6650    -1.4590 H     1 <1>   0.0800 
 37 H       -3.4650    -2.0510    -1.2810 H     1 <1>   0.0800 
 38 H       -0.9450     5.1840    -0.3870 H     1 <1>   0.0800 
 39 H       -0.2650     4.6280    -1.8870 H     1 <1>   0.0800 
 40 H       -5.4090    -3.1260    -0.0900 H     1 <1>   0.0800 
 41 H       -4.7630    -2.5440     1.4120 H     1 <1>   0.0800 
 42 H       -7.1990     0.5920     1.2430 H     1 <1>   0.0800 
 43 H       -7.3340    -0.0840    -0.3750 H     1 <1>   0.0800 
 44 H       -6.4540     1.4300    -0.1100 H     1 <1>   0.0800 
 45 H        0.5200     6.0660     1.4110 H     1 <1>   0.1500 
 46 H        2.1180     4.9010    -2.3660 H     1 <1>   0.1500 
 47 H       -1.7270    -3.8470    -0.5710 H     1 <1>   0.1500 
 48 H        2.5650     7.2730     1.9170 H     1 <1>   0.1500 
 49 H        4.1870     6.1220    -1.8560 H     1 <1>   0.1500 
 50 H       -0.1050    -6.0380     0.6270 H     1 <1>   0.0800 
 51 H       -0.8500    -6.6890    -0.8200 H     1 <1>   0.0800 
 52 H       -1.0650    -7.4970     0.7160 H     1 <1>   0.0800 
 53 H        5.9430     8.5550     1.3830 H     1 <1>   0.0800 
 54 H        4.9050     7.4460     2.2730 H     1 <1>   0.0800 
 55 H        4.2290     8.9180     1.5510 H     1 <1>   0.0800 
@<TRIPOS>BOND
  1   1   2  2   
  2   2   3  am  
  3   2   4  1   
  4   3   5  1   
  5   3   6  1   
  6   4   7  1   
  7   4  28  1   
  8   4  29  1   
  9   5   8  1   
 10   5  30  1   
 11   5  31  1   
 12   6   9  1   
 13   6  32  1   
 14   6  33  1   
 15   7  10  1   
 16   7  34  1   
 17   7  35  1   
 18   8   9  1   
 19   8  11  1   
 20   8  36  1   
 21   9  12  1   
 22   9  37  1   
 23  10  13  1   
 24  10  38  1   
 25  10  39  1   
 26  11  14  1   
 27  12  15  1   
 28  12  40  1   
 29  12  41  1   
 30  13  16  ar  
 31  13  17  ar  
 32  14  42  1   
 33  14  43  1   
 34  14  44  1   
 35  15  18  1   
 36  15  19  2   
 37  16  20  ar  
 38  16  45  1   
 39  17  21  ar  
 40  17  46  1   
 41  18  22  1   
 42  19  23  1   
 43  19  47  1   
 44  20  24  ar  
 45  20  48  1   
 46  21  24  ar  
 47  21  49  1   
 48  22  23  2   
 49  23  25  1   
 50  24  26  1   
 51  25  50  1   
 52  25  51  1   
 53  25  52  1   
 54  26  27  1   
 55  27  53  1   
 56  27  54  1   
 57  27  55  1   
@<TRIPOS>SUBSTRUCTURE
  1 ****   2 GROUP 4 **** **** 0

# MOE 2024.06 (io_trps.svl 2023.06)
