@<TRIPOS>MOLECULE
NONAME
46 49 1 0 0 
SMALL
USER_CHARGES


@<TRIPOS>ATOM
  1 F        0.8000     1.6140    -2.3230 F     1 <1>  -0.1900 
  2 C        1.7100     1.9050    -1.4310 C.ar  1 <1>   0.1900 
  3 C        2.0420     3.2220    -1.2210 C.ar  1 <1>  -0.1500 
  4 C        2.3030     0.8660    -0.7330 C.ar  1 <1>  -0.1500 
  5 C        3.0160     3.5500    -0.2700 C.ar  1 <1>   0.0860 
  6 C        3.2620     1.1730     0.2080 C.ar  1 <1>  -0.1500 
  7 C        3.4190     4.9100    -0.0040 C.2   1 <1>   0.4690 
  8 C        3.6220     2.5010     0.4460 C.ar  1 <1>   0.1000 
  9 O        2.9230     5.8250    -0.6520 O.2   1 <1>  -0.5700 
 10 C        4.4090     5.1570     1.0000 C.2   1 <1>   0.0290 
 11 N        4.5840     2.8070     1.3980 N.pl3 1 <1>  -0.6000 
 12 C        4.8110     6.4990     1.3200 C.2   1 <1>   0.6160 
 13 C        4.9480     4.0910     1.6680 C.2   1 <1>  -0.0500 
 14 O        4.8590     6.8220     2.4960 O.2   1 <1>  -0.5700 
 15 N        5.2120     7.4410     0.3830 N.am  1 <1>  -0.6600 
 16 C        5.3810     8.8680     0.8050 C.3   1 <1>   0.1400 
 17 C        5.6820     7.0370    -0.9800 C.3   1 <1>   0.1400 
 18 C        6.8590     9.3090     0.9570 C.3   1 <1>   0.4230 
 19 C        7.0670     7.5870    -1.3810 C.3   1 <1>  -0.0800 
 20 N        7.4500     9.8530    -0.3210 N.4   1 <1>  -0.9590 
 21 C        7.7970     8.2320     1.5690 C.3   1 <1>   0.1200 
 22 C        8.2510     7.0780    -0.5300 C.3   1 <1>   0.1200 
 23 C        7.0410     9.1070    -1.5490 C.3   1 <1>   0.3430 
 24 C        7.1650    11.3120    -0.4790 C.3   1 <1>   0.2630 
 25 O        7.9540     7.0460     0.8290 O.3   1 <1>  -0.5600 
 26 H        1.5550     3.9980    -1.7860 H     1 <1>   0.1500 
 27 H        2.0100    -0.1490    -0.9320 H     1 <1>   0.1500 
 28 H        3.7380     0.3860     0.7650 H     1 <1>   0.1500 
 29 H        5.0050     2.0320     1.9250 H     1 <1>   0.4000 
 30 H        5.6850     4.2520     2.4410 H     1 <1>   0.1500 
 31 H        4.8650     9.5070     0.1120 H     1 <1>   0.0800 
 32 H        4.8980     9.0160     1.7560 H     1 <1>   0.0800 
 33 H        5.7320     5.9630    -1.0380 H     1 <1>   0.0800 
 34 H        4.9420     7.3540    -1.6970 H     1 <1>   0.0800 
 35 H        6.8500    10.1200     1.6660 H     1 <1>   0.0800 
 36 H        7.2390     7.2060    -2.3730 H     1 <1>   0.0800 
 37 H        8.4670     9.7300    -0.2230 H     1 <1>   0.4500 
 38 H        7.4000     7.9380     2.5260 H     1 <1>   0.0800 
 39 H        8.7750     8.6450     1.7400 H     1 <1>   0.0800 
 40 H        9.1460     7.6570    -0.6820 H     1 <1>   0.0800 
 41 H        8.4680     6.0600    -0.8090 H     1 <1>   0.0800 
 42 H        6.0460     9.4020    -1.8420 H     1 <1>   0.0800 
 43 H        7.7070     9.3760    -2.3530 H     1 <1>   0.0800 
 44 H        6.1040    11.4790    -0.5770 H     1 <1>   0.0800 
 45 H        7.6560    11.6980    -1.3580 H     1 <1>   0.0800 
 46 H        7.5220    11.8600     0.3790 H     1 <1>   0.0800 
@<TRIPOS>BOND
  1   1   2  1   
  2   2   3  ar  
  3   2   4  ar  
  4   3   5  ar  
  5   3  26  1   
  6   4   6  ar  
  7   4  27  1   
  8   5   7  1   
  9   5   8  ar  
 10   6   8  ar  
 11   6  28  1   
 12   7   9  2   
 13   7  10  1   
 14   8  11  1   
 15  10  12  1   
 16  10  13  2   
 17  11  13  1   
 18  11  29  1   
 19  12  14  2   
 20  12  15  am  
 21  13  30  1   
 22  15  16  1   
 23  15  17  1   
 24  16  18  1   
 25  16  31  1   
 26  16  32  1   
 27  17  19  1   
 28  17  33  1   
 29  17  34  1   
 30  18  20  1   
 31  18  21  1   
 32  18  35  1   
 33  19  22  1   
 34  19  23  1   
 35  19  36  1   
 36  20  23  1   
 37  20  24  1   
 38  20  37  1   
 39  21  25  1   
 40  21  38  1   
 41  21  39  1   
 42  22  25  1   
 43  22  40  1   
 44  22  41  1   
 45  23  42  1   
 46  23  43  1   
 47  24  44  1   
 48  24  45  1   
 49  24  46  1   
@<TRIPOS>SUBSTRUCTURE
  1 ****  10 GROUP 4 **** **** 0

# MOE 2024.06 (io_trps.svl 2023.06)
