@<TRIPOS>MOLECULE
NONAME
55 58 1 0 0 
SMALL
USER_CHARGES


@<TRIPOS>ATOM
  1 S       -0.3390    -0.5110     0.3180 S.3   1 <1>  -0.0800 
  2 C       -0.4840     0.8980    -0.7360 C.2   1 <1>  -0.0130 
  3 C       -0.7840    -1.6190    -0.9670 C.2   1 <1>  -0.1400 
  4 C       -0.2340     2.2190    -0.2040 C.ar  1 <1>   0.0530 
  5 C       -0.8450     0.4720    -1.9710 C.2   1 <1>  -0.1500 
  6 C       -1.0100    -0.9380    -2.1060 C.2   1 <1>  -0.1500 
  7 C       -0.8320    -3.0940    -0.6330 C.3   1 <1>   0.5230 
  8 C        0.5750     2.4350     0.9120 C.ar  1 <1>  -0.1500 
  9 C       -0.8040     3.3400    -0.8070 C.ar  1 <1>  -0.1500 
 10 N       -2.2100    -3.4420    -0.1770 N.4   1 <1>  -0.9590 
 11 C        0.7990     3.7080     1.4060 C.ar  1 <1>  -0.1500 
 12 C       -0.5830     4.6160    -0.3190 C.ar  1 <1>  -0.1500 
 13 C       -2.5170    -4.9110    -0.2320 C.3   1 <1>   0.3430 
 14 C       -2.5660    -2.7760     1.1140 C.3   1 <1>   0.3430 
 15 C        0.2200     4.8020     0.7910 C.ar  1 <1>  -0.1500 
 16 C       -3.9940    -5.2790     0.1430 C.3   1 <1>   0.4230 
 17 C       -3.8760    -3.3190     1.7110 C.3   1 <1>  -0.1600 
 18 N       -4.7850    -6.1050    -0.8680 N.4   1 <1>  -0.9590 
 19 C       -4.8070    -4.0910     0.7370 C.3   1 <1>   0.0000 
 20 C       -6.2460    -6.2220    -0.5200 C.3   1 <1>   0.3430 
 21 C       -4.6610    -5.6750    -2.3020 C.3   1 <1>   0.2630 
 22 C       -5.9730    -4.7140     1.5560 C.3   1 <1>  -0.1600 
 23 C       -5.4450    -3.1010    -0.2910 C.3   1 <1>   0.1200 
 24 C       -6.4830    -6.0590     0.9860 C.3   1 <1>  -0.1600 
 25 O       -4.5780    -2.7260    -1.3120 O.3   1 <1>  -0.6800 
 26 H       -0.9970     1.1230    -2.8150 H     1 <1>   0.1500 
 27 H       -1.2860    -1.3580    -3.0590 H     1 <1>   0.1500 
 28 H       -0.1030    -3.3250     0.1270 H     1 <1>   0.0800 
 29 H       -0.5900    -3.6530    -1.5220 H     1 <1>   0.0800 
 30 H        1.0460     1.6040     1.4040 H     1 <1>   0.1500 
 31 H       -1.4330     3.2160    -1.6690 H     1 <1>   0.1500 
 32 H       -2.8500    -2.9850    -0.8600 H     1 <1>   0.4500 
 33 H        1.4270     3.8480     2.2690 H     1 <1>   0.1500 
 34 H       -1.0350     5.4650    -0.8020 H     1 <1>   0.1500 
 35 H       -2.3000    -5.2850    -1.2170 H     1 <1>   0.0800 
 36 H       -1.8650    -5.4170     0.4600 H     1 <1>   0.0800 
 37 H       -1.7690    -2.9000     1.8300 H     1 <1>   0.0800 
 38 H       -2.6790    -1.7170     0.9380 H     1 <1>   0.0800 
 39 H        0.3930     5.7930     1.1740 H     1 <1>   0.1500 
 40 H       -3.8650    -5.9380     0.9850 H     1 <1>   0.0800 
 41 H       -3.5960    -3.9650     2.5260 H     1 <1>   0.0800 
 42 H       -4.4080    -2.4960     2.1590 H     1 <1>   0.0800 
 43 H       -4.4210    -7.0700    -0.8140 H     1 <1>   0.4500 
 44 H       -6.8050    -5.4600    -1.0370 H     1 <1>   0.0800 
 45 H       -6.6250    -7.1790    -0.8460 H     1 <1>   0.0800 
 46 H       -5.0860    -4.6950    -2.4420 H     1 <1>   0.0800 
 47 H       -5.1890    -6.3630    -2.9430 H     1 <1>   0.0800 
 48 H       -3.6300    -5.6520    -2.6110 H     1 <1>   0.0800 
 49 H       -5.6720    -4.8960     2.5750 H     1 <1>   0.0800 
 50 H       -6.7940    -4.0180     1.6140 H     1 <1>   0.0800 
 51 H       -5.7650    -2.2040     0.2140 H     1 <1>   0.0800 
 52 H       -6.3140    -3.5310    -0.7580 H     1 <1>   0.0800 
 53 H       -7.5380    -6.1460     1.1850 H     1 <1>   0.0800 
 54 H       -6.0080    -6.8780     1.5000 H     1 <1>   0.0800 
 55 H       -4.9840    -1.9930    -1.8360 H     1 <1>   0.4000 
@<TRIPOS>BOND
  1   1   2  1   
  2   1   3  1   
  3   2   4  1   
  4   2   5  2   
  5   3   6  2   
  6   3   7  1   
  7   4   8  ar  
  8   4   9  ar  
  9   5   6  1   
 10   5  26  1   
 11   6  27  1   
 12   7  10  1   
 13   7  28  1   
 14   7  29  1   
 15   8  11  ar  
 16   8  30  1   
 17   9  12  ar  
 18   9  31  1   
 19  10  13  1   
 20  10  14  1   
 21  10  32  1   
 22  11  15  ar  
 23  11  33  1   
 24  12  15  ar  
 25  12  34  1   
 26  13  16  1   
 27  13  35  1   
 28  13  36  1   
 29  14  17  1   
 30  14  37  1   
 31  14  38  1   
 32  15  39  1   
 33  16  18  1   
 34  16  19  1   
 35  16  40  1   
 36  17  19  1   
 37  17  41  1   
 38  17  42  1   
 39  18  20  1   
 40  18  21  1   
 41  18  43  1   
 42  19  22  1   
 43  19  23  1   
 44  20  24  1   
 45  20  44  1   
 46  20  45  1   
 47  21  46  1   
 48  21  47  1   
 49  21  48  1   
 50  22  24  1   
 51  22  49  1   
 52  22  50  1   
 53  23  25  1   
 54  23  51  1   
 55  23  52  1   
 56  24  53  1   
 57  24  54  1   
 58  25  55  1   
@<TRIPOS>SUBSTRUCTURE
  1 ****  14 GROUP 4 **** **** 0

# MOE 2024.06 (io_trps.svl 2023.06)
