@<TRIPOS>MOLECULE
NONAME
32 33 1 0 0 
SMALL
USER_CHARGES


@<TRIPOS>ATOM
  1 O        0.4240    -0.2350     1.4920 O.2   1 <1>  -0.5770 
  2 C        1.2340    -0.7600     0.7610 C.2   1 <1>   0.9960 
  3 N        2.0960     0.0280     0.0680 N.pl3 1 <1>  -0.7350 
  4 C        1.3140    -2.1760     0.5730 C.2   1 <1>  -0.0980 
  5 C        2.1820     1.3550     0.0790 C.cat 1 <1>   1.0680 
  6 C        0.2620    -3.0420     0.3150 C.2   1 <1>   0.0960 
  7 C        2.3670    -3.0230     0.5610 C.2   1 <1>  -0.0530 
  8 N        1.4650     2.1810     0.8170 N.pl3 1 <1>  -0.7060 
  9 N        3.0300     2.0560    -0.6760 N.pl3 1 <1>  -0.7690 
 10 N        0.7000    -4.2320     0.1570 N.2   1 <1>  -0.4190 
 11 C       -1.2110    -2.6750     0.2120 C.3   1 <1>   0.0080 
 12 O        2.0040    -4.2540     0.3030 O.3   1 <1>  -0.0320 
 13 C        3.8450    -2.7770     0.8100 C.3   1 <1>  -0.0730 
 14 C        1.8500     3.4710     0.5430 C.2   1 <1>   0.1890 
 15 C        2.8210     3.3950    -0.3840 C.2   1 <1>   0.1890 
 16 C        4.0400     1.6060    -1.6740 C.3   1 <1>   0.2640 
 17 C       -1.5080    -1.8560    -1.0500 C.3   1 <1>  -0.2510 
 18 H        2.6890    -0.4680    -0.5790 H     1 <1>   0.4410 
 19 H        0.7410     1.8460     1.4660 H     1 <1>   0.4410 
 20 H       -1.5100    -2.1250     1.0870 H     1 <1>   0.0680 
 21 H       -1.7920    -3.5810     0.1850 H     1 <1>   0.0680 
 22 H        4.0340    -1.7620     1.1020 H     1 <1>   0.0680 
 23 H        4.4090    -3.0050    -0.0770 H     1 <1>   0.0680 
 24 H        4.1840    -3.4240     1.6010 H     1 <1>   0.0680 
 25 H        1.4110     4.3360     1.0180 H     1 <1>   0.1380 
 26 H        3.3740     4.1970    -0.8520 H     1 <1>   0.1380 
 27 H        4.0750     0.5330    -1.7350 H     1 <1>   0.0680 
 28 H        5.0150     1.9680    -1.3930 H     1 <1>   0.0680 
 29 H        3.7920     2.0010    -2.6450 H     1 <1>   0.0680 
 30 H       -1.0000    -0.9100    -1.0270 H     1 <1>   0.0680 
 31 H       -2.5650    -1.6730    -1.1210 H     1 <1>   0.0680 
 32 H       -1.1970    -2.4020    -1.9230 H     1 <1>   0.0680 
@<TRIPOS>BOND
  1   1   2  2   
  2   2   3  1   
  3   2   4  1   
  4   3   5  ar  
  5   3  18  1   
  6   4   6  1   
  7   4   7  2   
  8   5   8  ar  
  9   5   9  ar  
 10   6  10  2   
 11   6  11  1   
 12   7  12  1   
 13   7  13  1   
 14   8  14  1   
 15   8  19  1   
 16   9  15  1   
 17   9  16  1   
 18  10  12  1   
 19  11  17  1   
 20  11  20  1   
 21  11  21  1   
 22  13  22  1   
 23  13  23  1   
 24  13  24  1   
 25  14  15  2   
 26  14  25  1   
 27  15  26  1   
 28  16  27  1   
 29  16  28  1   
 30  16  29  1   
 31  17  30  1   
 32  17  31  1   
 33  17  32  1   
@<TRIPOS>SUBSTRUCTURE
  1 ****   2 GROUP 4 **** **** 0

# MOE 2024.06 (io_trps.svl 2023.06)
