@<TRIPOS>MOLECULE
NONAME
45 47 1 0 0 
SMALL
USER_CHARGES


@<TRIPOS>ATOM
  1 O       -0.3860     1.0500    -1.5340 O.2   1 <1>  -0.5700 
  2 C       -0.3170     2.0590    -0.8520 C.2   1 <1>   0.5440 
  3 N       -1.5010     2.6900    -0.4980 N.am  1 <1>  -0.6600 
  4 C        1.0070     2.5730    -0.4970 C.ar  1 <1>   0.3960 
  5 C       -2.8160     2.1720    -0.9880 C.3   1 <1>   0.1400 
  6 C       -1.5380     3.9560     0.2960 C.3   1 <1>   0.1400 
  7 N        1.3730     2.6880     0.7940 N.ar  1 <1>  -0.6200 
  8 C        1.8670     2.9270    -1.5390 C.ar  1 <1>  -0.1500 
  9 C       -3.7880     3.3270    -1.2480 C.3   1 <1>  -0.1600 
 10 C       -2.8850     4.0870     1.0060 C.3   1 <1>  -0.1600 
 11 C        2.5830     3.1510     1.0030 C.ar  1 <1>   0.3930 
 12 C        3.1300     3.4200    -1.2890 C.ar  1 <1>  -0.1500 
 13 C       -4.0480     4.2030    -0.0010 C.3   1 <1>   0.2800 
 14 O        2.9100     3.2370     2.2780 O.3   1 <1>  -0.5330 
 15 C        3.4920     3.5340     0.0320 C.ar  1 <1>  -0.1500 
 16 O       -4.0560     5.5190    -0.4840 O.3   1 <1>  -0.5600 
 17 C       -5.3940     3.8380     0.6790 C.3   1 <1>  -0.1600 
 18 C       -4.7470     6.5090     0.2260 C.3   1 <1>   0.1200 
 19 C       -6.5840     4.6850     0.2050 C.3   1 <1>   0.2800 
 20 C       -6.2500     6.1960     0.3770 C.3   1 <1>   0.2000 
 21 O       -6.8010     4.4300    -1.1350 O.3   1 <1>  -0.6800 
 22 C       -7.8830     4.2500     0.8970 C.3   1 <1>  -0.2400 
 23 O       -6.6370     6.6620     1.6390 O.3   1 <1>  -0.6800 
 24 H       -2.6800     1.6190    -1.9030 H     1 <1>   0.0800 
 25 H       -3.2240     1.5020    -0.2520 H     1 <1>   0.0800 
 26 H       -0.7580     3.9610     1.0350 H     1 <1>   0.0800 
 27 H       -1.3910     4.7950    -0.3640 H     1 <1>   0.0800 
 28 H        1.5270     2.8050    -2.5520 H     1 <1>   0.1500 
 29 H       -4.7070     2.9230    -1.6270 H     1 <1>   0.0800 
 30 H       -3.3650     3.9280    -2.0340 H     1 <1>   0.0800 
 31 H       -2.8670     4.9380     1.6600 H     1 <1>   0.0800 
 32 H       -3.0140     3.2150     1.6220 H     1 <1>   0.0800 
 33 H        3.7990     3.6980    -2.0860 H     1 <1>   0.1500 
 34 H        2.1740     2.8830     2.8060 H     1 <1>   0.4500 
 35 H        4.4570     3.9050     0.3230 H     1 <1>   0.1500 
 36 H       -5.6010     2.7910     0.5570 H     1 <1>   0.0800 
 37 H       -5.2930     3.9950     1.7380 H     1 <1>   0.0800 
 38 H       -4.2760     6.6160     1.1860 H     1 <1>   0.0800 
 39 H       -4.6290     7.4290    -0.3180 H     1 <1>   0.0800 
 40 H       -6.8130     6.7640    -0.3430 H     1 <1>   0.0800 
 41 H       -7.0880     3.5080    -1.2550 H     1 <1>   0.4000 
 42 H       -7.7980     4.3500     1.9630 H     1 <1>   0.0800 
 43 H       -8.1120     3.2220     0.6790 H     1 <1>   0.0800 
 44 H       -8.6980     4.8720     0.5700 H     1 <1>   0.0800 
 45 H       -6.2060     6.1410     2.3410 H     1 <1>   0.4000 
@<TRIPOS>BOND
  1   1   2  2   
  2   2   3  am  
  3   2   4  1   
  4   3   5  1   
  5   3   6  1   
  6   4   7  ar  
  7   4   8  ar  
  8   5   9  1   
  9   5  24  1   
 10   5  25  1   
 11   6  10  1   
 12   6  26  1   
 13   6  27  1   
 14   7  11  ar  
 15   8  12  ar  
 16   8  28  1   
 17   9  13  1   
 18   9  29  1   
 19   9  30  1   
 20  10  13  1   
 21  10  31  1   
 22  10  32  1   
 23  11  14  1   
 24  11  15  ar  
 25  12  15  ar  
 26  12  33  1   
 27  13  16  1   
 28  13  17  1   
 29  14  34  1   
 30  15  35  1   
 31  16  18  1   
 32  17  19  1   
 33  17  36  1   
 34  17  37  1   
 35  18  20  1   
 36  18  38  1   
 37  18  39  1   
 38  19  20  1   
 39  19  21  1   
 40  19  22  1   
 41  20  23  1   
 42  20  40  1   
 43  21  41  1   
 44  22  42  1   
 45  22  43  1   
 46  22  44  1   
 47  23  45  1   
@<TRIPOS>SUBSTRUCTURE
  1 ****   6 GROUP 4 **** **** 0

# MOE 2024.06 (io_trps.svl 2023.06)
