@<TRIPOS>MOLECULE
NONAME
45 47 1 0 0 
SMALL
USER_CHARGES


@<TRIPOS>ATOM
  1 O        2.6910     6.8510    -2.0870 O.co2 1 <1>  -0.9000 
  2 C        2.6620     5.6540    -1.8030 C.2   1 <1>   0.9060 
  3 O        3.6880     5.1910    -1.2880 O.co2 1 <1>  -0.9000 
  4 C        1.3020     4.9300    -1.6020 C.3   1 <1>   0.0840 
  5 N        1.3650     3.4890    -1.1740 N.3   1 <1>  -0.9000 
  6 C        0.5960     5.6130    -0.4180 C.3   1 <1>  -0.1600 
  7 C        0.7940     3.3840     0.1720 C.3   1 <1>   0.1100 
  8 C        0.9990     4.7710     0.7900 C.3   1 <1>   0.4230 
  9 N        2.4560     4.9270     1.1030 N.4   1 <1>  -0.9060 
 10 C        2.9560     5.9350     2.0740 C.3   1 <1>   0.4230 
 11 C        2.4550     7.3720     1.8670 C.3   1 <1>  -0.1600 
 12 C        4.4870     5.9320     2.0750 C.3   1 <1>  -0.1600 
 13 C        3.2970     8.2700     0.9490 C.3   1 <1>   0.3430 
 14 C        5.1350     6.5190     0.8120 C.3   1 <1>   0.3430 
 15 N        4.2680     7.5100     0.1220 N.4   1 <1>  -0.9590 
 16 C        5.0590     8.3440    -0.8360 C.3   1 <1>   0.5230 
 17 C        4.3600     9.6450    -1.2020 C.2   1 <1>  -0.0400 
 18 O        4.4760    10.6880    -0.3990 O.3   1 <1>  -0.2800 
 19 C        3.5840     9.9490    -2.2640 C.2   1 <1>  -0.1500 
 20 C        3.7870    11.6780    -0.9340 C.2   1 <1>  -0.0100 
 21 C        3.2080    11.2860    -2.0890 C.2   1 <1>  -0.1500 
 22 H        0.7290     5.0360    -2.5060 H     1 <1>   0.0800 
 23 H        0.8630     2.8920    -1.8480 H     1 <1>   0.3600 
 24 H       -0.4670     5.5430    -0.5680 H     1 <1>   0.0800 
 25 H        0.8360     6.6550    -0.3450 H     1 <1>   0.0800 
 26 H       -0.2610     3.1740     0.0950 H     1 <1>   0.0800 
 27 H        1.2650     2.5990     0.7370 H     1 <1>   0.0800 
 28 H        0.3780     4.9270     1.6570 H     1 <1>   0.0800 
 29 H        2.7960     3.9990     1.3620 H     1 <1>   0.4500 
 30 H        2.9330     5.0320     0.1800 H     1 <1>   0.4500 
 31 H        2.6230     5.6220     3.0510 H     1 <1>   0.0800 
 32 H        1.4230     7.4010     1.5810 H     1 <1>   0.0800 
 33 H        2.4810     7.8490     2.8300 H     1 <1>   0.0800 
 34 H        4.8200     6.5210     2.9110 H     1 <1>   0.0800 
 35 H        4.8610     4.9370     2.2380 H     1 <1>   0.0800 
 36 H        3.8380     8.9850     1.5480 H     1 <1>   0.0800 
 37 H        2.6360     8.8270     0.3010 H     1 <1>   0.0800 
 38 H        5.3590     5.7200     0.1210 H     1 <1>   0.0800 
 39 H        6.0710     6.9800     1.0860 H     1 <1>   0.0800 
 40 H        3.7070     6.9690    -0.5890 H     1 <1>   0.4500 
 41 H        6.0210     8.5830    -0.4170 H     1 <1>   0.0800 
 42 H        5.2140     7.7730    -1.7380 H     1 <1>   0.0800 
 43 H        3.2900     9.3120    -3.0830 H     1 <1>   0.1500 
 44 H        3.7610    12.6300    -0.4310 H     1 <1>   0.1500 
 45 H        2.5860    11.8510    -2.7610 H     1 <1>   0.1500 
@<TRIPOS>BOND
  1   1   2  ar  
  2   2   3  ar  
  3   2   4  1   
  4   4   5  1   
  5   4   6  1   
  6   4  22  1   
  7   5   7  1   
  8   5  23  1   
  9   6   8  1   
 10   6  24  1   
 11   6  25  1   
 12   7   8  1   
 13   7  26  1   
 14   7  27  1   
 15   8   9  1   
 16   8  28  1   
 17   9  10  1   
 18   9  29  1   
 19   9  30  1   
 20  10  11  1   
 21  10  12  1   
 22  10  31  1   
 23  11  13  1   
 24  11  32  1   
 25  11  33  1   
 26  12  14  1   
 27  12  34  1   
 28  12  35  1   
 29  13  15  1   
 30  13  36  1   
 31  13  37  1   
 32  14  15  1   
 33  14  38  1   
 34  14  39  1   
 35  15  16  1   
 36  15  40  1   
 37  16  17  1   
 38  16  41  1   
 39  16  42  1   
 40  17  18  1   
 41  17  19  2   
 42  18  20  1   
 43  19  21  1   
 44  19  43  1   
 45  20  21  2   
 46  20  44  1   
 47  21  45  1   
@<TRIPOS>SUBSTRUCTURE
  1 ****  15 GROUP 4 **** **** 0

# MOE 2024.06 (io_trps.svl 2023.06)
