@<TRIPOS>MOLECULE
NONAME
49 52 1 0 0 
SMALL
USER_CHARGES


@<TRIPOS>ATOM
  1 S       -0.3590     0.3040     0.5130 S.o2  1 <1>   1.5760 
  2 O       -0.7120    -0.3220     1.7660 O.2   1 <1>  -0.6500 
  3 O       -0.3830     1.7420     0.3850 O.2   1 <1>  -0.6500 
  4 N       -1.3180    -0.3630    -0.7070 N.am  1 <1>  -0.8490 
  5 N        1.1640    -0.2530     0.0320 N.am  1 <1>  -0.8490 
  6 C       -2.6820     0.2010    -0.7240 C.3   1 <1>   0.1960 
  7 C       -1.3870    -1.8420    -0.6680 C.3   1 <1>   0.1960 
  8 C        1.6220     0.3780    -1.2090 C.3   1 <1>   0.1160 
  9 C        2.1620    -0.0680     1.0860 C.3   1 <1>   0.1160 
 10 C       -3.6110    -0.4040     0.3550 C.3   1 <1>   0.3440 
 11 C       -2.3980    -2.4180     0.3570 C.3   1 <1>   0.3440 
 12 O       -3.6480    -1.7980     0.2140 O.3   1 <1>  -0.5600 
 13 C       -5.0220     0.1580     0.2150 C.ar  1 <1>  -0.1440 
 14 C       -2.5540    -3.9220     0.1490 C.ar  1 <1>  -0.1440 
 15 C       -5.3770     1.2850     0.9520 C.ar  1 <1>  -0.1500 
 16 C       -5.9550    -0.4270    -0.6460 C.ar  1 <1>  -0.1500 
 17 C       -1.7980    -4.8000     0.9120 C.ar  1 <1>  -0.1500 
 18 C       -3.4270    -4.4340    -0.8010 C.ar  1 <1>  -0.1500 
 19 C       -6.6520     1.7930     0.8010 C.ar  1 <1>   0.0820 
 20 C       -7.2340     0.0980    -0.7840 C.ar  1 <1>  -0.1500 
 21 C       -1.9090    -6.1680     0.7260 C.ar  1 <1>  -0.1500 
 22 C       -3.5390    -5.8010    -0.9890 C.ar  1 <1>  -0.1500 
 23 O       -7.1970     2.8560     1.4010 O.3   1 <1>  -0.3630 
 24 C       -7.5550     1.2170    -0.0440 C.ar  1 <1>   0.0820 
 25 C       -2.7790    -6.6690    -0.2250 C.ar  1 <1>  -0.1500 
 26 C       -8.5330     2.9620     0.9110 C.3   1 <1>   0.4000 
 27 O       -8.7090     1.8910    -0.0140 O.3   1 <1>  -0.3620 
 28 H       -2.6430     1.2700    -0.6040 H     1 <1>   0.0800 
 29 H       -3.1230     0.0100    -1.6860 H     1 <1>   0.0800 
 30 H       -1.6770    -2.1910    -1.6430 H     1 <1>   0.0800 
 31 H       -0.4130    -2.2530    -0.4690 H     1 <1>   0.0800 
 32 H        2.5640    -0.0450    -1.5130 H     1 <1>   0.0800 
 33 H        1.7400     1.4410    -1.0740 H     1 <1>   0.0800 
 34 H        0.9070     0.2080    -1.9970 H     1 <1>   0.0800 
 35 H        3.1120    -0.4620     0.7700 H     1 <1>   0.0800 
 36 H        1.8580    -0.5940     1.9760 H     1 <1>   0.0800 
 37 H        2.2720     0.9780     1.3220 H     1 <1>   0.0800 
 38 H       -3.2410    -0.1790     1.3410 H     1 <1>   0.0800 
 39 H       -2.0620    -2.2480     1.3640 H     1 <1>   0.0800 
 40 H       -4.6920     1.7650     1.6270 H     1 <1>   0.1500 
 41 H       -5.6850    -1.3030    -1.2110 H     1 <1>   0.1500 
 42 H       -1.1160    -4.4260     1.6560 H     1 <1>   0.1500 
 43 H       -4.0260    -3.7670    -1.3970 H     1 <1>   0.1500 
 44 H       -7.9590    -0.3460    -1.4420 H     1 <1>   0.1500 
 45 H       -1.3190    -6.8410     1.3220 H     1 <1>   0.1500 
 46 H       -4.2190    -6.1880    -1.7270 H     1 <1>   0.1500 
 47 H       -2.8660    -7.7320    -0.3700 H     1 <1>   0.1500 
 48 H       -9.2260     2.8530     1.7260 H     1 <1>   0.0800 
 49 H       -8.6570     3.9020     0.4030 H     1 <1>   0.0800 
@<TRIPOS>BOND
  1   1   2  2   
  2   1   3  2   
  3   1   4  am  
  4   1   5  am  
  5   4   6  1   
  6   4   7  1   
  7   5   8  1   
  8   5   9  1   
  9   6  10  1   
 10   6  28  1   
 11   6  29  1   
 12   7  11  1   
 13   7  30  1   
 14   7  31  1   
 15   8  32  1   
 16   8  33  1   
 17   8  34  1   
 18   9  35  1   
 19   9  36  1   
 20   9  37  1   
 21  10  12  1   
 22  10  13  1   
 23  10  38  1   
 24  11  12  1   
 25  11  14  1   
 26  11  39  1   
 27  13  15  ar  
 28  13  16  ar  
 29  14  17  ar  
 30  14  18  ar  
 31  15  19  ar  
 32  15  40  1   
 33  16  20  ar  
 34  16  41  1   
 35  17  21  ar  
 36  17  42  1   
 37  18  22  ar  
 38  18  43  1   
 39  19  23  1   
 40  19  24  ar  
 41  20  24  ar  
 42  20  44  1   
 43  21  25  ar  
 44  21  45  1   
 45  22  25  ar  
 46  22  46  1   
 47  23  26  1   
 48  24  27  1   
 49  25  47  1   
 50  26  27  1   
 51  26  48  1   
 52  26  49  1   
@<TRIPOS>SUBSTRUCTURE
  1 ****  10 GROUP 4 **** **** 0

# MOE 2024.06 (io_trps.svl 2023.06)
