@<TRIPOS>MOLECULE
NONAME
54 57 1 0 0 
SMALL
USER_CHARGES


@<TRIPOS>ATOM
  1 O        0.2150     1.2140     1.2550 O.2   1 <1>  -0.5700 
  2 C        0.2040     2.4040     1.0020 C.2   1 <1>   0.5440 
  3 N       -1.0040     3.0730     0.9720 N.am  1 <1>  -0.6600 
  4 C        1.4590     3.0770     0.7280 C.ar  1 <1>   0.0860 
  5 C       -2.2720     2.4220     1.4210 C.3   1 <1>   0.1400 
  6 C       -1.2110     4.3860     0.3040 C.3   1 <1>   0.1400 
  7 C        1.8600     4.2010     1.4500 C.ar  1 <1>  -0.1500 
  8 C        2.3150     2.6160    -0.2700 C.ar  1 <1>  -0.1500 
  9 C       -3.2000     2.1580     0.2200 C.3   1 <1>   0.0000 
 10 C       -2.1280     4.2080    -0.9120 C.3   1 <1>  -0.1600 
 11 C        3.0510     4.8480     1.1750 C.ar  1 <1>  -0.1500 
 12 C        3.5070     3.2580    -0.5490 C.ar  1 <1>  -0.1500 
 13 C       -4.5020     1.4780     0.6900 C.3   1 <1>   0.2000 
 14 C       -3.4420     3.4900    -0.5470 C.3   1 <1>  -0.1600 
 15 C       -2.6310     1.0780    -0.7180 C.3   1 <1>  -0.1600 
 16 C        3.8830     4.3820     0.1680 C.ar  1 <1>  -0.1430 
 17 O       -5.4480     2.3760     1.1490 O.3   1 <1>  -0.6800 
 18 C       -5.0450     0.7060    -0.5120 C.3   1 <1>  -0.1600 
 19 C       -3.8400     0.4640    -1.4320 C.3   1 <1>  -0.1600 
 20 C        5.1920     5.0880    -0.1490 C.3   1 <1>   0.2630 
 21 O        6.2600     4.2030     0.1040 O.3   1 <1>  -0.3630 
 22 C        7.5470     4.5710    -0.1120 C.ar  1 <1>   0.0830 
 23 C        7.9280     5.8180    -0.6020 C.ar  1 <1>  -0.1500 
 24 C        8.5190     3.6280     0.1820 C.ar  1 <1>  -0.1500 
 25 C        9.2690     6.1060    -0.7910 C.ar  1 <1>  -0.1500 
 26 C        9.8590     3.9170    -0.0080 C.ar  1 <1>  -0.1500 
 27 C       10.2340     5.1570    -0.4950 C.ar  1 <1>  -0.1500 
 28 H       -2.0600     1.5000     1.9350 H     1 <1>   0.0800 
 29 H       -2.7680     3.0730     2.1200 H     1 <1>   0.0800 
 30 H       -1.6630     5.0650     1.0060 H     1 <1>   0.0800 
 31 H       -0.2770     4.8100    -0.0200 H     1 <1>   0.0800 
 32 H        1.2240     4.5630     2.2390 H     1 <1>   0.1500 
 33 H        2.0340     1.7370    -0.8250 H     1 <1>   0.1500 
 34 H       -2.3540     5.1750    -1.3240 H     1 <1>   0.0800 
 35 H       -1.5980     3.6570    -1.6680 H     1 <1>   0.0800 
 36 H        3.3310     5.7110     1.7540 H     1 <1>   0.1500 
 37 H        4.1510     2.8760    -1.3230 H     1 <1>   0.1500 
 38 H       -4.2860     0.7870     1.4880 H     1 <1>   0.0800 
 39 H       -4.0140     3.3150    -1.4400 H     1 <1>   0.0800 
 40 H       -4.0050     4.1620     0.0770 H     1 <1>   0.0800 
 41 H       -1.9010     1.4520    -1.4110 H     1 <1>   0.0800 
 42 H       -2.1560     0.3120    -0.1280 H     1 <1>   0.0800 
 43 H       -5.7000     2.9780     0.4250 H     1 <1>   0.4000 
 44 H       -5.4710    -0.2270    -0.1880 H     1 <1>   0.0800 
 45 H       -5.7900     1.2770    -1.0380 H     1 <1>   0.0800 
 46 H       -3.6850    -0.5860    -1.6140 H     1 <1>   0.0800 
 47 H       -3.9980     0.9600    -2.3750 H     1 <1>   0.0800 
 48 H        5.3220     5.9570     0.4700 H     1 <1>   0.0800 
 49 H        5.2210     5.3660    -1.1880 H     1 <1>   0.0800 
 50 H        7.2060     6.5740    -0.8400 H     1 <1>   0.1500 
 51 H        8.2180     2.6670     0.5600 H     1 <1>   0.1500 
 52 H        9.5650     7.0690    -1.1690 H     1 <1>   0.1500 
 53 H       10.6070     3.1790     0.2230 H     1 <1>   0.1500 
 54 H       11.2760     5.3840    -0.6440 H     1 <1>   0.1500 
@<TRIPOS>BOND
  1   1   2  2   
  2   2   3  am  
  3   2   4  1   
  4   3   5  1   
  5   3   6  1   
  6   4   7  ar  
  7   4   8  ar  
  8   5   9  1   
  9   5  28  1   
 10   5  29  1   
 11   6  10  1   
 12   6  30  1   
 13   6  31  1   
 14   7  11  ar  
 15   7  32  1   
 16   8  12  ar  
 17   8  33  1   
 18   9  13  1   
 19   9  14  1   
 20   9  15  1   
 21  10  14  1   
 22  10  34  1   
 23  10  35  1   
 24  11  16  ar  
 25  11  36  1   
 26  12  16  ar  
 27  12  37  1   
 28  13  17  1   
 29  13  18  1   
 30  13  38  1   
 31  14  39  1   
 32  14  40  1   
 33  15  19  1   
 34  15  41  1   
 35  15  42  1   
 36  16  20  1   
 37  17  43  1   
 38  18  19  1   
 39  18  44  1   
 40  18  45  1   
 41  19  46  1   
 42  19  47  1   
 43  20  21  1   
 44  20  48  1   
 45  20  49  1   
 46  21  22  1   
 47  22  23  ar  
 48  22  24  ar  
 49  23  25  ar  
 50  23  50  1   
 51  24  26  ar  
 52  24  51  1   
 53  25  27  ar  
 54  25  52  1   
 55  26  27  ar  
 56  26  53  1   
 57  27  54  1   
@<TRIPOS>SUBSTRUCTURE
  1 ****   4 GROUP 4 **** **** 0

# MOE 2024.06 (io_trps.svl 2023.06)
