@<TRIPOS>MOLECULE
NONAME
47 49 1 0 0 
SMALL
USER_CHARGES


@<TRIPOS>ATOM
  1 CL       0.0310     0.7320     1.0710 Cl    1 <1>  -0.1770 
  2 C       -1.6540     1.0470     0.7470 C.ar  1 <1>   0.1770 
  3 C       -2.0010     1.8870    -0.2930 C.ar  1 <1>  -0.1500 
  4 C       -2.6220     0.4550     1.5360 C.ar  1 <1>  -0.1500 
  5 C       -3.3390     2.1330    -0.5460 C.ar  1 <1>  -0.1500 
  6 C       -3.9560     0.7110     1.2750 C.ar  1 <1>  -0.1500 
  7 C       -4.3450     1.5490     0.2280 C.ar  1 <1>   0.0530 
  8 C       -5.7300     1.8330    -0.0510 C.2   1 <1>   0.0870 
  9 O       -6.0920     3.0730    -0.2640 O.3   1 <1>  -0.0190 
 10 C       -6.8500     1.0650    -0.1740 C.2   1 <1>  -0.0860 
 11 N       -7.3690     3.2010    -0.5050 N.2   1 <1>  -0.4100 
 12 C       -7.8460     2.0140    -0.4400 C.2   1 <1>   0.3720 
 13 C       -7.0320    -0.3550    -0.1140 C.2   1 <1>   0.7160 
 14 N       -9.2040     1.7970    -0.6210 N.pl3 1 <1>  -0.8520 
 15 O       -6.1680    -1.0870     0.3280 O.2   1 <1>  -0.5700 
 16 N       -8.1930    -0.9030    -0.5680 N.am  1 <1>  -0.6550 
 17 C       -9.9560     1.6500     0.6560 C.3   1 <1>   0.2090 
 18 C       -8.5980    -2.3250    -0.5630 C.3   1 <1>   0.2250 
 19 C      -11.4060     1.2540     0.3770 C.3   1 <1>   0.1200 
 20 C       -8.7430    -2.9280     0.8650 C.3   1 <1>   0.0000 
 21 C      -10.1400    -2.4750    -0.6970 C.3   1 <1>   0.0000 
 22 C       -7.7900    -3.1470    -1.5670 C.3   1 <1>  -0.2400 
 23 O      -12.0420     1.0280     1.5940 O.3   1 <1>  -0.5600 
 24 C      -10.2160    -2.4420     0.8530 C.3   1 <1>   0.0000 
 25 C      -13.3610     0.6030     1.4730 C.3   1 <1>   0.0400 
 26 H       -1.2320     2.3380    -0.8940 H     1 <1>   0.1500 
 27 H       -2.3320    -0.1960     2.3400 H     1 <1>   0.1500 
 28 H       -3.6130     2.7880    -1.3550 H     1 <1>   0.1500 
 29 H       -4.7090     0.2530     1.8920 H     1 <1>   0.1500 
 30 H       -9.5650     2.6310    -1.1010 H     1 <1>   0.4000 
 31 H       -8.8970    -0.2330    -0.8980 H     1 <1>   0.3700 
 32 H       -9.9370     2.5830     1.1950 H     1 <1>   0.0800 
 33 H       -9.4950     0.8900     1.2640 H     1 <1>   0.0800 
 34 H      -11.4390     0.3470    -0.2000 H     1 <1>   0.0800 
 35 H      -11.9210     2.0460    -0.1380 H     1 <1>   0.0800 
 36 H       -8.1370    -2.4610     1.6210 H     1 <1>   0.0000 
 37 H       -8.6760    -4.0030     0.8750 H     1 <1>   0.0000 
 38 H      -10.4380    -3.4320    -1.0910 H     1 <1>   0.0000 
 39 H      -10.6290    -1.6490    -1.1830 H     1 <1>   0.0000 
 40 H       -6.7500    -3.1450    -1.2940 H     1 <1>   0.0800 
 41 H       -7.9000    -2.7390    -2.5550 H     1 <1>   0.0800 
 42 H       -8.1310    -4.1660    -1.5780 H     1 <1>   0.0800 
 43 H      -10.3290    -1.4480     1.2480 H     1 <1>   0.0000 
 44 H      -10.9110    -3.1500     1.2690 H     1 <1>   0.0000 
 45 H      -13.7600     0.4650     2.4630 H     1 <1>   0.0800 
 46 H      -13.3870    -0.3320     0.9400 H     1 <1>   0.0800 
 47 H      -13.9320     1.3530     0.9530 H     1 <1>   0.0800 
@<TRIPOS>BOND
  1   1   2  1   
  2   2   3  ar  
  3   2   4  ar  
  4   3   5  ar  
  5   3  26  1   
  6   4   6  ar  
  7   4  27  1   
  8   5   7  ar  
  9   5  28  1   
 10   6   7  ar  
 11   6  29  1   
 12   7   8  1   
 13   8   9  1   
 14   8  10  2   
 15   9  11  1   
 16  10  12  1   
 17  10  13  1   
 18  11  12  2   
 19  12  14  1   
 20  13  15  2   
 21  13  16  am  
 22  14  17  1   
 23  14  30  1   
 24  16  18  1   
 25  16  31  1   
 26  17  19  1   
 27  17  32  1   
 28  17  33  1   
 29  18  20  1   
 30  18  21  1   
 31  18  22  1   
 32  19  23  1   
 33  19  34  1   
 34  19  35  1   
 35  20  24  1   
 36  20  36  1   
 37  20  37  1   
 38  21  24  1   
 39  21  38  1   
 40  21  39  1   
 41  22  40  1   
 42  22  41  1   
 43  22  42  1   
 44  23  25  1   
 45  24  43  1   
 46  24  44  1   
 47  25  45  1   
 48  25  46  1   
 49  25  47  1   
@<TRIPOS>SUBSTRUCTURE
  1 ****  10 GROUP 4 **** **** 0

# MOE 2024.06 (io_trps.svl 2023.06)
