@<TRIPOS>MOLECULE
NONAME
48 50 1 0 0 
SMALL
USER_CHARGES


@<TRIPOS>ATOM
  1 O       -0.5550     0.4280     0.8900 O.2   1 <1>  -0.5700 
  2 C       -1.4480     0.9380     0.2570 C.2   1 <1>   0.5690 
  3 N       -2.4710     0.1840    -0.2460 N.am  1 <1>  -0.6600 
  4 C       -1.4440     2.4460     0.0340 C.3   1 <1>  -0.0990 
  5 C       -3.7320     0.6760    -0.8580 C.3   1 <1>   0.1400 
  6 C       -2.5370    -1.2880    -0.0580 C.3   1 <1>   0.1400 
  7 C       -0.0810     3.1200     0.2820 C.3   1 <1>  -0.1600 
  8 C       -4.7480    -0.4190    -0.5410 C.3   1 <1>   0.2000 
  9 C       -3.9160    -1.7050    -0.5850 C.3   1 <1>  -0.0800 
 10 C       -0.1390     4.6300     0.0240 C.3   1 <1>  -0.0160 
 11 O       -5.2120    -0.2090     0.7490 O.3   1 <1>  -0.6800 
 12 C       -4.5260    -2.9120     0.1530 C.3   1 <1>  -0.0170 
 13 C        1.2140     5.2730     0.2800 C.ar  1 <1>  -0.1440 
 14 C       -3.6680    -4.1540    -0.0330 C.ar  1 <1>  -0.1440 
 15 C        1.5560     5.6990     1.5540 C.ar  1 <1>  -0.1500 
 16 C        2.1200     5.4380    -0.7570 C.ar  1 <1>  -0.1500 
 17 C       -2.7290    -4.5430     0.9010 C.ar  1 <1>  -0.1500 
 18 C       -3.7840    -4.9550    -1.1510 C.ar  1 <1>  -0.1500 
 19 C        2.7860     6.2870     1.7890 C.ar  1 <1>  -0.1500 
 20 C        3.3510     6.0270    -0.5230 C.ar  1 <1>  -0.1500 
 21 C       -1.9700    -5.6800     0.6760 C.ar  1 <1>   0.1600 
 22 C       -2.9770    -6.0730    -1.2790 C.ar  1 <1>   0.1600 
 23 C        3.6850     6.4530     0.7500 C.ar  1 <1>  -0.1500 
 24 N       -2.0710    -6.4540    -0.3930 N.ar  1 <1>  -0.6200 
 25 H       -1.7420     2.6390    -0.9800 H     1 <1>   0.0800 
 26 H       -2.1760     2.8780     0.6900 H     1 <1>   0.0800 
 27 H       -4.0390     1.6270    -0.4590 H     1 <1>   0.0800 
 28 H       -3.5960     0.7530    -1.9230 H     1 <1>   0.0800 
 29 H       -1.7430    -1.7760    -0.5980 H     1 <1>   0.0800 
 30 H       -2.4380    -1.5100     0.9910 H     1 <1>   0.0800 
 31 H        0.2250     2.9460     1.3000 H     1 <1>   0.0800 
 32 H        0.6600     2.6760    -0.3600 H     1 <1>   0.0800 
 33 H       -5.5900    -0.4260    -1.2120 H     1 <1>   0.0800 
 34 H       -3.7910    -1.9740    -1.6190 H     1 <1>   0.0800 
 35 H       -0.8740     5.0820     0.6680 H     1 <1>   0.0800 
 36 H       -0.4370     4.8160    -0.9930 H     1 <1>   0.0800 
 37 H       -4.4420    -0.0900     1.3420 H     1 <1>   0.4000 
 38 H       -5.5140    -3.1010    -0.2280 H     1 <1>   0.0800 
 39 H       -4.6240    -2.7000     1.2040 H     1 <1>   0.0800 
 40 H        0.8650     5.5720     2.3690 H     1 <1>   0.1500 
 41 H        1.8720     5.1090    -1.7500 H     1 <1>   0.1500 
 42 H       -2.5770    -3.9760     1.8010 H     1 <1>   0.1500 
 43 H       -4.4940    -4.7220    -1.9230 H     1 <1>   0.1500 
 44 H        3.0440     6.6150     2.7810 H     1 <1>   0.1500 
 45 H        4.0490     6.1520    -1.3320 H     1 <1>   0.1500 
 46 H       -1.2410    -5.9670     1.4140 H     1 <1>   0.1500 
 47 H       -3.0810    -6.6870    -2.1570 H     1 <1>   0.1500 
 48 H        4.6420     6.9100     0.9330 H     1 <1>   0.1500 
@<TRIPOS>BOND
  1   1   2  2   
  2   2   3  am  
  3   2   4  1   
  4   3   5  1   
  5   3   6  1   
  6   4   7  1   
  7   4  25  1   
  8   4  26  1   
  9   5   8  1   
 10   5  27  1   
 11   5  28  1   
 12   6   9  1   
 13   6  29  1   
 14   6  30  1   
 15   7  10  1   
 16   7  31  1   
 17   7  32  1   
 18   8   9  1   
 19   8  11  1   
 20   8  33  1   
 21   9  12  1   
 22   9  34  1   
 23  10  13  1   
 24  10  35  1   
 25  10  36  1   
 26  11  37  1   
 27  12  14  1   
 28  12  38  1   
 29  12  39  1   
 30  13  15  ar  
 31  13  16  ar  
 32  14  17  ar  
 33  14  18  ar  
 34  15  19  ar  
 35  15  40  1   
 36  16  20  ar  
 37  16  41  1   
 38  17  21  ar  
 39  17  42  1   
 40  18  22  ar  
 41  18  43  1   
 42  19  23  ar  
 43  19  44  1   
 44  20  23  ar  
 45  20  45  1   
 46  21  24  ar  
 47  21  46  1   
 48  22  24  ar  
 49  22  47  1   
 50  23  48  1   
@<TRIPOS>SUBSTRUCTURE
  1 ****   2 GROUP 4 **** **** 0

# MOE 2024.06 (io_trps.svl 2023.06)
