@<TRIPOS>MOLECULE
NONAME
46 48 1 0 0 
SMALL
USER_CHARGES


@<TRIPOS>ATOM
  1 O       -4.8170     2.4800    -0.3110 O.2   1 <1>  -0.5700 
  2 C       -3.7630     1.8980    -0.4400 C.2   1 <1>   0.5690 
  3 N       -3.7200     0.6080    -0.9200 N.am  1 <1>  -0.5090 
  4 C       -2.4800     2.6660    -0.0780 C.3   1 <1>  -0.0190 
  5 C       -2.4680    -0.1510    -1.1770 C.3   1 <1>   0.0490 
  6 C       -4.9600    -0.0020    -1.4870 C.3   1 <1>   0.2840 
  7 C       -2.7180     3.7900     0.9540 C.3   1 <1>  -0.1600 
  8 C       -1.7980     3.2380    -1.3460 C.3   1 <1>  -0.1600 
  9 C       -2.3730    -1.6000    -0.7970 C.3   1 <1>  -0.2000 
 10 C       -1.6190    -0.5770    -0.0180 C.3   1 <1>  -0.2000 
 11 C       -5.6280    -0.9460    -0.4970 C.ar  1 <1>  -0.1440 
 12 C       -1.4000     4.4430     1.4230 C.3   1 <1>   0.2000 
 13 C       -0.8260     4.4020    -1.0630 C.3   1 <1>  -0.1600 
 14 C       -5.8500    -2.2740    -0.8360 C.ar  1 <1>   0.1600 
 15 C       -6.0370    -0.5050     0.7460 C.ar  1 <1>  -0.1500 
 16 O       -1.6480     5.8000     1.7010 O.3   1 <1>  -0.5600 
 17 C       -0.2720     4.3400     0.3620 C.3   1 <1>   0.2000 
 18 N       -6.4210    -3.1750    -0.0530 N.ar  1 <1>  -0.6200 
 19 C       -6.6350    -1.4290     1.5760 C.ar  1 <1>  -0.1500 
 20 C       -2.2960     6.0510     2.9100 C.3   1 <1>   0.0400 
 21 O        0.6050     5.3920     0.5270 O.3   1 <1>  -0.6800 
 22 C       -6.7990    -2.7310     1.1340 C.ar  1 <1>   0.1600 
 23 H       -1.8030     1.9790     0.3880 H     1 <1>   0.0800 
 24 H       -1.9860     0.1510    -2.0920 H     1 <1>   0.1000 
 25 H       -5.6620     0.7680    -1.7570 H     1 <1>   0.0800 
 26 H       -4.7070    -0.5290    -2.3890 H     1 <1>   0.0800 
 27 H       -3.2380     3.3890     1.8060 H     1 <1>   0.0800 
 28 H       -3.3460     4.5380     0.5000 H     1 <1>   0.0800 
 29 H       -1.2630     2.4450    -1.8370 H     1 <1>   0.0800 
 30 H       -2.5510     3.5890    -2.0310 H     1 <1>   0.0800 
 31 H       -3.1670    -2.1010    -0.2740 H     1 <1>   0.1000 
 32 H       -1.8100    -2.2680    -1.4240 H     1 <1>   0.1000 
 33 H       -0.5480    -0.5600    -0.1150 H     1 <1>   0.1000 
 34 H       -1.9510    -0.3770     0.9860 H     1 <1>   0.1000 
 35 H       -1.0490     3.9660     2.3220 H     1 <1>   0.0800 
 36 H       -1.3550     5.3320    -1.1810 H     1 <1>   0.0800 
 37 H       -0.0170     4.3800    -1.7730 H     1 <1>   0.0800 
 38 H       -5.5380    -2.6210    -1.8060 H     1 <1>   0.1500 
 39 H       -5.8970     0.5160     1.0570 H     1 <1>   0.1500 
 40 H        0.2820     3.4260     0.4920 H     1 <1>   0.0800 
 41 H       -6.9720    -1.1440     2.5550 H     1 <1>   0.1500 
 42 H       -2.3950     7.1170     3.0200 H     1 <1>   0.0800 
 43 H       -1.7060     5.6580     3.7190 H     1 <1>   0.0800 
 44 H       -3.2730     5.6000     2.8970 H     1 <1>   0.0800 
 45 H        0.0640     6.1360     0.8770 H     1 <1>   0.4000 
 46 H       -7.2670    -3.4430     1.7920 H     1 <1>   0.1500 
@<TRIPOS>BOND
  1   1   2  2   
  2   2   3  am  
  3   2   4  1   
  4   3   5  1   
  5   3   6  1   
  6   4   7  1   
  7   4   8  1   
  8   4  23  1   
  9   5   9  1   
 10   5  10  1   
 11   5  24  1   
 12   6  11  1   
 13   6  25  1   
 14   6  26  1   
 15   7  12  1   
 16   7  27  1   
 17   7  28  1   
 18   8  13  1   
 19   8  29  1   
 20   8  30  1   
 21   9  10  1   
 22   9  31  1   
 23   9  32  1   
 24  10  33  1   
 25  10  34  1   
 26  11  14  ar  
 27  11  15  ar  
 28  12  16  1   
 29  12  17  1   
 30  12  35  1   
 31  13  17  1   
 32  13  36  1   
 33  13  37  1   
 34  14  18  ar  
 35  14  38  1   
 36  15  19  ar  
 37  15  39  1   
 38  16  20  1   
 39  17  21  1   
 40  17  40  1   
 41  18  22  ar  
 42  19  22  ar  
 43  19  41  1   
 44  20  42  1   
 45  20  43  1   
 46  20  44  1   
 47  21  45  1   
 48  22  46  1   
@<TRIPOS>SUBSTRUCTURE
  1 ****   2 GROUP 4 **** **** 0

# MOE 2024.06 (io_trps.svl 2023.06)
