@<TRIPOS>MOLECULE
NONAME
50 51 1 0 0 
SMALL
USER_CHARGES


@<TRIPOS>ATOM
  1 F       -0.7430    -1.2130     0.4200 F     1 <1>  -0.3400 
  2 C       -1.9720    -1.6290     0.1460 C.3   1 <1>   1.1640 
  3 F       -1.8280    -2.6550    -0.6820 F     1 <1>  -0.3400 
  4 F       -2.4480    -2.1240     1.2820 F     1 <1>  -0.3400 
  5 C       -2.8760    -0.5150    -0.4130 C.ar  1 <1>  -0.1440 
  6 C       -4.0720    -0.8150    -1.0860 C.ar  1 <1>   0.0860 
  7 C       -2.4940     0.8170    -0.2560 C.ar  1 <1>  -0.1500 
  8 C       -4.6060    -2.1570    -1.2640 C.2   1 <1>   0.5440 
  9 C       -4.8020     0.2480    -1.6160 C.ar  1 <1>  -0.1500 
 10 C       -3.2450     1.8680    -0.7690 C.ar  1 <1>  -0.1440 
 11 O       -4.9420    -2.5460    -2.3620 O.2   1 <1>  -0.5700 
 12 N       -4.8490    -2.9860    -0.2020 N.am  1 <1>  -0.6600 
 13 C       -4.4080     1.5610    -1.4600 C.ar  1 <1>  -0.1500 
 14 C       -2.7890     3.3270    -0.5710 C.3   1 <1>   1.1640 
 15 C       -4.4290    -4.4140    -0.2870 C.3   1 <1>   0.3200 
 16 C       -5.6390    -2.5260     0.9860 C.3   1 <1>   0.1400 
 17 F       -1.4750     3.4670    -0.6830 F     1 <1>  -0.3400 
 18 F       -3.1150     3.7780     0.6320 F     1 <1>  -0.3400 
 19 F       -3.3310     4.1650    -1.4460 F     1 <1>  -0.3400 
 20 C       -5.6600    -5.2900    -0.3330 C.2   1 <1>  -0.3320 
 21 C       -7.0230    -1.9750     0.5710 C.3   1 <1>   0.3430 
 22 N       -6.1290    -6.0170     0.7000 N.pl3 1 <1>   0.0330 
 23 C       -6.4850    -5.5290    -1.3750 C.2   1 <1>   0.0770 
 24 N       -7.6920    -2.8930    -0.4000 N.4   1 <1>  -0.9590 
 25 C       -7.2430    -6.6170     0.2290 C.2   1 <1>   0.0060 
 26 N       -7.5020    -6.3260    -1.0030 N.2   1 <1>  -0.5650 
 27 C       -8.0940    -2.2220    -1.6700 C.3   1 <1>   0.2630 
 28 C       -8.8280    -3.6640     0.1850 C.3   1 <1>   0.2630 
 29 C       -8.0880    -7.5550     1.0660 C.3   1 <1>  -0.0600 
 30 H       -1.5830     1.0560     0.2750 H     1 <1>   0.1500 
 31 H       -5.6990     0.0390    -2.1740 H     1 <1>   0.1500 
 32 H       -5.0130     2.3460    -1.8880 H     1 <1>   0.1500 
 33 H       -3.8070    -4.6650     0.5560 H     1 <1>   0.0800 
 34 H       -3.8490    -4.5690    -1.1830 H     1 <1>   0.0800 
 35 H       -5.0930    -1.7580     1.5070 H     1 <1>   0.0800 
 36 H       -5.7760    -3.3430     1.6720 H     1 <1>   0.0800 
 37 H       -6.8810    -1.0100     0.1140 H     1 <1>   0.0800 
 38 H       -7.6390    -1.8370     1.4440 H     1 <1>   0.0800 
 39 H       -5.7190    -6.1410     1.6320 H     1 <1>   0.2700 
 40 H       -6.4020    -5.1540    -2.3850 H     1 <1>   0.1500 
 41 H       -6.9610    -3.5890    -0.6660 H     1 <1>   0.4500 
 42 H       -8.8280    -1.4580    -1.4780 H     1 <1>   0.0800 
 43 H       -8.5140    -2.9450    -2.3510 H     1 <1>   0.0800 
 44 H       -7.2350    -1.7760    -2.1430 H     1 <1>   0.0800 
 45 H       -9.6360    -3.0040     0.4550 H     1 <1>   0.0800 
 46 H       -8.5030    -4.2020     1.0590 H     1 <1>   0.0800 
 47 H       -9.1910    -4.3840    -0.5330 H     1 <1>   0.0800 
 48 H       -8.4510    -7.0550     1.9450 H     1 <1>   0.0800 
 49 H       -7.5070    -8.4110     1.3580 H     1 <1>   0.0800 
 50 H       -8.9300    -7.8980     0.4900 H     1 <1>   0.0800 
@<TRIPOS>BOND
  1   1   2  1   
  2   2   3  1   
  3   2   4  1   
  4   2   5  1   
  5   5   6  ar  
  6   5   7  ar  
  7   6   8  1   
  8   6   9  ar  
  9   7  10  ar  
 10   7  30  1   
 11   8  11  2   
 12   8  12  am  
 13   9  13  ar  
 14   9  31  1   
 15  10  13  ar  
 16  10  14  1   
 17  12  15  1   
 18  12  16  1   
 19  13  32  1   
 20  14  17  1   
 21  14  18  1   
 22  14  19  1   
 23  15  20  1   
 24  15  33  1   
 25  15  34  1   
 26  16  21  1   
 27  16  35  1   
 28  16  36  1   
 29  20  22  1   
 30  20  23  2   
 31  21  24  1   
 32  21  37  1   
 33  21  38  1   
 34  22  25  1   
 35  22  39  1   
 36  23  26  1   
 37  23  40  1   
 38  24  27  1   
 39  24  28  1   
 40  24  41  1   
 41  25  26  2   
 42  25  29  1   
 43  27  42  1   
 44  27  43  1   
 45  27  44  1   
 46  28  45  1   
 47  28  46  1   
 48  28  47  1   
 49  29  48  1   
 50  29  49  1   
 51  29  50  1   
@<TRIPOS>SUBSTRUCTURE
  1 ****   8 GROUP 4 **** **** 0

# MOE 2024.06 (io_trps.svl 2023.06)
