@<TRIPOS>MOLECULE
NONAME
48 51 1 0 0 
SMALL
USER_CHARGES


@<TRIPOS>ATOM
  1 CL      -7.0250    -0.8670     0.3470 Cl    1 <1>  -0.1770 
  2 C       -5.5000    -1.7230     0.3680 C.ar  1 <1>   0.1770 
  3 C       -4.2950    -1.0420     0.3340 C.ar  1 <1>   0.1900 
  4 C       -5.5070    -3.1040     0.4200 C.ar  1 <1>  -0.1500 
  5 F       -4.2820     0.2660     0.2840 F     1 <1>  -0.1900 
  6 C       -3.0870    -1.7160     0.3500 C.ar  1 <1>  -0.1500 
  7 C       -4.3050    -3.8000     0.4330 C.ar  1 <1>   0.0830 
  8 C       -3.0940    -3.1020     0.4000 C.ar  1 <1>  -0.1500 
  9 O       -4.3900    -5.1530     0.4780 O.3   1 <1>  -0.3630 
 10 C       -3.2190    -5.9600     0.5780 C.3   1 <1>   0.1810 
 11 C       -3.5970    -7.4360     0.6540 C.2   1 <1>   0.5690 
 12 O       -3.3110    -8.0330     1.6630 O.2   1 <1>  -0.5700 
 13 N       -4.2880    -8.0630    -0.3590 N.am  1 <1>  -0.6600 
 14 C       -4.9530    -7.3490    -1.4940 C.3   1 <1>   0.1400 
 15 C       -4.8290    -9.4510    -0.1750 C.3   1 <1>   0.1400 
 16 C       -6.4690    -7.1740    -1.2080 C.3   1 <1>   0.4230 
 17 C       -6.3760    -9.4510    -0.1550 C.3   1 <1>   0.3430 
 18 N       -6.9390    -8.0520    -0.0590 N.4   1 <1>  -0.9590 
 19 C       -7.2990    -7.4290    -2.4870 C.3   1 <1>   0.1200 
 20 C       -8.4270    -7.9700     0.1080 C.3   1 <1>   0.5180 
 21 O       -8.6670    -7.3270    -2.2190 O.3   1 <1>  -0.5600 
 22 C       -8.8710    -8.9080     1.2470 C.3   1 <1>  -0.1950 
 23 C       -9.1490    -8.2080    -1.2410 C.3   1 <1>   0.1200 
 24 C       -9.2270   -10.3570     1.0770 C.3   1 <1>  -0.2000 
 25 C      -10.2910    -9.3560     1.4270 C.3   1 <1>  -0.2000 
 26 H       -6.4430    -3.6280     0.4530 H     1 <1>   0.1500 
 27 H       -2.1650    -1.1620     0.3240 H     1 <1>   0.1500 
 28 H       -2.1470    -3.6100     0.4140 H     1 <1>   0.1500 
 29 H       -2.6010    -5.7870    -0.2840 H     1 <1>   0.0800 
 30 H       -2.6900    -5.6790     1.4710 H     1 <1>   0.0800 
 31 H       -4.5040    -6.3900    -1.6800 H     1 <1>   0.0800 
 32 H       -4.8120    -7.9310    -2.3890 H     1 <1>   0.0800 
 33 H       -4.4770   -10.0820    -0.9720 H     1 <1>   0.0800 
 34 H       -4.4690    -9.8820     0.7440 H     1 <1>   0.0800 
 35 H       -6.6240    -6.1430    -0.9330 H     1 <1>   0.0800 
 36 H       -6.7020   -10.0430     0.6840 H     1 <1>   0.0800 
 37 H       -6.7400    -9.9290    -1.0490 H     1 <1>   0.0800 
 38 H       -6.5080    -7.6530     0.7860 H     1 <1>   0.4500 
 39 H       -7.1030    -8.4050    -2.8950 H     1 <1>   0.0800 
 40 H       -7.0620    -6.6920    -3.2360 H     1 <1>   0.0800 
 41 H       -8.6770    -6.9660     0.4110 H     1 <1>   0.0800 
 42 H       -8.3820    -8.6330     2.1670 H     1 <1>   0.1000 
 43 H      -10.2020    -8.0180    -1.1330 H     1 <1>   0.0800 
 44 H       -9.0160    -9.2160    -1.5880 H     1 <1>   0.0800 
 45 H       -9.2910   -10.8170     0.1050 H     1 <1>   0.1000 
 46 H       -8.9370   -11.0640     1.8380 H     1 <1>   0.1000 
 47 H      -10.7050    -9.3830     2.4220 H     1 <1>   0.1000 
 48 H      -11.0460    -9.1490     0.6880 H     1 <1>   0.1000 
@<TRIPOS>BOND
  1   1   2  1   
  2   2   3  ar  
  3   2   4  ar  
  4   3   5  1   
  5   3   6  ar  
  6   4   7  ar  
  7   4  26  1   
  8   6   8  ar  
  9   6  27  1   
 10   7   8  ar  
 11   7   9  1   
 12   8  28  1   
 13   9  10  1   
 14  10  11  1   
 15  10  29  1   
 16  10  30  1   
 17  11  12  2   
 18  11  13  am  
 19  13  14  1   
 20  13  15  1   
 21  14  16  1   
 22  14  31  1   
 23  14  32  1   
 24  15  17  1   
 25  15  33  1   
 26  15  34  1   
 27  16  18  1   
 28  16  19  1   
 29  16  35  1   
 30  17  18  1   
 31  17  36  1   
 32  17  37  1   
 33  18  20  1   
 34  18  38  1   
 35  19  21  1   
 36  19  39  1   
 37  19  40  1   
 38  20  22  1   
 39  20  23  1   
 40  20  41  1   
 41  21  23  1   
 42  22  24  1   
 43  22  25  1   
 44  22  42  1   
 45  23  43  1   
 46  23  44  1   
 47  24  25  1   
 48  24  45  1   
 49  24  46  1   
 50  25  47  1   
 51  25  48  1   
@<TRIPOS>SUBSTRUCTURE
  1 ****  16 GROUP 4 **** **** 0

# MOE 2024.06 (io_trps.svl 2023.06)
