@<TRIPOS>MOLECULE
NONAME
47 48 1 0 0 
SMALL
USER_CHARGES


@<TRIPOS>ATOM
  1 CL       2.4060     3.3570     2.2270 Cl    1 <1>  -0.1770 
  2 C        1.1840     2.6150     1.2200 C.ar  1 <1>   0.1770 
  3 C        1.5180     2.0250     0.0070 C.ar  1 <1>  -0.1440 
  4 C       -0.1200     2.6360     1.6800 C.ar  1 <1>  -0.1500 
  5 C        0.5000     1.4440    -0.7410 C.ar  1 <1>  -0.1500 
  6 C        2.9560     2.0210    -0.5040 C.3   1 <1>   0.3640 
  7 C       -1.1220     2.0550     0.9230 C.ar  1 <1>  -0.1500 
  8 C       -0.8090     1.4590    -0.2860 C.ar  1 <1>  -0.1500 
  9 N        3.3070     0.6390    -0.9170 N.am  1 <1>  -0.7300 
 10 C        3.1610     3.0250    -1.6660 C.3   1 <1>   0.2610 
 11 C        3.9900     0.3450    -2.0450 C.2   1 <1>   0.5690 
 12 O        4.3730     2.7470    -2.3600 O.3   1 <1>  -0.5600 
 13 C        3.1640     4.4510    -1.1160 C.2   1 <1>   0.5690 
 14 O        4.2580    -0.7960    -2.3220 O.2   1 <1>  -0.5700 
 15 C        4.3990     1.4820    -2.9870 C.3   1 <1>   0.1810 
 16 O        2.1060     4.9980    -0.9220 O.2   1 <1>  -0.5700 
 17 N        4.3680     5.0400    -0.8720 N.am  1 <1>  -0.7300 
 18 C        4.6710     6.3740    -0.3110 C.3   1 <1>   0.3000 
 19 C        6.2100     6.4930    -0.2030 C.3   1 <1>   0.1200 
 20 C        4.1150     7.4430    -1.2570 C.3   1 <1>  -0.2400 
 21 C        4.0330     6.4860     1.0790 C.3   1 <1>  -0.2400 
 22 O        6.5890     7.7350     0.3170 O.3   1 <1>  -0.5600 
 23 C        7.9600     7.9020     0.4490 C.3   1 <1>   0.1200 
 24 C        8.1960     9.2950     1.0180 C.3   1 <1>  -0.2400 
 25 H       -0.3450     3.1060     2.6210 H     1 <1>   0.1500 
 26 H        0.7160     0.9730    -1.6860 H     1 <1>   0.1500 
 27 H        3.6300     2.2940     0.2880 H     1 <1>   0.0800 
 28 H       -2.1400     2.0690     1.2720 H     1 <1>   0.1500 
 29 H       -1.5870     1.0070    -0.8760 H     1 <1>   0.1500 
 30 H        3.0390    -0.1220    -0.2900 H     1 <1>   0.3700 
 31 H        2.3500     2.9430    -2.3670 H     1 <1>   0.0800 
 32 H        3.7340     1.5060    -3.8310 H     1 <1>   0.0800 
 33 H        5.4000     1.3100    -3.3390 H     1 <1>   0.0800 
 34 H        5.1820     4.5290    -1.2210 H     1 <1>   0.3700 
 35 H        6.6520     6.3930    -1.1790 H     1 <1>   0.0800 
 36 H        6.5880     5.7290     0.4530 H     1 <1>   0.0800 
 37 H        4.3600     8.4220    -0.8880 H     1 <1>   0.0800 
 38 H        3.0450     7.3750    -1.3250 H     1 <1>   0.0800 
 39 H        4.5390     7.3350    -2.2380 H     1 <1>   0.0800 
 40 H        4.2820     7.4330     1.5210 H     1 <1>   0.0800 
 41 H        4.3940     5.7070     1.7240 H     1 <1>   0.0800 
 42 H        2.9620     6.4250     1.0180 H     1 <1>   0.0800 
 43 H        8.3400     7.1480     1.1180 H     1 <1>   0.0800 
 44 H        8.4190     7.8050    -0.5200 H     1 <1>   0.0800 
 45 H        7.7210     9.3850     1.9790 H     1 <1>   0.0800 
 46 H        7.7980    10.0370     0.3510 H     1 <1>   0.0800 
 47 H        9.2500     9.4670     1.1370 H     1 <1>   0.0800 
@<TRIPOS>BOND
  1   1   2  1   
  2   2   3  ar  
  3   2   4  ar  
  4   3   5  ar  
  5   3   6  1   
  6   4   7  ar  
  7   4  25  1   
  8   5   8  ar  
  9   5  26  1   
 10   6   9  1   
 11   6  10  1   
 12   6  27  1   
 13   7   8  ar  
 14   7  28  1   
 15   8  29  1   
 16   9  11  am  
 17   9  30  1   
 18  10  12  1   
 19  10  13  1   
 20  10  31  1   
 21  11  14  2   
 22  11  15  1   
 23  12  15  1   
 24  13  16  2   
 25  13  17  am  
 26  15  32  1   
 27  15  33  1   
 28  17  18  1   
 29  17  34  1   
 30  18  19  1   
 31  18  20  1   
 32  18  21  1   
 33  19  22  1   
 34  19  35  1   
 35  19  36  1   
 36  20  37  1   
 37  20  38  1   
 38  20  39  1   
 39  21  40  1   
 40  21  41  1   
 41  21  42  1   
 42  22  23  1   
 43  23  24  1   
 44  23  43  1   
 45  23  44  1   
 46  24  45  1   
 47  24  46  1   
 48  24  47  1   
@<TRIPOS>SUBSTRUCTURE
  1 ****  13 GROUP 4 **** **** 0

# MOE 2024.06 (io_trps.svl 2023.06)
