@<TRIPOS>MOLECULE
NONAME
49 52 1 0 0 
SMALL
USER_CHARGES


@<TRIPOS>ATOM
  1 CL      -1.2060    -3.5740    -3.0300 Cl    1 <1>  -0.1770 
  2 C       -2.5160    -3.3640    -1.8970 C.ar  1 <1>   0.1770 
  3 C       -2.5460    -4.1250    -0.7460 C.ar  1 <1>  -0.1500 
  4 C       -3.5050    -2.4400    -2.1660 C.ar  1 <1>  -0.1500 
  5 C       -3.5910    -3.9580     0.1460 C.ar  1 <1>  -0.1500 
  6 C       -4.5480    -2.2780    -1.2690 C.ar  1 <1>  -0.1500 
  7 C       -4.6060    -3.0390    -0.1040 C.ar  1 <1>  -0.1080 
  8 C       -5.7440    -2.9340     0.9330 C.3   1 <1>   0.1610 
  9 C       -6.3820    -4.3020     1.2280 C.2   1 <1>   0.5770 
 10 C       -5.2730    -2.1470     2.2000 C.3   1 <1>   0.0000 
 11 C       -6.8090    -1.8030     0.7650 C.3   1 <1>   0.0000 
 12 O       -6.1690    -4.8310     2.2960 O.2   1 <1>  -0.5700 
 13 N       -7.1530    -4.9340     0.2840 N.am  1 <1>  -0.6600 
 14 C       -5.8450    -0.8680     1.5380 C.3   1 <1>   0.0000 
 15 C       -7.3170    -4.5240    -1.1370 C.3   1 <1>   0.1400 
 16 C       -7.6800    -6.3080     0.4830 C.3   1 <1>   0.1400 
 17 C       -8.1580    -5.6320    -1.7750 C.3   1 <1>   0.2000 
 18 C       -7.8610    -6.8730    -0.9320 C.3   1 <1>  -0.0800 
 19 O       -9.4970    -5.3110    -1.6200 O.3   1 <1>  -0.6800 
 20 C       -6.5810    -7.5780    -1.4210 C.3   1 <1>   0.0200 
 21 C       -6.2600    -8.7930    -0.5740 C.2   1 <1>  -0.0400 
 22 O       -7.0630    -9.8240    -0.5730 O.3   1 <1>  -0.0190 
 23 C       -5.2420    -9.0610     0.2560 C.2   1 <1>  -0.1500 
 24 N       -6.6380   -10.7670     0.2170 N.2   1 <1>  -0.4100 
 25 C       -5.5420   -10.3350     0.7300 C.2   1 <1>   0.1080 
 26 C       -4.7010   -11.1120     1.7180 C.3   1 <1>  -0.0590 
 27 H       -1.7620    -4.8350    -0.5520 H     1 <1>   0.1500 
 28 H       -3.4550    -1.8550    -3.0670 H     1 <1>   0.1500 
 29 H       -3.6110    -4.5520     1.0460 H     1 <1>   0.1500 
 30 H       -5.3000    -1.5480    -1.5030 H     1 <1>   0.1500 
 31 H       -5.8100    -2.4010     3.0980 H     1 <1>   0.0000 
 32 H       -4.2070    -2.1170     2.3410 H     1 <1>   0.0000 
 33 H       -7.0200    -1.4900    -0.2400 H     1 <1>   0.0000 
 34 H       -7.7080    -1.9970     1.3250 H     1 <1>   0.0000 
 35 H       -5.1350    -0.3710     0.9000 H     1 <1>   0.0000 
 36 H       -6.3410    -0.2070     2.2270 H     1 <1>   0.0000 
 37 H       -7.7980    -3.5660    -1.2270 H     1 <1>   0.0800 
 38 H       -6.3510    -4.4910    -1.6100 H     1 <1>   0.0800 
 39 H       -7.0110    -6.9010     1.0840 H     1 <1>   0.0800 
 40 H       -8.6300    -6.2480     0.9850 H     1 <1>   0.0800 
 41 H       -7.9640    -5.7600    -2.8270 H     1 <1>   0.0800 
 42 H       -8.6770    -7.5750    -0.9680 H     1 <1>   0.0800 
 43 H       -9.6770    -5.1150    -0.6790 H     1 <1>   0.4000 
 44 H       -5.7450    -6.9020    -1.3860 H     1 <1>   0.0800 
 45 H       -6.7090    -7.8970    -2.4410 H     1 <1>   0.0800 
 46 H       -4.3900    -8.4630     0.5210 H     1 <1>   0.1500 
 47 H       -4.6030   -10.5540     2.6310 H     1 <1>   0.0800 
 48 H       -3.7260   -11.2930     1.3050 H     1 <1>   0.0800 
 49 H       -5.1680   -12.0560     1.9350 H     1 <1>   0.0800 
@<TRIPOS>BOND
  1   1   2  1   
  2   2   3  ar  
  3   2   4  ar  
  4   3   5  ar  
  5   3  27  1   
  6   4   6  ar  
  7   4  28  1   
  8   5   7  ar  
  9   5  29  1   
 10   6   7  ar  
 11   6  30  1   
 12   7   8  1   
 13   8   9  1   
 14   8  10  1   
 15   8  11  1   
 16   9  12  2   
 17   9  13  am  
 18  10  14  1   
 19  10  31  1   
 20  10  32  1   
 21  11  14  1   
 22  11  33  1   
 23  11  34  1   
 24  13  15  1   
 25  13  16  1   
 26  14  35  1   
 27  14  36  1   
 28  15  17  1   
 29  15  37  1   
 30  15  38  1   
 31  16  18  1   
 32  16  39  1   
 33  16  40  1   
 34  17  18  1   
 35  17  19  1   
 36  17  41  1   
 37  18  20  1   
 38  18  42  1   
 39  19  43  1   
 40  20  21  1   
 41  20  44  1   
 42  20  45  1   
 43  21  22  1   
 44  21  23  2   
 45  22  24  1   
 46  23  25  1   
 47  23  46  1   
 48  24  25  2   
 49  25  26  1   
 50  26  47  1   
 51  26  48  1   
 52  26  49  1   
@<TRIPOS>SUBSTRUCTURE
  1 ****  13 GROUP 4 **** **** 0

# MOE 2024.06 (io_trps.svl 2023.06)
