@<TRIPOS>MOLECULE
NONAME
46 47 1 0 0 
SMALL
USER_CHARGES


@<TRIPOS>ATOM
  1 O       -1.8660     0.8190    -1.4460 O.co2 1 <1>  -0.9000 
  2 C       -0.8180     1.4780    -1.5300 C.2   1 <1>   0.9060 
  3 O       -0.0910     1.3690    -2.5270 O.co2 1 <1>  -0.9000 
  4 C       -0.4010     2.4350    -0.3890 C.3   1 <1>  -0.1060 
  5 C       -1.6200     3.0040     0.3970 C.3   1 <1>   0.2000 
  6 C        0.3380     3.6260    -1.0750 C.3   1 <1>   0.1100 
  7 C        0.4970     1.6790     0.6390 C.3   1 <1>  -0.1600 
  8 O       -2.5920     2.0550     0.6310 O.3   1 <1>  -0.6800 
  9 C       -2.2510     4.1960    -0.3120 C.3   1 <1>  -0.1600 
 10 N        0.1600     4.9420    -0.4180 N.3   1 <1>  -0.8100 
 11 C        1.7620     1.0090     0.0710 C.3   1 <1>  -0.1600 
 12 C       -1.2590     5.3690    -0.3630 C.3   1 <1>   0.1100 
 13 C        0.8930     5.0700     0.8800 C.3   1 <1>   0.1710 
 14 C        2.5410     0.2890     1.1750 C.3   1 <1>  -0.2400 
 15 C        1.3030     6.5080     1.1990 C.2   1 <1>   0.5690 
 16 O        1.5950     6.8050     2.3330 O.2   1 <1>  -0.5700 
 17 N        1.3070     7.3720     0.1420 N.am  1 <1>  -0.5470 
 18 C        1.6040     8.7340    -0.0050 C.ar  1 <1>   0.1170 
 19 C        2.0380     9.5390     1.0430 C.ar  1 <1>  -0.1500 
 20 C        1.4570     9.3090    -1.2620 C.ar  1 <1>  -0.1500 
 21 C        2.3150    10.8800     0.8410 C.ar  1 <1>  -0.1500 
 22 C        1.7330    10.6490    -1.4700 C.ar  1 <1>  -0.1500 
 23 C        2.1630    11.4370    -0.4170 C.ar  1 <1>  -0.1500 
 24 H       -1.3040     3.3340     1.3690 H     1 <1>   0.0800 
 25 H       -0.0510     3.7350    -2.0750 H     1 <1>   0.0800 
 26 H        1.3830     3.4120    -1.1950 H     1 <1>   0.0800 
 27 H        0.7870     2.3480     1.4270 H     1 <1>   0.0800 
 28 H       -0.1060     0.9070     1.0880 H     1 <1>   0.0800 
 29 H       -2.5450     1.4210    -0.1560 H     1 <1>   0.4000 
 30 H       -2.5220     3.9100    -1.3130 H     1 <1>   0.0800 
 31 H       -3.1410     4.5060     0.2040 H     1 <1>   0.0800 
 32 H        1.4850     0.2920    -0.6840 H     1 <1>   0.0800 
 33 H        2.4050     1.7360    -0.3890 H     1 <1>   0.0800 
 34 H       -1.4120     6.0010     0.4950 H     1 <1>   0.0800 
 35 H       -1.4760     5.9580    -1.2380 H     1 <1>   0.0800 
 36 H        0.2960     4.6960     1.6900 H     1 <1>   0.0800 
 37 H        1.7960     4.4880     0.8370 H     1 <1>   0.0800 
 38 H        1.9270    -0.4700     1.6280 H     1 <1>   0.0800 
 39 H        2.8520     0.9860     1.9330 H     1 <1>   0.0800 
 40 H        3.4140    -0.1810     0.7590 H     1 <1>   0.0800 
 41 H        0.9810     6.8840    -0.7010 H     1 <1>   0.3700 
 42 H        2.1630     9.1250     2.0260 H     1 <1>   0.1500 
 43 H        1.1250     8.7040    -2.0850 H     1 <1>   0.1500 
 44 H        2.6500    11.4880     1.6630 H     1 <1>   0.1500 
 45 H        1.6140    11.0790    -2.4490 H     1 <1>   0.1500 
 46 H        2.3790    12.4800    -0.5740 H     1 <1>   0.1500 
@<TRIPOS>BOND
  1   1   2  ar  
  2   2   3  ar  
  3   2   4  1   
  4   4   5  1   
  5   4   6  1   
  6   4   7  1   
  7   5   8  1   
  8   5   9  1   
  9   5  24  1   
 10   6  10  1   
 11   6  25  1   
 12   6  26  1   
 13   7  11  1   
 14   7  27  1   
 15   7  28  1   
 16   8  29  1   
 17   9  12  1   
 18   9  30  1   
 19   9  31  1   
 20  10  12  1   
 21  10  13  1   
 22  11  14  1   
 23  11  32  1   
 24  11  33  1   
 25  12  34  1   
 26  12  35  1   
 27  13  15  1   
 28  13  36  1   
 29  13  37  1   
 30  14  38  1   
 31  14  39  1   
 32  14  40  1   
 33  15  16  2   
 34  15  17  am  
 35  17  18  1   
 36  17  41  1   
 37  18  19  ar  
 38  18  20  ar  
 39  19  21  ar  
 40  19  42  1   
 41  20  22  ar  
 42  20  43  1   
 43  21  23  ar  
 44  21  44  1   
 45  22  23  ar  
 46  22  45  1   
 47  23  46  1   
@<TRIPOS>SUBSTRUCTURE
  1 ****  10 GROUP 4 **** **** 0

# MOE 2024.06 (io_trps.svl 2023.06)
