@<TRIPOS>MOLECULE
NONAME
46 48 1 0 0 
SMALL
USER_CHARGES


@<TRIPOS>ATOM
  1 S       -0.6180    -2.0130    -0.2460 S.3   1 <1>  -0.0800 
  2 C       -0.3410    -2.9370     1.2140 C.2   1 <1>   0.2280 
  3 C       -2.2990    -2.4530    -0.1680 C.2   1 <1>  -0.1100 
  4 N       -1.3800    -3.4980     1.6930 N.2   1 <1>  -0.5650 
  5 C       -2.4990    -3.2280     0.9100 C.2   1 <1>   0.0460 
  6 C       -3.8390    -3.8170     1.3260 C.3   1 <1>   0.3210 
  7 N       -4.0430    -5.1670     0.7190 N.am  1 <1>  -0.6600 
  8 C       -4.8120    -5.2970    -0.4180 C.2   1 <1>   0.5690 
  9 C       -3.1320    -6.2200     1.2590 C.3   1 <1>   0.0600 
 10 O       -5.3660    -4.3320    -0.8960 O.2   1 <1>  -0.5700 
 11 C       -5.0350    -6.6410    -1.1280 C.3   1 <1>   0.2610 
 12 O       -3.8160    -7.3080    -1.4060 O.3   1 <1>  -0.5600 
 13 C       -6.0030    -7.5210    -0.2960 C.3   1 <1>   0.3640 
 14 C       -3.9800    -8.4920    -2.1460 C.3   1 <1>   0.1810 
 15 N       -5.9090    -8.9840    -0.6220 N.am  1 <1>  -0.6600 
 16 C       -7.4490    -7.0410    -0.4750 C.ar  1 <1>  -0.1430 
 17 C       -4.9640    -9.4630    -1.4910 C.2   1 <1>   0.5690 
 18 C       -6.8520    -9.8850     0.1030 C.3   1 <1>   0.0600 
 19 C       -8.1510    -6.3770     0.5320 C.ar  1 <1>  -0.1430 
 20 C       -8.0810    -7.2800    -1.6910 C.ar  1 <1>  -0.1500 
 21 O       -4.8820   -10.6350    -1.7760 O.2   1 <1>  -0.5700 
 22 C       -9.4560    -5.9670     0.2990 C.ar  1 <1>  -0.1500 
 23 C       -7.5400    -6.0730     1.8940 C.3   1 <1>  -0.0970 
 24 C       -9.3820    -6.8680    -1.9130 C.ar  1 <1>  -0.1500 
 25 C      -10.0700    -6.2090    -0.9150 C.ar  1 <1>  -0.1500 
 26 H        0.6650    -2.9610     1.5930 H     1 <1>   0.1500 
 27 H       -2.9600    -2.0940    -0.9360 H     1 <1>   0.1500 
 28 H       -4.6240    -3.1480     1.0200 H     1 <1>   0.0800 
 29 H       -3.8800    -3.8900     2.3990 H     1 <1>   0.0800 
 30 H       -2.9870    -6.0780     2.3160 H     1 <1>   0.0800 
 31 H       -2.1760    -6.1490     0.7690 H     1 <1>   0.0800 
 32 H       -3.5300    -7.2050     1.0980 H     1 <1>   0.0800 
 33 H       -5.4930    -6.4230    -2.0750 H     1 <1>   0.0800 
 34 H       -5.7220    -7.4210     0.7340 H     1 <1>   0.0800 
 35 H       -4.3250    -8.2370    -3.1310 H     1 <1>   0.0800 
 36 H       -3.0180    -8.9620    -2.2260 H     1 <1>   0.0800 
 37 H       -6.8250    -9.6730     1.1570 H     1 <1>   0.0800 
 38 H       -6.5830   -10.9170    -0.0460 H     1 <1>   0.0800 
 39 H       -7.8540    -9.7370    -0.2600 H     1 <1>   0.0800 
 40 H       -7.5620    -7.7980    -2.4790 H     1 <1>   0.1500 
 41 H      -10.0080    -5.4500     1.0650 H     1 <1>   0.1500 
 42 H       -8.2500    -5.5780     2.5320 H     1 <1>   0.0800 
 43 H       -6.6890    -5.4270     1.7840 H     1 <1>   0.0800 
 44 H       -7.2390    -6.9840     2.3790 H     1 <1>   0.0800 
 45 H       -9.8560    -7.0600    -2.8590 H     1 <1>   0.1500 
 46 H      -11.0830    -5.8840    -1.0810 H     1 <1>   0.1500 
@<TRIPOS>BOND
  1   1   2  1   
  2   1   3  1   
  3   2   4  2   
  4   2  26  1   
  5   3   5  2   
  6   3  27  1   
  7   4   5  1   
  8   5   6  1   
  9   6   7  1   
 10   6  28  1   
 11   6  29  1   
 12   7   8  am  
 13   7   9  1   
 14   8  10  2   
 15   8  11  1   
 16   9  30  1   
 17   9  31  1   
 18   9  32  1   
 19  11  12  1   
 20  11  13  1   
 21  11  33  1   
 22  12  14  1   
 23  13  15  1   
 24  13  16  1   
 25  13  34  1   
 26  14  17  1   
 27  14  35  1   
 28  14  36  1   
 29  15  17  am  
 30  15  18  1   
 31  16  19  ar  
 32  16  20  ar  
 33  17  21  2   
 34  18  37  1   
 35  18  38  1   
 36  18  39  1   
 37  19  22  ar  
 38  19  23  1   
 39  20  24  ar  
 40  20  40  1   
 41  22  25  ar  
 42  22  41  1   
 43  23  42  1   
 44  23  43  1   
 45  23  44  1   
 46  24  25  ar  
 47  24  45  1   
 48  25  46  1   
@<TRIPOS>SUBSTRUCTURE
  1 ****   8 GROUP 4 **** **** 0

# MOE 2024.06 (io_trps.svl 2023.06)
