@<TRIPOS>MOLECULE
NONAME
46 48 1 0 0 
SMALL
USER_CHARGES


@<TRIPOS>ATOM
  1 F        2.4140     0.5460     0.8680 F     1 <1>  -0.1900 
  2 C        2.7290    -0.5390     0.2130 C.ar  1 <1>   0.1900 
  3 C        2.4920    -1.7660     0.8050 C.ar  1 <1>  -0.1500 
  4 C        3.2850    -0.4200    -1.0460 C.ar  1 <1>  -0.1500 
  5 C        2.8220    -2.9200     0.1100 C.ar  1 <1>  -0.1440 
  6 C        3.6150    -1.5750    -1.7340 C.ar  1 <1>  -0.1500 
  7 C        3.3830    -2.8150    -1.1570 C.ar  1 <1>  -0.1500 
  8 C        2.5680    -4.2860     0.7270 C.3   1 <1>  -0.0160 
  9 C        1.1750    -4.7970     0.3270 C.3   1 <1>  -0.0990 
 10 C        0.8170    -6.1520     0.9260 C.2   1 <1>   0.5690 
 11 O        1.6930    -6.7770     1.4770 O.2   1 <1>  -0.5700 
 12 N       -0.4660    -6.6410     0.8380 N.am  1 <1>  -0.6600 
 13 C       -1.5530    -5.9610     0.0680 C.3   1 <1>   0.2200 
 14 C       -0.8080    -7.9180     1.5430 C.3   1 <1>   0.0600 
 15 C       -2.4220    -6.8930    -0.7760 C.3   1 <1>  -0.1600 
 16 C       -2.5430    -5.2420     0.9780 C.3   1 <1>  -0.1600 
 17 C       -3.6890    -6.0740    -1.0520 C.3   1 <1>  -0.0800 
 18 C       -3.8070    -5.0690     0.1230 C.3   1 <1>  -0.0800 
 19 C       -4.9290    -6.9550    -1.3130 C.3   1 <1>   0.1400 
 20 C       -5.1070    -5.2020     0.9380 C.3   1 <1>  -0.0990 
 21 N       -6.1610    -6.1860    -1.0410 N.am  1 <1>  -0.7300 
 22 C       -6.2960    -5.3570     0.0150 C.2   1 <1>   0.5690 
 23 O       -7.3220    -4.7660     0.2250 O.2   1 <1>  -0.5700 
 24 H        2.0580    -1.8080     1.7870 H     1 <1>   0.1500 
 25 H        3.4550     0.5530    -1.4710 H     1 <1>   0.1500 
 26 H        4.0510    -1.5120    -2.7160 H     1 <1>   0.1500 
 27 H        3.6450    -3.7060    -1.7020 H     1 <1>   0.1500 
 28 H        3.3200    -4.9810     0.3950 H     1 <1>   0.0800 
 29 H        2.6370    -4.2230     1.7990 H     1 <1>   0.0800 
 30 H        1.1320    -4.8770    -0.7430 H     1 <1>   0.0800 
 31 H        0.4470    -4.0760     0.6480 H     1 <1>   0.0800 
 32 H       -1.1340    -5.2340    -0.6060 H     1 <1>   0.0800 
 33 H       -1.7940    -7.8660     1.9680 H     1 <1>   0.0800 
 34 H       -0.1130    -8.1090     2.3430 H     1 <1>   0.0800 
 35 H       -0.7600    -8.7370     0.8490 H     1 <1>   0.0800 
 36 H       -1.9250    -7.1770    -1.6860 H     1 <1>   0.0800 
 37 H       -2.6900    -7.7730    -0.2220 H     1 <1>   0.0800 
 38 H       -2.7580    -5.8490     1.8380 H     1 <1>   0.0800 
 39 H       -2.1570    -4.2920     1.3040 H     1 <1>   0.0800 
 40 H       -3.5150    -5.4970    -1.9460 H     1 <1>   0.0800 
 41 H       -3.7950    -4.0800    -0.3050 H     1 <1>   0.0800 
 42 H       -4.9210    -7.8150    -0.6650 H     1 <1>   0.0800 
 43 H       -4.9290    -7.2980    -2.3340 H     1 <1>   0.0800 
 44 H       -5.2470    -4.3360     1.5590 H     1 <1>   0.0800 
 45 H       -5.0720    -6.0700     1.5690 H     1 <1>   0.0800 
 46 H       -6.9760    -6.3210    -1.6440 H     1 <1>   0.3700 
@<TRIPOS>BOND
  1   1   2  1   
  2   2   3  ar  
  3   2   4  ar  
  4   3   5  ar  
  5   3  24  1   
  6   4   6  ar  
  7   4  25  1   
  8   5   7  ar  
  9   5   8  1   
 10   6   7  ar  
 11   6  26  1   
 12   7  27  1   
 13   8   9  1   
 14   8  28  1   
 15   8  29  1   
 16   9  10  1   
 17   9  30  1   
 18   9  31  1   
 19  10  11  2   
 20  10  12  am  
 21  12  13  1   
 22  12  14  1   
 23  13  15  1   
 24  13  16  1   
 25  13  32  1   
 26  14  33  1   
 27  14  34  1   
 28  14  35  1   
 29  15  17  1   
 30  15  36  1   
 31  15  37  1   
 32  16  18  1   
 33  16  38  1   
 34  16  39  1   
 35  17  18  1   
 36  17  19  1   
 37  17  40  1   
 38  18  20  1   
 39  18  41  1   
 40  19  21  1   
 41  19  42  1   
 42  19  43  1   
 43  20  22  1   
 44  20  44  1   
 45  20  45  1   
 46  21  22  am  
 47  21  46  1   
 48  22  23  2   
@<TRIPOS>SUBSTRUCTURE
  1 ****  13 GROUP 4 **** **** 0

# MOE 2024.06 (io_trps.svl 2023.06)
