@<TRIPOS>MOLECULE
NONAME
41 42 1 0 0 
SMALL
USER_CHARGES


@<TRIPOS>ATOM
  1 S        0.3900     0.1550     0.8130 S.o2  1 <1>   1.3330 
  2 O       -0.6580     0.3630     1.7860 O.2   1 <1>  -0.6500 
  3 O        1.7750     0.2530     1.2150 O.2   1 <1>  -0.6500 
  4 N        0.1640    -1.3680     0.1000 N.am  1 <1>  -0.8490 
  5 C        0.0990     1.2780    -0.5520 C.3   1 <1>  -0.0550 
  6 C        1.3600    -1.8790    -0.5790 C.3   1 <1>   0.1160 
  7 C       -0.3270    -2.3630     1.0590 C.3   1 <1>   0.1160 
  8 C        0.1520     2.7610    -0.1460 C.3   1 <1>  -0.0800 
  9 C       -0.1850     3.6880    -1.3100 C.3   1 <1>   0.2000 
 10 C        1.5270     3.2400     0.3220 C.3   1 <1>   0.1400 
 11 O       -1.5580     3.8240    -1.4240 O.3   1 <1>  -0.6800 
 12 C        0.4950     5.0200    -0.9920 C.3   1 <1>   0.1400 
 13 N        1.5630     4.6840    -0.0170 N.am  1 <1>  -0.6600 
 14 C        2.3940     5.5880     0.6260 C.2   1 <1>   0.5440 
 15 O        3.1480     5.1360     1.4710 O.2   1 <1>  -0.5700 
 16 C        2.3920     7.0350     0.3710 C.ar  1 <1>   0.3960 
 17 N        2.1500     7.5180    -0.8640 N.ar  1 <1>  -0.6200 
 18 C        2.6560     7.8930     1.4440 C.ar  1 <1>  -0.1500 
 19 C        2.1780     8.8250    -0.9890 C.ar  1 <1>   0.3930 
 20 C        2.6730     9.2630     1.2860 C.ar  1 <1>  -0.1500 
 21 O        1.9460     9.2540    -2.2140 O.3   1 <1>  -0.5330 
 22 C        2.4240     9.7370     0.0210 C.ar  1 <1>  -0.1500 
 23 H        0.8190     1.0950    -1.3250 H     1 <1>   0.0800 
 24 H       -0.8740     1.0730    -0.9570 H     1 <1>   0.0800 
 25 H        1.1310    -2.7990    -1.0890 H     1 <1>   0.0800 
 26 H        2.1490    -2.0580     0.1320 H     1 <1>   0.0800 
 27 H        1.7070    -1.1650    -1.3070 H     1 <1>   0.0800 
 28 H       -0.4740    -3.3120     0.5710 H     1 <1>   0.0800 
 29 H       -1.2720    -2.0460     1.4680 H     1 <1>   0.0800 
 30 H        0.3760    -2.4830     1.8660 H     1 <1>   0.0800 
 31 H       -0.5380     2.9350     0.6620 H     1 <1>   0.0800 
 32 H        0.1960     3.3040    -2.2420 H     1 <1>   0.0800 
 33 H        2.3190     2.7390    -0.2080 H     1 <1>   0.0800 
 34 H        1.6590     3.0850     1.3810 H     1 <1>   0.0800 
 35 H       -1.9430     4.1310    -0.5800 H     1 <1>   0.4000 
 36 H       -0.1930     5.7150    -0.5460 H     1 <1>   0.0800 
 37 H        0.9240     5.4400    -1.8850 H     1 <1>   0.0800 
 38 H        2.8510     7.4690     2.4130 H     1 <1>   0.1500 
 39 H        2.8750     9.9260     2.1110 H     1 <1>   0.1500 
 40 H        1.8310     8.4840    -2.7970 H     1 <1>   0.4500 
 41 H        2.4200    10.7890    -0.1970 H     1 <1>   0.1500 
@<TRIPOS>BOND
  1   1   2  2   
  2   1   3  2   
  3   1   4  am  
  4   1   5  1   
  5   4   6  1   
  6   4   7  1   
  7   5   8  1   
  8   5  23  1   
  9   5  24  1   
 10   6  25  1   
 11   6  26  1   
 12   6  27  1   
 13   7  28  1   
 14   7  29  1   
 15   7  30  1   
 16   8   9  1   
 17   8  10  1   
 18   8  31  1   
 19   9  11  1   
 20   9  12  1   
 21   9  32  1   
 22  10  13  1   
 23  10  33  1   
 24  10  34  1   
 25  11  35  1   
 26  12  13  1   
 27  12  36  1   
 28  12  37  1   
 29  13  14  am  
 30  14  15  2   
 31  14  16  1   
 32  16  17  ar  
 33  16  18  ar  
 34  17  19  ar  
 35  18  20  ar  
 36  18  38  1   
 37  19  21  1   
 38  19  22  ar  
 39  20  22  ar  
 40  20  39  1   
 41  21  40  1   
 42  22  41  1   
@<TRIPOS>SUBSTRUCTURE
  1 ****  13 GROUP 4 **** **** 0

# MOE 2024.06 (io_trps.svl 2023.06)
