@<TRIPOS>MOLECULE
NONAME
45 46 1 0 0 
SMALL
USER_CHARGES


@<TRIPOS>ATOM
  1 CL       1.7520    -4.7070    -2.2270 Cl    1 <1>  -0.1770 
  2 C        0.4810    -4.6750    -1.0240 C.ar  1 <1>   0.1770 
  3 C        0.7010    -5.2400     0.2240 C.ar  1 <1>   0.0830 
  4 C       -0.7310    -4.0870    -1.3360 C.ar  1 <1>  -0.1500 
  5 O        1.8800    -5.8130     0.5290 O.3   1 <1>  -0.5330 
  6 C       -0.3070    -5.2130     1.1710 C.ar  1 <1>  -0.1500 
  7 C       -1.7440    -4.0600    -0.3860 C.ar  1 <1>  -0.1440 
  8 C       -1.5240    -4.6240     0.8650 C.ar  1 <1>  -0.1500 
  9 C       -3.0940    -3.4250    -0.7150 C.3   1 <1>   0.0440 
 10 C       -4.1300    -4.4240    -1.2050 C.2   1 <1>   0.5690 
 11 O       -5.2160    -4.0160    -1.5370 O.2   1 <1>  -0.5700 
 12 N       -3.8210    -5.7450    -1.2580 N.am  1 <1>  -0.7300 
 13 C       -4.7370    -6.8240    -1.6880 C.3   1 <1>   0.2200 
 14 C       -4.9740    -7.7670    -0.5210 C.3   1 <1>  -0.0800 
 15 C       -4.0360    -7.7280    -2.6990 C.3   1 <1>   0.1200 
 16 C       -3.7510    -8.6820    -0.6150 C.3   1 <1>   0.1200 
 17 C       -6.2940    -8.5460    -0.6980 C.3   1 <1>  -0.0550 
 18 O       -3.4080    -8.7410    -1.9670 O.3   1 <1>  -0.5600 
 19 S       -6.7840    -9.4700     0.7590 S.o2  1 <1>   1.3330 
 20 O       -6.9990    -8.5200     1.8260 O.2   1 <1>  -0.6500 
 21 O       -5.8830   -10.5810     0.9660 O.2   1 <1>  -0.6500 
 22 N       -8.2910   -10.1060     0.3020 N.am  1 <1>  -0.8490 
 23 C       -8.1870   -11.3510    -0.4680 C.3   1 <1>   0.1160 
 24 C       -9.1820   -10.3030     1.4490 C.3   1 <1>   0.1160 
 25 H       -0.8720    -3.6600    -2.3130 H     1 <1>   0.1500 
 26 H        2.5150    -5.7710    -0.2130 H     1 <1>   0.4500 
 27 H       -0.1350    -5.6490     2.1400 H     1 <1>   0.1500 
 28 H       -2.3020    -4.6090     1.6110 H     1 <1>   0.1500 
 29 H       -2.9700    -2.6730    -1.4720 H     1 <1>   0.0800 
 30 H       -3.4870    -2.9390     0.1590 H     1 <1>   0.0800 
 31 H       -2.8790    -6.0460    -0.9930 H     1 <1>   0.3700 
 32 H       -5.6460    -6.4030    -2.0860 H     1 <1>   0.0800 
 33 H       -5.0020    -7.2340     0.4140 H     1 <1>   0.0800 
 34 H       -3.3050    -7.2010    -3.2860 H     1 <1>   0.0800 
 35 H       -4.7540    -8.1970    -3.3480 H     1 <1>   0.0800 
 36 H       -3.9240    -9.6810    -0.2550 H     1 <1>   0.0800 
 37 H       -2.9160    -8.2550    -0.0870 H     1 <1>   0.0800 
 38 H       -6.2090    -9.2130    -1.5340 H     1 <1>   0.0800 
 39 H       -7.0750    -7.8440    -0.9170 H     1 <1>   0.0800 
 40 H       -9.1610   -11.6570    -0.8090 H     1 <1>   0.0800 
 41 H       -7.7660   -12.1350     0.1390 H     1 <1>   0.0800 
 42 H       -7.5560   -11.2050    -1.3280 H     1 <1>   0.0800 
 43 H      -10.1310   -10.6920     1.1230 H     1 <1>   0.0800 
 44 H       -9.3580    -9.3630     1.9450 H     1 <1>   0.0800 
 45 H       -8.7390   -10.9880     2.1540 H     1 <1>   0.0800 
@<TRIPOS>BOND
  1   1   2  1   
  2   2   3  ar  
  3   2   4  ar  
  4   3   5  1   
  5   3   6  ar  
  6   4   7  ar  
  7   4  25  1   
  8   5  26  1   
  9   6   8  ar  
 10   6  27  1   
 11   7   8  ar  
 12   7   9  1   
 13   8  28  1   
 14   9  10  1   
 15   9  29  1   
 16   9  30  1   
 17  10  11  2   
 18  10  12  am  
 19  12  13  1   
 20  12  31  1   
 21  13  14  1   
 22  13  15  1   
 23  13  32  1   
 24  14  16  1   
 25  14  17  1   
 26  14  33  1   
 27  15  18  1   
 28  15  34  1   
 29  15  35  1   
 30  16  18  1   
 31  16  36  1   
 32  16  37  1   
 33  17  19  1   
 34  17  38  1   
 35  17  39  1   
 36  19  20  2   
 37  19  21  2   
 38  19  22  am  
 39  22  23  1   
 40  22  24  1   
 41  23  40  1   
 42  23  41  1   
 43  23  42  1   
 44  24  43  1   
 45  24  44  1   
 46  24  45  1   
@<TRIPOS>SUBSTRUCTURE
  1 ****  12 GROUP 4 **** **** 0

# MOE 2024.06 (io_trps.svl 2023.06)
