@<TRIPOS>MOLECULE
NONAME
49 53 1 0 0 
SMALL
USER_CHARGES


@<TRIPOS>ATOM
  1 O       -0.5940     0.1510    -0.5540 O.2   1 <1>  -0.5700 
  2 C       -1.6340     0.7840    -0.5700 C.2   1 <1>   0.5440 
  3 N       -1.5710     2.1600    -0.4840 N.am  1 <1>  -0.6600 
  4 C       -2.8880     0.0750    -0.6660 C.ar  1 <1>   0.0860 
  5 C       -0.2930     2.9060    -0.6970 C.3   1 <1>   0.1400 
  6 C       -2.6440     3.0030     0.1250 C.3   1 <1>   0.1400 
  7 C       -3.0870    -1.1060     0.0430 C.ar  1 <1>   0.1600 
  8 C       -3.9420     0.5040    -1.4650 C.ar  1 <1>  -0.1500 
  9 C        0.1070     3.6700     0.5740 C.3   1 <1>   0.1200 
 10 C       -2.1050     3.7740     1.3430 C.3   1 <1>   0.1200 
 11 N       -4.1920    -1.8310     0.0500 N.ar  1 <1>  -0.6200 
 12 C       -5.0960    -0.2430    -1.4740 C.ar  1 <1>  -0.1500 
 13 O       -0.9460     4.4840     1.0100 O.3   1 <1>  -0.5600 
 14 C       -5.2030    -1.3990    -0.6970 C.ar  1 <1>   0.4100 
 15 N       -6.3580    -2.1570    -0.6780 N.pl3 1 <1>  -0.8380 
 16 C       -6.2580    -3.6530    -0.5100 C.3   1 <1>   0.3900 
 17 C       -7.7190    -1.5920    -0.9730 C.3   1 <1>   0.2090 
 18 C       -7.5700    -4.2430    -0.0230 C.2   1 <1>  -0.1810 
 19 C       -8.7800    -2.0440     0.0460 C.3   1 <1>   0.0200 
 20 C       -7.9000    -5.5630     0.2680 C.2   1 <1>   0.2030 
 21 C       -8.6880    -3.5420     0.2300 C.2   1 <1>  -0.3320 
 22 N       -9.1320    -5.6760     0.6710 N.2   1 <1>  -0.7070 
 23 C       -6.9590    -6.7470     0.1350 C.3   1 <1>  -0.0140 
 24 N       -9.6170    -4.4190     0.6560 N.pl3 1 <1>   0.3000 
 25 C       -6.7660    -7.6840     1.2890 C.3   1 <1>  -0.2000 
 26 C       -5.6540    -6.7730     0.8740 C.3   1 <1>  -0.2000 
 27 H       -0.4240     3.6070    -1.5020 H     1 <1>   0.0800 
 28 H        0.5010     2.2350    -0.9750 H     1 <1>   0.0800 
 29 H       -3.4730     2.3950     0.4400 H     1 <1>   0.0800 
 30 H       -3.0010     3.7050    -0.6080 H     1 <1>   0.0800 
 31 H       -2.2700    -1.4650     0.6450 H     1 <1>   0.1500 
 32 H       -3.8430     1.3920    -2.0640 H     1 <1>   0.1500 
 33 H        0.9540     4.3030     0.3770 H     1 <1>   0.0800 
 34 H        0.3650     2.9810     1.3610 H     1 <1>   0.0800 
 35 H       -1.8740     3.0970     2.1470 H     1 <1>   0.0800 
 36 H       -2.8360     4.4830     1.6870 H     1 <1>   0.0800 
 37 H       -5.9150     0.0570    -2.0960 H     1 <1>   0.1500 
 38 H       -5.4920    -3.8990     0.2020 H     1 <1>   0.0800 
 39 H       -5.9950    -4.0940    -1.4550 H     1 <1>   0.0800 
 40 H       -8.0150    -1.9220    -1.9540 H     1 <1>   0.0800 
 41 H       -7.6870    -0.5180    -0.9710 H     1 <1>   0.0800 
 42 H       -9.7560    -1.7670    -0.3100 H     1 <1>   0.0800 
 43 H       -8.6050    -1.5530     0.9870 H     1 <1>   0.0800 
 44 H       -7.0020    -7.1880    -0.8450 H     1 <1>   0.1000 
 45 H      -10.5790    -4.2010     0.9410 H     1 <1>   0.2700 
 46 H       -6.6930    -8.7370     1.0820 H     1 <1>   0.1000 
 47 H       -7.3120    -7.4750     2.1930 H     1 <1>   0.1000 
 48 H       -5.4040    -5.9560     1.5280 H     1 <1>   0.1000 
 49 H       -4.7920    -7.1930     0.3860 H     1 <1>   0.1000 
@<TRIPOS>BOND
  1   1   2  2   
  2   2   3  am  
  3   2   4  1   
  4   3   5  1   
  5   3   6  1   
  6   4   7  ar  
  7   4   8  ar  
  8   5   9  1   
  9   5  27  1   
 10   5  28  1   
 11   6  10  1   
 12   6  29  1   
 13   6  30  1   
 14   7  11  ar  
 15   7  31  1   
 16   8  12  ar  
 17   8  32  1   
 18   9  13  1   
 19   9  33  1   
 20   9  34  1   
 21  10  13  1   
 22  10  35  1   
 23  10  36  1   
 24  11  14  ar  
 25  12  14  ar  
 26  12  37  1   
 27  14  15  1   
 28  15  16  1   
 29  15  17  1   
 30  16  18  1   
 31  16  38  1   
 32  16  39  1   
 33  17  19  1   
 34  17  40  1   
 35  17  41  1   
 36  18  20  1   
 37  18  21  2   
 38  19  21  1   
 39  19  42  1   
 40  19  43  1   
 41  20  22  2   
 42  20  23  1   
 43  21  24  1   
 44  22  24  1   
 45  23  25  1   
 46  23  26  1   
 47  23  44  1   
 48  24  45  1   
 49  25  26  1   
 50  25  46  1   
 51  25  47  1   
 52  26  48  1   
 53  26  49  1   
@<TRIPOS>SUBSTRUCTURE
  1 ****  14 GROUP 4 **** **** 0

# MOE 2024.06 (io_trps.svl 2023.06)
