@<TRIPOS>MOLECULE
NONAME
47 50 1 0 0 
SMALL
USER_CHARGES


@<TRIPOS>ATOM
  1 S       -0.5100    -0.8760    -0.7380 S.o2  1 <1>   1.4470 
  2 O       -0.3130    -0.4240    -2.1000 O.2   1 <1>  -0.6500 
  3 O       -1.3880    -1.9980    -0.4790 O.2   1 <1>  -0.6500 
  4 N       -1.0460     0.4420     0.1890 N.am  1 <1>  -0.8490 
  5 C        1.0980    -1.2270     0.0200 C.ar  1 <1>  -0.0090 
  6 C       -2.4430     0.4350     0.6660 C.3   1 <1>   0.1960 
  7 C       -0.5600     1.7640    -0.2060 C.3   1 <1>   0.1960 
  8 C        2.2750    -0.7770    -0.5490 C.ar  1 <1>  -0.1500 
  9 C        1.1690    -1.9430     1.2290 C.ar  1 <1>  -0.1500 
 10 C       -3.4560     1.1140    -0.3010 C.3   1 <1>   0.0000 
 11 C       -1.4940     2.4350    -1.2220 C.3   1 <1>  -0.1600 
 12 C        3.4960    -1.0320     0.0670 C.ar  1 <1>   0.2270 
 13 C        2.3690    -2.2080     1.8510 C.ar  1 <1>  -0.1500 
 14 C       -4.8510     1.2040     0.3490 C.3   1 <1>   0.2000 
 15 C       -2.9350     2.5100    -0.6960 C.3   1 <1>  -0.1600 
 16 C       -3.7700     0.2420    -1.5300 C.3   1 <1>  -0.1600 
 17 N        4.7520    -0.6760    -0.3210 N.2   1 <1>  -0.5650 
 18 C        3.5380    -1.7410     1.2520 C.ar  1 <1>  -0.1520 
 19 O       -4.7730     1.5430     1.7010 O.3   1 <1>  -0.5600 
 20 C       -5.4900    -0.1760     0.1560 C.3   1 <1>  -0.1600 
 21 C       -4.7690    -0.8090    -1.0410 C.3   1 <1>  -0.1600 
 22 C        5.5150    -1.1590     0.5970 C.2   1 <1>   0.0360 
 23 N        4.8520    -1.8170     1.5800 N.pl3 1 <1>   0.0330 
 24 C       -5.9760     1.9470     2.2760 C.3   1 <1>   0.0400 
 25 H       -2.7580    -0.5660     0.9000 H     1 <1>   0.0800 
 26 H       -2.4510     0.9780     1.5950 H     1 <1>   0.0800 
 27 H       -0.5040     2.3820     0.6740 H     1 <1>   0.0800 
 28 H        0.4350     1.6870    -0.6140 H     1 <1>   0.0800 
 29 H        2.2770    -0.2240    -1.4720 H     1 <1>   0.1500 
 30 H        0.2480    -2.2880     1.6710 H     1 <1>   0.1500 
 31 H       -1.1350     3.4290    -1.4200 H     1 <1>   0.0800 
 32 H       -1.4660     1.8940    -2.1510 H     1 <1>   0.0800 
 33 H        2.4080    -2.7590     2.7750 H     1 <1>   0.1500 
 34 H       -5.4310     1.9510    -0.1680 H     1 <1>   0.0800 
 35 H       -3.5710     2.9550    -1.4410 H     1 <1>   0.0800 
 36 H       -2.9540     3.1460     0.1730 H     1 <1>   0.0800 
 37 H       -4.2510     0.8440    -2.2820 H     1 <1>   0.0800 
 38 H       -2.9070    -0.2080    -1.9780 H     1 <1>   0.0800 
 39 H       -5.3390    -0.7860     1.0300 H     1 <1>   0.0800 
 40 H       -6.5430    -0.0780    -0.0410 H     1 <1>   0.0800 
 41 H       -4.2380    -1.6910    -0.7210 H     1 <1>   0.0800 
 42 H       -5.4560    -1.0850    -1.8230 H     1 <1>   0.0800 
 43 H        6.5870    -1.0620     0.6050 H     1 <1>   0.1500 
 44 H        5.2540    -2.2760     2.4010 H     1 <1>   0.2700 
 45 H       -5.7860     2.1980     3.3050 H     1 <1>   0.0800 
 46 H       -6.6870     1.1400     2.2270 H     1 <1>   0.0800 
 47 H       -6.3470     2.8120     1.7550 H     1 <1>   0.0800 
@<TRIPOS>BOND
  1   1   2  2   
  2   1   3  2   
  3   1   4  am  
  4   1   5  1   
  5   4   6  1   
  6   4   7  1   
  7   5   8  ar  
  8   5   9  ar  
  9   6  10  1   
 10   6  25  1   
 11   6  26  1   
 12   7  11  1   
 13   7  27  1   
 14   7  28  1   
 15   8  12  ar  
 16   8  29  1   
 17   9  13  ar  
 18   9  30  1   
 19  10  14  1   
 20  10  15  1   
 21  10  16  1   
 22  11  15  1   
 23  11  31  1   
 24  11  32  1   
 25  12  17  1   
 26  12  18  ar  
 27  13  18  ar  
 28  13  33  1   
 29  14  19  1   
 30  14  20  1   
 31  14  34  1   
 32  15  35  1   
 33  15  36  1   
 34  16  21  1   
 35  16  37  1   
 36  16  38  1   
 37  17  22  2   
 38  18  23  1   
 39  19  24  1   
 40  20  21  1   
 41  20  39  1   
 42  20  40  1   
 43  21  41  1   
 44  21  42  1   
 45  22  23  1   
 46  22  43  1   
 47  23  44  1   
 48  24  45  1   
 49  24  46  1   
 50  24  47  1   
@<TRIPOS>SUBSTRUCTURE
  1 ****   4 GROUP 4 **** **** 0

# MOE 2024.06 (io_trps.svl 2023.06)
