@<TRIPOS>MOLECULE
NONAME
47 49 1 0 0 
SMALL
USER_CHARGES


@<TRIPOS>ATOM
  1 S        0.5200    -0.1350    -0.3770 S.o2  1 <1>   1.3330 
  2 O        1.8770    -0.0220     0.1070 O.2   1 <1>  -0.6500 
  3 O        0.2760    -0.3000    -1.7920 O.2   1 <1>  -0.6500 
  4 N       -0.2200    -1.4240     0.4430 N.am  1 <1>  -0.8490 
  5 C       -0.4210     1.2880     0.1700 C.3   1 <1>  -0.0550 
  6 C       -0.0660    -2.6940    -0.2720 C.3   1 <1>   0.1160 
  7 C        0.2410    -1.5730     1.8280 C.3   1 <1>   0.1160 
  8 C       -0.0130     2.5980    -0.5360 C.3   1 <1>  -0.0800 
  9 C       -0.9160     3.7910    -0.2100 C.3   1 <1>   0.2000 
 10 C        1.4050     3.0860    -0.2000 C.3   1 <1>   0.1400 
 11 O       -1.1430     3.8280     1.1580 O.3   1 <1>  -0.6800 
 12 C       -0.0570     4.9960    -0.5810 C.3   1 <1>   0.1400 
 13 N        1.3230     4.5710    -0.2320 N.am  1 <1>  -0.6600 
 14 C        2.3750     5.3910     0.1110 C.2   1 <1>   0.6160 
 15 O        3.3600     4.8690     0.6000 O.2   1 <1>  -0.5700 
 16 C        2.3360     6.8210     0.0190 C.2   1 <1>   0.0290 
 17 C        1.9630     7.4690    -1.1990 C.2   1 <1>   0.7670 
 18 C        2.6770     7.6190     1.0720 C.2   1 <1>  -0.0500 
 19 O        1.6980     6.8490    -2.2160 O.2   1 <1>  -0.5700 
 20 N        1.8810     8.8380    -1.2790 N.2   1 <1>  -0.6610 
 21 N        2.6030     8.9700     0.9230 N.pl3 1 <1>  -0.5500 
 22 C        2.1980     9.5320    -0.2530 C.2   1 <1>   0.5000 
 23 C        2.1290    11.0540    -0.3170 C.3   1 <1>  -0.1000 
 24 C        3.1290    11.9300     0.3790 C.3   1 <1>  -0.2000 
 25 C        1.7080    11.8890     0.8580 C.3   1 <1>  -0.2000 
 26 H       -1.4590     1.1060    -0.0290 H     1 <1>   0.0800 
 27 H       -0.3100     1.4000     1.2300 H     1 <1>   0.0800 
 28 H       -0.5590    -3.4870     0.2640 H     1 <1>   0.0800 
 29 H        0.9780    -2.9370    -0.3840 H     1 <1>   0.0800 
 30 H       -0.5110    -2.6230    -1.2500 H     1 <1>   0.0800 
 31 H       -0.3190    -2.3490     2.3220 H     1 <1>   0.0800 
 32 H        0.0970    -0.6540     2.3700 H     1 <1>   0.0800 
 33 H        1.2890    -1.8280     1.8520 H     1 <1>   0.0800 
 34 H       -0.0560     2.4390    -1.6000 H     1 <1>   0.0800 
 35 H       -1.8640     3.7690    -0.7200 H     1 <1>   0.0800 
 36 H        2.1250     2.7320    -0.9190 H     1 <1>   0.0800 
 37 H        1.7060     2.7690     0.7840 H     1 <1>   0.0800 
 38 H       -0.2940     4.0170     1.6080 H     1 <1>   0.4000 
 39 H       -0.3610     5.8830    -0.0520 H     1 <1>   0.0800 
 40 H       -0.1160     5.1680    -1.6420 H     1 <1>   0.0800 
 41 H        3.0040     7.2110     2.0160 H     1 <1>   0.1500 
 42 H        2.8530     9.6140     1.6800 H     1 <1>   0.4000 
 43 H        1.7940    11.3830    -1.2860 H     1 <1>   0.1000 
 44 H        3.9000    11.4820     0.9810 H     1 <1>   0.1000 
 45 H        3.4770    12.8100    -0.1350 H     1 <1>   0.1000 
 46 H        1.0750    12.7400     0.6740 H     1 <1>   0.1000 
 47 H        1.4830    11.4120     1.7960 H     1 <1>   0.1000 
@<TRIPOS>BOND
  1   1   2  2   
  2   1   3  2   
  3   1   4  am  
  4   1   5  1   
  5   4   6  1   
  6   4   7  1   
  7   5   8  1   
  8   5  26  1   
  9   5  27  1   
 10   6  28  1   
 11   6  29  1   
 12   6  30  1   
 13   7  31  1   
 14   7  32  1   
 15   7  33  1   
 16   8   9  1   
 17   8  10  1   
 18   8  34  1   
 19   9  11  1   
 20   9  12  1   
 21   9  35  1   
 22  10  13  1   
 23  10  36  1   
 24  10  37  1   
 25  11  38  1   
 26  12  13  1   
 27  12  39  1   
 28  12  40  1   
 29  13  14  am  
 30  14  15  2   
 31  14  16  1   
 32  16  17  1   
 33  16  18  2   
 34  17  19  2   
 35  17  20  1   
 36  18  21  1   
 37  18  41  1   
 38  20  22  2   
 39  21  22  1   
 40  21  42  1   
 41  22  23  1   
 42  23  24  1   
 43  23  25  1   
 44  23  43  1   
 45  24  25  1   
 46  24  44  1   
 47  24  45  1   
 48  25  46  1   
 49  25  47  1   
@<TRIPOS>SUBSTRUCTURE
  1 ****  13 GROUP 4 **** **** 0

# MOE 2024.06 (io_trps.svl 2023.06)
