@<TRIPOS>MOLECULE
NONAME
40 42 1 0 0 
SMALL
USER_CHARGES


@<TRIPOS>ATOM
  1 CL       1.5120    -2.2450     3.7610 Cl    1 <1>  -0.1770 
  2 C        2.1720    -1.9810     2.1560 C.ar  1 <1>   0.1770 
  3 C        1.8290    -2.8070     1.0930 C.ar  1 <1>   0.4100 
  4 C        3.0430    -0.9520     1.9250 C.ar  1 <1>   0.1600 
  5 N        2.3430    -2.5960    -0.1060 N.ar  1 <1>  -0.6200 
  6 N        0.9580    -3.8620     1.2480 N.pl3 1 <1>  -0.8690 
  7 N        3.5600    -0.7330     0.7280 N.ar  1 <1>  -0.6200 
  8 C        3.1740    -1.5750    -0.2170 C.ar  1 <1>   0.4770 
  9 C        0.6950    -4.9060     0.2430 C.3   1 <1>   0.2890 
 10 C        3.7540    -1.3340    -1.5900 C.3   1 <1>  -0.0970 
 11 C       -0.7720    -5.3120     0.3350 C.3   1 <1>  -0.1600 
 12 C        1.6100    -6.0950     0.5150 C.3   1 <1>  -0.1600 
 13 C       -1.0750    -6.4400    -0.6490 C.3   1 <1>   0.2090 
 14 C        1.3050    -7.2430    -0.4460 C.3   1 <1>   0.2090 
 15 N       -0.1470    -7.5780    -0.4120 N.pl3 1 <1>  -0.8380 
 16 C       -0.5840    -8.6740     0.3150 C.ar  1 <1>   0.4100 
 17 N       -0.0640    -8.7910     1.5350 N.ar  1 <1>  -0.6200 
 18 C       -1.5130    -9.5830    -0.2170 C.ar  1 <1>   0.0730 
 19 C       -0.4690    -9.8180     2.2560 C.ar  1 <1>   0.1600 
 20 C       -2.0310    -9.4220    -1.5400 C.1   1 <1>   0.4840 
 21 C       -1.9180   -10.6500     0.5640 C.ar  1 <1>  -0.1500 
 22 C       -1.3810   -10.7640     1.8280 C.ar  1 <1>  -0.1500 
 23 N       -2.4890    -9.3150    -2.5800 N.1   1 <1>  -0.5570 
 24 H        3.3250    -0.2970     2.7300 H     1 <1>   0.1500 
 25 H        0.6850    -4.1140     2.2020 H     1 <1>   0.4000 
 26 H        0.8900    -4.5250    -0.7460 H     1 <1>   0.0800 
 27 H        3.6160    -2.1970    -2.2140 H     1 <1>   0.0800 
 28 H        4.8050    -1.1270    -1.5090 H     1 <1>   0.0800 
 29 H        3.2620    -0.4920    -2.0390 H     1 <1>   0.0800 
 30 H       -1.3930    -4.4660     0.1070 H     1 <1>   0.0800 
 31 H       -1.0000    -5.6530     1.3290 H     1 <1>   0.0800 
 32 H        1.4730    -6.4440     1.5230 H     1 <1>   0.0800 
 33 H        2.6350    -5.7950     0.3930 H     1 <1>   0.0800 
 34 H       -0.9560    -6.0930    -1.6620 H     1 <1>   0.0800 
 35 H       -2.0960    -6.7600    -0.5220 H     1 <1>   0.0800 
 36 H        1.8860    -8.1090    -0.1740 H     1 <1>   0.0800 
 37 H        1.5750    -6.9630    -1.4500 H     1 <1>   0.0800 
 38 H       -0.0500    -9.9120     3.2440 H     1 <1>   0.1500 
 39 H       -2.6300   -11.3710     0.1980 H     1 <1>   0.1500 
 40 H       -1.6630   -11.5750     2.4750 H     1 <1>   0.1500 
@<TRIPOS>BOND
  1   1   2  1   
  2   2   3  ar  
  3   2   4  ar  
  4   3   5  ar  
  5   3   6  1   
  6   4   7  ar  
  7   4  24  1   
  8   5   8  ar  
  9   6   9  1   
 10   6  25  1   
 11   7   8  ar  
 12   8  10  1   
 13   9  11  1   
 14   9  12  1   
 15   9  26  1   
 16  10  27  1   
 17  10  28  1   
 18  10  29  1   
 19  11  13  1   
 20  11  30  1   
 21  11  31  1   
 22  12  14  1   
 23  12  32  1   
 24  12  33  1   
 25  13  15  1   
 26  13  34  1   
 27  13  35  1   
 28  14  15  1   
 29  14  36  1   
 30  14  37  1   
 31  15  16  1   
 32  16  17  ar  
 33  16  18  ar  
 34  17  19  ar  
 35  18  20  1   
 36  18  21  ar  
 37  19  22  ar  
 38  19  38  1   
 39  20  23  3   
 40  21  22  ar  
 41  21  39  1   
 42  22  40  1   
@<TRIPOS>SUBSTRUCTURE
  1 ****   9 GROUP 4 **** **** 0

# MOE 2024.06 (io_trps.svl 2023.06)
