@<TRIPOS>MOLECULE
NONAME
52 55 1 0 0 
SMALL
USER_CHARGES


@<TRIPOS>ATOM
  1 S       -0.7050    -0.8620    -0.5980 S.o2  1 <1>   1.2040 
  2 O       -1.4570     0.1220    -1.3500 O.2   1 <1>  -0.6500 
  3 O       -0.4940    -2.1660    -1.1800 O.2   1 <1>  -0.6500 
  4 C        0.8160    -0.1690     0.0850 C.ar  1 <1>  -0.0090 
  5 C       -1.6950    -1.1720     0.8470 C.3   1 <1>  -0.0550 
  6 C        1.8730    -0.9930     0.4550 C.ar  1 <1>  -0.1500 
  7 C        0.9510     1.1990     0.2910 C.ar  1 <1>  -0.1500 
  8 C       -2.9860    -1.8680     0.4220 C.3   1 <1>   0.3430 
  9 C        3.0240    -0.4710     1.0190 C.ar  1 <1>  -0.1500 
 10 C        2.0990     1.7280     0.8540 C.ar  1 <1>  -0.1500 
 11 N       -3.8350    -1.0040    -0.4560 N.4   1 <1>  -0.9590 
 12 C        3.1360     0.8920     1.2210 C.ar  1 <1>  -0.1500 
 13 C       -4.5270     0.0990     0.2950 C.3   1 <1>   0.3430 
 14 C       -4.8100    -1.8210    -1.2360 C.3   1 <1>   0.3430 
 15 C       -5.2710     1.0540    -0.6520 C.3   1 <1>   0.1440 
 16 C       -5.5520    -0.9290    -2.2350 C.3   1 <1>  -0.1600 
 17 C       -6.0240     2.0580     0.1870 C.ar  1 <1>   0.1670 
 18 C       -6.2450     0.2630    -1.5500 C.3   1 <1>  -0.1600 
 19 C       -4.3220     1.9630    -1.4790 C.3   1 <1>  -0.1600 
 20 N       -6.7500     1.7520     1.2370 N.ar  1 <1>  -0.6200 
 21 C       -5.8450     3.3300    -0.2610 C.ar  1 <1>  -0.1430 
 22 C       -4.9450     3.3720    -1.4700 C.3   1 <1>  -0.0170 
 23 C       -7.3190     2.7990     1.8220 C.ar  1 <1>   0.4770 
 24 C       -6.4740     4.3390     0.4250 C.ar  1 <1>   0.1600 
 25 N       -7.2180     4.0760     1.4800 N.ar  1 <1>  -0.6200 
 26 C       -8.1780     2.5100     3.0300 C.3   1 <1>  -0.0970 
 27 H       -1.9090    -0.2620     1.3730 H     1 <1>   0.0800 
 28 H       -1.1600    -1.8230     1.5110 H     1 <1>   0.0800 
 29 H        1.8060    -2.0570     0.2970 H     1 <1>   0.1500 
 30 H        0.1570     1.8680     0.0040 H     1 <1>   0.1500 
 31 H       -3.5480    -2.1600     1.2950 H     1 <1>   0.0800 
 32 H       -2.7200    -2.7670    -0.1150 H     1 <1>   0.0800 
 33 H        3.8350    -1.1230     1.2980 H     1 <1>   0.1500 
 34 H        2.1910     2.7910     1.0050 H     1 <1>   0.1500 
 35 H       -3.2120    -0.5430    -1.1550 H     1 <1>   0.4500 
 36 H        4.0320     1.3010     1.6590 H     1 <1>   0.1500 
 37 H       -3.8150     0.6690     0.8670 H     1 <1>   0.0800 
 38 H       -5.2420    -0.3240     0.9820 H     1 <1>   0.0800 
 39 H       -5.5210    -2.2780    -0.5660 H     1 <1>   0.0800 
 40 H       -4.2940    -2.6030    -1.7710 H     1 <1>   0.0800 
 41 H       -6.2940    -1.5200    -2.7440 H     1 <1>   0.0800 
 42 H       -4.8600    -0.5830    -2.9830 H     1 <1>   0.0800 
 43 H       -6.6800     0.9150    -2.2890 H     1 <1>   0.0800 
 44 H       -7.0530    -0.1090    -0.9410 H     1 <1>   0.0800 
 45 H       -4.1650     1.6130    -2.4840 H     1 <1>   0.0800 
 46 H       -3.3640     2.0250    -0.9920 H     1 <1>   0.0800 
 47 H       -5.5360     3.5360    -2.3550 H     1 <1>   0.0800 
 48 H       -4.1940     4.1400    -1.3860 H     1 <1>   0.0800 
 49 H       -6.3710     5.3650     0.1150 H     1 <1>   0.1500 
 50 H       -8.4820     1.4800     3.0380 H     1 <1>   0.0800 
 51 H       -9.0540     3.1300     3.0080 H     1 <1>   0.0800 
 52 H       -7.6200     2.7220     3.9220 H     1 <1>   0.0800 
@<TRIPOS>BOND
  1   1   2  2   
  2   1   3  2   
  3   1   4  1   
  4   1   5  1   
  5   4   6  ar  
  6   4   7  ar  
  7   5   8  1   
  8   5  27  1   
  9   5  28  1   
 10   6   9  ar  
 11   6  29  1   
 12   7  10  ar  
 13   7  30  1   
 14   8  11  1   
 15   8  31  1   
 16   8  32  1   
 17   9  12  ar  
 18   9  33  1   
 19  10  12  ar  
 20  10  34  1   
 21  11  13  1   
 22  11  14  1   
 23  11  35  1   
 24  12  36  1   
 25  13  15  1   
 26  13  37  1   
 27  13  38  1   
 28  14  16  1   
 29  14  39  1   
 30  14  40  1   
 31  15  17  1   
 32  15  18  1   
 33  15  19  1   
 34  16  18  1   
 35  16  41  1   
 36  16  42  1   
 37  17  20  ar  
 38  17  21  ar  
 39  18  43  1   
 40  18  44  1   
 41  19  22  1   
 42  19  45  1   
 43  19  46  1   
 44  20  23  ar  
 45  21  22  1   
 46  21  24  ar  
 47  22  47  1   
 48  22  48  1   
 49  23  25  ar  
 50  23  26  1   
 51  24  25  ar  
 52  24  49  1   
 53  26  50  1   
 54  26  51  1   
 55  26  52  1   
@<TRIPOS>SUBSTRUCTURE
  1 ****  13 GROUP 4 **** **** 0

# MOE 2024.06 (io_trps.svl 2023.06)
