@<TRIPOS>MOLECULE
NONAME
40 41 1 0 0 
SMALL
USER_CHARGES


@<TRIPOS>ATOM
  1 F        0.6470     1.8780     0.4510 F     1 <1>  -0.3400 
  2 C        1.8320     1.3600     0.7420 C.3   1 <1>   1.0200 
  3 F        2.1060     1.7210     1.9890 F     1 <1>  -0.3400 
  4 F        1.6780     0.0440     0.7590 F     1 <1>  -0.3400 
  5 C        2.9310     1.8030    -0.2550 C.3   1 <1>  -0.0800 
  6 C        4.3020     1.1470     0.0430 C.3   1 <1>  -0.1600 
  7 C        3.0830     3.3420    -0.3250 C.3   1 <1>  -0.1600 
  8 C        5.3880     1.6280    -0.9220 C.3   1 <1>   0.2090 
  9 C        4.2050     3.7650    -1.2760 C.3   1 <1>   0.2090 
 10 N        5.4820     3.1160    -0.8340 N.pl3 1 <1>  -0.8380 
 11 C        6.5370     3.8560    -0.3840 C.ar  1 <1>   0.7710 
 12 N        6.4450     5.1750    -0.3610 N.ar  1 <1>  -0.6200 
 13 N        7.6500     3.2300     0.0330 N.ar  1 <1>  -0.1790 
 14 C        7.4750     5.8830     0.0620 C.ar  1 <1>   0.4100 
 15 C        8.7180     3.9110     0.5100 C.ar  1 <1>   0.2110 
 16 N        7.3360     7.2320     0.0140 N.pl3 1 <1>  -0.8380 
 17 C        8.6570     5.2640     0.5430 C.ar  1 <1>  -0.1430 
 18 C        8.2610     8.1080    -0.7550 C.3   1 <1>   0.1290 
 19 C        6.0520     7.8920     0.3900 C.3   1 <1>   0.1290 
 20 C        9.8150     6.0760     1.1210 C.3   1 <1>  -0.0970 
 21 H        2.6090     1.4640    -1.2240 H     1 <1>   0.0800 
 22 H        4.2140     0.0770    -0.0400 H     1 <1>   0.0800 
 23 H        4.6050     1.3710     1.0510 H     1 <1>   0.0800 
 24 H        3.2950     3.7420     0.6520 H     1 <1>   0.0800 
 25 H        2.1610     3.7850    -0.6620 H     1 <1>   0.0800 
 26 H        5.1240     1.3500    -1.9310 H     1 <1>   0.0800 
 27 H        6.3190     1.1460    -0.6860 H     1 <1>   0.0800 
 28 H        4.2710     4.8400    -1.2880 H     1 <1>   0.0800 
 29 H        3.9730     3.4510    -2.2800 H     1 <1>   0.0800 
 30 H        7.6300     2.2210    -0.0140 H     1 <1>   0.4570 
 31 H        9.5770     3.3580     0.8550 H     1 <1>   0.1500 
 32 H        8.9910     7.5170    -1.2800 H     1 <1>   0.0800 
 33 H        8.7650     8.7850    -0.0870 H     1 <1>   0.0800 
 34 H        7.7070     8.6790    -1.4810 H     1 <1>   0.0800 
 35 H        5.4610     7.2370     1.0060 H     1 <1>   0.0800 
 36 H        5.4920     8.1330    -0.4970 H     1 <1>   0.0800 
 37 H        6.2510     8.7950     0.9410 H     1 <1>   0.0800 
 38 H        9.4370     6.8410     1.7780 H     1 <1>   0.0800 
 39 H       10.3760     6.5460     0.3330 H     1 <1>   0.0800 
 40 H       10.4850     5.4540     1.6870 H     1 <1>   0.0800 
@<TRIPOS>BOND
  1   1   2  1   
  2   2   3  1   
  3   2   4  1   
  4   2   5  1   
  5   5   6  1   
  6   5   7  1   
  7   5  21  1   
  8   6   8  1   
  9   6  22  1   
 10   6  23  1   
 11   7   9  1   
 12   7  24  1   
 13   7  25  1   
 14   8  10  1   
 15   8  26  1   
 16   8  27  1   
 17   9  10  1   
 18   9  28  1   
 19   9  29  1   
 20  10  11  1   
 21  11  12  ar  
 22  11  13  ar  
 23  12  14  ar  
 24  13  15  ar  
 25  13  30  1   
 26  14  16  1   
 27  14  17  ar  
 28  15  17  ar  
 29  15  31  1   
 30  16  18  1   
 31  16  19  1   
 32  17  20  1   
 33  18  32  1   
 34  18  33  1   
 35  18  34  1   
 36  19  35  1   
 37  19  36  1   
 38  19  37  1   
 39  20  38  1   
 40  20  39  1   
 41  20  40  1   
@<TRIPOS>SUBSTRUCTURE
  1 ****  10 GROUP 4 **** **** 0

# MOE 2024.06 (io_trps.svl 2023.06)
