@<TRIPOS>MOLECULE
NONAME
49 51 1 0 0 
SMALL
USER_CHARGES


@<TRIPOS>ATOM
  1 CL      -0.6210    -0.8900    -2.7340 Cl    1 <1>  -0.1770 
  2 C       -0.4990    -2.1840    -1.5600 C.ar  1 <1>   0.1770 
  3 C        0.6460    -2.3340    -0.7850 C.ar  1 <1>   0.0830 
  4 C       -1.5660    -3.0490    -1.4270 C.ar  1 <1>  -0.1500 
  5 O        1.7070    -1.5000    -0.9000 O.3   1 <1>  -0.3630 
  6 C        0.7130    -3.3790     0.1220 C.ar  1 <1>  -0.1500 
  7 C       -1.5110    -4.0950    -0.5130 C.ar  1 <1>   0.1170 
  8 C        1.6010    -0.2710    -0.2190 C.3   1 <1>   0.0400 
  9 C       -0.3590    -4.2450     0.2580 C.ar  1 <1>  -0.1500 
 10 N       -2.6230    -4.9430    -0.3940 N.am  1 <1>  -0.5470 
 11 C       -2.7450    -6.2230     0.0630 C.2   1 <1>   0.6900 
 12 O       -1.7740    -6.8840     0.3810 O.2   1 <1>  -0.5700 
 13 N       -3.9960    -6.7650     0.1370 N.am  1 <1>  -0.6600 
 14 C       -5.2770    -6.0290     0.0490 C.3   1 <1>   0.1400 
 15 C       -4.2230    -8.1800     0.4950 C.3   1 <1>   0.1400 
 16 C       -6.3210    -6.9570     0.6870 C.3   1 <1>  -0.0800 
 17 C       -5.7420    -8.3720     0.4970 C.3   1 <1>  -0.0800 
 18 C       -7.7930    -6.7750     0.1990 C.3   1 <1>   0.2800 
 19 C       -6.2570    -9.0040    -0.8060 C.3   1 <1>  -0.1600 
 20 O       -7.8140    -6.2520    -1.0800 O.3   1 <1>  -0.6800 
 21 C       -8.5010    -8.1400     0.1240 C.3   1 <1>  -0.1600 
 22 C       -8.6020    -5.8100     1.0930 C.3   1 <1>  -0.1600 
 23 C       -7.7900    -9.1570    -0.7950 C.3   1 <1>  -0.1600 
 24 C       -8.0550    -4.3740     1.1890 C.3   1 <1>  -0.2400 
 25 H       -2.4350    -2.9080    -2.0400 H     1 <1>   0.1500 
 26 H        1.6000    -3.5100     0.7150 H     1 <1>   0.1500 
 27 H        2.5140     0.2770    -0.3710 H     1 <1>   0.0800 
 28 H        1.4580    -0.4660     0.8300 H     1 <1>   0.0800 
 29 H        0.7700     0.2830    -0.6150 H     1 <1>   0.0800 
 30 H       -0.2940    -5.0470     0.9720 H     1 <1>   0.1500 
 31 H       -3.4820    -4.6100    -0.8160 H     1 <1>   0.3700 
 32 H       -5.2190    -5.0910     0.5710 H     1 <1>   0.0800 
 33 H       -5.4830    -5.8520    -0.9920 H     1 <1>   0.0800 
 34 H       -3.7320    -8.8300    -0.2100 H     1 <1>   0.0800 
 35 H       -3.8200    -8.3580     1.4780 H     1 <1>   0.0800 
 36 H       -6.2990    -6.7720     1.7460 H     1 <1>   0.0800 
 37 H       -6.0170    -9.0100     1.3180 H     1 <1>   0.0800 
 38 H       -5.9760    -8.3710    -1.6320 H     1 <1>   0.0800 
 39 H       -5.7990    -9.9650    -0.9640 H     1 <1>   0.0800 
 40 H       -8.7310    -6.2460    -1.4080 H     1 <1>   0.4000 
 41 H       -8.5300    -8.5520     1.1180 H     1 <1>   0.0800 
 42 H       -9.5230    -8.0210    -0.1910 H     1 <1>   0.0800 
 43 H       -9.6140    -5.7660     0.7300 H     1 <1>   0.0800 
 44 H       -8.6490    -6.2190     2.0870 H     1 <1>   0.0800 
 45 H       -8.0500   -10.1510    -0.4750 H     1 <1>   0.0800 
 46 H       -8.1480    -9.0400    -1.8040 H     1 <1>   0.0800 
 47 H       -7.9480    -3.9400     0.2110 H     1 <1>   0.0800 
 48 H       -7.1020    -4.3590     1.6850 H     1 <1>   0.0800 
 49 H       -8.7350    -3.7640     1.7570 H     1 <1>   0.0800 
@<TRIPOS>BOND
  1   1   2  1   
  2   2   3  ar  
  3   2   4  ar  
  4   3   5  1   
  5   3   6  ar  
  6   4   7  ar  
  7   4  25  1   
  8   5   8  1   
  9   6   9  ar  
 10   6  26  1   
 11   7   9  ar  
 12   7  10  1   
 13   8  27  1   
 14   8  28  1   
 15   8  29  1   
 16   9  30  1   
 17  10  11  am  
 18  10  31  1   
 19  11  12  2   
 20  11  13  am  
 21  13  14  1   
 22  13  15  1   
 23  14  16  1   
 24  14  32  1   
 25  14  33  1   
 26  15  17  1   
 27  15  34  1   
 28  15  35  1   
 29  16  17  1   
 30  16  18  1   
 31  16  36  1   
 32  17  19  1   
 33  17  37  1   
 34  18  20  1   
 35  18  21  1   
 36  18  22  1   
 37  19  23  1   
 38  19  38  1   
 39  19  39  1   
 40  20  40  1   
 41  21  23  1   
 42  21  41  1   
 43  21  42  1   
 44  22  24  1   
 45  22  43  1   
 46  22  44  1   
 47  23  45  1   
 48  23  46  1   
 49  24  47  1   
 50  24  48  1   
 51  24  49  1   
@<TRIPOS>SUBSTRUCTURE
  1 ****  10 GROUP 4 **** **** 0

# MOE 2024.06 (io_trps.svl 2023.06)
