@<TRIPOS>MOLECULE
NONAME
50 53 1 0 0 
SMALL
USER_CHARGES


@<TRIPOS>ATOM
  1 O       -0.0540    -0.2330    -0.3440 O.2   1 <1>  -0.5700 
  2 C        0.4480    -1.3230    -0.2590 C.2   1 <1>   0.5950 
  3 C        1.8400    -1.5800    -0.0370 C.2   1 <1>  -0.0860 
  4 C       -0.4300    -2.5580    -0.4310 C.3   1 <1>  -0.0990 
  5 C        2.9120    -0.7370     0.3430 C.2   1 <1>  -0.0860 
  6 C        2.3960    -2.8050    -0.1900 C.2   1 <1>  -0.0400 
  7 C        0.2880    -3.7000    -1.1920 C.3   1 <1>  -0.1600 
  8 C        4.0030    -1.5520     0.3610 C.2   1 <1>  -0.0400 
  9 C        2.8260     0.6650     0.6480 C.2   1 <1>   0.7160 
 10 O        3.6800    -2.7830     0.0440 O.3   1 <1>  -0.2800 
 11 C        1.6580    -4.0670    -0.5820 C.3   1 <1>   0.0200 
 12 C        5.4520    -1.2570     0.6940 C.3   1 <1>  -0.0600 
 13 O        2.1340     1.0570     1.5700 O.2   1 <1>  -0.5700 
 14 N        3.5910     1.5230    -0.0830 N.am  1 <1>  -0.4930 
 15 C        3.8790     2.8900     0.1380 C.2   1 <1>   0.0630 
 16 C        5.1690     3.4280     0.0740 C.2   1 <1>   0.3720 
 17 C        3.0750     3.9380     0.4180 C.2   1 <1>  -0.3320 
 18 N        5.1860     4.7030     0.3080 N.2   1 <1>  -0.7070 
 19 N        6.3250     2.6730    -0.2100 N.pl3 1 <1>  -0.8210 
 20 N        3.8890     5.0170     0.5300 N.pl3 1 <1>   0.3140 
 21 C        1.5610     3.9770     0.5770 C.3   1 <1>  -0.0600 
 22 C        7.0830     3.2250    -1.3680 C.3   1 <1>   0.2090 
 23 C        7.2450     2.6300     0.9600 C.3   1 <1>   0.2090 
 24 C        3.4910     6.3940     0.8470 C.3   1 <1>   0.0160 
 25 C        8.4400     3.6610    -0.8330 C.3   1 <1>  -0.1600 
 26 C        8.6480     2.7930     0.3960 C.3   1 <1>  -0.1600 
 27 H       -1.3230    -2.2780    -0.9610 H     1 <1>   0.0800 
 28 H       -0.7200    -2.8990     0.5460 H     1 <1>   0.0800 
 29 H        0.4480    -3.3770    -2.2070 H     1 <1>   0.0800 
 30 H       -0.3400    -4.5740    -1.2240 H     1 <1>   0.0800 
 31 H        1.5260    -4.6760     0.2960 H     1 <1>   0.0800 
 32 H        2.2400    -4.6230    -1.2960 H     1 <1>   0.0800 
 33 H        5.5790    -0.2280     0.9790 H     1 <1>   0.0800 
 34 H        6.0710    -1.4610    -0.1610 H     1 <1>   0.0800 
 35 H        5.7680    -1.8820     1.5090 H     1 <1>   0.0800 
 36 H        4.2950     1.0770    -0.6670 H     1 <1>   0.3700 
 37 H        1.1250     3.0520     0.2450 H     1 <1>   0.0800 
 38 H        1.1390     4.7730    -0.0090 H     1 <1>   0.0800 
 39 H        1.3040     4.1190     1.6110 H     1 <1>   0.0800 
 40 H        6.5670     4.0510    -1.8300 H     1 <1>   0.0800 
 41 H        7.2080     2.4430    -2.0970 H     1 <1>   0.0800 
 42 H        7.1420     1.6970     1.4850 H     1 <1>   0.0800 
 43 H        7.0290     3.4400     1.6380 H     1 <1>   0.0800 
 44 H        2.8990     6.3920     1.7430 H     1 <1>   0.0800 
 45 H        2.9230     6.7920     0.0290 H     1 <1>   0.0800 
 46 H        4.3730     6.9880     0.9990 H     1 <1>   0.0800 
 47 H        8.3770     4.6960    -0.5440 H     1 <1>   0.0800 
 48 H        9.2190     3.5420    -1.5640 H     1 <1>   0.0800 
 49 H        9.0280     1.8280     0.1100 H     1 <1>   0.0800 
 50 H        9.3150     3.2430     1.1100 H     1 <1>   0.0800 
@<TRIPOS>BOND
  1   1   2  2   
  2   2   3  1   
  3   2   4  1   
  4   3   5  1   
  5   3   6  2   
  6   4   7  1   
  7   4  27  1   
  8   4  28  1   
  9   5   8  2   
 10   5   9  1   
 11   6  10  1   
 12   6  11  1   
 13   7  11  1   
 14   7  29  1   
 15   7  30  1   
 16   8  10  1   
 17   8  12  1   
 18   9  13  2   
 19   9  14  am  
 20  11  31  1   
 21  11  32  1   
 22  12  33  1   
 23  12  34  1   
 24  12  35  1   
 25  14  15  1   
 26  14  36  1   
 27  15  16  1   
 28  15  17  2   
 29  16  18  2   
 30  16  19  1   
 31  17  20  1   
 32  17  21  1   
 33  18  20  1   
 34  19  22  1   
 35  19  23  1   
 36  20  24  1   
 37  21  37  1   
 38  21  38  1   
 39  21  39  1   
 40  22  25  1   
 41  22  40  1   
 42  22  41  1   
 43  23  26  1   
 44  23  42  1   
 45  23  43  1   
 46  24  44  1   
 47  24  45  1   
 48  24  46  1   
 49  25  26  1   
 50  25  47  1   
 51  25  48  1   
 52  26  49  1   
 53  26  50  1   
@<TRIPOS>SUBSTRUCTURE
  1 ****  14 GROUP 4 **** **** 0

# MOE 2024.06 (io_trps.svl 2023.06)
