@<TRIPOS>MOLECULE
NONAME
46 49 1 0 0 
SMALL
USER_CHARGES


@<TRIPOS>ATOM
  1 O       -0.2850     0.2630     0.5070 O.2   1 <1>  -0.5700 
  2 C       -1.3310     0.8830     0.5500 C.2   1 <1>   0.5440 
  3 N       -2.5140     0.1830     0.4620 N.am  1 <1>  -0.6600 
  4 C       -1.3100     2.3270     0.6760 C.ar  1 <1>   0.0860 
  5 C       -3.8080     0.7660     0.0260 C.3   1 <1>   0.1400 
  6 C       -2.5460    -1.2970     0.3490 C.3   1 <1>   0.1400 
  7 C       -0.4850     3.1000    -0.1420 C.ar  1 <1>  -0.1500 
  8 C       -2.1020     2.9940     1.6150 C.ar  1 <1>  -0.1500 
  9 C       -4.5590    -0.3950    -0.6220 C.3   1 <1>   0.2000 
 10 C       -4.0020    -1.6500     0.0440 C.3   1 <1>  -0.0800 
 11 C       -0.4660     4.4780    -0.0420 C.ar  1 <1>   0.0830 
 12 C       -2.0940     4.3740     1.7210 C.ar  1 <1>  -0.1500 
 13 O       -5.9250    -0.3040    -0.4110 O.3   1 <1>  -0.6800 
 14 C       -4.1610    -2.9140    -0.8140 C.3   1 <1>   0.0210 
 15 O        0.3610     5.1850    -0.8530 O.3   1 <1>  -0.3630 
 16 C       -1.2840     5.1230     0.8870 C.ar  1 <1>   0.0830 
 17 C       -3.5110    -4.1080    -0.1430 C.2   1 <1>   0.1080 
 18 C        0.6130     6.5300    -0.4920 C.3   1 <1>   0.1200 
 19 O       -1.3040     6.4730     0.9900 O.3   1 <1>  -0.3630 
 20 N       -3.9200    -4.5850     0.9910 N.2   1 <1>  -0.7070 
 21 C       -2.4180    -4.8070    -0.6440 C.2   1 <1>  -0.1500 
 22 C       -0.6880     7.2130    -0.0480 C.3   1 <1>   0.1200 
 23 N       -3.0910    -5.6150     1.2460 N.pl3 1 <1>   0.3000 
 24 C       -2.1710    -5.7680     0.2700 C.2   1 <1>  -0.3320 
 25 C       -1.0960    -6.8390     0.2720 C.3   1 <1>  -0.0600 
 26 H       -4.3400     1.1280     0.8880 H     1 <1>   0.0800 
 27 H       -3.6520     1.5640    -0.6800 H     1 <1>   0.0800 
 28 H       -1.8960    -1.6020    -0.4540 H     1 <1>   0.0800 
 29 H       -2.2140    -1.7570     1.2650 H     1 <1>   0.0800 
 30 H        0.1510     2.6140    -0.8590 H     1 <1>   0.1500 
 31 H       -2.7260     2.4150     2.2730 H     1 <1>   0.1500 
 32 H       -4.3770    -0.3970    -1.6830 H     1 <1>   0.0800 
 33 H       -4.4920    -1.8050     0.9900 H     1 <1>   0.0800 
 34 H       -2.7110     4.8760     2.4450 H     1 <1>   0.1500 
 35 H       -6.1330    -0.4730     0.5290 H     1 <1>   0.4000 
 36 H       -3.7180    -2.7640    -1.7820 H     1 <1>   0.0800 
 37 H       -5.2060    -3.1250    -0.9530 H     1 <1>   0.0800 
 38 H        1.3300     6.5330     0.3100 H     1 <1>   0.0800 
 39 H        1.0360     7.0290    -1.3460 H     1 <1>   0.0800 
 40 H       -1.8990    -4.6020    -1.5630 H     1 <1>   0.1500 
 41 H       -1.3790     7.2710    -0.8710 H     1 <1>   0.0800 
 42 H       -0.4940     8.2030     0.3210 H     1 <1>   0.0800 
 43 H       -3.1790    -6.1910     2.0910 H     1 <1>   0.2700 
 44 H       -0.4870    -6.7530    -0.6110 H     1 <1>   0.0800 
 45 H       -1.5440    -7.8160     0.2860 H     1 <1>   0.0800 
 46 H       -0.4630    -6.7290     1.1350 H     1 <1>   0.0800 
@<TRIPOS>BOND
  1   1   2  2   
  2   2   3  am  
  3   2   4  1   
  4   3   5  1   
  5   3   6  1   
  6   4   7  ar  
  7   4   8  ar  
  8   5   9  1   
  9   5  26  1   
 10   5  27  1   
 11   6  10  1   
 12   6  28  1   
 13   6  29  1   
 14   7  11  ar  
 15   7  30  1   
 16   8  12  ar  
 17   8  31  1   
 18   9  10  1   
 19   9  13  1   
 20   9  32  1   
 21  10  14  1   
 22  10  33  1   
 23  11  15  1   
 24  11  16  ar  
 25  12  16  ar  
 26  12  34  1   
 27  13  35  1   
 28  14  17  1   
 29  14  36  1   
 30  14  37  1   
 31  15  18  1   
 32  16  19  1   
 33  17  20  2   
 34  17  21  1   
 35  18  22  1   
 36  18  38  1   
 37  18  39  1   
 38  19  22  1   
 39  20  23  1   
 40  21  24  2   
 41  21  40  1   
 42  22  41  1   
 43  22  42  1   
 44  23  24  1   
 45  23  43  1   
 46  24  25  1   
 47  25  44  1   
 48  25  45  1   
 49  25  46  1   
@<TRIPOS>SUBSTRUCTURE
  1 ****   3 GROUP 4 **** **** 0

# MOE 2024.06 (io_trps.svl 2023.06)
