@<TRIPOS>MOLECULE
NONAME
48 50 1 0 0 
SMALL
USER_CHARGES


@<TRIPOS>ATOM
  1 S        0.0130    -0.1010     0.3980 S.o2  1 <1>   1.3330 
  2 O       -0.7300     1.1380     0.4120 O.2   1 <1>  -0.6500 
  3 O        0.2400    -0.8130     1.6360 O.2   1 <1>  -0.6500 
  4 N       -0.7380    -1.1660    -0.6890 N.am  1 <1>  -0.8490 
  5 C        1.5880     0.2200    -0.3990 C.3   1 <1>  -0.0550 
  6 C       -2.1980    -1.0300    -0.6850 C.3   1 <1>   0.1160 
  7 C       -0.3670    -2.5700    -0.4810 C.3   1 <1>   0.1160 
  8 C        2.4290     1.2870     0.3270 C.3   1 <1>  -0.0800 
  9 C        3.6670     1.6580    -0.4770 C.3   1 <1>   0.2200 
 10 C        3.0080     0.7740     1.6570 C.3   1 <1>   0.1200 
 11 N        3.9930     3.0740    -0.2070 N.am  1 <1>  -0.7300 
 12 C        4.7280     0.7700     0.1540 C.3   1 <1>   0.1200 
 13 O        4.3960     0.7310     1.5040 O.3   1 <1>  -0.5600 
 14 C        4.0310     4.0720    -1.1370 C.2   1 <1>   0.5440 
 15 O        3.8890     3.7780    -2.3060 O.2   1 <1>  -0.5700 
 16 C        4.2410     5.4450    -0.7500 C.ar  1 <1>   0.0860 
 17 C        4.7530     6.3860    -1.6220 C.ar  1 <1>   0.1600 
 18 C        3.9420     5.9240     0.5090 C.ar  1 <1>   0.1600 
 19 N        4.9620     7.6400    -1.2910 N.ar  1 <1>  -0.6200 
 20 N        4.1390     7.1670     0.8740 N.ar  1 <1>  -0.6200 
 21 C        4.6370     8.0110    -0.0430 C.ar  1 <1>   0.6200 
 22 C        4.8560     9.4110     0.3330 C.ar  1 <1>   0.3100 
 23 N        3.9580    10.0500     1.1060 N.ar  1 <1>  -0.6200 
 24 C        6.0040    10.0700    -0.1230 C.ar  1 <1>  -0.1500 
 25 C        4.2080    11.3080     1.4140 C.ar  1 <1>   0.1600 
 26 C        6.2530    11.3840     0.2040 C.ar  1 <1>  -0.1500 
 27 C        5.3220    12.0140     0.9980 C.ar  1 <1>  -0.1500 
 28 H        2.1460    -0.6930    -0.4750 H     1 <1>   0.0800 
 29 H        1.3870     0.5660    -1.3950 H     1 <1>   0.0800 
 30 H       -2.6390    -1.7070    -1.3950 H     1 <1>   0.0800 
 31 H       -2.4760    -0.0260    -0.9620 H     1 <1>   0.0800 
 32 H       -2.5910    -1.2380     0.2970 H     1 <1>   0.0800 
 33 H       -0.7980    -3.1850    -1.2530 H     1 <1>   0.0800 
 34 H       -0.7200    -2.9150     0.4780 H     1 <1>   0.0800 
 35 H        0.7030    -2.6820    -0.5150 H     1 <1>   0.0800 
 36 H        1.8070     2.1510     0.4920 H     1 <1>   0.0800 
 37 H        3.5630     1.4810    -1.5350 H     1 <1>   0.0800 
 38 H        2.6710    -0.2180     1.9050 H     1 <1>   0.0800 
 39 H        2.7820     1.4410     2.4710 H     1 <1>   0.0800 
 40 H        4.2920     3.2350     0.7590 H     1 <1>   0.3700 
 41 H        5.7240     1.1590     0.0340 H     1 <1>   0.0800 
 42 H        4.6750    -0.2330    -0.2320 H     1 <1>   0.0800 
 43 H        4.9990     6.0820    -2.6270 H     1 <1>   0.1500 
 44 H        3.5210     5.2600     1.2430 H     1 <1>   0.1500 
 45 H        6.7030     9.5380    -0.7420 H     1 <1>   0.1500 
 46 H        3.4840    11.8090     2.0350 H     1 <1>   0.1500 
 47 H        7.1340    11.8950    -0.1440 H     1 <1>   0.1500 
 48 H        5.4540    13.0390     1.2920 H     1 <1>   0.1500 
@<TRIPOS>BOND
  1   1   2  2   
  2   1   3  2   
  3   1   4  am  
  4   1   5  1   
  5   4   6  1   
  6   4   7  1   
  7   5   8  1   
  8   5  28  1   
  9   5  29  1   
 10   6  30  1   
 11   6  31  1   
 12   6  32  1   
 13   7  33  1   
 14   7  34  1   
 15   7  35  1   
 16   8   9  1   
 17   8  10  1   
 18   8  36  1   
 19   9  11  1   
 20   9  12  1   
 21   9  37  1   
 22  10  13  1   
 23  10  38  1   
 24  10  39  1   
 25  11  14  am  
 26  11  40  1   
 27  12  13  1   
 28  12  41  1   
 29  12  42  1   
 30  14  15  2   
 31  14  16  1   
 32  16  17  ar  
 33  16  18  ar  
 34  17  19  ar  
 35  17  43  1   
 36  18  20  ar  
 37  18  44  1   
 38  19  21  ar  
 39  20  21  ar  
 40  21  22  1   
 41  22  23  ar  
 42  22  24  ar  
 43  23  25  ar  
 44  24  26  ar  
 45  24  45  1   
 46  25  27  ar  
 47  25  46  1   
 48  26  27  ar  
 49  26  47  1   
 50  27  48  1   
@<TRIPOS>SUBSTRUCTURE
  1 ****  14 GROUP 4 **** **** 0

# MOE 2024.06 (io_trps.svl 2023.06)
