@<TRIPOS>MOLECULE
NONAME
48 49 1 0 0 
SMALL
USER_CHARGES


@<TRIPOS>ATOM
  1 S        0.3860     0.9610    -0.3430 S.o2  1 <1>   1.3330 
  2 O       -0.7120     1.8640    -0.6020 O.2   1 <1>  -0.6500 
  3 O        0.2860    -0.4230    -0.7500 O.2   1 <1>  -0.6500 
  4 N        0.6670     0.9910     1.3340 N.am  1 <1>  -0.8490 
  5 C        1.8940     1.6410    -1.0340 C.3   1 <1>  -0.0550 
  6 C        0.4610     2.3160     1.9300 C.3   1 <1>   0.1160 
  7 C       -0.1460    -0.0020     2.0430 C.3   1 <1>   0.1160 
  8 C        3.1050     0.6830    -0.9870 C.3   1 <1>  -0.0800 
  9 C        4.3840     1.2270    -1.6080 C.3   1 <1>   0.2200 
 10 C        3.5660     0.2790     0.4180 C.3   1 <1>   0.1200 
 11 N        4.6230     2.6190    -1.1660 N.am  1 <1>  -0.7300 
 12 C        5.4140     0.3250    -0.9430 C.3   1 <1>   0.1200 
 13 O        4.9570     0.1470     0.3650 O.3   1 <1>  -0.5600 
 14 C        4.2480     3.7520    -1.8260 C.2   1 <1>   0.5440 
 15 O        3.8020     3.6270    -2.9500 O.2   1 <1>  -0.5700 
 16 C        4.3660     5.0610    -1.2220 C.ar  1 <1>   0.0860 
 17 C        4.2120     5.2920     0.1570 C.ar  1 <1>   0.3930 
 18 C        4.6410     6.1680    -2.0180 C.ar  1 <1>  -0.1500 
 19 O        3.9100     4.2420     0.9550 O.3   1 <1>  -0.3630 
 20 N        4.3310     6.4750     0.7540 N.ar  1 <1>  -0.6200 
 21 C        4.7600     7.3960    -1.4130 C.ar  1 <1>  -0.1500 
 22 C        3.8110     4.3640     2.3620 C.3   1 <1>   0.0400 
 23 C        4.6030     7.5010    -0.0410 C.ar  1 <1>   0.3930 
 24 O        4.7380     8.7270     0.4970 O.3   1 <1>  -0.3630 
 25 C        4.5970     8.9410     1.8870 C.3   1 <1>   0.0400 
 26 H        1.7130     1.8910    -2.0630 H     1 <1>   0.0800 
 27 H        2.1260     2.5540    -0.5240 H     1 <1>   0.0800 
 28 H        0.7300     2.2970     2.9720 H     1 <1>   0.0800 
 29 H       -0.5720     2.6140     1.8410 H     1 <1>   0.0800 
 30 H        1.0740     3.0480     1.4340 H     1 <1>   0.0800 
 31 H        0.0610     0.0300     3.0990 H     1 <1>   0.0800 
 32 H        0.0860    -0.9920     1.6850 H     1 <1>   0.0800 
 33 H       -1.1940     0.1870     1.8790 H     1 <1>   0.0800 
 34 H        2.8400    -0.2190    -1.5110 H     1 <1>   0.0800 
 35 H        4.3990     1.1560    -2.6830 H     1 <1>   0.0800 
 36 H        3.1320    -0.6560     0.7310 H     1 <1>   0.0800 
 37 H        3.3440     1.0440     1.1430 H     1 <1>   0.0800 
 38 H        4.8800     2.6930    -0.1750 H     1 <1>   0.3700 
 39 H        6.4000     0.7570    -0.9300 H     1 <1>   0.0800 
 40 H        5.4410    -0.6400    -1.4180 H     1 <1>   0.0800 
 41 H        4.7560     6.0560    -3.0830 H     1 <1>   0.1500 
 42 H        4.9740     8.2800    -1.9850 H     1 <1>   0.1500 
 43 H        3.5910     3.3940     2.7730 H     1 <1>   0.0800 
 44 H        3.0200     5.0550     2.5970 H     1 <1>   0.0800 
 45 H        4.7490     4.7240     2.7480 H     1 <1>   0.0800 
 46 H        4.7510     9.9860     2.0860 H     1 <1>   0.0800 
 47 H        5.3330     8.3530     2.4060 H     1 <1>   0.0800 
 48 H        3.6050     8.6490     2.1850 H     1 <1>   0.0800 
@<TRIPOS>BOND
  1   1   2  2   
  2   1   3  2   
  3   1   4  am  
  4   1   5  1   
  5   4   6  1   
  6   4   7  1   
  7   5   8  1   
  8   5  26  1   
  9   5  27  1   
 10   6  28  1   
 11   6  29  1   
 12   6  30  1   
 13   7  31  1   
 14   7  32  1   
 15   7  33  1   
 16   8   9  1   
 17   8  10  1   
 18   8  34  1   
 19   9  11  1   
 20   9  12  1   
 21   9  35  1   
 22  10  13  1   
 23  10  36  1   
 24  10  37  1   
 25  11  14  am  
 26  11  38  1   
 27  12  13  1   
 28  12  39  1   
 29  12  40  1   
 30  14  15  2   
 31  14  16  1   
 32  16  17  ar  
 33  16  18  ar  
 34  17  19  1   
 35  17  20  ar  
 36  18  21  ar  
 37  18  41  1   
 38  19  22  1   
 39  20  23  ar  
 40  21  23  ar  
 41  21  42  1   
 42  22  43  1   
 43  22  44  1   
 44  22  45  1   
 45  23  24  1   
 46  24  25  1   
 47  25  46  1   
 48  25  47  1   
 49  25  48  1   
@<TRIPOS>SUBSTRUCTURE
  1 ****  19 GROUP 4 **** **** 0

# MOE 2024.06 (io_trps.svl 2023.06)
