@<TRIPOS>MOLECULE
NONAME
52 54 1 0 0 
SMALL
USER_CHARGES


@<TRIPOS>ATOM
  1 O       -1.3690     0.5020     1.8850 O.2   1 <1>  -0.5700 
  2 C       -1.8160     0.7110     0.7810 C.2   1 <1>   0.5690 
  3 N       -2.1730    -0.3210    -0.0490 N.am  1 <1>  -0.6600 
  4 C       -1.9890     2.1700     0.3330 C.3   1 <1>  -0.0190 
  5 C       -2.0300    -1.7480     0.4110 C.3   1 <1>   0.3640 
  6 C       -2.8220    -0.1340    -1.3860 C.3   1 <1>   0.1400 
  7 C       -1.0020     3.1700     0.9440 C.3   1 <1>  -0.1600 
  8 C       -3.3510     2.7620     0.7050 C.3   1 <1>  -0.1600 
  9 C       -0.7780    -2.4250    -0.1810 C.ar  1 <1>  -0.1440 
 10 C       -3.3270    -2.5650     0.1060 C.3   1 <1>   0.2000 
 11 C       -3.3010    -1.4580    -2.0000 C.3   1 <1>   0.1200 
 12 C       -1.6520     4.5370     0.7290 C.3   1 <1>  -0.1600 
 13 C       -3.1630     4.2820     0.6590 C.3   1 <1>  -0.1600 
 14 C       -0.4660    -3.7120     0.2430 C.ar  1 <1>  -0.1500 
 15 C        0.0680    -1.8140    -1.1030 C.ar  1 <1>  -0.1500 
 16 O       -4.0330    -2.1680    -1.0520 O.3   1 <1>  -0.5600 
 17 C       -4.3200    -2.4770     1.2720 C.3   1 <1>   0.1200 
 18 C        0.6310    -4.3910    -0.2560 C.ar  1 <1>   0.0820 
 19 C        1.1810    -2.4760    -1.5950 C.ar  1 <1>  -0.1500 
 20 O       -3.8660    -3.2330     2.3480 O.3   1 <1>  -0.6800 
 21 O        0.8250    -5.6620     0.1770 O.3   1 <1>  -0.3630 
 22 C        1.4780    -3.7580    -1.1700 C.ar  1 <1>   0.0820 
 23 C        0.7560    -6.6800    -0.7970 C.3   1 <1>   0.0400 
 24 O        2.6020    -4.3360    -1.6600 O.3   1 <1>  -0.3630 
 25 C        3.6420    -4.5490    -0.7320 C.3   1 <1>   0.0400 
 26 H       -1.8680     2.2330    -0.7320 H     1 <1>   0.0800 
 27 H       -1.8880    -1.7630     1.4780 H     1 <1>   0.0800 
 28 H       -3.6730     0.5150    -1.2790 H     1 <1>   0.0800 
 29 H       -2.1270     0.3330    -2.0620 H     1 <1>   0.0800 
 30 H       -0.9090     2.9910     2.0030 H     1 <1>   0.0800 
 31 H       -0.0280     3.1040     0.4930 H     1 <1>   0.0800 
 32 H       -4.1330     2.4330     0.0450 H     1 <1>   0.0800 
 33 H       -3.5970     2.4670     1.7120 H     1 <1>   0.0800 
 34 H       -3.0790    -3.6000    -0.0400 H     1 <1>   0.0800 
 35 H       -2.4740    -2.0640    -2.3310 H     1 <1>   0.0800 
 36 H       -3.9440    -1.2680    -2.8410 H     1 <1>   0.0800 
 37 H       -1.4000     5.2150     1.5260 H     1 <1>   0.0800 
 38 H       -1.3150     4.9550    -0.2040 H     1 <1>   0.0800 
 39 H       -3.5570     4.6790    -0.2610 H     1 <1>   0.0800 
 40 H       -3.6730     4.7480     1.4850 H     1 <1>   0.0800 
 41 H       -1.0780    -4.2100     0.9740 H     1 <1>   0.1500 
 42 H       -0.1140    -0.8130    -1.4440 H     1 <1>   0.1500 
 43 H       -5.2840    -2.8570     0.9810 H     1 <1>   0.0800 
 44 H       -4.4180    -1.4560     1.6000 H     1 <1>   0.0800 
 45 H        1.8300    -1.9950    -2.3040 H     1 <1>   0.1500 
 46 H       -4.0310    -4.1850     2.2000 H     1 <1>   0.4000 
 47 H        0.7730    -7.6290    -0.2930 H     1 <1>   0.0800 
 48 H        1.6010    -6.6020    -1.4570 H     1 <1>   0.0800 
 49 H       -0.1610    -6.5720    -1.3490 H     1 <1>   0.0800 
 50 H        4.4950    -4.9310    -1.2630 H     1 <1>   0.0800 
 51 H        3.3210    -5.2600     0.0070 H     1 <1>   0.0800 
 52 H        3.8880    -3.6110    -0.2650 H     1 <1>   0.0800 
@<TRIPOS>BOND
  1   1   2  2   
  2   2   3  am  
  3   2   4  1   
  4   3   5  1   
  5   3   6  1   
  6   4   7  1   
  7   4   8  1   
  8   4  26  1   
  9   5   9  1   
 10   5  10  1   
 11   5  27  1   
 12   6  11  1   
 13   6  28  1   
 14   6  29  1   
 15   7  12  1   
 16   7  30  1   
 17   7  31  1   
 18   8  13  1   
 19   8  32  1   
 20   8  33  1   
 21   9  14  ar  
 22   9  15  ar  
 23  10  16  1   
 24  10  17  1   
 25  10  34  1   
 26  11  16  1   
 27  11  35  1   
 28  11  36  1   
 29  12  13  1   
 30  12  37  1   
 31  12  38  1   
 32  13  39  1   
 33  13  40  1   
 34  14  18  ar  
 35  14  41  1   
 36  15  19  ar  
 37  15  42  1   
 38  17  20  1   
 39  17  43  1   
 40  17  44  1   
 41  18  21  1   
 42  18  22  ar  
 43  19  22  ar  
 44  19  45  1   
 45  20  46  1   
 46  21  23  1   
 47  22  24  1   
 48  23  47  1   
 49  23  48  1   
 50  23  49  1   
 51  24  25  1   
 52  25  50  1   
 53  25  51  1   
 54  25  52  1   
@<TRIPOS>SUBSTRUCTURE
  1 ****   5 GROUP 4 **** **** 0

# MOE 2024.06 (io_trps.svl 2023.06)
