@<TRIPOS>MOLECULE
NONAME
50 52 1 0 0 
SMALL
USER_CHARGES


@<TRIPOS>ATOM
  1 F       -1.3950     0.6810     1.0140 F     1 <1>  -0.3400 
  2 C       -2.0720    -0.1830     1.7600 C.3   1 <1>   1.1640 
  3 F       -2.8850     0.5410     2.5210 F     1 <1>  -0.3400 
  4 F       -1.1890    -0.7350     2.5820 F     1 <1>  -0.3400 
  5 C       -2.8010    -1.2320     0.9070 C.ar  1 <1>  -0.1440 
  6 C       -4.1770    -1.3770     0.9440 C.ar  1 <1>  -0.1500 
  7 C       -2.0500    -2.0720     0.0630 C.ar  1 <1>  -0.1500 
  8 C       -4.7960    -2.3410     0.1510 C.ar  1 <1>   0.2270 
  9 C       -2.6540    -3.0270    -0.7240 C.ar  1 <1>  -0.1500 
 10 N       -6.1180    -2.6420     0.0440 N.2   1 <1>  -0.5650 
 11 C       -4.0440    -3.1530    -0.6750 C.ar  1 <1>  -0.1520 
 12 C       -6.1580    -3.5980    -0.8210 C.2   1 <1>   0.0060 
 13 N       -4.9360    -3.9630    -1.3050 N.pl3 1 <1>   0.0480 
 14 C       -7.4470    -4.2720    -1.2590 C.3   1 <1>   0.3200 
 15 C       -4.6130    -5.0230    -2.2820 C.3   1 <1>   0.0160 
 16 N       -7.5720    -5.5730    -0.5700 N.am  1 <1>  -0.7300 
 17 C       -7.4590    -6.7920    -1.1610 C.2   1 <1>   0.5690 
 18 O       -7.2350    -6.8820    -2.3470 O.2   1 <1>  -0.5700 
 19 C       -7.5760    -8.0860    -0.3180 C.3   1 <1>   0.2510 
 20 N       -8.9710    -8.5300    -0.0140 N.3   1 <1>  -0.8100 
 21 C       -6.7280    -8.0190     0.9720 C.3   1 <1>  -0.1600 
 22 C       -9.6810    -8.9360    -1.2450 C.3   1 <1>   0.1100 
 23 C       -9.7970    -7.5550     0.7290 C.3   1 <1>   0.1100 
 24 C       -6.6850    -9.3480     1.7430 C.3   1 <1>  -0.2400 
 25 C      -11.0970    -9.4490    -0.9240 C.3   1 <1>   0.1200 
 26 C      -11.2020    -8.1230     0.9970 C.3   1 <1>   0.1200 
 27 O      -11.8180    -8.4900    -0.2040 O.3   1 <1>  -0.5600 
 28 H       -4.8090    -0.7700     1.5670 H     1 <1>   0.1500 
 29 H       -0.9770    -1.9650     0.0320 H     1 <1>   0.1500 
 30 H       -2.0730    -3.6650    -1.3660 H     1 <1>   0.1500 
 31 H       -7.4590    -4.4030    -2.3270 H     1 <1>   0.0800 
 32 H       -8.2830    -3.6500    -0.9890 H     1 <1>   0.0800 
 33 H       -3.6650    -4.8160    -2.7410 H     1 <1>   0.0800 
 34 H       -5.3700    -5.0620    -3.0430 H     1 <1>   0.0800 
 35 H       -4.5690    -5.9700    -1.7750 H     1 <1>   0.0800 
 36 H       -7.6480    -5.5000     0.4460 H     1 <1>   0.3700 
 37 H       -7.1310    -8.8600    -0.9190 H     1 <1>   0.0800 
 38 H       -7.0900    -7.2430     1.6190 H     1 <1>   0.0800 
 39 H       -5.7210    -7.7570     0.6960 H     1 <1>   0.0800 
 40 H       -9.1300    -9.7170    -1.7380 H     1 <1>   0.0800 
 41 H       -9.7600    -8.1020    -1.9230 H     1 <1>   0.0800 
 42 H       -9.9010    -6.6440     0.1660 H     1 <1>   0.0800 
 43 H       -9.3350    -7.3260     1.6730 H     1 <1>   0.0800 
 44 H       -7.6700    -9.6190     2.0830 H     1 <1>   0.0800 
 45 H       -6.0420    -9.2590     2.6000 H     1 <1>   0.0800 
 46 H       -6.3130   -10.1360     1.1130 H     1 <1>   0.0800 
 47 H      -11.0450   -10.3520    -0.3410 H     1 <1>   0.0800 
 48 H      -11.6350    -9.6510    -1.8330 H     1 <1>   0.0800 
 49 H      -11.8210    -7.3810     1.4700 H     1 <1>   0.0800 
 50 H      -11.1440    -8.9870     1.6350 H     1 <1>   0.0800 
@<TRIPOS>BOND
  1   1   2  1   
  2   2   3  1   
  3   2   4  1   
  4   2   5  1   
  5   5   6  ar  
  6   5   7  ar  
  7   6   8  ar  
  8   6  28  1   
  9   7   9  ar  
 10   7  29  1   
 11   8  10  1   
 12   8  11  ar  
 13   9  11  ar  
 14   9  30  1   
 15  10  12  2   
 16  11  13  1   
 17  12  13  1   
 18  12  14  1   
 19  13  15  1   
 20  14  16  1   
 21  14  31  1   
 22  14  32  1   
 23  15  33  1   
 24  15  34  1   
 25  15  35  1   
 26  16  17  am  
 27  16  36  1   
 28  17  18  2   
 29  17  19  1   
 30  19  20  1   
 31  19  21  1   
 32  19  37  1   
 33  20  22  1   
 34  20  23  1   
 35  21  24  1   
 36  21  38  1   
 37  21  39  1   
 38  22  25  1   
 39  22  40  1   
 40  22  41  1   
 41  23  26  1   
 42  23  42  1   
 43  23  43  1   
 44  24  44  1   
 45  24  45  1   
 46  24  46  1   
 47  25  27  1   
 48  25  47  1   
 49  25  48  1   
 50  26  27  1   
 51  26  49  1   
 52  26  50  1   
@<TRIPOS>SUBSTRUCTURE
  1 ****  12 GROUP 4 **** **** 0

# MOE 2024.06 (io_trps.svl 2023.06)
