@<TRIPOS>MOLECULE
NONAME
39 41 1 0 0 
SMALL
USER_CHARGES


@<TRIPOS>ATOM
  1 S        0.9750    -1.5710     2.1640 S.3   1 <1>  -0.0800 
  2 C        0.8690    -1.3870     0.4040 C.2   1 <1>  -0.0450 
  3 C        1.1370     0.1480     2.4170 C.2   1 <1>  -0.1100 
  4 C        0.9620    -0.0590     0.1070 C.2   1 <1>  -0.1810 
  5 C        0.7060    -2.5900    -0.3810 C.2   1 <1>   0.7150 
  6 C        1.1110     0.7960     1.2400 C.2   1 <1>  -0.1500 
  7 C        0.9230     0.5760    -1.2750 C.3   1 <1>  -0.0590 
  8 O        0.5400    -2.5590    -1.5860 O.2   1 <1>  -0.5700 
  9 N        0.7130    -3.8110     0.2240 N.am  1 <1>  -0.7300 
 10 C        0.5440    -5.1210    -0.4440 C.3   1 <1>   0.2200 
 11 C       -0.8490    -5.6880    -0.2030 C.3   1 <1>  -0.0800 
 12 C        1.3950    -6.1550     0.2800 C.3   1 <1>   0.1200 
 13 C       -0.7110    -6.3700     1.1630 C.3   1 <1>   0.1200 
 14 C       -2.0120    -4.6830    -0.2940 C.3   1 <1>  -0.0160 
 15 O        0.6590    -6.5040     1.4130 O.3   1 <1>  -0.5600 
 16 C       -3.3490    -5.3830    -0.1110 C.ar  1 <1>  -0.1430 
 17 C       -4.0210    -5.3760     1.0950 C.ar  1 <1>  -0.1500 
 18 C       -3.9590    -6.0640    -1.1440 C.ar  1 <1>  -0.1500 
 19 C       -5.2330    -6.0370     1.2070 C.ar  1 <1>   0.1600 
 20 C       -5.1740    -6.6930    -0.9270 C.ar  1 <1>   0.1600 
 21 N       -5.8250    -6.6980     0.2250 N.ar  1 <1>  -0.6200 
 22 H        1.2360     0.4990     3.4290 H     1 <1>   0.1500 
 23 H        1.1930     1.8630     1.1240 H     1 <1>   0.1500 
 24 H        0.0700     1.2240    -1.3530 H     1 <1>   0.0800 
 25 H        0.8610    -0.1610    -2.0530 H     1 <1>   0.0800 
 26 H        1.8150     1.1560    -1.4340 H     1 <1>   0.0800 
 27 H        0.8300    -3.8590     1.2390 H     1 <1>   0.3700 
 28 H        0.7910    -5.0520    -1.4910 H     1 <1>   0.0800 
 29 H       -1.0180    -6.4620    -0.9310 H     1 <1>   0.0800 
 30 H        2.3580    -5.7750     0.5730 H     1 <1>   0.0800 
 31 H        1.5160    -7.0400    -0.3200 H     1 <1>   0.0800 
 32 H       -1.1670    -7.3460     1.1700 H     1 <1>   0.0800 
 33 H       -1.1270    -5.7690     1.9520 H     1 <1>   0.0800 
 34 H       -1.9910    -4.1980    -1.2550 H     1 <1>   0.0800 
 35 H       -1.9090    -3.9170     0.4540 H     1 <1>   0.0800 
 36 H       -3.6170    -4.8630     1.9480 H     1 <1>   0.1500 
 37 H       -3.5020    -6.1120    -2.1160 H     1 <1>   0.1500 
 38 H       -5.7440    -6.0210     2.1550 H     1 <1>   0.1500 
 39 H       -5.6350    -7.2200    -1.7450 H     1 <1>   0.1500 
@<TRIPOS>BOND
  1   1   2  1   
  2   1   3  1   
  3   2   4  2   
  4   2   5  1   
  5   3   6  2   
  6   3  22  1   
  7   4   6  1   
  8   4   7  1   
  9   5   8  2   
 10   5   9  am  
 11   6  23  1   
 12   7  24  1   
 13   7  25  1   
 14   7  26  1   
 15   9  10  1   
 16   9  27  1   
 17  10  11  1   
 18  10  12  1   
 19  10  28  1   
 20  11  13  1   
 21  11  14  1   
 22  11  29  1   
 23  12  15  1   
 24  12  30  1   
 25  12  31  1   
 26  13  15  1   
 27  13  32  1   
 28  13  33  1   
 29  14  16  1   
 30  14  34  1   
 31  14  35  1   
 32  16  17  ar  
 33  16  18  ar  
 34  17  19  ar  
 35  17  36  1   
 36  18  20  ar  
 37  18  37  1   
 38  19  21  ar  
 39  19  38  1   
 40  20  21  ar  
 41  20  39  1   
@<TRIPOS>SUBSTRUCTURE
  1 ****  14 GROUP 4 **** **** 0

# MOE 2024.06 (io_trps.svl 2023.06)
