@<TRIPOS>MOLECULE
NONAME
48 51 1 0 0 
SMALL
USER_CHARGES


@<TRIPOS>ATOM
  1 O       -0.3440     0.2250     0.1120 O.2   1 <1>  -0.5700 
  2 C       -1.3840     0.8630     0.0800 C.2   1 <1>   0.7150 
  3 N       -2.5520     0.1530    -0.1260 N.am  1 <1>  -0.6600 
  4 C       -1.3560     2.3060     0.2390 C.2   1 <1>   0.1020 
  5 C       -3.9160     0.7320    -0.2270 C.3   1 <1>   0.1400 
  6 C       -2.5970    -1.3230    -0.2650 C.3   1 <1>   0.1400 
  7 N       -2.2970     3.0370     0.7820 N.2   1 <1>  -0.3380 
  8 N       -0.3350     3.1050    -0.1430 N.pl3 1 <1>   0.0480 
  9 C       -4.8240    -0.4530    -0.5570 C.3   1 <1>   0.2000 
 10 C       -4.0700    -1.6930    -0.0810 C.3   1 <1>  -0.0800 
 11 N       -1.8990     4.2990     0.7710 N.2   1 <1>  -0.3380 
 12 C       -0.7320     4.3200     0.2260 C.2   1 <1>   0.0070 
 13 C        0.9310     2.7880    -0.8490 C.3   1 <1>   0.0960 
 14 O       -6.0450    -0.3610     0.0930 O.3   1 <1>  -0.6800 
 15 C       -4.4970    -2.9680    -0.8280 C.3   1 <1>  -0.0170 
 16 C        0.0870     5.5830     0.0420 C.3   1 <1>   0.0200 
 17 C        2.1540     3.1260     0.0160 C.3   1 <1>  -0.1600 
 18 C       -3.7420    -4.1890    -0.3310 C.ar  1 <1>   0.1670 
 19 C        1.4360     5.5020     0.7720 C.3   1 <1>  -0.1600 
 20 C        2.4850     4.6270     0.0650 C.3   1 <1>  -0.1600 
 21 N       -2.5520    -4.4050    -0.8690 N.ar  1 <1>  -0.6200 
 22 C       -4.3140    -5.0000     0.6390 C.ar  1 <1>  -0.1500 
 23 C       -1.9050    -5.4710    -0.4230 C.ar  1 <1>   0.1600 
 24 C       -3.6290    -6.1070     1.0940 C.ar  1 <1>  -0.1500 
 25 C       -2.3890    -6.3390     0.5400 C.ar  1 <1>  -0.1500 
 26 H       -4.1860     1.1690     0.7190 H     1 <1>   0.0800 
 27 H       -3.9530     1.4770    -1.0020 H     1 <1>   0.0800 
 28 H       -2.2520    -1.5940    -1.2480 H     1 <1>   0.0800 
 29 H       -1.9750    -1.8030     0.4720 H     1 <1>   0.0800 
 30 H       -5.0050    -0.4880    -1.6180 H     1 <1>   0.0800 
 31 H       -4.2330    -1.8270     0.9740 H     1 <1>   0.0800 
 32 H        0.9550     1.7470    -1.1070 H     1 <1>   0.0800 
 33 H        0.9630     3.3460    -1.7670 H     1 <1>   0.0800 
 34 H       -5.9070    -0.2530     1.0550 H     1 <1>   0.4000 
 35 H       -4.3200    -2.8540    -1.8830 H     1 <1>   0.0800 
 36 H       -5.5530    -3.1190    -0.6930 H     1 <1>   0.0800 
 37 H        0.2340     5.7770    -1.0050 H     1 <1>   0.0800 
 38 H       -0.4740     6.4070     0.4480 H     1 <1>   0.0800 
 39 H        2.0150     2.7360     1.0100 H     1 <1>   0.0800 
 40 H        3.0030     2.6180    -0.4070 H     1 <1>   0.0800 
 41 H        1.8330     6.4990     0.8490 H     1 <1>   0.0800 
 42 H        1.2770     5.1450     1.7760 H     1 <1>   0.0800 
 43 H        3.4180     4.7420     0.5910 H     1 <1>   0.0800 
 44 H        2.6430     4.9950    -0.9350 H     1 <1>   0.0800 
 45 H       -5.2850    -4.7700     1.0360 H     1 <1>   0.1500 
 46 H       -0.9350    -5.6620    -0.8500 H     1 <1>   0.1500 
 47 H       -4.0420    -6.7580     1.8450 H     1 <1>   0.1500 
 48 H       -1.8010    -7.1840     0.8490 H     1 <1>   0.1500 
@<TRIPOS>BOND
  1   1   2  2   
  2   2   3  am  
  3   2   4  1   
  4   3   5  1   
  5   3   6  1   
  6   4   7  2   
  7   4   8  1   
  8   5   9  1   
  9   5  26  1   
 10   5  27  1   
 11   6  10  1   
 12   6  28  1   
 13   6  29  1   
 14   7  11  1   
 15   8  12  1   
 16   8  13  1   
 17   9  10  1   
 18   9  14  1   
 19   9  30  1   
 20  10  15  1   
 21  10  31  1   
 22  11  12  2   
 23  12  16  1   
 24  13  17  1   
 25  13  32  1   
 26  13  33  1   
 27  14  34  1   
 28  15  18  1   
 29  15  35  1   
 30  15  36  1   
 31  16  19  1   
 32  16  37  1   
 33  16  38  1   
 34  17  20  1   
 35  17  39  1   
 36  17  40  1   
 37  18  21  ar  
 38  18  22  ar  
 39  19  20  1   
 40  19  41  1   
 41  19  42  1   
 42  20  43  1   
 43  20  44  1   
 44  21  23  ar  
 45  22  24  ar  
 46  22  45  1   
 47  23  25  ar  
 48  23  46  1   
 49  24  25  ar  
 50  24  47  1   
 51  25  48  1   
@<TRIPOS>SUBSTRUCTURE
  1 ****   3 GROUP 4 **** **** 0

# MOE 2024.06 (io_trps.svl 2023.06)
