@<TRIPOS>MOLECULE
NONAME
43 45 1 0 0 
SMALL
USER_CHARGES


@<TRIPOS>ATOM
  1 CL       0.0790     1.1080    -2.1990 Cl    1 <1>  -0.1770 
  2 C        0.4210     2.5300    -1.2440 C.ar  1 <1>   0.1770 
  3 C        1.5980     3.2180    -1.4510 C.ar  1 <1>  -0.1500 
  4 C       -0.4980     2.9400    -0.2950 C.ar  1 <1>  -0.1500 
  5 C        1.8840     4.3490    -0.6970 C.ar  1 <1>   0.1000 
  6 C       -0.2230     4.0670     0.4610 C.ar  1 <1>  -0.1500 
  7 N        3.0810     5.0280    -0.9140 N.pl3 1 <1>  -0.8380 
  8 C        0.9580     4.7620     0.2590 C.ar  1 <1>  -0.1500 
  9 C        3.1530     6.5210    -0.8750 C.3   1 <1>   0.2090 
 10 C        4.3630     4.3620    -0.5360 C.3   1 <1>   0.2090 
 11 C        3.7850     7.0360     0.4350 C.3   1 <1>   0.1100 
 12 C        4.9300     4.9340     0.7770 C.3   1 <1>   0.1100 
 13 N        5.0970     6.4040     0.7240 N.3   1 <1>  -0.8100 
 14 C        5.6740     6.9180     2.0020 C.3   1 <1>   0.1710 
 15 C        6.1930     8.3550     1.9220 C.2   1 <1>   0.5690 
 16 O        6.2620     9.0100     2.9370 O.2   1 <1>  -0.5700 
 17 N        6.5480     8.8150     0.6970 N.am  1 <1>  -0.4930 
 18 C        7.0190    10.0540     0.2830 C.2   1 <1>   0.3520 
 19 N        7.1750    10.2870    -0.9810 N.2   1 <1>  -0.7070 
 20 C        7.3710    11.1470     1.0700 C.2   1 <1>  -0.1500 
 21 N        7.6400    11.5520    -1.0390 N.pl3 1 <1>   0.3140 
 22 C        7.7650    12.0900     0.1890 C.2   1 <1>  -0.3020 
 23 C        7.9490    12.1920    -2.3210 C.3   1 <1>   0.0160 
 24 H        2.2930     2.8880    -2.1980 H     1 <1>   0.1500 
 25 H       -1.4080     2.3860    -0.1550 H     1 <1>   0.1500 
 26 H       -0.9260     4.4010     1.2040 H     1 <1>   0.1500 
 27 H        1.1660     5.6290     0.8540 H     1 <1>   0.1500 
 28 H        2.1660     6.9350    -0.9910 H     1 <1>   0.0800 
 29 H        3.7470     6.8600    -1.7050 H     1 <1>   0.0800 
 30 H        5.0800     4.5070    -1.3250 H     1 <1>   0.0800 
 31 H        4.2020     3.3040    -0.4230 H     1 <1>   0.0800 
 32 H        3.1040     6.8420     1.2460 H     1 <1>   0.0800 
 33 H        3.9030     8.1030     0.3560 H     1 <1>   0.0800 
 34 H        5.8840     4.4730     0.9650 H     1 <1>   0.0800 
 35 H        4.2660     4.6690     1.5820 H     1 <1>   0.0800 
 36 H        6.5080     6.3020     2.2860 H     1 <1>   0.0800 
 37 H        4.9400     6.8570     2.7860 H     1 <1>   0.0800 
 38 H        6.3830     8.1650    -0.0720 H     1 <1>   0.3700 
 39 H        7.3250    11.1900     2.1430 H     1 <1>   0.1500 
 40 H        8.1190    13.0890     0.3670 H     1 <1>   0.1500 
 41 H        7.0670    12.1880    -2.9340 H     1 <1>   0.0800 
 42 H        8.7280    11.6360    -2.8080 H     1 <1>   0.0800 
 43 H        8.2730    13.2020    -2.1530 H     1 <1>   0.0800 
@<TRIPOS>BOND
  1   1   2  1   
  2   2   3  ar  
  3   2   4  ar  
  4   3   5  ar  
  5   3  24  1   
  6   4   6  ar  
  7   4  25  1   
  8   5   7  1   
  9   5   8  ar  
 10   6   8  ar  
 11   6  26  1   
 12   7   9  1   
 13   7  10  1   
 14   8  27  1   
 15   9  11  1   
 16   9  28  1   
 17   9  29  1   
 18  10  12  1   
 19  10  30  1   
 20  10  31  1   
 21  11  13  1   
 22  11  32  1   
 23  11  33  1   
 24  12  13  1   
 25  12  34  1   
 26  12  35  1   
 27  13  14  1   
 28  14  15  1   
 29  14  36  1   
 30  14  37  1   
 31  15  16  2   
 32  15  17  am  
 33  17  18  1   
 34  17  38  1   
 35  18  19  2   
 36  18  20  1   
 37  19  21  1   
 38  20  22  2   
 39  20  39  1   
 40  21  22  1   
 41  21  23  1   
 42  22  40  1   
 43  23  41  1   
 44  23  42  1   
 45  23  43  1   
@<TRIPOS>SUBSTRUCTURE
  1 ****  11 GROUP 4 **** **** 0

# MOE 2024.06 (io_trps.svl 2023.06)
