@<TRIPOS>MOLECULE
NONAME
47 49 1 0 0 
SMALL
USER_CHARGES


@<TRIPOS>ATOM
  1 O       -1.4390    -2.2140    -1.2600 O.2   1 <1>  -0.5700 
  2 C       -0.4840    -2.5640    -0.6100 C.2   1 <1>   0.5690 
  3 N       -0.5760    -3.3880     0.4790 N.am  1 <1>  -0.6600 
  4 C        0.8950    -2.0700    -1.0010 C.3   1 <1>  -0.0990 
  5 C        0.6400    -3.7540     1.2480 C.3   1 <1>   0.1400 
  6 C       -1.8730    -3.9130     0.9820 C.3   1 <1>   0.0600 
  7 C        1.9130    -3.2230    -0.9600 C.3   1 <1>  -0.0800 
  8 C        1.7880    -4.1230     0.2880 C.3   1 <1>  -0.0800 
  9 C        3.3700    -2.7450    -1.0020 C.3   1 <1>  -0.1600 
 10 C        3.1640    -4.0870     0.9640 C.3   1 <1>  -0.1600 
 11 C        4.1480    -3.7570    -0.1610 C.3   1 <1>   0.2200 
 12 N        5.4570    -3.1940     0.2950 N.am  1 <1>  -0.6600 
 13 C        6.3840    -2.7830    -0.6450 C.2   1 <1>   0.5440 
 14 C        5.8940    -3.4870     1.6930 C.3   1 <1>   0.0600 
 15 O        6.3080    -3.2190    -1.7780 O.2   1 <1>  -0.5700 
 16 C        7.4480    -1.8540    -0.3080 C.ar  1 <1>   0.0860 
 17 C        8.7300    -2.0020    -0.8330 C.ar  1 <1>  -0.1500 
 18 C        7.2360    -0.7680     0.5420 C.ar  1 <1>  -0.1500 
 19 C        9.7490    -1.1260    -0.5100 C.ar  1 <1>  -0.1500 
 20 C        8.2550     0.1090     0.8640 C.ar  1 <1>  -0.1500 
 21 C        9.5450    -0.0490     0.3530 C.ar  1 <1>   0.0860 
 22 C       10.6330     0.8550     0.6890 C.2   1 <1>   0.5440 
 23 O       11.6400     0.9180     0.0200 O.2   1 <1>  -0.5700 
 24 N       10.5950     1.6660     1.7730 N.am  1 <1>  -0.8000 
 25 H        0.8590    -1.6440    -1.9870 H     1 <1>   0.0800 
 26 H        1.1710    -1.2960    -0.3090 H     1 <1>   0.0800 
 27 H        0.9190    -2.9080     1.8530 H     1 <1>   0.0800 
 28 H        0.4330    -4.5840     1.9010 H     1 <1>   0.0800 
 29 H       -2.0360    -3.5760     1.9900 H     1 <1>   0.0800 
 30 H       -1.8630    -4.9880     0.9600 H     1 <1>   0.0800 
 31 H       -2.6850    -3.5640     0.3660 H     1 <1>   0.0800 
 32 H        1.7370    -3.8460    -1.8220 H     1 <1>   0.0800 
 33 H        1.6130    -5.1290    -0.0560 H     1 <1>   0.0800 
 34 H        3.4570    -1.7730    -0.5510 H     1 <1>   0.0800 
 35 H        3.7360    -2.7050    -2.0130 H     1 <1>   0.0800 
 36 H        3.3930    -5.0270     1.4320 H     1 <1>   0.0800 
 37 H        3.1760    -3.2960     1.6930 H     1 <1>   0.0800 
 38 H        4.3270    -4.6420    -0.7500 H     1 <1>   0.0800 
 39 H        5.3600    -2.8600     2.3840 H     1 <1>   0.0800 
 40 H        6.9490    -3.3100     1.8110 H     1 <1>   0.0800 
 41 H        5.7050    -4.5210     1.9270 H     1 <1>   0.0800 
 42 H        8.9210    -2.8200    -1.5080 H     1 <1>   0.1500 
 43 H        6.2510    -0.6140     0.9460 H     1 <1>   0.1500 
 44 H       10.7280    -1.2720    -0.9370 H     1 <1>   0.1500 
 45 H        8.0400     0.9370     1.5160 H     1 <1>   0.1500 
 46 H       11.4060     2.2560     1.9610 H     1 <1>   0.3700 
 47 H        9.8720     1.6380     2.4880 H     1 <1>   0.3700 
@<TRIPOS>BOND
  1   1   2  2   
  2   2   3  am  
  3   2   4  1   
  4   3   5  1   
  5   3   6  1   
  6   4   7  1   
  7   4  25  1   
  8   4  26  1   
  9   5   8  1   
 10   5  27  1   
 11   5  28  1   
 12   6  29  1   
 13   6  30  1   
 14   6  31  1   
 15   7   8  1   
 16   7   9  1   
 17   7  32  1   
 18   8  10  1   
 19   8  33  1   
 20   9  11  1   
 21   9  34  1   
 22   9  35  1   
 23  10  11  1   
 24  10  36  1   
 25  10  37  1   
 26  11  12  1   
 27  11  38  1   
 28  12  13  am  
 29  12  14  1   
 30  13  15  2   
 31  13  16  1   
 32  14  39  1   
 33  14  40  1   
 34  14  41  1   
 35  16  17  ar  
 36  16  18  ar  
 37  17  19  ar  
 38  17  42  1   
 39  18  20  ar  
 40  18  43  1   
 41  19  21  ar  
 42  19  44  1   
 43  20  21  ar  
 44  20  45  1   
 45  21  22  1   
 46  22  23  2   
 47  22  24  am  
 48  24  46  1   
 49  24  47  1   
@<TRIPOS>SUBSTRUCTURE
  1 ****  12 GROUP 4 **** **** 0

# MOE 2024.06 (io_trps.svl 2023.06)
