@<TRIPOS>MOLECULE
NONAME
32 34 1 0 0 
SMALL
USER_CHARGES


@<TRIPOS>ATOM
  1 F       -0.8160    -1.2420    -0.9170 F     1 <1>  -0.1900 
  2 C       -1.9420    -1.6050    -0.3430 C.ar  1 <1>   0.1900 
  3 C       -2.9980    -0.7310    -0.1040 C.ar  1 <1>   0.3920 
  4 C       -2.0790    -2.9150     0.0370 C.ar  1 <1>   0.1600 
  5 O       -3.0250     0.5850    -0.4160 O.3   1 <1>  -0.3630 
  6 N       -4.0990    -1.1620     0.4760 N.ar  1 <1>  -0.6200 
  7 N       -3.1770    -3.3550     0.6160 N.ar  1 <1>  -0.6200 
  8 C       -1.9690     1.2880    -1.0340 C.3   1 <1>   0.0400 
  9 C       -4.1240    -2.4400     0.8050 C.ar  1 <1>   0.7200 
 10 N       -5.2720    -2.8340     1.3900 N.pl3 1 <1>  -0.8690 
 11 C       -5.3510    -3.9010     2.4170 C.3   1 <1>   0.3890 
 12 C       -6.3140    -4.9900     1.9850 C.2   1 <1>   0.0070 
 13 N       -7.2310    -5.5240     2.7260 N.2   1 <1>  -0.3380 
 14 N       -6.3130    -5.5340     0.7700 N.pl3 1 <1>   0.0480 
 15 N       -7.8550    -6.4470     1.9780 N.2   1 <1>  -0.3380 
 16 C       -7.2800    -6.4170     0.8280 C.2   1 <1>   0.0060 
 17 C       -5.6390    -5.4690    -0.5250 C.3   1 <1>   0.0960 
 18 C       -7.4610    -7.1580    -0.4670 C.3   1 <1>   0.0200 
 19 C       -6.2920    -6.6200    -1.3240 C.3   1 <1>  -0.1600 
 20 H       -1.2750    -3.6080    -0.1380 H     1 <1>   0.1500 
 21 H       -2.2750     2.3120    -1.1510 H     1 <1>   0.0800 
 22 H       -1.7740     0.8540    -1.9990 H     1 <1>   0.0800 
 23 H       -1.0980     1.2400    -0.4040 H     1 <1>   0.0800 
 24 H       -5.9280    -2.0650     1.5230 H     1 <1>   0.4000 
 25 H       -5.6950    -3.4760     3.3450 H     1 <1>   0.0800 
 26 H       -4.3840    -4.3390     2.5920 H     1 <1>   0.0800 
 27 H       -4.5810    -5.6130    -0.3940 H     1 <1>   0.0800 
 28 H       -5.8340    -4.5110    -0.9730 H     1 <1>   0.0800 
 29 H       -8.4140    -6.9080    -0.8980 H     1 <1>   0.0800 
 30 H       -7.3920    -8.2200    -0.3110 H     1 <1>   0.0800 
 31 H       -5.5660    -7.3990    -1.4840 H     1 <1>   0.0800 
 32 H       -6.6370    -6.2720    -2.2810 H     1 <1>   0.0800 
@<TRIPOS>BOND
  1   1   2  1   
  2   2   3  ar  
  3   2   4  ar  
  4   3   5  1   
  5   3   6  ar  
  6   4   7  ar  
  7   4  20  1   
  8   5   8  1   
  9   6   9  ar  
 10   7   9  ar  
 11   8  21  1   
 12   8  22  1   
 13   8  23  1   
 14   9  10  1   
 15  10  11  1   
 16  10  24  1   
 17  11  12  1   
 18  11  25  1   
 19  11  26  1   
 20  12  13  2   
 21  12  14  1   
 22  13  15  1   
 23  14  16  1   
 24  14  17  1   
 25  15  16  2   
 26  16  18  1   
 27  17  19  1   
 28  17  27  1   
 29  17  28  1   
 30  18  19  1   
 31  18  29  1   
 32  18  30  1   
 33  19  31  1   
 34  19  32  1   
@<TRIPOS>SUBSTRUCTURE
  1 ****   9 GROUP 4 **** **** 0

# MOE 2024.06 (io_trps.svl 2023.06)
