@<TRIPOS>MOLECULE
NONAME
54 56 1 0 0 
SMALL
USER_CHARGES


@<TRIPOS>ATOM
  1 O       -0.7980    -0.4910     2.3280 O.2   1 <1>  -0.5700 
  2 C       -1.2210     0.4260     1.6620 C.2   1 <1>   0.5690 
  3 N       -2.2120     0.2110     0.7270 N.am  1 <1>  -0.6600 
  4 C       -0.6360     1.8120     1.9280 C.3   1 <1>   0.1810 
  5 C       -2.5910    -1.1780     0.3320 C.3   1 <1>   0.1400 
  6 C       -2.9390     1.2990     0.0080 C.3   1 <1>   0.1400 
  7 O       -0.2410     2.4400     0.7170 O.3   1 <1>  -0.3620 
  8 C       -4.1090    -1.3730     0.4970 C.3   1 <1>   0.4230 
  9 C       -4.4560     1.0660     0.0980 C.3   1 <1>  -0.1600 
 10 C       -0.0600     3.7810     0.6640 C.ar  1 <1>   0.0820 
 11 N       -4.5700    -2.8200     0.4210 N.4   1 <1>  -0.9590 
 12 C       -4.9140    -0.3450    -0.3580 C.3   1 <1>   0.0000 
 13 C       -0.1350     4.3750    -0.5840 C.ar  1 <1>  -0.1500 
 14 C        0.1830     4.5660     1.7870 C.ar  1 <1>  -0.1500 
 15 C       -6.0260    -2.9650     0.1050 C.3   1 <1>   0.3430 
 16 C       -3.7800    -3.6820    -0.5160 C.3   1 <1>   0.2630 
 17 C       -6.4400    -0.4730    -0.0670 C.3   1 <1>  -0.1600 
 18 C       -4.6430    -0.4300    -1.8900 C.3   1 <1>   0.1200 
 19 C        0.0080     5.7440    -0.7250 C.ar  1 <1>   0.0820 
 20 C        0.3300     5.9360     1.6510 C.ar  1 <1>  -0.1500 
 21 C       -6.8260    -1.7810     0.6470 C.3   1 <1>  -0.1600 
 22 O       -5.0660    -1.6310    -2.4370 O.3   1 <1>  -0.6800 
 23 O       -0.0930     6.2410    -1.9830 O.3   1 <1>  -0.3630 
 24 C        0.2420     6.5280     0.4030 C.ar  1 <1>  -0.1500 
 25 C        0.0770     7.6160    -2.2440 C.3   1 <1>   0.0400 
 26 H        0.2310     1.7280     2.5570 H     1 <1>   0.0800 
 27 H       -1.3780     2.4210     2.4100 H     1 <1>   0.0800 
 28 H       -2.2920    -1.3410    -0.6880 H     1 <1>   0.0800 
 29 H       -2.0760    -1.8920     0.9510 H     1 <1>   0.0800 
 30 H       -2.7170     2.2600     0.4390 H     1 <1>   0.0800 
 31 H       -2.6110     1.3260    -1.0170 H     1 <1>   0.0800 
 32 H       -4.3020    -1.0760     1.5150 H     1 <1>   0.0800 
 33 H       -4.7440     1.2290     1.1230 H     1 <1>   0.0800 
 34 H       -4.9540     1.8220    -0.4860 H     1 <1>   0.0800 
 35 H       -4.4360    -3.1990     1.3680 H     1 <1>   0.4500 
 36 H       -0.3080     3.7710    -1.4540 H     1 <1>   0.1500 
 37 H        0.2680     4.1310     2.7650 H     1 <1>   0.1500 
 38 H       -6.1660    -3.0090    -0.9630 H     1 <1>   0.0800 
 39 H       -6.4020    -3.8840     0.5250 H     1 <1>   0.0800 
 40 H       -3.8400    -3.3020    -1.5220 H     1 <1>   0.0800 
 41 H       -4.1640    -4.6890    -0.5100 H     1 <1>   0.0800 
 42 H       -2.7440    -3.7130    -0.2210 H     1 <1>   0.0800 
 43 H       -6.7930     0.3450     0.5390 H     1 <1>   0.0800 
 44 H       -6.9890    -0.4150    -0.9920 H     1 <1>   0.0800 
 45 H       -3.5990    -0.3190    -2.1220 H     1 <1>   0.0800 
 46 H       -5.1810     0.3570    -2.3940 H     1 <1>   0.0800 
 47 H        0.5170     6.5440     2.5200 H     1 <1>   0.1500 
 48 H       -7.8750    -1.9660     0.4930 H     1 <1>   0.0800 
 49 H       -6.6690    -1.6960     1.7080 H     1 <1>   0.0800 
 50 H       -5.0860    -1.5700    -3.4170 H     1 <1>   0.4000 
 51 H        0.3580     7.5920     0.3270 H     1 <1>   0.1500 
 52 H       -0.0310     7.7710    -3.3020 H     1 <1>   0.0800 
 53 H        1.0620     7.9120    -1.9290 H     1 <1>   0.0800 
 54 H       -0.6800     8.1680    -1.7150 H     1 <1>   0.0800 
@<TRIPOS>BOND
  1   1   2  2   
  2   2   3  am  
  3   2   4  1   
  4   3   5  1   
  5   3   6  1   
  6   4   7  1   
  7   4  26  1   
  8   4  27  1   
  9   5   8  1   
 10   5  28  1   
 11   5  29  1   
 12   6   9  1   
 13   6  30  1   
 14   6  31  1   
 15   7  10  1   
 16   8  11  1   
 17   8  12  1   
 18   8  32  1   
 19   9  12  1   
 20   9  33  1   
 21   9  34  1   
 22  10  13  ar  
 23  10  14  ar  
 24  11  15  1   
 25  11  16  1   
 26  11  35  1   
 27  12  17  1   
 28  12  18  1   
 29  13  19  ar  
 30  13  36  1   
 31  14  20  ar  
 32  14  37  1   
 33  15  21  1   
 34  15  38  1   
 35  15  39  1   
 36  16  40  1   
 37  16  41  1   
 38  16  42  1   
 39  17  21  1   
 40  17  43  1   
 41  17  44  1   
 42  18  22  1   
 43  18  45  1   
 44  18  46  1   
 45  19  23  1   
 46  19  24  ar  
 47  20  24  ar  
 48  20  47  1   
 49  21  48  1   
 50  21  49  1   
 51  22  50  1   
 52  23  25  1   
 53  24  51  1   
 54  25  52  1   
 55  25  53  1   
 56  25  54  1   
@<TRIPOS>SUBSTRUCTURE
  1 ****   6 GROUP 4 **** **** 0

# MOE 2024.06 (io_trps.svl 2023.06)
