@<TRIPOS>MOLECULE
NONAME
42 44 1 0 0 
SMALL
USER_CHARGES


@<TRIPOS>ATOM
  1 CL      -1.4840    -0.5740     2.6670 Cl    1 <1>  -0.1770 
  2 C       -2.7570    -1.4220     1.8290 C.ar  1 <1>   0.1770 
  3 C       -3.8860    -1.8090     2.5250 C.ar  1 <1>  -0.1500 
  4 C       -2.6170    -1.6940     0.4820 C.ar  1 <1>  -0.1500 
  5 C       -4.8970    -2.4800     1.8570 C.ar  1 <1>  -0.1500 
  6 C       -3.6300    -2.3650    -0.1840 C.ar  1 <1>  -0.1500 
  7 C       -4.7750    -2.7570     0.5000 C.ar  1 <1>  -0.1430 
  8 C       -5.8920    -3.4800    -0.2300 C.3   1 <1>   0.4870 
  9 N       -7.0530    -2.5670    -0.3370 N.4   1 <1>  -0.9590 
 10 C       -8.2990    -3.2450    -0.7750 C.3   1 <1>   0.3430 
 11 C       -6.7630    -1.3120    -1.0970 C.3   1 <1>   0.3430 
 12 C       -9.5090    -2.3640    -0.3780 C.3   1 <1>   0.0000 
 13 C       -8.0530    -0.6460    -1.6050 C.3   1 <1>  -0.1600 
 14 C       -9.8970    -2.6090     1.0930 C.3   1 <1>   0.2000 
 15 C       -9.2390    -0.8570    -0.6480 C.3   1 <1>  -0.1600 
 16 C      -10.7510    -2.8850    -1.1150 C.3   1 <1>  -0.1600 
 17 O       -8.7790    -2.7110     1.9140 O.3   1 <1>  -0.6800 
 18 C      -10.6950    -3.9130     1.1120 C.3   1 <1>  -0.1600 
 19 C      -11.2010    -4.1180    -0.3240 C.3   1 <1>  -0.1600 
 20 H       -3.9650    -1.5870     3.5750 H     1 <1>   0.1500 
 21 H       -1.7240    -1.3840    -0.0320 H     1 <1>   0.1500 
 22 H       -5.7730    -2.7820     2.4070 H     1 <1>   0.1500 
 23 H       -3.5100    -2.5770    -1.2330 H     1 <1>   0.1500 
 24 H       -6.1660    -4.3620     0.3260 H     1 <1>   0.0800 
 25 H       -5.5620    -3.7800    -1.2110 H     1 <1>   0.0800 
 26 H       -7.2860    -2.2870     0.6350 H     1 <1>   0.4500 
 27 H       -8.2810    -3.3860    -1.8420 H     1 <1>   0.0800 
 28 H       -8.3920    -4.2080    -0.3000 H     1 <1>   0.0800 
 29 H       -6.2370    -0.6280    -0.4490 H     1 <1>   0.0800 
 30 H       -6.1240    -1.5260    -1.9380 H     1 <1>   0.0800 
 31 H       -7.8730     0.4060    -1.7380 H     1 <1>   0.0800 
 32 H       -8.2980    -1.0470    -2.5730 H     1 <1>   0.0800 
 33 H      -10.5150    -1.8010     1.4520 H     1 <1>   0.0800 
 34 H      -10.1150    -0.3720    -1.0440 H     1 <1>   0.0800 
 35 H       -9.0020    -0.3630     0.2790 H     1 <1>   0.0800 
 36 H      -11.5390    -2.1510    -1.0710 H     1 <1>   0.0800 
 37 H      -10.5610    -3.1140    -2.1500 H     1 <1>   0.0800 
 38 H       -9.0740    -2.8390     2.8410 H     1 <1>   0.4000 
 39 H      -10.0800    -4.7490     1.4020 H     1 <1>   0.0800 
 40 H      -11.5250    -3.8300     1.7920 H     1 <1>   0.0800 
 41 H      -10.7630    -5.0090    -0.7420 H     1 <1>   0.0800 
 42 H      -12.2740    -4.2220    -0.3520 H     1 <1>   0.0800 
@<TRIPOS>BOND
  1   1   2  1   
  2   2   3  ar  
  3   2   4  ar  
  4   3   5  ar  
  5   3  20  1   
  6   4   6  ar  
  7   4  21  1   
  8   5   7  ar  
  9   5  22  1   
 10   6   7  ar  
 11   6  23  1   
 12   7   8  1   
 13   8   9  1   
 14   8  24  1   
 15   8  25  1   
 16   9  10  1   
 17   9  11  1   
 18   9  26  1   
 19  10  12  1   
 20  10  27  1   
 21  10  28  1   
 22  11  13  1   
 23  11  29  1   
 24  11  30  1   
 25  12  14  1   
 26  12  15  1   
 27  12  16  1   
 28  13  15  1   
 29  13  31  1   
 30  13  32  1   
 31  14  17  1   
 32  14  18  1   
 33  14  33  1   
 34  15  34  1   
 35  15  35  1   
 36  16  19  1   
 37  16  36  1   
 38  16  37  1   
 39  17  38  1   
 40  18  19  1   
 41  18  39  1   
 42  18  40  1   
 43  19  41  1   
 44  19  42  1   
@<TRIPOS>SUBSTRUCTURE
  1 ****   9 GROUP 4 **** **** 0

# MOE 2024.06 (io_trps.svl 2023.06)
