@<TRIPOS>MOLECULE
NONAME
48 50 1 0 0 
SMALL
USER_CHARGES


@<TRIPOS>ATOM
  1 O       -1.1920     0.2130    -2.2240 O.2   1 <1>  -0.5700 
  2 C       -2.0230     0.7350    -1.5180 C.2   1 <1>   0.5690 
  3 N       -3.0490     0.0070    -0.9710 N.am  1 <1>  -0.6600 
  4 C       -1.8670     2.2280    -1.2520 C.3   1 <1>  -0.0190 
  5 C       -2.9750    -1.4910    -0.9880 C.3   1 <1>   0.3210 
  6 C       -4.3080     0.5830    -0.4040 C.3   1 <1>   0.1400 
  7 C       -1.5680     2.9930    -2.5440 C.3   1 <1>   0.1200 
  8 C       -0.7250     2.4790    -0.2610 C.3   1 <1>  -0.0170 
  9 C       -3.2910    -2.1020     0.3760 C.2   1 <1>   0.0460 
 10 C       -4.1600     0.9320     1.0830 C.3   1 <1>   0.1200 
 11 O       -1.5160     4.3840    -2.2810 O.3   1 <1>  -0.3630 
 12 C       -0.4420     3.9700    -0.1660 C.ar  1 <1>  -0.1440 
 13 N       -2.4180    -1.9910     1.4010 N.2   1 <1>  -0.5650 
 14 C       -4.3960    -2.7890     0.7600 C.2   1 <1>  -0.3320 
 15 O       -5.2030     1.7670     1.4630 O.3   1 <1>  -0.6800 
 16 C       -0.8500     4.8310    -1.1830 C.ar  1 <1>   0.0820 
 17 C        0.2260     4.4820     0.9350 C.ar  1 <1>  -0.1500 
 18 C       -2.9990    -2.6090     2.3750 C.2   1 <1>   0.0360 
 19 N       -4.2050    -3.1160     2.0520 N.pl3 1 <1>   0.0330 
 20 C       -5.6550    -3.1740     0.0030 C.3   1 <1>  -0.0600 
 21 C       -0.5960     6.1880    -1.0900 C.ar  1 <1>  -0.1500 
 22 C        0.4850     5.8480     1.0290 C.ar  1 <1>   0.0820 
 23 C        0.0690     6.6930     0.0130 C.ar  1 <1>  -0.1500 
 24 O        1.1330     6.4250     2.0750 O.3   1 <1>  -0.3630 
 25 C        1.6160     5.6510     3.1500 C.3   1 <1>   0.0400 
 26 H       -2.7680     2.6370    -0.8450 H     1 <1>   0.0800 
 27 H       -1.9890    -1.8180    -1.2710 H     1 <1>   0.0800 
 28 H       -3.6640    -1.8640    -1.7230 H     1 <1>   0.0800 
 29 H       -5.1100    -0.1260    -0.5160 H     1 <1>   0.0800 
 30 H       -4.5760     1.4630    -0.9620 H     1 <1>   0.0800 
 31 H       -2.3360     2.8250    -3.2780 H     1 <1>   0.0800 
 32 H       -0.6180     2.6960    -2.9550 H     1 <1>   0.0800 
 33 H        0.1670     1.9800    -0.5990 H     1 <1>   0.0800 
 34 H       -0.9850     2.0830     0.7050 H     1 <1>   0.0800 
 35 H       -3.2340     1.4390     1.2820 H     1 <1>   0.0800 
 36 H       -4.2160     0.0430     1.6870 H     1 <1>   0.0800 
 37 H       -5.0540     2.6810     1.1510 H     1 <1>   0.4000 
 38 H        0.5390     3.8080     1.7090 H     1 <1>   0.1500 
 39 H       -2.5770    -2.7180     3.3590 H     1 <1>   0.1500 
 40 H       -4.8360    -3.6390     2.6660 H     1 <1>   0.2700 
 41 H       -5.6220    -2.8090    -1.0070 H     1 <1>   0.0800 
 42 H       -6.5200    -2.7550     0.4860 H     1 <1>   0.0800 
 43 H       -5.7570    -4.2450    -0.0260 H     1 <1>   0.0800 
 44 H       -0.9190     6.8410    -1.8800 H     1 <1>   0.1500 
 45 H        0.2710     7.7460     0.0910 H     1 <1>   0.1500 
 46 H        2.1000     6.3120     3.8460 H     1 <1>   0.0800 
 47 H        2.3230     4.9340     2.7730 H     1 <1>   0.0800 
 48 H        0.7860     5.1610     3.6270 H     1 <1>   0.0800 
@<TRIPOS>BOND
  1   1   2  2   
  2   2   3  am  
  3   2   4  1   
  4   3   5  1   
  5   3   6  1   
  6   4   7  1   
  7   4   8  1   
  8   4  26  1   
  9   5   9  1   
 10   5  27  1   
 11   5  28  1   
 12   6  10  1   
 13   6  29  1   
 14   6  30  1   
 15   7  11  1   
 16   7  31  1   
 17   7  32  1   
 18   8  12  1   
 19   8  33  1   
 20   8  34  1   
 21   9  13  1   
 22   9  14  2   
 23  10  15  1   
 24  10  35  1   
 25  10  36  1   
 26  11  16  1   
 27  12  16  ar  
 28  12  17  ar  
 29  13  18  2   
 30  14  19  1   
 31  14  20  1   
 32  15  37  1   
 33  16  21  ar  
 34  17  22  ar  
 35  17  38  1   
 36  18  19  1   
 37  18  39  1   
 38  19  40  1   
 39  20  41  1   
 40  20  42  1   
 41  20  43  1   
 42  21  23  ar  
 43  21  44  1   
 44  22  23  ar  
 45  22  24  1   
 46  23  45  1   
 47  24  25  1   
 48  25  46  1   
 49  25  47  1   
 50  25  48  1   
@<TRIPOS>SUBSTRUCTURE
  1 ****   4 GROUP 4 **** **** 0

# MOE 2024.06 (io_trps.svl 2023.06)
