@<TRIPOS>MOLECULE
NONAME
36 38 1 0 0 
SMALL
USER_CHARGES


@<TRIPOS>ATOM
  1 S       -1.3320    -0.4320    -0.5460 S.3   1 <1>  -0.0910 
  2 C       -3.0380    -0.1830    -0.2540 C.2   1 <1>   0.1880 
  3 C       -1.3000    -1.5730     0.7650 C.2   1 <1>  -0.1210 
  4 N       -3.5160    -0.8830     0.6970 N.2   1 <1>  -0.5720 
  5 C       -3.7470     0.8140    -1.1420 C.3   1 <1>  -0.0720 
  6 C       -2.5330    -1.6740     1.2860 C.2   1 <1>   0.0340 
  7 C       -2.9230    -2.5540     2.4670 C.3   1 <1>   0.3400 
  8 N       -3.5700    -3.8240     2.0350 N.pl3 1 <1>  -0.7200 
  9 C       -4.6860    -3.9680     1.3280 C.cat 1 <1>   1.0680 
 10 N       -5.3700    -2.9820     0.7700 N.pl3 1 <1>  -0.7060 
 11 N       -5.2830    -5.1350     1.0740 N.pl3 1 <1>  -0.7690 
 12 C       -6.4360    -3.5050     0.1170 C.2   1 <1>   0.4180 
 13 C       -6.4190    -4.8450     0.2890 C.2   1 <1>   0.2670 
 14 C       -4.9290    -6.5280     1.4660 C.3   1 <1>   0.2640 
 15 N       -7.3940    -2.8310    -0.6240 N.am  1 <1>  -0.4440 
 16 C       -7.4610    -5.6180    -0.3200 C.2   1 <1>   0.6970 
 17 C       -8.3950    -3.5840    -1.2180 C.2   1 <1>   0.6840 
 18 C       -7.3260    -1.3510    -0.7900 C.3   1 <1>   0.0480 
 19 O       -7.5450    -6.8260    -0.2260 O.2   1 <1>  -0.5770 
 20 N       -8.4010    -4.9390    -1.0440 N.am  1 <1>  -0.4980 
 21 O       -9.2670    -3.0860    -1.8920 O.2   1 <1>  -0.5770 
 22 H       -0.3570    -2.0340     0.9980 H     1 <1>   0.1390 
 23 H       -3.2670     1.7730    -1.0660 H     1 <1>   0.0690 
 24 H       -4.7730     0.9160    -0.8400 H     1 <1>   0.0690 
 25 H       -3.7120     0.4840    -2.1640 H     1 <1>   0.0690 
 26 H       -3.5860    -2.0070     3.1160 H     1 <1>   0.0690 
 27 H       -2.0360    -2.7920     3.0280 H     1 <1>   0.0690 
 28 H       -3.1040    -4.6650     2.3630 H     1 <1>   0.4420 
 29 H       -5.0050    -2.0200     0.7370 H     1 <1>   0.4420 
 30 H       -4.0450    -6.5440     2.0780 H     1 <1>   0.0690 
 31 H       -4.7540    -7.1220     0.5840 H     1 <1>   0.0690 
 32 H       -5.7420    -6.9690     2.0190 H     1 <1>   0.0690 
 33 H       -6.4970    -1.0960    -1.4260 H     1 <1>   0.0690 
 34 H       -7.1980    -0.8780     0.1680 H     1 <1>   0.0690 
 35 H       -8.2310    -0.9750    -1.2350 H     1 <1>   0.0690 
 36 H       -9.1490    -5.4650    -1.4920 H     1 <1>   0.3610 
@<TRIPOS>BOND
  1   1   2  1   
  2   1   3  1   
  3   2   4  2   
  4   2   5  1   
  5   3   6  2   
  6   3  22  1   
  7   4   6  1   
  8   5  23  1   
  9   5  24  1   
 10   5  25  1   
 11   6   7  1   
 12   7   8  1   
 13   7  26  1   
 14   7  27  1   
 15   8   9  ar  
 16   8  28  1   
 17   9  10  ar  
 18   9  11  ar  
 19  10  12  1   
 20  10  29  1   
 21  11  13  1   
 22  11  14  1   
 23  12  13  2   
 24  12  15  1   
 25  13  16  1   
 26  14  30  1   
 27  14  31  1   
 28  14  32  1   
 29  15  17  am  
 30  15  18  1   
 31  16  19  2   
 32  16  20  am  
 33  17  20  am  
 34  17  21  2   
 35  18  33  1   
 36  18  34  1   
 37  18  35  1   
 38  20  36  1   
@<TRIPOS>SUBSTRUCTURE
  1 ****  10 GROUP 4 **** **** 0

# MOE 2024.06 (io_trps.svl 2023.06)
