@<TRIPOS>MOLECULE
NONAME
49 51 1 0 0 
SMALL
USER_CHARGES


@<TRIPOS>ATOM
  1 CL      -0.4470    -0.4120    -1.4660 Cl    1 <1>  -0.1770 
  2 C       -1.7020    -0.9710    -0.3840 C.ar  1 <1>   0.1770 
  3 C       -2.5050    -0.0640     0.2990 C.ar  1 <1>   0.0830 
  4 C       -1.8810    -2.3330    -0.2320 C.ar  1 <1>  -0.1500 
  5 O       -2.3560     1.2670     0.1460 O.3   1 <1>  -0.3630 
  6 C       -3.5010    -0.5370     1.1370 C.ar  1 <1>  -0.1500 
  7 C       -2.8830    -2.8060     0.6060 C.ar  1 <1>  -0.1430 
  8 C       -1.3190     1.8790     0.9040 C.3   1 <1>   0.1810 
  9 C       -3.6850    -1.9010     1.2920 C.ar  1 <1>  -0.1500 
 10 C       -3.1110    -4.2980     0.7690 C.3   1 <1>   0.4870 
 11 C       -1.1210     3.3350     0.4990 C.2   1 <1>   0.5690 
 12 N       -3.7590    -4.8280    -0.4640 N.4   1 <1>  -0.9590 
 13 O       -0.5450     4.0830     1.2460 O.2   1 <1>  -0.5700 
 14 N       -1.5770     3.7830    -0.6880 N.am  1 <1>  -0.8000 
 15 C       -5.1370    -4.2580    -0.6360 C.3   1 <1>   0.3430 
 16 C       -3.9230    -6.3130    -0.3690 C.3   1 <1>   0.3430 
 17 C       -6.0890    -5.2890    -0.0260 C.3   1 <1>   0.2000 
 18 C       -5.4280    -6.6050    -0.4310 C.3   1 <1>  -0.0800 
 19 O       -6.0580    -5.1500     1.3600 O.3   1 <1>  -0.6800 
 20 C       -5.8360    -7.8610     0.3650 C.3   1 <1>   0.0200 
 21 C       -4.9460    -9.0300    -0.0110 C.2   1 <1>  -0.0400 
 22 O       -4.7110    -9.2890    -1.2690 O.3   1 <1>  -0.0190 
 23 C       -4.2710    -9.9240     0.7270 C.2   1 <1>  -0.1500 
 24 N       -3.9010   -10.2940    -1.4130 N.2   1 <1>  -0.4100 
 25 C       -3.6260   -10.7060    -0.2280 C.2   1 <1>   0.1080 
 26 C       -2.7250   -11.8840     0.0760 C.3   1 <1>  -0.0590 
 27 H       -1.2310    -2.9990    -0.7720 H     1 <1>   0.1500 
 28 H       -4.1260     0.1650     1.6620 H     1 <1>   0.1500 
 29 H       -1.5850     1.8280     1.9440 H     1 <1>   0.0800 
 30 H       -0.4030     1.3410     0.7420 H     1 <1>   0.0800 
 31 H       -4.4630    -2.2490     1.9540 H     1 <1>   0.1500 
 32 H       -3.7400    -4.4800     1.6260 H     1 <1>   0.0800 
 33 H       -2.1650    -4.7880     0.9310 H     1 <1>   0.0800 
 34 H       -3.1750    -4.5690    -1.2680 H     1 <1>   0.4500 
 35 H       -1.4480     4.7590    -0.9550 H     1 <1>   0.3700 
 36 H       -2.0980     3.1830    -1.3300 H     1 <1>   0.3700 
 37 H       -5.2510    -3.2950    -0.1680 H     1 <1>   0.0800 
 38 H       -5.3540    -4.1630    -1.6870 H     1 <1>   0.0800 
 39 H       -3.4100    -6.8190    -1.1720 H     1 <1>   0.0800 
 40 H       -3.5290    -6.6700     0.5690 H     1 <1>   0.0800 
 41 H       -7.1030    -5.1760    -0.3730 H     1 <1>   0.0800 
 42 H       -5.6660    -6.7840    -1.4660 H     1 <1>   0.0800 
 43 H       -6.8620    -5.5340     1.7730 H     1 <1>   0.4000 
 44 H       -6.8580    -8.1140     0.1440 H     1 <1>   0.0800 
 45 H       -5.7500    -7.6990     1.4250 H     1 <1>   0.0800 
 46 H       -4.2110   -10.0460     1.7930 H     1 <1>   0.1500 
 47 H       -1.9260   -11.5790     0.7250 H     1 <1>   0.0800 
 48 H       -2.3050   -12.2690    -0.8360 H     1 <1>   0.0800 
 49 H       -3.2920   -12.6630     0.5520 H     1 <1>   0.0800 
@<TRIPOS>BOND
  1   1   2  1   
  2   2   3  ar  
  3   2   4  ar  
  4   3   5  1   
  5   3   6  ar  
  6   4   7  ar  
  7   4  27  1   
  8   5   8  1   
  9   6   9  ar  
 10   6  28  1   
 11   7   9  ar  
 12   7  10  1   
 13   8  11  1   
 14   8  29  1   
 15   8  30  1   
 16   9  31  1   
 17  10  12  1   
 18  10  32  1   
 19  10  33  1   
 20  11  13  2   
 21  11  14  am  
 22  12  15  1   
 23  12  16  1   
 24  12  34  1   
 25  14  35  1   
 26  14  36  1   
 27  15  17  1   
 28  15  37  1   
 29  15  38  1   
 30  16  18  1   
 31  16  39  1   
 32  16  40  1   
 33  17  18  1   
 34  17  19  1   
 35  17  41  1   
 36  18  20  1   
 37  18  42  1   
 38  19  43  1   
 39  20  21  1   
 40  20  44  1   
 41  20  45  1   
 42  21  22  1   
 43  21  23  2   
 44  22  24  1   
 45  23  25  1   
 46  23  46  1   
 47  24  25  2   
 48  25  26  1   
 49  26  47  1   
 50  26  48  1   
 51  26  49  1   
@<TRIPOS>SUBSTRUCTURE
  1 ****  10 GROUP 4 **** **** 0

# MOE 2024.06 (io_trps.svl 2023.06)
