@<TRIPOS>MOLECULE
NONAME
42 43 1 0 0 
SMALL
USER_CHARGES


@<TRIPOS>ATOM
  1 O        2.2170    -0.8080     2.6550 O.2   1 <1>  -0.5700 
  2 C        1.7210    -1.2590     1.6470 C.2   1 <1>   0.5690 
  3 N        1.3230    -0.5090     0.5840 N.am  1 <1>  -0.4930 
  4 C        1.5070    -2.7690     1.5340 C.3   1 <1>   0.1710 
  5 C        1.3860     0.8890     0.3670 C.2   1 <1>   0.0630 
  6 N        1.3440    -3.2580     0.1250 N.3   1 <1>  -0.8100 
  7 C        0.9440     1.5860    -0.7600 C.2   1 <1>   0.1080 
  8 C        1.8800     1.8450     1.1780 C.2   1 <1>  -0.3020 
  9 C        0.7370    -4.6100     0.0860 C.3   1 <1>   0.1100 
 10 C        2.6490    -3.2830    -0.5580 C.3   1 <1>   0.0300 
 11 N        1.1480     2.8630    -0.6610 N.2   1 <1>  -0.7070 
 12 C        0.2960     0.9600    -1.9750 C.3   1 <1>  -0.0590 
 13 N        1.7270     3.0230     0.5410 N.pl3 1 <1>   0.3140 
 14 C       -0.7780    -4.5950     0.3480 C.3   1 <1>   0.2000 
 15 C        2.1190     4.3420     1.0470 C.3   1 <1>   0.0160 
 16 O       -1.2430    -5.9100     0.2100 O.3   1 <1>  -0.5600 
 17 C       -1.5240    -3.6690    -0.6350 C.3   1 <1>   0.1200 
 18 C       -2.6280    -6.0330     0.3690 C.3   1 <1>   0.1200 
 19 O       -2.9100    -3.7990    -0.4830 O.3   1 <1>  -0.5600 
 20 C       -3.3610    -5.1150    -0.6230 C.3   1 <1>   0.1200 
 21 H        0.9800    -1.0810    -0.1910 H     1 <1>   0.3700 
 22 H        0.6240    -2.9940     2.1040 H     1 <1>   0.0800 
 23 H        2.3330    -3.2720     2.0050 H     1 <1>   0.0800 
 24 H        2.3200     1.7430     2.1520 H     1 <1>   0.1500 
 25 H        1.2190    -5.2500     0.8060 H     1 <1>   0.0800 
 26 H        0.8860    -5.0340    -0.8920 H     1 <1>   0.0800 
 27 H        3.1040    -2.3070    -0.5430 H     1 <1>   0.0800 
 28 H        2.5210    -3.5770    -1.5860 H     1 <1>   0.0800 
 29 H        3.3140    -3.9820    -0.0770 H     1 <1>   0.0800 
 30 H       -0.5850     0.4200    -1.6800 H     1 <1>   0.0800 
 31 H        0.9860     0.2900    -2.4520 H     1 <1>   0.0800 
 32 H        0.0160     1.7280    -2.6730 H     1 <1>   0.0800 
 33 H       -0.9710    -4.2850     1.3590 H     1 <1>   0.0800 
 34 H        3.1160     4.2880     1.4400 H     1 <1>   0.0800 
 35 H        1.4340     4.6380     1.8190 H     1 <1>   0.0800 
 36 H        2.0850     5.0510     0.2410 H     1 <1>   0.0800 
 37 H       -1.2640    -3.9090    -1.6510 H     1 <1>   0.0800 
 38 H       -1.2680    -2.6420    -0.4460 H     1 <1>   0.0800 
 39 H       -2.8850    -5.7760     1.3820 H     1 <1>   0.0800 
 40 H       -2.8910    -7.0610     0.1930 H     1 <1>   0.0800 
 41 H       -4.4190    -5.1240    -0.4330 H     1 <1>   0.0800 
 42 H       -3.1850    -5.4350    -1.6360 H     1 <1>   0.0800 
@<TRIPOS>BOND
  1   1   2  2   
  2   2   3  am  
  3   2   4  1   
  4   3   5  1   
  5   3  21  1   
  6   4   6  1   
  7   4  22  1   
  8   4  23  1   
  9   5   7  1   
 10   5   8  2   
 11   6   9  1   
 12   6  10  1   
 13   7  11  2   
 14   7  12  1   
 15   8  13  1   
 16   8  24  1   
 17   9  14  1   
 18   9  25  1   
 19   9  26  1   
 20  10  27  1   
 21  10  28  1   
 22  10  29  1   
 23  11  13  1   
 24  12  30  1   
 25  12  31  1   
 26  12  32  1   
 27  13  15  1   
 28  14  16  1   
 29  14  17  1   
 30  14  33  1   
 31  15  34  1   
 32  15  35  1   
 33  15  36  1   
 34  16  18  1   
 35  17  19  1   
 36  17  37  1   
 37  17  38  1   
 38  18  20  1   
 39  18  39  1   
 40  18  40  1   
 41  19  20  1   
 42  20  41  1   
 43  20  42  1   
@<TRIPOS>SUBSTRUCTURE
  1 ****   3 GROUP 4 **** **** 0

# MOE 2024.06 (io_trps.svl 2023.06)
