@<TRIPOS>MOLECULE
NONAME
55 58 1 0 0 
SMALL
USER_CHARGES


@<TRIPOS>ATOM
  1 S       -1.5430     0.7570     1.6930 S.o2  1 <1>   1.3330 
  2 O       -1.7340    -0.1410     2.8050 O.2   1 <1>  -0.6500 
  3 O       -1.0030     2.0810     1.8700 O.2   1 <1>  -0.6500 
  4 N       -3.0320     0.9760     0.9490 N.am  1 <1>  -0.9140 
  5 C       -0.5580    -0.0690     0.4590 C.3   1 <1>  -0.1350 
  6 C       -3.7000    -0.2290     0.4830 C.3   1 <1>   0.1960 
  7 C       -5.1620     0.0960     0.1820 C.3   1 <1>  -0.0990 
  8 C       -5.9060    -1.1010    -0.3880 C.2   1 <1>   0.5690 
  9 O       -5.2500    -2.0310    -0.7980 O.2   1 <1>  -0.5700 
 10 N       -7.2750    -1.1130    -0.4480 N.am  1 <1>  -0.6600 
 11 C       -8.1760     0.0120    -0.0390 C.3   1 <1>   0.1400 
 12 C       -7.9780    -2.3430    -0.9340 C.3   1 <1>   0.1400 
 13 C       -9.0950     0.4540    -1.2020 C.3   1 <1>   0.1430 
 14 C       -9.4510    -2.0780    -1.2880 C.3   1 <1>  -0.1600 
 15 C      -10.2300     1.2610    -0.5950 C.ar  1 <1>   0.1670 
 16 C       -9.6030    -0.7490    -2.0410 C.3   1 <1>  -0.1600 
 17 C       -8.3980     1.5080    -2.1030 C.3   1 <1>  -0.1600 
 18 N      -11.2490     0.7650     0.0660 N.ar  1 <1>  -0.6200 
 19 C      -10.0620     2.5960    -0.7980 C.ar  1 <1>  -0.1440 
 20 C       -8.8030     2.8940    -1.5710 C.3   1 <1>  -0.0170 
 21 C      -12.1400     1.6540     0.5250 C.ar  1 <1>   0.6200 
 22 C      -11.0130     3.4440    -0.2930 C.ar  1 <1>   0.1600 
 23 N      -12.0520     2.9830     0.3660 N.ar  1 <1>  -0.6200 
 24 C      -13.2930     1.1360     1.2520 C.ar  1 <1>   0.0000 
 25 C      -14.5050     1.8310     1.2970 C.ar  1 <1>  -0.1500 
 26 C      -13.2430    -0.0820     1.9370 C.ar  1 <1>  -0.1500 
 27 C      -15.6010     1.3430     1.9850 C.ar  1 <1>  -0.1500 
 28 C      -14.3350    -0.5770     2.6270 C.ar  1 <1>  -0.1500 
 29 C      -15.5190     0.1360     2.6520 C.ar  1 <1>  -0.1500 
 30 H       -2.9060     1.6670     0.2130 H     1 <1>   0.4200 
 31 H        0.4420    -0.1980     0.8250 H     1 <1>   0.0800 
 32 H       -0.5180     0.5120    -0.4400 H     1 <1>   0.0800 
 33 H       -0.9630    -1.0360     0.2380 H     1 <1>   0.0800 
 34 H       -3.6610    -0.9900     1.2470 H     1 <1>   0.0800 
 35 H       -3.2120    -0.6040    -0.4020 H     1 <1>   0.0800 
 36 H       -5.2200     0.8980    -0.5280 H     1 <1>   0.0800 
 37 H       -5.6280     0.3940     1.1020 H     1 <1>   0.0800 
 38 H       -7.6230     0.8590     0.3200 H     1 <1>   0.0800 
 39 H       -8.7870    -0.3360     0.7770 H     1 <1>   0.0800 
 40 H       -7.9150    -3.1090    -0.1810 H     1 <1>   0.0800 
 41 H       -7.4690    -2.7030    -1.8130 H     1 <1>   0.0800 
 42 H      -10.0420    -2.0560    -0.3880 H     1 <1>   0.0800 
 43 H       -9.8190    -2.8870    -1.8930 H     1 <1>   0.0800 
 44 H       -9.0300    -0.8280    -2.9490 H     1 <1>   0.0800 
 45 H      -10.6310    -0.5980    -2.3200 H     1 <1>   0.0800 
 46 H       -8.7750     1.4260    -3.1080 H     1 <1>   0.0800 
 47 H       -7.3300     1.3790    -2.1320 H     1 <1>   0.0800 
 48 H       -8.9810     3.5890    -2.3730 H     1 <1>   0.0800 
 49 H       -8.0520     3.2850    -0.9060 H     1 <1>   0.0800 
 50 H      -10.9240     4.5080    -0.4290 H     1 <1>   0.1500 
 51 H      -14.5900     2.7730     0.7830 H     1 <1>   0.1500 
 52 H      -12.3300    -0.6530     1.9300 H     1 <1>   0.1500 
 53 H      -16.5200     1.9040     2.0000 H     1 <1>   0.1500 
 54 H      -14.2630    -1.5180     3.1440 H     1 <1>   0.1500 
 55 H      -16.3700    -0.2470     3.1880 H     1 <1>   0.1500 
@<TRIPOS>BOND
  1   1   2  2   
  2   1   3  2   
  3   1   4  am  
  4   1   5  1   
  5   4   6  1   
  6   4  30  1   
  7   5  31  1   
  8   5  32  1   
  9   5  33  1   
 10   6   7  1   
 11   6  34  1   
 12   6  35  1   
 13   7   8  1   
 14   7  36  1   
 15   7  37  1   
 16   8   9  2   
 17   8  10  am  
 18  10  11  1   
 19  10  12  1   
 20  11  13  1   
 21  11  38  1   
 22  11  39  1   
 23  12  14  1   
 24  12  40  1   
 25  12  41  1   
 26  13  15  1   
 27  13  16  1   
 28  13  17  1   
 29  14  16  1   
 30  14  42  1   
 31  14  43  1   
 32  15  18  ar  
 33  15  19  ar  
 34  16  44  1   
 35  16  45  1   
 36  17  20  1   
 37  17  46  1   
 38  17  47  1   
 39  18  21  ar  
 40  19  20  1   
 41  19  22  ar  
 42  20  48  1   
 43  20  49  1   
 44  21  23  ar  
 45  21  24  1   
 46  22  23  ar  
 47  22  50  1   
 48  24  25  ar  
 49  24  26  ar  
 50  25  27  ar  
 51  25  51  1   
 52  26  28  ar  
 53  26  52  1   
 54  27  29  ar  
 55  27  53  1   
 56  28  29  ar  
 57  28  54  1   
 58  29  55  1   
@<TRIPOS>SUBSTRUCTURE
  1 ****  11 GROUP 4 **** **** 0

# MOE 2024.06 (io_trps.svl 2023.06)
