@<TRIPOS>MOLECULE
NONAME
56 59 1 0 0 
SMALL
USER_CHARGES


@<TRIPOS>ATOM
  1 O       -0.8350    -1.0180     0.2770 O.3   1 <1>  -0.3630 
  2 C        0.3740    -1.6120     0.3540 C.ar  1 <1>   0.0820 
  3 C       -1.5510    -1.0380    -0.9410 C.3   1 <1>   0.2800 
  4 C        0.7130    -2.6550    -0.4970 C.ar  1 <1>  -0.1440 
  5 C        1.2660    -1.1650     1.3120 C.ar  1 <1>  -0.1500 
  6 C       -1.6690    -2.4950    -1.4040 C.3   1 <1>  -0.1600 
  7 C       -0.8300    -0.1410    -1.9570 C.3   1 <1>  -0.2400 
  8 C       -2.9340    -0.4580    -0.6380 C.3   1 <1>  -0.2400 
  9 C        1.9800    -3.2120    -0.4070 C.ar  1 <1>  -0.1500 
 10 C       -0.3150    -3.2100    -1.4730 C.3   1 <1>   0.4330 
 11 C        2.5210    -1.7400     1.4160 C.ar  1 <1>  -0.1440 
 12 C        2.8760    -2.7590     0.5460 C.ar  1 <1>  -0.1500 
 13 N       -0.5480    -4.6410    -1.1600 N.pl3 1 <1>  -0.8690 
 14 C        3.5140    -1.2470     2.4540 C.3   1 <1>  -0.0970 
 15 C       -0.6280    -5.2880     0.0110 C.ar  1 <1>   0.7710 
 16 N       -0.9810    -6.5540    -0.0580 N.ar  1 <1>  -0.6200 
 17 N       -0.3710    -4.6670     1.1780 N.ar  1 <1>  -0.1790 
 18 C       -1.1000    -7.2310     1.0710 C.ar  1 <1>   0.4100 
 19 C       -0.4560    -5.3250     2.3550 C.ar  1 <1>   0.2110 
 20 N       -1.4950    -8.5300     0.9920 N.pl3 1 <1>  -0.8380 
 21 C       -0.8230    -6.6280     2.3160 C.ar  1 <1>  -0.1500 
 22 C       -2.3180    -9.2250     2.0280 C.3   1 <1>   0.2090 
 23 C       -1.2490    -9.3660    -0.2250 C.3   1 <1>   0.2090 
 24 C       -3.6660    -9.6200     1.4220 C.3   1 <1>  -0.1600 
 25 C       -2.5860    -9.7450    -0.8600 C.3   1 <1>  -0.1600 
 26 C       -3.4640   -10.4610     0.1630 C.3   1 <1>   0.2000 
 27 O       -4.6950   -10.6990    -0.4050 O.3   1 <1>  -0.6800 
 28 H        0.9750    -0.3580     1.9610 H     1 <1>   0.1500 
 29 H       -2.1360    -2.5270    -2.3710 H     1 <1>   0.0800 
 30 H       -2.3200    -3.0040    -0.7160 H     1 <1>   0.0800 
 31 H        0.1570    -0.4990    -2.1820 H     1 <1>   0.0800 
 32 H       -0.7490     0.8600    -1.5710 H     1 <1>   0.0800 
 33 H       -1.3880    -0.0990    -2.8750 H     1 <1>   0.0800 
 34 H       -3.4350    -1.0390     0.1140 H     1 <1>   0.0800 
 35 H       -3.5400    -0.4550    -1.5260 H     1 <1>   0.0800 
 36 H       -2.8440     0.5560    -0.2890 H     1 <1>   0.0800 
 37 H        2.2780    -4.0080    -1.0720 H     1 <1>   0.1500 
 38 H        0.0860    -3.1200    -2.4700 H     1 <1>   0.0800 
 39 H        3.8590    -3.1970     0.6060 H     1 <1>   0.1500 
 40 H       -0.7770    -5.2180    -1.9750 H     1 <1>   0.4000 
 41 H        3.0170    -0.6830     3.2230 H     1 <1>   0.0800 
 42 H        4.2460    -0.6140     1.9840 H     1 <1>   0.0800 
 43 H        4.0190    -2.0770     2.9140 H     1 <1>   0.0800 
 44 H       -0.0560    -3.6960     1.1050 H     1 <1>   0.4570 
 45 H       -0.2230    -4.8020     3.2700 H     1 <1>   0.1500 
 46 H       -0.8910    -7.2140     3.2120 H     1 <1>   0.1500 
 47 H       -2.4970    -8.5890     2.8760 H     1 <1>   0.0800 
 48 H       -1.7950   -10.1030     2.3680 H     1 <1>   0.0800 
 49 H       -0.7160   -10.2570     0.0620 H     1 <1>   0.0800 
 50 H       -0.6410    -8.8410    -0.9420 H     1 <1>   0.0800 
 51 H       -4.2120    -8.7240     1.1880 H     1 <1>   0.0800 
 52 H       -4.2250   -10.1860     2.1450 H     1 <1>   0.0800 
 53 H       -2.4070   -10.3930    -1.6990 H     1 <1>   0.0800 
 54 H       -3.0640    -8.8480    -1.2090 H     1 <1>   0.0800 
 55 H       -3.0340   -11.4160     0.4190 H     1 <1>   0.0800 
 56 H       -5.1070    -9.8580    -0.6780 H     1 <1>   0.4000 
@<TRIPOS>BOND
  1   1   2  1   
  2   1   3  1   
  3   2   4  ar  
  4   2   5  ar  
  5   3   6  1   
  6   3   7  1   
  7   3   8  1   
  8   4   9  ar  
  9   4  10  1   
 10   5  11  ar  
 11   5  28  1   
 12   6  10  1   
 13   6  29  1   
 14   6  30  1   
 15   7  31  1   
 16   7  32  1   
 17   7  33  1   
 18   8  34  1   
 19   8  35  1   
 20   8  36  1   
 21   9  12  ar  
 22   9  37  1   
 23  10  13  1   
 24  10  38  1   
 25  11  12  ar  
 26  11  14  1   
 27  12  39  1   
 28  13  15  1   
 29  13  40  1   
 30  14  41  1   
 31  14  42  1   
 32  14  43  1   
 33  15  16  ar  
 34  15  17  ar  
 35  16  18  ar  
 36  17  19  ar  
 37  17  44  1   
 38  18  20  1   
 39  18  21  ar  
 40  19  21  ar  
 41  19  45  1   
 42  20  22  1   
 43  20  23  1   
 44  21  46  1   
 45  22  24  1   
 46  22  47  1   
 47  22  48  1   
 48  23  25  1   
 49  23  49  1   
 50  23  50  1   
 51  24  26  1   
 52  24  51  1   
 53  24  52  1   
 54  25  26  1   
 55  25  53  1   
 56  25  54  1   
 57  26  27  1   
 58  26  55  1   
 59  27  56  1   
@<TRIPOS>SUBSTRUCTURE
  1 ****  15 GROUP 4 **** **** 0

# MOE 2024.06 (io_trps.svl 2023.06)
