@<TRIPOS>MOLECULE
NONAME
55 57 1 0 0 
SMALL
USER_CHARGES


@<TRIPOS>ATOM
  1 S        1.5180    -0.8180    -1.5050 S.3   1 <1>  -0.4600 
  2 C        1.0330     0.5750    -0.4130 C.3   1 <1>   0.1310 
  3 C       -0.0570    -1.3460    -2.2320 C.3   1 <1>  -0.0100 
  4 C        2.2270     1.1750     0.3220 C.2   1 <1>   0.5690 
  5 O        2.0300     2.1020     1.0710 O.2   1 <1>  -0.5700 
  6 N        3.4660     0.6510     0.1150 N.am  1 <1>  -0.7300 
  7 C        4.7570     0.9960     0.7580 C.3   1 <1>   0.3000 
  8 C        5.0360     2.5290     0.6790 C.3   1 <1>   0.2000 
  9 C        5.8500     0.2800    -0.0550 C.3   1 <1>  -0.1600 
 10 C        4.6880     0.4500     2.1960 C.3   1 <1>  -0.2400 
 11 O        4.3910     3.2270     1.6970 O.3   1 <1>  -0.6800 
 12 C        6.5380     2.8740     0.6890 C.3   1 <1>   0.1200 
 13 C        7.2960     0.5970     0.4110 C.3   1 <1>   0.2800 
 14 O        7.3290     1.8010     1.1280 O.3   1 <1>  -0.5600 
 15 C        7.8290    -0.4690     1.4000 C.3   1 <1>  -0.1600 
 16 C        8.2420     0.7370    -0.8020 C.3   1 <1>  -0.1600 
 17 C        8.7860    -1.4790     0.7600 C.3   1 <1>   0.1400 
 18 C        9.7070     0.5890    -0.3930 C.3   1 <1>   0.1400 
 19 N        9.9530    -0.7840     0.1380 N.am  1 <1>  -0.6600 
 20 C       11.1920    -1.4030     0.0660 C.2   1 <1>   0.7150 
 21 O       11.2280    -2.5990     0.3190 O.2   1 <1>  -0.5700 
 22 C       12.4220    -0.7100    -0.3120 C.2   1 <1>   0.1010 
 23 N       12.6790     0.5760    -0.1590 N.2   1 <1>  -0.5650 
 24 N       13.4890    -1.3570    -0.8800 N.pl3 1 <1>   0.0480 
 25 C       13.9170     0.7430    -0.6330 C.2   1 <1>   0.0770 
 26 C       14.4280    -0.4220    -1.0780 C.2   1 <1>  -0.3020 
 27 C       13.6380    -2.7830    -1.2400 C.3   1 <1>   0.0160 
 28 H        0.5710     1.3220    -1.0320 H     1 <1>   0.0800 
 29 H        0.3210     0.1950     0.2950 H     1 <1>   0.0800 
 30 H        0.1470    -2.1700    -2.8930 H     1 <1>   0.0800 
 31 H       -0.4710    -0.5150    -2.7750 H     1 <1>   0.0800 
 32 H       -0.7090    -1.6510    -1.4330 H     1 <1>   0.0800 
 33 H        3.5010    -0.1660    -0.5020 H     1 <1>   0.3700 
 34 H        4.6300     2.9050    -0.2430 H     1 <1>   0.0800 
 35 H        5.7490     0.5940    -1.0790 H     1 <1>   0.0800 
 36 H        5.6920    -0.7830    -0.0440 H     1 <1>   0.0800 
 37 H        5.5680     0.7280     2.7460 H     1 <1>   0.0800 
 38 H        4.6020    -0.6200     2.1950 H     1 <1>   0.0800 
 39 H        3.8440     0.8620     2.7190 H     1 <1>   0.0800 
 40 H        3.4350     2.9600     1.6810 H     1 <1>   0.4000 
 41 H        6.7230     3.7070     1.3450 H     1 <1>   0.0800 
 42 H        6.8570     3.1460    -0.3000 H     1 <1>   0.0800 
 43 H        8.3660     0.0140     2.1980 H     1 <1>   0.0800 
 44 H        7.0210    -1.0120     1.8500 H     1 <1>   0.0800 
 45 H        8.0280    -0.0290    -1.5260 H     1 <1>   0.0800 
 46 H        8.1010     1.6800    -1.2930 H     1 <1>   0.0800 
 47 H        8.2740    -2.0480     0.0030 H     1 <1>   0.0800 
 48 H        9.1320    -2.1640     1.5160 H     1 <1>   0.0800 
 49 H        9.9550     1.3140     0.3650 H     1 <1>   0.0800 
 50 H       10.3320     0.7660    -1.2510 H     1 <1>   0.0800 
 51 H       14.3930     1.7100    -0.6320 H     1 <1>   0.1500 
 52 H       15.3900    -0.6220    -1.5130 H     1 <1>   0.1500 
 53 H       14.5420    -2.9240    -1.8020 H     1 <1>   0.0800 
 54 H       12.7960    -3.0920    -1.8310 H     1 <1>   0.0800 
 55 H       13.6780    -3.3720    -0.3410 H     1 <1>   0.0800 
@<TRIPOS>BOND
  1   1   2  1   
  2   1   3  1   
  3   2   4  1   
  4   2  28  1   
  5   2  29  1   
  6   3  30  1   
  7   3  31  1   
  8   3  32  1   
  9   4   5  2   
 10   4   6  am  
 11   6   7  1   
 12   6  33  1   
 13   7   8  1   
 14   7   9  1   
 15   7  10  1   
 16   8  11  1   
 17   8  12  1   
 18   8  34  1   
 19   9  13  1   
 20   9  35  1   
 21   9  36  1   
 22  10  37  1   
 23  10  38  1   
 24  10  39  1   
 25  11  40  1   
 26  12  14  1   
 27  12  41  1   
 28  12  42  1   
 29  13  14  1   
 30  13  15  1   
 31  13  16  1   
 32  15  17  1   
 33  15  43  1   
 34  15  44  1   
 35  16  18  1   
 36  16  45  1   
 37  16  46  1   
 38  17  19  1   
 39  17  47  1   
 40  17  48  1   
 41  18  19  1   
 42  18  49  1   
 43  18  50  1   
 44  19  20  am  
 45  20  21  2   
 46  20  22  1   
 47  22  23  2   
 48  22  24  1   
 49  23  25  1   
 50  24  26  1   
 51  24  27  1   
 52  25  26  2   
 53  25  51  1   
 54  26  52  1   
 55  27  53  1   
 56  27  54  1   
 57  27  55  1   
@<TRIPOS>SUBSTRUCTURE
  1 ****  13 GROUP 4 **** **** 0

# MOE 2024.06 (io_trps.svl 2023.06)
