@<TRIPOS>MOLECULE
NONAME
56 59 1 0 0 
SMALL
USER_CHARGES


@<TRIPOS>ATOM
  1 O       -2.5300     0.8860    -3.2110 O.2   1 <1>  -0.5700 
  2 C       -2.5340     1.5340    -2.1810 C.2   1 <1>   0.5440 
  3 N       -3.2090     0.9780    -1.0990 N.am  1 <1>  -0.6600 
  4 C       -1.8290     2.8160    -2.1610 C.ar  1 <1>   0.3960 
  5 C       -3.6030    -0.4660    -1.0890 C.3   1 <1>   0.1400 
  6 C       -3.3860     1.6280     0.2320 C.3   1 <1>   0.1400 
  7 N       -1.1110     3.1940    -1.0850 N.ar  1 <1>  -0.6200 
  8 C       -1.9100     3.6110    -3.3090 C.ar  1 <1>   0.1600 
  9 C       -2.7690    -1.2250    -0.0400 C.3   1 <1>   0.3430 
 10 C       -2.5280     0.8900     1.2780 C.3   1 <1>   0.3430 
 11 C       -0.4980     4.3570    -1.2500 C.ar  1 <1>   0.4100 
 12 N       -1.3230     4.7860    -3.4750 N.ar  1 <1>  -0.6200 
 13 N       -2.8460    -0.5870     1.3290 N.4   1 <1>  -0.9590 
 14 N        0.2850     4.8010    -0.2030 N.pl3 1 <1>  -0.8380 
 15 C       -0.6150     5.1260    -2.4180 C.ar  1 <1>   0.1600 
 16 C       -1.9520    -1.2980     2.2930 C.3   1 <1>   0.2630 
 17 C       -0.3770     5.5750     0.8940 C.3   1 <1>   0.4690 
 18 C        1.3290     3.9080     0.3560 C.3   1 <1>   0.2090 
 19 C       -0.4940     7.0800     0.6080 C.2   1 <1>   0.2980 
 20 C        0.4380     5.2310     2.1460 C.3   1 <1>  -0.1600 
 21 C        1.0520     3.8660     1.8520 C.3   1 <1>  -0.1600 
 22 O       -1.2970     7.4440    -0.3610 O.3   1 <1>  -0.0190 
 23 N        0.0850     8.0420     1.2190 N.2   1 <1>  -0.5650 
 24 N       -1.2170     8.7390    -0.3730 N.2   1 <1>  -0.4100 
 25 C       -0.4060     9.0770     0.5500 C.2   1 <1>   0.3350 
 26 C        0.0030    10.5070     0.9130 C.3   1 <1>   0.1010 
 27 C       -0.8300    11.0240     2.0940 C.3   1 <1>  -0.2400 
 28 C       -0.1150    11.4740    -0.2760 C.3   1 <1>  -0.2400 
 29 H       -4.6510    -0.5510    -0.8620 H     1 <1>   0.0800 
 30 H       -3.4480    -0.9200    -2.0530 H     1 <1>   0.0800 
 31 H       -3.1210     2.6690     0.2020 H     1 <1>   0.0800 
 32 H       -4.4230     1.5790     0.5150 H     1 <1>   0.0800 
 33 H       -2.4940     3.2460    -4.1360 H     1 <1>   0.1500 
 34 H       -1.7440    -1.2380    -0.3760 H     1 <1>   0.0800 
 35 H       -3.1110    -2.2460     0.0100 H     1 <1>   0.0800 
 36 H       -2.6910     1.3340     2.2460 H     1 <1>   0.0800 
 37 H       -1.4900     1.0320     1.0190 H     1 <1>   0.0800 
 38 H       -3.8190    -0.6850     1.6540 H     1 <1>   0.4500 
 39 H       -0.0840     6.0600    -2.4510 H     1 <1>   0.1500 
 40 H       -0.9240    -1.2210     1.9770 H     1 <1>   0.0800 
 41 H       -2.2160    -2.3420     2.3500 H     1 <1>   0.0800 
 42 H       -2.0430    -0.8680     3.2770 H     1 <1>   0.0800 
 43 H       -1.3720     5.1870     1.0220 H     1 <1>   0.0800 
 44 H        1.2980     2.9250    -0.0840 H     1 <1>   0.0800 
 45 H        2.2950     4.3470     0.1690 H     1 <1>   0.0800 
 46 H        1.2310     5.9480     2.2720 H     1 <1>   0.0800 
 47 H       -0.1720     5.2340     3.0300 H     1 <1>   0.0800 
 48 H        0.3430     3.0850     2.0580 H     1 <1>   0.0800 
 49 H        1.9500     3.6900     2.4180 H     1 <1>   0.0800 
 50 H        1.0360    10.4780     1.2140 H     1 <1>   0.0800 
 51 H       -1.8720    11.0550     1.8290 H     1 <1>   0.0800 
 52 H       -0.5120    12.0110     2.3780 H     1 <1>   0.0800 
 53 H       -0.7120    10.3680     2.9390 H     1 <1>   0.0800 
 54 H       -1.1390    11.5500    -0.5990 H     1 <1>   0.0800 
 55 H        0.4760    11.1150    -1.1000 H     1 <1>   0.0800 
 56 H        0.2360    12.4520    -0.0020 H     1 <1>   0.0800 
@<TRIPOS>BOND
  1   1   2  2   
  2   2   3  am  
  3   2   4  1   
  4   3   5  1   
  5   3   6  1   
  6   4   7  ar  
  7   4   8  ar  
  8   5   9  1   
  9   5  29  1   
 10   5  30  1   
 11   6  10  1   
 12   6  31  1   
 13   6  32  1   
 14   7  11  ar  
 15   8  12  ar  
 16   8  33  1   
 17   9  13  1   
 18   9  34  1   
 19   9  35  1   
 20  10  13  1   
 21  10  36  1   
 22  10  37  1   
 23  11  14  1   
 24  11  15  ar  
 25  12  15  ar  
 26  13  16  1   
 27  13  38  1   
 28  14  17  1   
 29  14  18  1   
 30  15  39  1   
 31  16  40  1   
 32  16  41  1   
 33  16  42  1   
 34  17  19  1   
 35  17  20  1   
 36  17  43  1   
 37  18  21  1   
 38  18  44  1   
 39  18  45  1   
 40  19  22  1   
 41  19  23  2   
 42  20  21  1   
 43  20  46  1   
 44  20  47  1   
 45  21  48  1   
 46  21  49  1   
 47  22  24  1   
 48  23  25  1   
 49  24  25  2   
 50  25  26  1   
 51  26  27  1   
 52  26  28  1   
 53  26  50  1   
 54  27  51  1   
 55  27  52  1   
 56  27  53  1   
 57  28  54  1   
 58  28  55  1   
 59  28  56  1   
@<TRIPOS>SUBSTRUCTURE
  1 ****  11 GROUP 4 **** **** 0

# MOE 2024.06 (io_trps.svl 2023.06)
