@<TRIPOS>MOLECULE
NONAME
52 54 1 0 0 
SMALL
USER_CHARGES


@<TRIPOS>ATOM
  1 S        0.0270    -0.0260    -0.2120 S.o2  1 <1>   1.2040 
  2 O        1.1090     0.4180     0.6360 O.2   1 <1>  -0.6500 
  3 O       -0.0870     0.4640    -1.5670 O.2   1 <1>  -0.6500 
  4 C       -0.0280    -1.8370    -0.2210 C.ar  1 <1>  -0.0090 
  5 C       -1.4930     0.3860     0.6220 C.3   1 <1>  -0.1350 
  6 C        0.4410    -2.5780     0.8570 C.ar  1 <1>  -0.1500 
  7 C       -0.5630    -2.5360    -1.2960 C.ar  1 <1>  -0.1500 
  8 C        0.3650    -3.9590     0.8650 C.ar  1 <1>  -0.1500 
  9 C       -0.6370    -3.9170    -1.2900 C.ar  1 <1>  -0.1500 
 10 C       -0.1870    -4.6630    -0.2020 C.ar  1 <1>   0.0860 
 11 C       -0.2830    -6.1120    -0.1730 C.2   1 <1>   0.5440 
 12 O        0.6850    -6.7660     0.1620 O.2   1 <1>  -0.5700 
 13 N       -1.4530    -6.7680    -0.4940 N.am  1 <1>  -0.6600 
 14 C       -2.8080    -6.1410    -0.4130 C.3   1 <1>   0.1400 
 15 C       -1.5120    -8.2530    -0.6680 C.3   1 <1>   0.1400 
 16 C       -3.7010    -6.8900     0.5990 C.3   1 <1>   0.2950 
 17 C       -2.4870    -8.8910     0.3450 C.3   1 <1>   0.2000 
 18 O       -3.7310    -8.2510     0.2840 O.3   1 <1>  -0.5600 
 19 C       -5.1620    -6.4060     0.6490 C.3   1 <1>  -0.1950 
 20 C       -2.7440   -10.3800     0.0800 C.3   1 <1>  -0.1600 
 21 C       -5.9730    -6.0700    -0.5640 C.3   1 <1>  -0.2000 
 22 C       -5.5770    -4.9870     0.4010 C.3   1 <1>  -0.2000 
 23 C       -1.4890   -11.2500     0.2590 C.3   1 <1>  -0.1600 
 24 C       -1.8200   -12.7350     0.0770 C.3   1 <1>  -0.1600 
 25 C       -0.5710   -13.6030     0.2520 C.3   1 <1>  -0.2400 
 26 H       -1.5010    -0.0280     1.6120 H     1 <1>   0.0800 
 27 H       -2.3340     0.0050     0.0770 H     1 <1>   0.0800 
 28 H       -1.5900     1.4510     0.6970 H     1 <1>   0.0800 
 29 H        0.8790    -2.0670     1.6990 H     1 <1>   0.1500 
 30 H       -0.9190    -1.9900    -2.1560 H     1 <1>   0.1500 
 31 H        0.7440    -4.5130     1.7080 H     1 <1>   0.1500 
 32 H       -1.0450    -4.4340    -2.1420 H     1 <1>   0.1500 
 33 H       -2.7310    -5.1150    -0.1070 H     1 <1>   0.0800 
 34 H       -3.2630    -6.1710    -1.3860 H     1 <1>   0.0800 
 35 H       -1.8440    -8.4770    -1.6660 H     1 <1>   0.0800 
 36 H       -0.5350    -8.6850    -0.5460 H     1 <1>   0.0800 
 37 H       -3.2760    -6.7850     1.5830 H     1 <1>   0.0800 
 38 H       -2.0980    -8.7720     1.3420 H     1 <1>   0.0800 
 39 H       -5.6860    -6.9150     1.4400 H     1 <1>   0.1000 
 40 H       -3.4980   -10.7160     0.7700 H     1 <1>   0.0800 
 41 H       -3.1270   -10.5000    -0.9190 H     1 <1>   0.0800 
 42 H       -5.5140    -6.1070    -1.5360 H     1 <1>   0.1000 
 43 H       -6.9990    -6.3960    -0.5910 H     1 <1>   0.1000 
 44 H       -6.3390    -4.5580     1.0290 H     1 <1>   0.1000 
 45 H       -4.8700    -4.2500     0.0620 H     1 <1>   0.1000 
 46 H       -0.7400   -10.9690    -0.4610 H     1 <1>   0.0800 
 47 H       -1.0820   -11.0930     1.2440 H     1 <1>   0.0800 
 48 H       -2.5610   -13.0330     0.8000 H     1 <1>   0.0800 
 49 H       -2.2290   -12.8980    -0.9050 H     1 <1>   0.0800 
 50 H       -0.1570   -13.4730     1.2370 H     1 <1>   0.0800 
 51 H        0.1760   -13.3400    -0.4760 H     1 <1>   0.0800 
 52 H       -0.8230   -14.6410     0.1230 H     1 <1>   0.0800 
@<TRIPOS>BOND
  1   1   2  2   
  2   1   3  2   
  3   1   4  1   
  4   1   5  1   
  5   4   6  ar  
  6   4   7  ar  
  7   5  26  1   
  8   5  27  1   
  9   5  28  1   
 10   6   8  ar  
 11   6  29  1   
 12   7   9  ar  
 13   7  30  1   
 14   8  10  ar  
 15   8  31  1   
 16   9  10  ar  
 17   9  32  1   
 18  10  11  1   
 19  11  12  2   
 20  11  13  am  
 21  13  14  1   
 22  13  15  1   
 23  14  16  1   
 24  14  33  1   
 25  14  34  1   
 26  15  17  1   
 27  15  35  1   
 28  15  36  1   
 29  16  18  1   
 30  16  19  1   
 31  16  37  1   
 32  17  18  1   
 33  17  20  1   
 34  17  38  1   
 35  19  21  1   
 36  19  22  1   
 37  19  39  1   
 38  20  23  1   
 39  20  40  1   
 40  20  41  1   
 41  21  22  1   
 42  21  42  1   
 43  21  43  1   
 44  22  44  1   
 45  22  45  1   
 46  23  24  1   
 47  23  46  1   
 48  23  47  1   
 49  24  25  1   
 50  24  48  1   
 51  24  49  1   
 52  25  50  1   
 53  25  51  1   
 54  25  52  1   
@<TRIPOS>SUBSTRUCTURE
  1 ****  13 GROUP 4 **** **** 0

# MOE 2024.06 (io_trps.svl 2023.06)
