@<TRIPOS>MOLECULE
NONAME
56 59 1 0 0 
SMALL
USER_CHARGES


@<TRIPOS>ATOM
  1 O       -1.8700     0.7000    -3.2780 O.2   1 <1>  -0.5700 
  2 C       -2.3390     1.3500    -2.3570 C.2   1 <1>   0.7160 
  3 N       -3.4790     0.8440    -1.7470 N.am  1 <1>  -0.6600 
  4 C       -1.6820     2.5790    -1.9200 C.2   1 <1>   0.1410 
  5 C       -3.8320    -0.5950    -1.8470 C.3   1 <1>   0.1400 
  6 C       -4.2960     1.6030    -0.7610 C.3   1 <1>   0.1400 
  7 N       -1.4830     2.8890    -0.6060 N.2   1 <1>  -0.5650 
  8 C       -1.1500     3.5780    -2.6870 C.2   1 <1>  -0.3320 
  9 C       -3.6320    -1.2570    -0.4650 C.3   1 <1>   0.4230 
 10 C       -4.1050     0.9680     0.6220 C.3   1 <1>  -0.1600 
 11 C       -0.8670     4.0360    -0.5970 C.2   1 <1>   0.1330 
 12 N       -0.6390     4.4870    -1.8530 N.pl3 1 <1>   0.0330 
 13 C       -1.0880     3.7230    -4.2000 C.3   1 <1>  -0.0600 
 14 N       -3.7850    -2.7730    -0.4830 N.4   1 <1>  -0.9590 
 15 C       -4.4500    -0.5500     0.6590 C.3   1 <1>   0.0000 
 16 C       -0.4520     4.7610     0.5830 C.ar  1 <1>   0.0530 
 17 C       -4.0030    -3.3820     0.8700 C.3   1 <1>   0.3430 
 18 C       -4.7970    -3.3080    -1.4540 C.3   1 <1>   0.2630 
 19 C       -4.0210    -1.1220     2.0420 C.3   1 <1>  -0.1600 
 20 C       -5.9730    -0.7660     0.4290 C.3   1 <1>   0.1200 
 21 C       -0.0350     4.0790     1.7250 C.ar  1 <1>  -0.1500 
 22 C       -0.4510     6.1560     0.6300 C.ar  1 <1>  -0.1500 
 23 C       -3.3790    -2.5210     1.9660 C.3   1 <1>  -0.1600 
 24 O       -6.7380     0.0120     1.2820 O.3   1 <1>  -0.6800 
 25 C        0.3760     4.7540     2.8600 C.ar  1 <1>  -0.1500 
 26 C       -0.0400     6.8370     1.7610 C.ar  1 <1>  -0.1500 
 27 C        0.3760     6.1370     2.8790 C.ar  1 <1>  -0.1500 
 28 H       -4.8500    -0.6730    -2.1820 H     1 <1>   0.0800 
 29 H       -3.2020    -1.0860    -2.5680 H     1 <1>   0.0800 
 30 H       -4.0080     2.6400    -0.7350 H     1 <1>   0.0800 
 31 H       -5.3330     1.5690    -1.0500 H     1 <1>   0.0800 
 32 H       -2.6010    -1.0640    -0.2180 H     1 <1>   0.0800 
 33 H       -3.0760     1.1200     0.9010 H     1 <1>   0.0800 
 34 H       -4.6970     1.5140     1.3360 H     1 <1>   0.0800 
 35 H       -0.1470     5.3520    -2.0890 H     1 <1>   0.2700 
 36 H       -1.5950     2.9070    -4.6840 H     1 <1>   0.0800 
 37 H       -0.0650     3.7260    -4.5300 H     1 <1>   0.0800 
 38 H       -1.5580     4.6410    -4.5070 H     1 <1>   0.0800 
 39 H       -2.8650    -3.1150    -0.8000 H     1 <1>   0.4500 
 40 H       -5.0600    -3.4680     1.0650 H     1 <1>   0.0800 
 41 H       -3.5790    -4.3740     0.8980 H     1 <1>   0.0800 
 42 H       -5.7830    -2.9490    -1.2090 H     1 <1>   0.0800 
 43 H       -4.8070    -4.3860    -1.4260 H     1 <1>   0.0800 
 44 H       -4.5570    -3.0010    -2.4590 H     1 <1>   0.0800 
 45 H       -3.3070    -0.4690     2.5170 H     1 <1>   0.0800 
 46 H       -4.8680    -1.1630     2.7040 H     1 <1>   0.0800 
 47 H       -6.2540    -1.7900     0.5950 H     1 <1>   0.0800 
 48 H       -6.2640    -0.4920    -0.5690 H     1 <1>   0.0800 
 49 H       -0.0340     3.0040     1.7140 H     1 <1>   0.1500 
 50 H       -0.7840     6.7190    -0.2220 H     1 <1>   0.1500 
 51 H       -3.4970    -3.0150     2.9150 H     1 <1>   0.0800 
 52 H       -2.3200    -2.4340     1.7870 H     1 <1>   0.0800 
 53 H       -6.5260    -0.1500     2.2220 H     1 <1>   0.4000 
 54 H        0.6970     4.2040     3.7270 H     1 <1>   0.1500 
 55 H       -0.0470     7.9140     1.7770 H     1 <1>   0.1500 
 56 H        0.6970     6.6650     3.7610 H     1 <1>   0.1500 
@<TRIPOS>BOND
  1   1   2  2   
  2   2   3  am  
  3   2   4  1   
  4   3   5  1   
  5   3   6  1   
  6   4   7  1   
  7   4   8  2   
  8   5   9  1   
  9   5  28  1   
 10   5  29  1   
 11   6  10  1   
 12   6  30  1   
 13   6  31  1   
 14   7  11  2   
 15   8  12  1   
 16   8  13  1   
 17   9  14  1   
 18   9  15  1   
 19   9  32  1   
 20  10  15  1   
 21  10  33  1   
 22  10  34  1   
 23  11  12  1   
 24  11  16  1   
 25  12  35  1   
 26  13  36  1   
 27  13  37  1   
 28  13  38  1   
 29  14  17  1   
 30  14  18  1   
 31  14  39  1   
 32  15  19  1   
 33  15  20  1   
 34  16  21  ar  
 35  16  22  ar  
 36  17  23  1   
 37  17  40  1   
 38  17  41  1   
 39  18  42  1   
 40  18  43  1   
 41  18  44  1   
 42  19  23  1   
 43  19  45  1   
 44  19  46  1   
 45  20  24  1   
 46  20  47  1   
 47  20  48  1   
 48  21  25  ar  
 49  21  49  1   
 50  22  26  ar  
 51  22  50  1   
 52  23  51  1   
 53  23  52  1   
 54  24  53  1   
 55  25  27  ar  
 56  25  54  1   
 57  26  27  ar  
 58  26  55  1   
 59  27  56  1   
@<TRIPOS>SUBSTRUCTURE
  1 ****   7 GROUP 4 **** **** 0

# MOE 2024.06 (io_trps.svl 2023.06)
