@<TRIPOS>MOLECULE
NONAME
50 53 1 0 0 
SMALL
USER_CHARGES


@<TRIPOS>ATOM
  1 O        0.3020     1.4710    -1.0700 O.2   1 <1>  -0.5700 
  2 C       -0.0170     2.6260    -0.9040 C.2   1 <1>   0.5690 
  3 N       -0.9500     3.0330     0.0130 N.am  1 <1>  -0.5090 
  4 C        0.6640     3.6900    -1.7550 C.3   1 <1>   0.1810 
  5 C       -1.2830     4.4860     0.1810 C.3   1 <1>   0.3640 
  6 C       -1.4640     2.1170     1.0640 C.3   1 <1>   0.0490 
  7 O        0.8890     4.8530    -1.0030 O.3   1 <1>  -0.5600 
  8 C       -2.6910     4.7660    -0.3450 C.ar  1 <1>  -0.1440 
  9 C       -0.2890     5.4710    -0.5030 C.3   1 <1>   0.2610 
 10 C       -2.1590     0.8600     0.6450 C.3   1 <1>  -0.2000 
 11 C       -2.9370     1.9580     1.2920 C.3   1 <1>  -0.2000 
 12 C       -3.1690     4.1670    -1.5040 C.ar  1 <1>   0.1600 
 13 C       -3.5180     5.6460     0.3270 C.ar  1 <1>  -0.1500 
 14 C        0.0720     6.5970     0.4740 C.2   1 <1>   0.5690 
 15 N       -4.3620     4.3780    -2.0340 N.ar  1 <1>  -0.6200 
 16 C       -4.7680     5.8720    -0.2070 C.ar  1 <1>  -0.1500 
 17 O       -0.8130     7.2200     1.0120 O.2   1 <1>  -0.5700 
 18 N        1.3770     6.8750     0.7160 N.am  1 <1>  -0.7300 
 19 C       -5.1350     5.2230    -1.3720 C.ar  1 <1>   0.1600 
 20 C        1.8900     7.9970     1.5190 C.3   1 <1>   0.2840 
 21 C        3.0260     8.6530     0.7490 C.ar  1 <1>  -0.1440 
 22 C        2.7980     9.6430    -0.2050 C.ar  1 <1>  -0.1440 
 23 C        4.3250     8.2400     1.0080 C.ar  1 <1>  -0.1500 
 24 C        3.8740    10.2020    -0.8770 C.ar  1 <1>  -0.1500 
 25 C        1.3930    10.1300    -0.5320 C.3   1 <1>  -0.0970 
 26 C        5.3930     8.8030     0.3320 C.ar  1 <1>  -0.1500 
 27 C        5.1660     9.7860    -0.6120 C.ar  1 <1>  -0.1500 
 28 H        0.0590     3.9330    -2.6090 H     1 <1>   0.0800 
 29 H        1.6180     3.3250    -2.0900 H     1 <1>   0.0800 
 30 H       -1.2790     4.6880     1.2380 H     1 <1>   0.0800 
 31 H       -0.8040     2.0600     1.9130 H     1 <1>   0.1000 
 32 H       -0.7750     5.9320    -1.3440 H     1 <1>   0.0800 
 33 H       -2.2930     0.6730    -0.4060 H     1 <1>   0.1000 
 34 H       -1.9720    -0.0400     1.2030 H     1 <1>   0.1000 
 35 H       -3.2930     1.7960     2.2940 H     1 <1>   0.1000 
 36 H       -3.6600     2.4660     0.6800 H     1 <1>   0.1000 
 37 H       -2.5410     3.4690    -2.0320 H     1 <1>   0.1500 
 38 H       -3.2080     6.1470     1.2300 H     1 <1>   0.1500 
 39 H       -5.4530     6.5460     0.2740 H     1 <1>   0.1500 
 40 H        2.0840     6.3700     0.1720 H     1 <1>   0.3700 
 41 H       -6.1140     5.4080    -1.7810 H     1 <1>   0.1500 
 42 H        1.1050     8.7050     1.7220 H     1 <1>   0.0800 
 43 H        2.2490     7.6220     2.4610 H     1 <1>   0.0800 
 44 H        4.5160     7.4740     1.7390 H     1 <1>   0.1500 
 45 H        3.7140    10.9690    -1.6140 H     1 <1>   0.1500 
 46 H        1.4040    10.8110    -1.3640 H     1 <1>   0.0800 
 47 H        0.9720    10.6400     0.3160 H     1 <1>   0.0800 
 48 H        0.7600     9.3000    -0.7900 H     1 <1>   0.0800 
 49 H        6.3970     8.4780     0.5400 H     1 <1>   0.1500 
 50 H        5.9930    10.2280    -1.1400 H     1 <1>   0.1500 
@<TRIPOS>BOND
  1   1   2  2   
  2   2   3  am  
  3   2   4  1   
  4   3   5  1   
  5   3   6  1   
  6   4   7  1   
  7   4  28  1   
  8   4  29  1   
  9   5   8  1   
 10   5   9  1   
 11   5  30  1   
 12   6  10  1   
 13   6  11  1   
 14   6  31  1   
 15   7   9  1   
 16   8  12  ar  
 17   8  13  ar  
 18   9  14  1   
 19   9  32  1   
 20  10  11  1   
 21  10  33  1   
 22  10  34  1   
 23  11  35  1   
 24  11  36  1   
 25  12  15  ar  
 26  12  37  1   
 27  13  16  ar  
 28  13  38  1   
 29  14  17  2   
 30  14  18  am  
 31  15  19  ar  
 32  16  19  ar  
 33  16  39  1   
 34  18  20  1   
 35  18  40  1   
 36  19  41  1   
 37  20  21  1   
 38  20  42  1   
 39  20  43  1   
 40  21  22  ar  
 41  21  23  ar  
 42  22  24  ar  
 43  22  25  1   
 44  23  26  ar  
 45  23  44  1   
 46  24  27  ar  
 47  24  45  1   
 48  25  46  1   
 49  25  47  1   
 50  25  48  1   
 51  26  27  ar  
 52  26  49  1   
 53  27  50  1   
@<TRIPOS>SUBSTRUCTURE
  1 ****   9 GROUP 4 **** **** 0

# MOE 2024.06 (io_trps.svl 2023.06)
