@<TRIPOS>MOLECULE
NONAME
45 46 1 0 0 
SMALL
USER_CHARGES


@<TRIPOS>ATOM
  1 F        6.7480     0.3060     0.1280 F     1 <1>  -0.1900 
  2 C        5.9750     1.3530     0.2330 C.ar  1 <1>   0.1900 
  3 C        6.4170     2.4360     0.9690 C.ar  1 <1>  -0.1500 
  4 C        4.7450     1.3400    -0.3950 C.ar  1 <1>  -0.1500 
  5 C        5.5930     3.5430     1.0740 C.ar  1 <1>  -0.1500 
  6 C        3.9300     2.4540    -0.2820 C.ar  1 <1>  -0.1500 
  7 C        4.3500     3.5580     0.4520 C.ar  1 <1>  -0.1430 
  8 C        3.4580     4.7860     0.5800 C.3   1 <1>   0.2540 
  9 N        4.1320     5.9740     0.0310 N.3   1 <1>  -0.8100 
 10 C        3.3950     7.2280     0.3830 C.3   1 <1>   0.1710 
 11 C        4.3150     5.8570    -1.4300 C.3   1 <1>   0.0300 
 12 C        4.2360     8.5020     0.2370 C.2   1 <1>   0.5690 
 13 O        3.6930     9.5780     0.1630 O.2   1 <1>  -0.5700 
 14 N        5.5780     8.3540     0.1910 N.am  1 <1>  -0.7300 
 15 C        6.5500     9.3660    -0.2520 C.3   1 <1>   0.3640 
 16 C        7.6540     8.7260    -1.1180 C.ar  1 <1>   0.1670 
 17 C        7.0740    10.1340     0.9620 C.3   1 <1>  -0.2400 
 18 N        7.7020     9.2130    -2.3550 N.ar  1 <1>  -0.6200 
 19 C        8.5200     7.7220    -0.6580 C.ar  1 <1>  -0.1430 
 20 C        8.6150     8.7070    -3.1630 C.ar  1 <1>   0.1600 
 21 C        9.4670     7.2130    -1.5270 C.ar  1 <1>  -0.1500 
 22 C        8.5190     7.1350     0.7520 C.3   1 <1>  -0.0970 
 23 C        9.5090     7.7190    -2.8050 C.ar  1 <1>  -0.1500 
 24 H        7.3810     2.4090     1.4430 H     1 <1>   0.1500 
 25 H        4.4380     0.4770    -0.9590 H     1 <1>   0.1500 
 26 H        5.9160     4.4020     1.6360 H     1 <1>   0.1500 
 27 H        2.9700     2.4580    -0.7680 H     1 <1>   0.1500 
 28 H        3.2510     4.9410     1.6250 H     1 <1>   0.0800 
 29 H        2.5210     4.6280     0.0730 H     1 <1>   0.0800 
 30 H        3.0820     7.1830     1.4100 H     1 <1>   0.0800 
 31 H        2.5150     7.3230    -0.2280 H     1 <1>   0.0800 
 32 H        4.9290     5.0020    -1.6600 H     1 <1>   0.0800 
 33 H        4.8070     6.7300    -1.8220 H     1 <1>   0.0800 
 34 H        3.3640     5.7460    -1.9220 H     1 <1>   0.0800 
 35 H        5.8970     7.3840     0.1170 H     1 <1>   0.3700 
 36 H        6.0230    10.0750    -0.8720 H     1 <1>   0.0800 
 37 H        7.5010     9.4780     1.6930 H     1 <1>   0.0800 
 38 H        6.2650    10.6810     1.4130 H     1 <1>   0.0800 
 39 H        7.8220    10.8370     0.6430 H     1 <1>   0.0800 
 40 H        8.6510     9.1010    -4.1640 H     1 <1>   0.1500 
 41 H       10.1580     6.4450    -1.2250 H     1 <1>   0.1500 
 42 H        7.5300     7.0280     1.1500 H     1 <1>   0.0800 
 43 H        9.0930     7.7670     1.4060 H     1 <1>   0.0800 
 44 H        8.9690     6.1590     0.7540 H     1 <1>   0.0800 
 45 H       10.2270     7.3550    -3.5170 H     1 <1>   0.1500 
@<TRIPOS>BOND
  1   1   2  1   
  2   2   3  ar  
  3   2   4  ar  
  4   3   5  ar  
  5   3  24  1   
  6   4   6  ar  
  7   4  25  1   
  8   5   7  ar  
  9   5  26  1   
 10   6   7  ar  
 11   6  27  1   
 12   7   8  1   
 13   8   9  1   
 14   8  28  1   
 15   8  29  1   
 16   9  10  1   
 17   9  11  1   
 18  10  12  1   
 19  10  30  1   
 20  10  31  1   
 21  11  32  1   
 22  11  33  1   
 23  11  34  1   
 24  12  13  2   
 25  12  14  am  
 26  14  15  1   
 27  14  35  1   
 28  15  16  1   
 29  15  17  1   
 30  15  36  1   
 31  16  18  ar  
 32  16  19  ar  
 33  17  37  1   
 34  17  38  1   
 35  17  39  1   
 36  18  20  ar  
 37  19  21  ar  
 38  19  22  1   
 39  20  23  ar  
 40  20  40  1   
 41  21  23  ar  
 42  21  41  1   
 43  22  42  1   
 44  22  43  1   
 45  22  44  1   
 46  23  45  1   
@<TRIPOS>SUBSTRUCTURE
  1 ****   9 GROUP 4 **** **** 0

# MOE 2024.06 (io_trps.svl 2023.06)
