@<TRIPOS>MOLECULE
NONAME
43 44 1 0 0 
SMALL
USER_CHARGES


@<TRIPOS>ATOM
  1 S       -0.2450    -0.2480    -0.2530 S.3   1 <1>  -0.0800 
  2 C       -1.5920    -0.9280     0.5980 C.2   1 <1>   0.4420 
  3 C       -0.4700     1.1930     0.6830 C.2   1 <1>   0.1980 
  4 N       -2.0800    -0.1130     1.4620 N.2   1 <1>  -0.3380 
  5 N       -1.9410    -2.2160     0.2510 N.am  1 <1>  -0.4940 
  6 N       -1.4380     1.0940     1.5040 N.2   1 <1>  -0.3380 
  7 C        0.4630     2.3770     0.4580 C.3   1 <1>   0.3800 
  8 C       -2.9740    -3.0050     0.6940 C.2   1 <1>   0.5440 
  9 O        0.6150     2.6010    -0.9150 O.3   1 <1>  -0.5600 
 10 C        1.8480     2.1250     1.0600 C.3   1 <1>  -0.2400 
 11 O       -3.8270    -2.5450     1.4230 O.2   1 <1>  -0.5700 
 12 C       -3.0500    -4.3840     0.2510 C.ar  1 <1>   0.0860 
 13 C        0.8410     3.9250    -1.2870 C.3   1 <1>   0.0400 
 14 C       -4.2830    -4.9950     0.0270 C.ar  1 <1>  -0.1500 
 15 C       -1.9060    -5.1550     0.0270 C.ar  1 <1>  -0.1500 
 16 C       -4.3750    -6.3010    -0.4160 C.ar  1 <1>  -0.1500 
 17 C       -1.9940    -6.4620    -0.4170 C.ar  1 <1>  -0.1500 
 18 C       -3.2290    -7.0450    -0.6440 C.ar  1 <1>  -0.1430 
 19 C       -3.3220    -8.4860    -1.1330 C.3   1 <1>  -0.0170 
 20 C       -3.0430    -9.5070    -0.0140 C.3   1 <1>  -0.0800 
 21 C       -3.0510   -10.9320    -0.5810 C.3   1 <1>  -0.2400 
 22 C       -4.0660    -9.4000     1.1260 C.3   1 <1>  -0.2400 
 23 H       -1.3660    -2.6280    -0.4760 H     1 <1>   0.3700 
 24 H        0.0130     3.2460     0.9090 H     1 <1>   0.0800 
 25 H        2.3210     1.2930     0.5680 H     1 <1>   0.0800 
 26 H        1.7480     1.8930     2.1050 H     1 <1>   0.0800 
 27 H        2.4680     2.9960     0.9660 H     1 <1>   0.0800 
 28 H        0.9420     3.9580    -2.3570 H     1 <1>   0.0800 
 29 H        1.7470     4.2810    -0.8290 H     1 <1>   0.0800 
 30 H        0.0000     4.5270    -0.9870 H     1 <1>   0.0800 
 31 H       -5.1830    -4.4300     0.2070 H     1 <1>   0.1500 
 32 H       -0.9330    -4.7370     0.2120 H     1 <1>   0.1500 
 33 H       -5.3440    -6.7400    -0.5780 H     1 <1>   0.1500 
 34 H       -1.0950    -7.0320    -0.5820 H     1 <1>   0.1500 
 35 H       -2.6090    -8.6240    -1.9260 H     1 <1>   0.0800 
 36 H       -4.2980    -8.6660    -1.5480 H     1 <1>   0.0800 
 37 H       -2.0640    -9.3120     0.3910 H     1 <1>   0.0800 
 38 H       -4.0160   -11.1730    -0.9910 H     1 <1>   0.0800 
 39 H       -2.8220   -11.6430     0.1940 H     1 <1>   0.0800 
 40 H       -2.3130   -11.0320    -1.3570 H     1 <1>   0.0800 
 41 H       -5.0640    -9.5580     0.7580 H     1 <1>   0.0800 
 42 H       -4.0190    -8.4280     1.5860 H     1 <1>   0.0800 
 43 H       -3.8590   -10.1350     1.8840 H     1 <1>   0.0800 
@<TRIPOS>BOND
  1   1   2  1   
  2   1   3  1   
  3   2   4  2   
  4   2   5  1   
  5   3   6  2   
  6   3   7  1   
  7   4   6  1   
  8   5   8  am  
  9   5  23  1   
 10   7   9  1   
 11   7  10  1   
 12   7  24  1   
 13   8  11  2   
 14   8  12  1   
 15   9  13  1   
 16  10  25  1   
 17  10  26  1   
 18  10  27  1   
 19  12  14  ar  
 20  12  15  ar  
 21  13  28  1   
 22  13  29  1   
 23  13  30  1   
 24  14  16  ar  
 25  14  31  1   
 26  15  17  ar  
 27  15  32  1   
 28  16  18  ar  
 29  16  33  1   
 30  17  18  ar  
 31  17  34  1   
 32  18  19  1   
 33  19  20  1   
 34  19  35  1   
 35  19  36  1   
 36  20  21  1   
 37  20  22  1   
 38  20  37  1   
 39  21  38  1   
 40  21  39  1   
 41  21  40  1   
 42  22  41  1   
 43  22  42  1   
 44  22  43  1   
@<TRIPOS>SUBSTRUCTURE
  1 ****   5 GROUP 4 **** **** 0

# MOE 2024.06 (io_trps.svl 2023.06)
