@<TRIPOS>MOLECULE
NONAME
53 56 1 0 0 
SMALL
USER_CHARGES


@<TRIPOS>ATOM
  1 O        0.2490    -0.1160     0.4830 O.2   1 <1>  -0.5700 
  2 C        1.0430    -0.8510    -0.0740 C.2   1 <1>   0.5440 
  3 N        2.3700    -0.4870    -0.1110 N.am  1 <1>  -0.6600 
  4 C        0.5760    -2.0850    -0.6740 C.ar  1 <1>   0.0860 
  5 C        3.4950    -1.4150    -0.3620 C.3   1 <1>   0.1400 
  6 C        2.8530     0.7770     0.4890 C.3   1 <1>   0.1400 
  7 C       -0.2470    -2.9640     0.0030 C.ar  1 <1>  -0.1500 
  8 C        0.9090    -2.4710    -1.9660 C.ar  1 <1>  -0.1500 
  9 C        4.6740    -0.8040     0.3870 C.3   1 <1>  -0.1600 
 10 C        4.3730     0.6910     0.4190 C.3   1 <1>  -0.1600 
 11 C       -0.6820    -4.1440    -0.5860 C.ar  1 <1>   0.4100 
 12 C        0.4400    -3.6660    -2.4720 C.ar  1 <1>   0.1600 
 13 N       -0.3340    -4.5090    -1.8140 N.ar  1 <1>  -0.6200 
 14 N       -1.5180    -4.9880     0.1210 N.pl3 1 <1>  -0.8380 
 15 C       -2.8760    -4.4700     0.4740 C.3   1 <1>   0.2090 
 16 C       -1.5940    -6.4300    -0.2720 C.3   1 <1>   0.2090 
 17 C       -3.5330    -5.3040     1.5950 C.3   1 <1>   0.2090 
 18 C       -2.2120    -7.2910     0.8480 C.3   1 <1>   0.2090 
 19 N       -3.5440    -6.7770     1.3030 N.pl3 1 <1>  -0.8380 
 20 C       -4.6640    -7.3250     0.6910 C.ar  1 <1>   0.4100 
 21 N       -5.1590    -6.6250    -0.3220 N.ar  1 <1>  -0.6200 
 22 C       -5.2210    -8.5580     1.1040 C.ar  1 <1>   0.1670 
 23 C       -6.1930    -7.2050    -0.8980 C.ar  1 <1>   0.1670 
 24 N       -6.2530    -9.1390     0.5210 N.ar  1 <1>  -0.6200 
 25 C       -4.6420    -9.3190     2.2850 C.3   1 <1>  -0.0970 
 26 C       -6.7210    -8.4240    -0.4900 C.ar  1 <1>   0.1600 
 27 C       -6.7980    -6.4560    -2.0680 C.3   1 <1>  -0.0970 
 28 H        3.7020    -1.4400    -1.4180 H     1 <1>   0.0800 
 29 H        3.2740    -2.4070    -0.0060 H     1 <1>   0.0800 
 30 H        2.5220     0.8290     1.5130 H     1 <1>   0.0800 
 31 H        2.4720     1.6250    -0.0540 H     1 <1>   0.0800 
 32 H       -0.5550    -2.7360     1.0050 H     1 <1>   0.1500 
 33 H        1.5270    -1.8330    -2.5690 H     1 <1>   0.1500 
 34 H        5.6110    -1.0260    -0.0910 H     1 <1>   0.0800 
 35 H        4.6900    -1.1950     1.3900 H     1 <1>   0.0800 
 36 H        4.8390     1.1870     1.2530 H     1 <1>   0.0800 
 37 H        4.7060     1.1520    -0.4940 H     1 <1>   0.0800 
 38 H        0.7140    -3.9460    -3.4750 H     1 <1>   0.1500 
 39 H       -3.5030    -4.5040    -0.4000 H     1 <1>   0.0800 
 40 H       -2.8110    -3.4450     0.7910 H     1 <1>   0.0800 
 41 H       -0.6070    -6.7950    -0.4950 H     1 <1>   0.0800 
 42 H       -2.1940    -6.5250    -1.1610 H     1 <1>   0.0800 
 43 H       -4.5430    -4.9620     1.7390 H     1 <1>   0.0800 
 44 H       -2.9970    -5.1360     2.5110 H     1 <1>   0.0800 
 45 H       -1.5380    -7.3050     1.6860 H     1 <1>   0.0800 
 46 H       -2.3180    -8.3000     0.4920 H     1 <1>   0.0800 
 47 H       -4.1850    -8.6480     2.9890 H     1 <1>   0.0800 
 48 H       -3.9070   -10.0190     1.9360 H     1 <1>   0.0800 
 49 H       -5.4210    -9.8570     2.7920 H     1 <1>   0.0800 
 50 H       -7.5650    -8.8310    -1.0160 H     1 <1>   0.1500 
 51 H       -6.0520    -6.3210    -2.8300 H     1 <1>   0.0800 
 52 H       -7.1350    -5.4900    -1.7390 H     1 <1>   0.0800 
 53 H       -7.6300    -6.9920    -2.4860 H     1 <1>   0.0800 
@<TRIPOS>BOND
  1   1   2  2   
  2   2   3  am  
  3   2   4  1   
  4   3   5  1   
  5   3   6  1   
  6   4   7  ar  
  7   4   8  ar  
  8   5   9  1   
  9   5  28  1   
 10   5  29  1   
 11   6  10  1   
 12   6  30  1   
 13   6  31  1   
 14   7  11  ar  
 15   7  32  1   
 16   8  12  ar  
 17   8  33  1   
 18   9  10  1   
 19   9  34  1   
 20   9  35  1   
 21  10  36  1   
 22  10  37  1   
 23  11  13  ar  
 24  11  14  1   
 25  12  13  ar  
 26  12  38  1   
 27  14  15  1   
 28  14  16  1   
 29  15  17  1   
 30  15  39  1   
 31  15  40  1   
 32  16  18  1   
 33  16  41  1   
 34  16  42  1   
 35  17  19  1   
 36  17  43  1   
 37  17  44  1   
 38  18  19  1   
 39  18  45  1   
 40  18  46  1   
 41  19  20  1   
 42  20  21  ar  
 43  20  22  ar  
 44  21  23  ar  
 45  22  24  ar  
 46  22  25  1   
 47  23  26  ar  
 48  23  27  1   
 49  24  26  ar  
 50  25  47  1   
 51  25  48  1   
 52  25  49  1   
 53  26  50  1   
 54  27  51  1   
 55  27  52  1   
 56  27  53  1   
@<TRIPOS>SUBSTRUCTURE
  1 ****  14 GROUP 4 **** **** 0

# MOE 2024.06 (io_trps.svl 2023.06)
