@<TRIPOS>MOLECULE
NONAME
49 51 1 0 0 
SMALL
USER_CHARGES


@<TRIPOS>ATOM
  1 S        1.9600     1.6950    -1.6530 S.3   1 <1>  -0.0800 
  2 C        1.0690     1.7670    -0.1390 C.2   1 <1>  -0.1400 
  3 C        2.5060     0.0650    -1.3050 C.2   1 <1>  -0.1100 
  4 C        1.2020     0.6130     0.5430 C.2   1 <1>  -0.1500 
  5 C        0.3330     3.0540     0.1560 C.3   1 <1>   0.5230 
  6 C        2.0210    -0.3540    -0.1220 C.2   1 <1>  -0.1500 
  7 N        1.3230     4.1720     0.1200 N.4   1 <1>  -0.9590 
  8 C        2.3490     4.0160     1.2190 C.3   1 <1>   0.3430 
  9 C        0.6390     5.4910     0.1720 C.3   1 <1>   0.3430 
 10 C        3.6420     4.8530     1.0470 C.3   1 <1>   0.3430 
 11 C        1.3660     6.5400    -0.6670 C.3   1 <1>  -0.1600 
 12 N        3.4780     6.3170     0.6860 N.4   1 <1>  -0.9590 
 13 C        2.8930     6.4900    -0.6810 C.3   1 <1>   0.3430 
 14 C        4.9070     6.8700     0.6290 C.3   1 <1>   0.4610 
 15 C        4.8310     8.3890     0.4380 C.ar  1 <1>  -0.1430 
 16 C        5.8200     6.0520    -0.3260 C.2   1 <1>   0.9060 
 17 C        4.4640     9.1750     1.5230 C.ar  1 <1>  -0.1500 
 18 C        5.1070     9.0170    -0.7740 C.ar  1 <1>  -0.1500 
 19 O        5.5570     6.0190    -1.5360 O.co2 1 <1>  -0.9000 
 20 O        6.5560     5.2180     0.2060 O.co2 1 <1>  -0.9000 
 21 C        4.3630    10.5440     1.3670 C.ar  1 <1>   0.1900 
 22 C        5.0030    10.3930    -0.9100 C.ar  1 <1>  -0.1500 
 23 F        4.0010    11.2500     2.4050 F     1 <1>  -0.1900 
 24 C        4.6230    11.1820     0.1640 C.ar  1 <1>  -0.1430 
 25 C        4.5070    12.6920     0.0230 C.3   1 <1>  -0.0970 
 26 H        3.1380    -0.4150    -2.0330 H     1 <1>   0.1500 
 27 H        0.7610     0.3750     1.4970 H     1 <1>   0.1500 
 28 H       -0.1440     2.9960     1.1210 H     1 <1>   0.0800 
 29 H       -0.4250     3.2030    -0.5970 H     1 <1>   0.0800 
 30 H        2.2080    -1.3210     0.3170 H     1 <1>   0.1500 
 31 H        1.7970     4.0530    -0.7900 H     1 <1>   0.4500 
 32 H        2.6530     2.9820     1.2780 H     1 <1>   0.0800 
 33 H        1.9010     4.2650     2.1660 H     1 <1>   0.0800 
 34 H        0.5800     5.8250     1.1960 H     1 <1>   0.0800 
 35 H       -0.3700     5.4020    -0.1990 H     1 <1>   0.0800 
 36 H        4.2320     4.3700     0.2830 H     1 <1>   0.0800 
 37 H        4.2170     4.7770     1.9560 H     1 <1>   0.0800 
 38 H        1.0590     7.5160    -0.3360 H     1 <1>   0.0800 
 39 H        1.0310     6.4540    -1.6860 H     1 <1>   0.0800 
 40 H        2.9890     6.8880     1.3800 H     1 <1>   0.4500 
 41 H        3.2530     7.4040    -1.1260 H     1 <1>   0.0800 
 42 H        3.2360     5.6890    -1.3190 H     1 <1>   0.0800 
 43 H        5.3550     6.7190     1.5950 H     1 <1>   0.0800 
 44 H        4.2610     8.7540     2.4900 H     1 <1>   0.1500 
 45 H        5.4130     8.4480    -1.6380 H     1 <1>   0.1500 
 46 H        5.2250    10.8450    -1.8620 H     1 <1>   0.1500 
 47 H        5.1830    13.1770     0.7050 H     1 <1>   0.0800 
 48 H        3.5040    13.0060     0.2500 H     1 <1>   0.0800 
 49 H        4.7470    13.0070    -0.9770 H     1 <1>   0.0800 
@<TRIPOS>BOND
  1   1   2  1   
  2   1   3  1   
  3   2   4  2   
  4   2   5  1   
  5   3   6  2   
  6   3  26  1   
  7   4   6  1   
  8   4  27  1   
  9   5   7  1   
 10   5  28  1   
 11   5  29  1   
 12   6  30  1   
 13   7   8  1   
 14   7   9  1   
 15   7  31  1   
 16   8  10  1   
 17   8  32  1   
 18   8  33  1   
 19   9  11  1   
 20   9  34  1   
 21   9  35  1   
 22  10  12  1   
 23  10  36  1   
 24  10  37  1   
 25  11  13  1   
 26  11  38  1   
 27  11  39  1   
 28  12  13  1   
 29  12  14  1   
 30  12  40  1   
 31  13  41  1   
 32  13  42  1   
 33  14  15  1   
 34  14  16  1   
 35  14  43  1   
 36  15  17  ar  
 37  15  18  ar  
 38  16  19  ar  
 39  16  20  ar  
 40  17  21  ar  
 41  17  44  1   
 42  18  22  ar  
 43  18  45  1   
 44  21  23  1   
 45  21  24  ar  
 46  22  24  ar  
 47  22  46  1   
 48  24  25  1   
 49  25  47  1   
 50  25  48  1   
 51  25  49  1   
@<TRIPOS>SUBSTRUCTURE
  1 ****  12 GROUP 4 **** **** 0

# MOE 2024.06 (io_trps.svl 2023.06)
