@<TRIPOS>MOLECULE
NONAME
49 53 1 0 0 
SMALL
USER_CHARGES


@<TRIPOS>ATOM
  1 O       -2.2270     1.0490    -1.3550 O.2   1 <1>  -0.5700 
  2 C       -1.7390     0.7170    -0.2860 C.2   1 <1>   0.7160 
  3 N       -1.7750    -0.6030     0.0560 N.am  1 <1>  -0.7300 
  4 C       -1.1490     1.6740     0.6380 C.2   1 <1>   0.2030 
  5 C       -2.3730    -1.7030    -0.7300 C.3   1 <1>   0.2200 
  6 N       -0.6550     1.3870     1.8390 N.2   1 <1>  -0.7070 
  7 C       -1.0150     3.0470     0.4000 C.2   1 <1>  -0.1810 
  8 C       -3.7220    -2.1180    -0.1620 C.3   1 <1>  -0.0800 
  9 C       -1.5670    -2.9770    -0.5120 C.3   1 <1>   0.1200 
 10 N       -0.2150     2.5600     2.3400 N.pl3 1 <1>   0.3000 
 11 C       -0.4340     3.5630     1.4730 C.2   1 <1>  -0.3320 
 12 C       -1.3060     4.0810    -0.6490 C.3   1 <1>   0.0210 
 13 C       -3.3420    -3.1090     0.9420 C.3   1 <1>   0.1200 
 14 C       -4.6350    -0.9700     0.3160 C.3   1 <1>  -0.0160 
 15 O       -2.0270    -3.5140     0.6910 O.3   1 <1>  -0.5600 
 16 C       -0.2020     5.0450     1.3980 C.3   1 <1>   0.0200 
 17 C       -0.8400     5.3960     0.0300 C.3   1 <1>  -0.1600 
 18 C       -5.9970    -1.5000     0.7510 C.ar  1 <1>  -0.1430 
 19 C       -7.0020    -1.8620    -0.1770 C.ar  1 <1>   0.0000 
 20 C       -6.2800    -1.6480     2.0770 C.ar  1 <1>  -0.1500 
 21 C       -8.2190    -2.3710     0.3380 C.ar  1 <1>   0.3100 
 22 C       -6.8740    -1.7460    -1.5810 C.ar  1 <1>  -0.1500 
 23 C       -7.5210    -2.1540     2.4810 C.ar  1 <1>   0.1600 
 24 N       -8.4620    -2.5110     1.6660 N.ar  1 <1>  -0.6200 
 25 C       -9.2290    -2.7520    -0.5590 C.ar  1 <1>  -0.1500 
 26 C       -7.8790    -2.1240    -2.4280 C.ar  1 <1>  -0.1500 
 27 C       -9.0720    -2.6370    -1.9130 C.ar  1 <1>  -0.1500 
 28 H       -1.3830    -0.8500     0.9700 H     1 <1>   0.3700 
 29 H       -2.4280    -1.4340    -1.7720 H     1 <1>   0.0800 
 30 H       -4.2390    -2.6740    -0.9220 H     1 <1>   0.0800 
 31 H       -0.5090    -2.7950    -0.4480 H     1 <1>   0.0800 
 32 H       -1.7710    -3.6930    -1.2890 H     1 <1>   0.0800 
 33 H        0.2250     2.6430     3.2640 H     1 <1>   0.2700 
 34 H       -0.7400     3.8750    -1.5400 H     1 <1>   0.0800 
 35 H       -2.3570     4.1040    -0.8800 H     1 <1>   0.0800 
 36 H       -3.9830    -3.9740     0.9420 H     1 <1>   0.0800 
 37 H       -3.3560    -2.6450     1.9130 H     1 <1>   0.0800 
 38 H       -4.7560    -0.2420    -0.4670 H     1 <1>   0.0800 
 39 H       -4.1740    -0.4590     1.1430 H     1 <1>   0.0800 
 40 H       -0.6970     5.5580     2.2040 H     1 <1>   0.0800 
 41 H        0.8510     5.2650     1.4040 H     1 <1>   0.0800 
 42 H       -1.6890     6.0390     0.1830 H     1 <1>   0.0800 
 43 H       -0.1300     5.9080    -0.5960 H     1 <1>   0.0800 
 44 H       -5.5680    -1.3870     2.8390 H     1 <1>   0.1500 
 45 H       -5.9670    -1.3490    -1.9980 H     1 <1>   0.1500 
 46 H       -7.7030    -2.2540     3.5380 H     1 <1>   0.1500 
 47 H      -10.1390    -3.1410    -0.1400 H     1 <1>   0.1500 
 48 H       -7.7680    -2.0320    -3.4950 H     1 <1>   0.1500 
 49 H       -9.8560    -2.9320    -2.5890 H     1 <1>   0.1500 
@<TRIPOS>BOND
  1   1   2  2   
  2   2   3  am  
  3   2   4  1   
  4   3   5  1   
  5   3  28  1   
  6   4   6  2   
  7   4   7  1   
  8   5   8  1   
  9   5   9  1   
 10   5  29  1   
 11   6  10  1   
 12   7  11  2   
 13   7  12  1   
 14   8  13  1   
 15   8  14  1   
 16   8  30  1   
 17   9  15  1   
 18   9  31  1   
 19   9  32  1   
 20  10  11  1   
 21  10  33  1   
 22  11  16  1   
 23  12  17  1   
 24  12  34  1   
 25  12  35  1   
 26  13  15  1   
 27  13  36  1   
 28  13  37  1   
 29  14  18  1   
 30  14  38  1   
 31  14  39  1   
 32  16  17  1   
 33  16  40  1   
 34  16  41  1   
 35  17  42  1   
 36  17  43  1   
 37  18  19  ar  
 38  18  20  ar  
 39  19  21  ar  
 40  19  22  ar  
 41  20  23  ar  
 42  20  44  1   
 43  21  24  ar  
 44  21  25  ar  
 45  22  26  ar  
 46  22  45  1   
 47  23  24  ar  
 48  23  46  1   
 49  25  27  ar  
 50  25  47  1   
 51  26  27  ar  
 52  26  48  1   
 53  27  49  1   
@<TRIPOS>SUBSTRUCTURE
  1 ****  14 GROUP 4 **** **** 0

# MOE 2024.06 (io_trps.svl 2023.06)
