@<TRIPOS>MOLECULE
NONAME
59 62 1 0 0 
SMALL
USER_CHARGES


@<TRIPOS>ATOM
  1 O       -1.7290    -0.9240     2.8750 O.2   1 <1>  -0.5700 
  2 C       -1.6260    -0.1190     1.9780 C.2   1 <1>   0.5690 
  3 N       -1.8770    -0.4700     0.6740 N.am  1 <1>  -0.6600 
  4 C       -1.2320     1.3030     2.3710 C.3   1 <1>   0.0820 
  5 C       -2.2710    -1.8670     0.3100 C.3   1 <1>   0.3640 
  6 C       -1.7860     0.4840    -0.4740 C.3   1 <1>   0.1400 
  7 C       -0.0060     1.8380     1.6380 C.2   1 <1>  -0.1810 
  8 C       -1.0440    -2.6080    -0.2560 C.ar  1 <1>  -0.1440 
  9 C       -3.5260    -1.8290    -0.6130 C.3   1 <1>   0.2000 
 10 C       -2.3230    -0.0970    -1.7930 C.3   1 <1>   0.1200 
 11 C       -0.0030     3.0160     0.8530 C.ar  1 <1>   0.0000 
 12 C        1.2380     1.3010     1.5810 C.2   1 <1>  -0.3320 
 13 C        0.0570    -2.7620     0.5770 C.ar  1 <1>  -0.1500 
 14 C       -0.9750    -3.1440    -1.5400 C.ar  1 <1>  -0.1500 
 15 O       -3.5100    -0.8200    -1.6070 O.3   1 <1>  -0.5600 
 16 C       -4.8050    -1.6080     0.2060 C.3   1 <1>   0.1200 
 17 C        1.2790     3.1330     0.3290 C.ar  1 <1>  -0.1520 
 18 C       -0.9640     3.9830     0.5310 C.ar  1 <1>  -0.1500 
 19 N        2.0290     2.0820     0.7880 N.pl3 1 <1>   0.0330 
 20 C        1.7830     0.0420     2.2340 C.3   1 <1>  -0.0600 
 21 C        1.2030    -3.4100     0.1510 C.ar  1 <1>   0.0830 
 22 C        0.1690    -3.7890    -1.9800 C.ar  1 <1>  -0.1500 
 23 O       -5.1190    -2.7520     0.9350 O.3   1 <1>  -0.6800 
 24 C        1.6220     4.1900    -0.5170 C.ar  1 <1>  -0.1500 
 25 C       -0.6280     5.0260    -0.3020 C.ar  1 <1>  -0.1500 
 26 O        2.2220    -3.5330     1.0360 O.3   1 <1>  -0.3630 
 27 C        1.2690    -3.9120    -1.1520 C.ar  1 <1>   0.0830 
 28 C        0.6660     5.1290    -0.8280 C.ar  1 <1>  -0.1500 
 29 C        2.4540    -4.8360     1.5220 C.3   1 <1>   0.0400 
 30 O        2.3690    -4.5240    -1.6570 O.3   1 <1>  -0.3630 
 31 C        3.5400    -3.7430    -1.7560 C.3   1 <1>   0.0400 
 32 H       -2.0770     1.9400     2.2010 H     1 <1>   0.0800 
 33 H       -1.0260     1.3220     3.4250 H     1 <1>   0.0800 
 34 H       -2.5540    -2.4020     1.2000 H     1 <1>   0.0800 
 35 H       -2.3400     1.3760    -0.2400 H     1 <1>   0.0800 
 36 H       -0.7570     0.7610    -0.6240 H     1 <1>   0.0800 
 37 H       -3.6290    -2.7680    -1.1230 H     1 <1>   0.0800 
 38 H       -1.5910    -0.7390    -2.2450 H     1 <1>   0.0800 
 39 H       -2.5300     0.7010    -2.4840 H     1 <1>   0.0800 
 40 H        0.0310    -2.3800     1.5820 H     1 <1>   0.1500 
 41 H       -1.7990    -3.0660    -2.2250 H     1 <1>   0.1500 
 42 H       -5.6360    -1.3900    -0.4420 H     1 <1>   0.0800 
 43 H       -4.6680    -0.7990     0.9010 H     1 <1>   0.0800 
 44 H       -1.9540     3.9050     0.9380 H     1 <1>   0.1500 
 45 H        3.0150     1.9170     0.5660 H     1 <1>   0.2700 
 46 H        1.0440    -0.4130     2.8670 H     1 <1>   0.0800 
 47 H        2.6420     0.2770     2.8360 H     1 <1>   0.0800 
 48 H        2.0700    -0.6710     1.4810 H     1 <1>   0.0800 
 49 H        0.2160    -4.1950    -2.9740 H     1 <1>   0.1500 
 50 H       -5.4740    -3.4520     0.3530 H     1 <1>   0.4000 
 51 H        2.6190     4.2610    -0.9130 H     1 <1>   0.1500 
 52 H       -1.3560     5.7760    -0.5570 H     1 <1>   0.1500 
 53 H        0.9040     5.9540    -1.4770 H     1 <1>   0.1500 
 54 H        3.2430    -4.7890     2.2500 H     1 <1>   0.0800 
 55 H        2.7420    -5.4730     0.7060 H     1 <1>   0.0800 
 56 H        1.5500    -5.2000     1.9790 H     1 <1>   0.0800 
 57 H        4.2640    -4.2950    -2.3270 H     1 <1>   0.0800 
 58 H        3.9230    -3.5480    -0.7720 H     1 <1>   0.0800 
 59 H        3.3010    -2.8200    -2.2550 H     1 <1>   0.0800 
@<TRIPOS>BOND
  1   1   2  2   
  2   2   3  am  
  3   2   4  1   
  4   3   5  1   
  5   3   6  1   
  6   4   7  1   
  7   4  32  1   
  8   4  33  1   
  9   5   8  1   
 10   5   9  1   
 11   5  34  1   
 12   6  10  1   
 13   6  35  1   
 14   6  36  1   
 15   7  11  1   
 16   7  12  2   
 17   8  13  ar  
 18   8  14  ar  
 19   9  15  1   
 20   9  16  1   
 21   9  37  1   
 22  10  15  1   
 23  10  38  1   
 24  10  39  1   
 25  11  17  ar  
 26  11  18  ar  
 27  12  19  1   
 28  12  20  1   
 29  13  21  ar  
 30  13  40  1   
 31  14  22  ar  
 32  14  41  1   
 33  16  23  1   
 34  16  42  1   
 35  16  43  1   
 36  17  19  1   
 37  17  24  ar  
 38  18  25  ar  
 39  18  44  1   
 40  19  45  1   
 41  20  46  1   
 42  20  47  1   
 43  20  48  1   
 44  21  26  1   
 45  21  27  ar  
 46  22  27  ar  
 47  22  49  1   
 48  23  50  1   
 49  24  28  ar  
 50  24  51  1   
 51  25  28  ar  
 52  25  52  1   
 53  26  29  1   
 54  27  30  1   
 55  28  53  1   
 56  29  54  1   
 57  29  55  1   
 58  29  56  1   
 59  30  31  1   
 60  31  57  1   
 61  31  58  1   
 62  31  59  1   
@<TRIPOS>SUBSTRUCTURE
  1 ****   3 GROUP 4 **** **** 0

# MOE 2024.06 (io_trps.svl 2023.06)
