@<TRIPOS>MOLECULE
NONAME
49 52 1 0 0 
SMALL
USER_CHARGES


@<TRIPOS>ATOM
  1 CL      -1.5110    -2.6770     1.6290 Cl    1 <1>  -0.1770 
  2 C        0.2420    -2.5710     1.6880 C.ar  1 <1>   0.1770 
  3 C        1.0230    -3.1090     0.6610 C.ar  1 <1>   0.1170 
  4 C        0.8070    -1.9190     2.7660 C.ar  1 <1>  -0.1500 
  5 N        0.4420    -3.7720    -0.4330 N.am  1 <1>  -0.5470 
  6 C        2.4090    -2.9580     0.7370 C.ar  1 <1>  -0.1430 
  7 C        2.1810    -1.7820     2.8320 C.ar  1 <1>  -0.1500 
  8 C       -0.3720    -4.8550    -0.3890 C.2   1 <1>   0.6900 
  9 C        2.9730    -2.2980     1.8190 C.ar  1 <1>  -0.1500 
 10 C        3.3250    -3.5200    -0.3440 C.3   1 <1>  -0.0960 
 11 O       -0.4800    -5.5390     0.6140 O.2   1 <1>  -0.5700 
 12 N       -1.1880    -5.1090    -1.4520 N.am  1 <1>  -0.6600 
 13 C       -2.3450    -4.1730    -1.6060 C.3   1 <1>   0.1400 
 14 C       -1.6000    -6.5340    -1.6860 C.3   1 <1>   0.1400 
 15 C       -3.4570    -4.4880    -0.5640 C.3   1 <1>   0.4230 
 16 C       -2.8890    -6.9010    -0.9060 C.3   1 <1>   0.3430 
 17 N       -3.2490    -5.8360     0.0950 N.4   1 <1>  -0.9590 
 18 C       -4.8630    -4.3920    -1.1970 C.3   1 <1>   0.1200 
 19 C       -4.3700    -6.1560     1.0280 C.3   1 <1>   0.5180 
 20 O       -5.8530    -4.7210    -0.2640 O.3   1 <1>  -0.5600 
 21 C       -4.1350    -7.5440     1.6570 C.3   1 <1>  -0.1950 
 22 C       -5.7350    -5.9950     0.3130 C.3   1 <1>   0.1200 
 23 C       -4.5900    -8.8460     1.0630 C.3   1 <1>  -0.2000 
 24 C       -5.2210    -8.3310     2.3260 C.3   1 <1>  -0.2000 
 25 H        0.1790    -1.5190     3.5430 H     1 <1>   0.1500 
 26 H        0.7720    -3.5170    -1.3600 H     1 <1>   0.3700 
 27 H        2.6350    -1.2760     3.6670 H     1 <1>   0.1500 
 28 H        4.0410    -2.1820     1.8860 H     1 <1>   0.1500 
 29 H        4.3590    -3.4070    -0.0710 H     1 <1>   0.0800 
 30 H        3.1630    -3.0030    -1.2730 H     1 <1>   0.0800 
 31 H        3.1310    -4.5680    -0.4840 H     1 <1>   0.0800 
 32 H       -2.0190    -3.1550    -1.4760 H     1 <1>   0.0800 
 33 H       -2.7320    -4.2580    -2.6070 H     1 <1>   0.0800 
 34 H       -1.7510    -6.7000    -2.7390 H     1 <1>   0.0800 
 35 H       -0.8050    -7.1890    -1.3720 H     1 <1>   0.0800 
 36 H       -3.4060    -3.7280     0.1980 H     1 <1>   0.0800 
 37 H       -2.7250    -7.8410    -0.4060 H     1 <1>   0.0800 
 38 H       -3.7010    -7.0370    -1.6010 H     1 <1>   0.0800 
 39 H       -2.3820    -5.7280     0.6630 H     1 <1>   0.4500 
 40 H       -4.9580    -5.0520    -2.0420 H     1 <1>   0.0800 
 41 H       -5.0520    -3.3850    -1.5270 H     1 <1>   0.0800 
 42 H       -4.3570    -5.4370     1.8310 H     1 <1>   0.0800 
 43 H       -3.1960    -7.5530     2.1870 H     1 <1>   0.1000 
 44 H       -6.5360    -6.0980     1.0230 H     1 <1>   0.0800 
 45 H       -5.8640    -6.7340    -0.4570 H     1 <1>   0.0800 
 46 H       -5.2120    -8.8840     0.1860 H     1 <1>   0.1000 
 47 H       -3.9510    -9.7100     1.1420 H     1 <1>   0.1000 
 48 H       -4.9990    -8.8380     3.2500 H     1 <1>   0.1000 
 49 H       -6.2510    -8.0180     2.2810 H     1 <1>   0.1000 
@<TRIPOS>BOND
  1   1   2  1   
  2   2   3  ar  
  3   2   4  ar  
  4   3   5  1   
  5   3   6  ar  
  6   4   7  ar  
  7   4  25  1   
  8   5   8  am  
  9   5  26  1   
 10   6   9  ar  
 11   6  10  1   
 12   7   9  ar  
 13   7  27  1   
 14   8  11  2   
 15   8  12  am  
 16   9  28  1   
 17  10  29  1   
 18  10  30  1   
 19  10  31  1   
 20  12  13  1   
 21  12  14  1   
 22  13  15  1   
 23  13  32  1   
 24  13  33  1   
 25  14  16  1   
 26  14  34  1   
 27  14  35  1   
 28  15  17  1   
 29  15  18  1   
 30  15  36  1   
 31  16  17  1   
 32  16  37  1   
 33  16  38  1   
 34  17  19  1   
 35  17  39  1   
 36  18  20  1   
 37  18  40  1   
 38  18  41  1   
 39  19  21  1   
 40  19  22  1   
 41  19  42  1   
 42  20  22  1   
 43  21  23  1   
 44  21  24  1   
 45  21  43  1   
 46  22  44  1   
 47  22  45  1   
 48  23  24  1   
 49  23  46  1   
 50  23  47  1   
 51  24  48  1   
 52  24  49  1   
@<TRIPOS>SUBSTRUCTURE
  1 ****  11 GROUP 4 **** **** 0

# MOE 2024.06 (io_trps.svl 2023.06)
