@<TRIPOS>MOLECULE
Untitled Document
45 47 1 0 0 
SMALL
USER_CHARGES


@<TRIPOS>ATOM
  1 F        0.5570     0.3920     0.6420 F     1 <1>  -0.3400 
  2 C        1.5100     1.1280     0.0910 C.3   1 <1>   1.1640 
  3 F        1.5920     2.2380     0.8160 F     1 <1>  -0.3400 
  4 F        1.0670     1.4870    -1.1050 F     1 <1>  -0.3400 
  5 C        2.8460     0.3930     0.0260 C.ar  1 <1>  -0.1440 
  6 C        3.9710     1.0120    -0.5670 C.ar  1 <1>   0.1000 
  7 C        2.9730    -0.8570     0.5680 C.ar  1 <1>   0.2110 
  8 N        3.8690     2.2430    -1.1510 N.pl3 1 <1>  -0.8690 
  9 C        5.1680     0.3080    -0.5520 C.ar  1 <1>  -0.1500 
 10 N        4.1710    -1.5120     0.5470 N.ar  1 <1>  -0.1790 
 11 C        4.9750     3.2140    -1.4280 C.3   1 <1>   0.2090 
 12 C        5.2770    -0.9590     0.0010 C.ar  1 <1>   0.4610 
 13 C        4.5870     4.6220    -0.9570 C.3   1 <1>   0.2000 
 14 N        6.4450    -1.6720     0.0150 N.pl3 1 <1>  -0.6000 
 15 O        5.7030     5.4540    -1.1080 O.3   1 <1>  -0.5600 
 16 C        4.1410     4.6160     0.5230 C.3   1 <1>   0.3430 
 17 C        7.7050    -1.1830     0.3520 C.ar  1 <1>   0.4100 
 18 C        5.5060     6.7920    -0.7460 C.3   1 <1>   0.1200 
 19 N        3.9500     6.0070     1.0630 N.4   1 <1>  -0.9060 
 20 N        7.7270    -0.0840     1.0890 N.ar  1 <1>  -0.6200 
 21 C        8.8780    -1.8390    -0.0490 C.ar  1 <1>   0.1600 
 22 C        5.1180     6.8930     0.7430 C.3   1 <1>   0.3430 
 23 C        8.9590     0.3000     1.3990 C.ar  1 <1>   0.1600 
 24 N       10.0990    -1.4520     0.2570 N.ar  1 <1>  -0.6200 
 25 C       10.1310    -0.3470     1.0080 C.ar  1 <1>   0.3830 
 26 C       11.3930     0.1970     1.4290 C.1   1 <1>   0.4840 
 27 N       12.3630     0.6750     1.7950 N.1   1 <1>  -0.5570 
 28 H        2.1440    -1.3680     1.0380 H     1 <1>   0.1500 
 29 H        3.0080     2.4670    -1.6830 H     1 <1>   0.4000 
 30 H        6.0460     0.7380    -0.9960 H     1 <1>   0.1500 
 31 H        4.2670    -2.4260     0.9960 H     1 <1>   0.4570 
 32 H        5.8700     2.9120    -0.9120 H     1 <1>   0.0800 
 33 H        5.1770     3.2320    -2.4870 H     1 <1>   0.0800 
 34 H        3.8000     4.9970    -1.5880 H     1 <1>   0.0800 
 35 H        6.4390    -2.6400    -0.3140 H     1 <1>   0.4000 
 36 H        4.8960     4.1050     1.0980 H     1 <1>   0.0800 
 37 H        3.2260     4.0540     0.6160 H     1 <1>   0.0800 
 38 H        6.4290     7.3180    -0.9240 H     1 <1>   0.0800 
 39 H        4.7460     7.2170    -1.3790 H     1 <1>   0.0800 
 40 H        3.0980     6.4110     0.6550 H     1 <1>   0.4500 
 41 H        3.8030     5.9720     2.0810 H     1 <1>   0.4500 
 42 H        8.7910    -2.7250    -0.6520 H     1 <1>   0.1500 
 43 H        4.8870     7.9170     0.9870 H     1 <1>   0.0800 
 44 H        5.9710     6.5980     1.3330 H     1 <1>   0.0800 
 45 H        9.0530     1.1860     2.0050 H     1 <1>   0.1500 
@<TRIPOS>BOND
  1   1   2  1   
  2   2   3  1   
  3   2   4  1   
  4   2   5  1   
  5   5   6  ar  
  6   5   7  ar  
  7   6   8  1   
  8   6   9  ar  
  9   7  10  ar  
 10   7  28  1   
 11   8  11  1   
 12   8  29  1   
 13   9  12  ar  
 14   9  30  1   
 15  10  12  ar  
 16  10  31  1   
 17  11  13  1   
 18  11  32  1   
 19  11  33  1   
 20  12  14  1   
 21  13  15  1   
 22  13  16  1   
 23  13  34  1   
 24  14  17  1   
 25  14  35  1   
 26  15  18  1   
 27  16  19  1   
 28  16  36  1   
 29  16  37  1   
 30  17  20  ar  
 31  17  21  ar  
 32  18  22  1   
 33  18  38  1   
 34  18  39  1   
 35  19  22  1   
 36  19  40  1   
 37  19  41  1   
 38  20  23  ar  
 39  21  24  ar  
 40  21  42  1   
 41  22  43  1   
 42  22  44  1   
 43  23  25  ar  
 44  23  45  1   
 45  24  25  ar  
 46  25  26  1   
 47  26  27  3   
@<TRIPOS>SUBSTRUCTURE
  1 ****   9 GROUP 4 **** **** 0

# MOE 2024.06 (io_trps.svl 2023.06)
