@<TRIPOS>MOLECULE
NONAME
38 40 1 0 0 
SMALL
USER_CHARGES


@<TRIPOS>ATOM
  1 CL       0.4740    -0.3990     0.3780 Cl    1 <1>  -0.1770 
  2 C       -0.5100    -1.8080     0.0770 C.ar  1 <1>   0.1770 
  3 C       -1.8440    -1.7980     0.4350 C.ar  1 <1>  -0.1500 
  4 C        0.0560    -2.9190    -0.5170 C.ar  1 <1>  -0.1500 
  5 C       -2.6190    -2.9170     0.1920 C.ar  1 <1>  -0.1500 
  6 C       -0.7290    -4.0330    -0.7530 C.ar  1 <1>  -0.1500 
  7 C       -2.0830    -4.0620    -0.4040 C.ar  1 <1>   0.0530 
  8 C       -2.8840    -5.2360    -0.6610 C.2   1 <1>   0.0870 
  9 O       -2.5210    -6.0970    -1.5840 O.3   1 <1>  -0.0190 
 10 C       -4.0360    -5.7100    -0.1230 C.2   1 <1>  -0.2330 
 11 N       -3.3510    -7.1010    -1.6990 N.2   1 <1>  -0.4100 
 12 C       -4.2750    -6.8880    -0.8300 C.2   1 <1>   0.3720 
 13 C       -4.8470    -5.1870     0.9220 C.2   1 <1>   1.0330 
 14 N       -5.3560    -7.7580    -0.6660 N.pl3 1 <1>  -0.8210 
 15 O       -5.7240    -4.3420     0.6710 O.co2 1 <1>  -0.9000 
 16 O       -4.6820    -5.5500     2.0990 O.co2 1 <1>  -0.9000 
 17 C       -6.6730    -7.1350    -0.9530 C.3   1 <1>   0.2090 
 18 C       -5.3600    -8.4540     0.6450 C.3   1 <1>   0.2090 
 19 C       -7.7370    -8.2340    -1.0380 C.3   1 <1>  -0.1600 
 20 C       -6.3890    -9.5890     0.6040 C.3   1 <1>  -0.1600 
 21 C       -7.7910    -9.0570     0.2600 C.3   1 <1>  -0.0800 
 22 C       -8.7950   -10.2090     0.1340 C.3   1 <1>  -0.2400 
 23 H       -2.2720    -0.9270     0.8980 H     1 <1>   0.1500 
 24 H        1.0960    -2.9080    -0.7890 H     1 <1>   0.1500 
 25 H       -3.6590    -2.8980     0.4690 H     1 <1>   0.1500 
 26 H       -0.2900    -4.9010    -1.2120 H     1 <1>   0.1500 
 27 H       -6.6190    -6.5960    -1.8840 H     1 <1>   0.0800 
 28 H       -6.9320    -6.4390    -0.1730 H     1 <1>   0.0800 
 29 H       -5.6140    -7.7620     1.4300 H     1 <1>   0.0800 
 30 H       -4.3790    -8.8490     0.8440 H     1 <1>   0.0800 
 31 H       -7.5010    -8.8700    -1.8730 H     1 <1>   0.0800 
 32 H       -8.6930    -7.7790    -1.2230 H     1 <1>   0.0800 
 33 H       -6.4070   -10.0760     1.5620 H     1 <1>   0.0800 
 34 H       -6.0720   -10.3060    -0.1320 H     1 <1>   0.0800 
 35 H       -8.1100    -8.4070     1.0580 H     1 <1>   0.0800 
 36 H       -8.5040   -10.8770    -0.6570 H     1 <1>   0.0800 
 37 H       -9.7760    -9.8240    -0.0820 H     1 <1>   0.0800 
 38 H       -8.8420   -10.7620     1.0550 H     1 <1>   0.0800 
@<TRIPOS>BOND
  1   1   2  1   
  2   2   3  ar  
  3   2   4  ar  
  4   3   5  ar  
  5   3  23  1   
  6   4   6  ar  
  7   4  24  1   
  8   5   7  ar  
  9   5  25  1   
 10   6   7  ar  
 11   6  26  1   
 12   7   8  1   
 13   8   9  1   
 14   8  10  2   
 15   9  11  1   
 16  10  12  1   
 17  10  13  1   
 18  11  12  2   
 19  12  14  1   
 20  13  15  ar  
 21  13  16  ar  
 22  14  17  1   
 23  14  18  1   
 24  17  19  1   
 25  17  27  1   
 26  17  28  1   
 27  18  20  1   
 28  18  29  1   
 29  18  30  1   
 30  19  21  1   
 31  19  31  1   
 32  19  32  1   
 33  20  21  1   
 34  20  33  1   
 35  20  34  1   
 36  21  22  1   
 37  21  35  1   
 38  22  36  1   
 39  22  37  1   
 40  22  38  1   
@<TRIPOS>SUBSTRUCTURE
  1 ****  10 GROUP 4 **** **** 0

# MOE 2024.06 (io_trps.svl 2023.06)
