@<TRIPOS>MOLECULE
NONAME
42 44 1 0 0 
SMALL
USER_CHARGES


@<TRIPOS>ATOM
  1 F       -1.1560     0.2510    -0.8590 F     1 <1>  -0.1900 
  2 C       -2.3010     0.6840    -0.3910 C.ar  1 <1>   0.1900 
  3 C       -2.8620     1.8320    -0.9340 C.ar  1 <1>   0.0820 
  4 C       -2.9150    -0.0180     0.6270 C.ar  1 <1>  -0.1500 
  5 O       -2.2560     2.5050    -1.9300 O.3   1 <1>  -0.5330 
  6 C       -4.0700     2.2860    -0.4350 C.ar  1 <1>  -0.1500 
  7 C       -4.1300     0.4370     1.1220 C.ar  1 <1>  -0.1440 
  8 C       -4.6970     1.5910     0.5890 C.ar  1 <1>  -0.1500 
  9 C       -4.8360    -0.3280     2.2380 C.3   1 <1>   0.0440 
 10 C       -4.9840    -1.8160     1.9470 C.2   1 <1>   0.5690 
 11 O       -4.4190    -2.5910     2.6810 O.2   1 <1>  -0.5700 
 12 N       -5.7420    -2.2560     0.8940 N.am  1 <1>  -0.6600 
 13 C       -6.4500    -1.4150    -0.1030 C.3   1 <1>   0.1400 
 14 C       -5.9260    -3.6930     0.5870 C.3   1 <1>   0.1400 
 15 C       -7.1590    -2.4030    -1.0320 C.3   1 <1>   0.2000 
 16 C       -7.1710    -3.7440    -0.2990 C.3   1 <1>  -0.0800 
 17 O       -8.4600    -2.0050    -1.2990 O.3   1 <1>  -0.6800 
 18 C       -7.2120    -4.9420    -1.2630 C.3   1 <1>  -0.0160 
 19 C       -7.2640    -6.2660    -0.5170 C.ar  1 <1>   0.1670 
 20 N       -6.1080    -6.7530    -0.0970 N.ar  1 <1>  -0.6200 
 21 C       -8.4880    -6.8980    -0.3040 C.ar  1 <1>   0.1600 
 22 C       -6.2550    -7.8990     0.5460 C.ar  1 <1>   0.1600 
 23 N       -8.6380    -8.0450     0.3390 N.ar  1 <1>  -0.6200 
 24 C       -7.4790    -8.5240     0.7570 C.ar  1 <1>   0.1600 
 25 H       -2.4480    -0.9050     1.0210 H     1 <1>   0.1500 
 26 H       -1.4080     2.0890    -2.1830 H     1 <1>   0.4500 
 27 H       -4.5100     3.1770    -0.8460 H     1 <1>   0.1500 
 28 H       -5.6350     1.9600     0.9680 H     1 <1>   0.1500 
 29 H       -5.8130     0.0780     2.4160 H     1 <1>   0.0800 
 30 H       -4.2700    -0.2120     3.1440 H     1 <1>   0.0800 
 31 H       -7.1550    -0.7740     0.3970 H     1 <1>   0.0800 
 32 H       -5.7430    -0.8270    -0.6620 H     1 <1>   0.0800 
 33 H       -5.0600    -4.0530     0.0580 H     1 <1>   0.0800 
 34 H       -6.0540    -4.2710     1.4880 H     1 <1>   0.0800 
 35 H       -6.6260    -2.4680    -1.9660 H     1 <1>   0.0800 
 36 H       -8.0220    -3.7860     0.3580 H     1 <1>   0.0800 
 37 H       -8.9760    -1.9510    -0.4720 H     1 <1>   0.4000 
 38 H       -6.3440    -4.9340    -1.8990 H     1 <1>   0.0800 
 39 H       -8.0760    -4.8550    -1.8970 H     1 <1>   0.0800 
 40 H       -9.3830    -6.4360    -0.6800 H     1 <1>   0.1500 
 41 H       -5.3640    -8.3680     0.9250 H     1 <1>   0.1500 
 42 H       -7.4970    -9.4560     1.2930 H     1 <1>   0.1500 
@<TRIPOS>BOND
  1   1   2  1   
  2   2   3  ar  
  3   2   4  ar  
  4   3   5  1   
  5   3   6  ar  
  6   4   7  ar  
  7   4  25  1   
  8   5  26  1   
  9   6   8  ar  
 10   6  27  1   
 11   7   8  ar  
 12   7   9  1   
 13   8  28  1   
 14   9  10  1   
 15   9  29  1   
 16   9  30  1   
 17  10  11  2   
 18  10  12  am  
 19  12  13  1   
 20  12  14  1   
 21  13  15  1   
 22  13  31  1   
 23  13  32  1   
 24  14  16  1   
 25  14  33  1   
 26  14  34  1   
 27  15  16  1   
 28  15  17  1   
 29  15  35  1   
 30  16  18  1   
 31  16  36  1   
 32  17  37  1   
 33  18  19  1   
 34  18  38  1   
 35  18  39  1   
 36  19  20  ar  
 37  19  21  ar  
 38  20  22  ar  
 39  21  23  ar  
 40  21  40  1   
 41  22  24  ar  
 42  22  41  1   
 43  23  24  ar  
 44  24  42  1   
@<TRIPOS>SUBSTRUCTURE
  1 ****  12 GROUP 4 **** **** 0

# MOE 2024.06 (io_trps.svl 2023.06)
