@<TRIPOS>MOLECULE
NONAME
43 45 1 0 0 
SMALL
USER_CHARGES


@<TRIPOS>ATOM
  1 S       -1.8970    -1.3170    -0.0480 S.3   1 <1>  -0.0800 
  2 C       -1.1350    -2.0880    -1.3990 C.2   1 <1>   0.4420 
  3 C       -0.8100     0.0100    -0.2870 C.2   1 <1>   0.1980 
  4 N       -0.1920    -1.3760    -1.8980 N.2   1 <1>  -0.3380 
  5 N       -1.6210    -3.3250    -1.7600 N.am  1 <1>  -0.4940 
  6 N       -0.0120    -0.1800    -1.2590 N.2   1 <1>  -0.3380 
  7 C       -0.8960     1.2040     0.6490 C.3   1 <1>   0.3000 
  8 C       -1.2000    -4.2040    -2.7120 C.2   1 <1>   0.5690 
  9 O       -2.2210     1.6390     0.7680 O.3   1 <1>  -0.5600 
 10 O       -0.2320    -4.0410    -3.4100 O.2   1 <1>  -0.5700 
 11 C       -2.0350    -5.4740    -2.8850 C.3   1 <1>   0.1710 
 12 C       -2.3780     2.7770     1.5540 C.3   1 <1>   0.0400 
 13 N       -2.9240    -5.7890    -1.7210 N.3   1 <1>  -0.8100 
 14 C       -3.9520    -6.7610    -2.1310 C.3   1 <1>   0.2900 
 15 C       -2.1260    -6.3300    -0.5990 C.3   1 <1>   0.0300 
 16 C       -4.9650    -6.9270    -1.0220 C.2   1 <1>  -0.3320 
 17 N       -5.5590    -5.8810    -0.4180 N.pl3 1 <1>   0.3000 
 18 C       -5.4590    -8.0400    -0.4370 C.2   1 <1>  -0.1500 
 19 N       -6.4200    -6.2780     0.5380 N.2   1 <1>  -0.7070 
 20 C       -6.3570    -7.5740     0.5180 C.2   1 <1>   0.2030 
 21 C       -7.1740    -8.4540     1.4460 C.3   1 <1>  -0.0140 
 22 C       -7.8070    -9.7220     0.9550 C.3   1 <1>  -0.2000 
 23 C       -8.6590    -8.5330     1.2720 C.3   1 <1>  -0.2000 
 24 H       -2.4140    -3.6840    -1.2260 H     1 <1>   0.3700 
 25 H       -0.3010     2.0090     0.2560 H     1 <1>   0.0800 
 26 H       -0.5360     0.9280     1.6240 H     1 <1>   0.0800 
 27 H       -1.3710    -6.2990    -3.0770 H     1 <1>   0.0800 
 28 H       -2.6350    -5.3260    -3.7650 H     1 <1>   0.0800 
 29 H       -3.4260     3.0200     1.5840 H     1 <1>   0.0800 
 30 H       -1.8320     3.5930     1.1140 H     1 <1>   0.0800 
 31 H       -2.0260     2.5760     2.5510 H     1 <1>   0.0800 
 32 H       -3.5000    -7.7110    -2.3660 H     1 <1>   0.0800 
 33 H       -4.4620    -6.4020    -3.0090 H     1 <1>   0.0800 
 34 H       -1.3450    -5.6440    -0.3200 H     1 <1>   0.0800 
 35 H       -1.6750    -7.2700    -0.8720 H     1 <1>   0.0800 
 36 H       -2.7510    -6.4890     0.2640 H     1 <1>   0.0800 
 37 H       -5.3780    -4.8930    -0.6280 H     1 <1>   0.2700 
 38 H       -5.2360    -9.0720    -0.6340 H     1 <1>   0.1500 
 39 H       -6.8030    -8.4270     2.4550 H     1 <1>   0.1000 
 40 H       -7.8350   -10.5710     1.6150 H     1 <1>   0.1000 
 41 H       -7.6920   -10.0020    -0.0770 H     1 <1>   0.1000 
 42 H       -9.0970    -7.9650     0.4690 H     1 <1>   0.1000 
 43 H       -9.2730    -8.5410     2.1550 H     1 <1>   0.1000 
@<TRIPOS>BOND
  1   1   2  1   
  2   1   3  1   
  3   2   4  2   
  4   2   5  1   
  5   3   6  2   
  6   3   7  1   
  7   4   6  1   
  8   5   8  am  
  9   5  24  1   
 10   7   9  1   
 11   7  25  1   
 12   7  26  1   
 13   8  10  2   
 14   8  11  1   
 15   9  12  1   
 16  11  13  1   
 17  11  27  1   
 18  11  28  1   
 19  12  29  1   
 20  12  30  1   
 21  12  31  1   
 22  13  14  1   
 23  13  15  1   
 24  14  16  1   
 25  14  32  1   
 26  14  33  1   
 27  15  34  1   
 28  15  35  1   
 29  15  36  1   
 30  16  17  1   
 31  16  18  2   
 32  17  19  1   
 33  17  37  1   
 34  18  20  1   
 35  18  38  1   
 36  19  20  2   
 37  20  21  1   
 38  21  22  1   
 39  21  23  1   
 40  21  39  1   
 41  22  23  1   
 42  22  40  1   
 43  22  41  1   
 44  23  42  1   
 45  23  43  1   
@<TRIPOS>SUBSTRUCTURE
  1 ****  13 GROUP 4 **** **** 0

# MOE 2024.06 (io_trps.svl 2023.06)
