@<TRIPOS>MOLECULE
NONAME
52 55 1 0 0 
SMALL
USER_CHARGES


@<TRIPOS>ATOM
  1 O       -1.3110     0.8760    -0.9960 O.2   1 <1>  -0.5700 
  2 C       -0.8960     1.8670    -0.4530 C.2   1 <1>   0.5690 
  3 N       -1.7410     2.8470    -0.0660 N.am  1 <1>  -0.7300 
  4 C        0.6080     2.0470    -0.2310 C.3   1 <1>   0.1810 
  5 C       -1.3040     4.0960     0.6020 C.3   1 <1>   0.3640 
  6 O        0.9170     3.0450     0.7200 O.3   1 <1>  -0.5600 
  7 C       -2.0100     5.2760    -0.0660 C.ar  1 <1>  -0.1440 
  8 C        0.2360     4.2780     0.5390 C.3   1 <1>   0.2610 
  9 C       -2.5590     6.2820     0.7170 C.ar  1 <1>  -0.1500 
 10 C       -2.1070     5.3730    -1.4490 C.ar  1 <1>  -0.1500 
 11 C        0.7310     5.3290     1.5500 C.2   1 <1>   0.5690 
 12 C       -3.1930     7.3630     0.1310 C.ar  1 <1>  -0.1500 
 13 C       -2.7410     6.4540    -2.0360 C.ar  1 <1>  -0.1500 
 14 O        0.0160     5.6220     2.4850 O.2   1 <1>  -0.5700 
 15 N        1.9550     5.9360     1.3910 N.am  1 <1>  -0.6600 
 16 C       -3.2850     7.4500    -1.2460 C.ar  1 <1>  -0.1500 
 17 C        2.3950     7.0630     2.2650 C.3   1 <1>   0.1400 
 18 C        2.9970     5.5570     0.3910 C.3   1 <1>   0.1400 
 19 C        2.8480     8.2610     1.4120 C.3   1 <1>   0.1100 
 20 C        3.4300     6.7870    -0.4270 C.3   1 <1>   0.1100 
 21 N        3.9070     7.8850     0.4420 N.3   1 <1>  -0.8100 
 22 C        4.3340     9.0340    -0.3740 C.3   1 <1>   0.1100 
 23 C        5.2370     9.9680     0.4330 C.3   1 <1>   0.0960 
 24 N        5.7770    11.0190    -0.4440 N.pl3 1 <1>   0.3140 
 25 N        5.0170    11.9520    -1.0020 N.2   1 <1>  -0.7070 
 26 C        7.0430    11.2170    -0.8240 C.2   1 <1>   0.0360 
 27 C        5.8770    12.6430    -1.6750 C.2   1 <1>   0.3660 
 28 N        7.1500    12.2320    -1.6030 N.2   1 <1>  -0.5650 
 29 H       -2.7430     2.7300    -0.2220 H     1 <1>   0.3700 
 30 H        1.0770     2.3100    -1.1610 H     1 <1>   0.0800 
 31 H        1.0280     1.1220     0.1200 H     1 <1>   0.0800 
 32 H       -1.6110     4.0360     1.6330 H     1 <1>   0.0800 
 33 H        0.4800     4.6370    -0.4430 H     1 <1>   0.0800 
 34 H       -2.4920     6.2330     1.7910 H     1 <1>   0.1500 
 35 H       -1.6930     4.6060    -2.0810 H     1 <1>   0.1500 
 36 H       -3.6140     8.1370     0.7490 H     1 <1>   0.1500 
 37 H       -2.8140     6.5190    -3.1080 H     1 <1>   0.1500 
 38 H       -3.7790     8.2910    -1.7010 H     1 <1>   0.1500 
 39 H        1.5950     7.3760     2.9130 H     1 <1>   0.0800 
 40 H        3.2120     6.7340     2.8820 H     1 <1>   0.0800 
 41 H        3.8530     5.1660     0.9120 H     1 <1>   0.0800 
 42 H        2.6440     4.7910    -0.2740 H     1 <1>   0.0800 
 43 H        3.2140     9.0240     2.0750 H     1 <1>   0.0800 
 44 H        1.9940     8.6560     0.8890 H     1 <1>   0.0800 
 45 H        2.5980     7.1250    -1.0220 H     1 <1>   0.0800 
 46 H        4.2210     6.4920    -1.0940 H     1 <1>   0.0800 
 47 H        4.8960     8.6760    -1.2210 H     1 <1>   0.0800 
 48 H        3.4740     9.5720    -0.7400 H     1 <1>   0.0800 
 49 H        6.0530     9.4120     0.8550 H     1 <1>   0.0800 
 50 H        4.6810    10.4450     1.2170 H     1 <1>   0.0800 
 51 H        7.8570    10.5910    -0.5070 H     1 <1>   0.1500 
 52 H        5.6110    13.5040    -2.2680 H     1 <1>   0.1500 
@<TRIPOS>BOND
  1   1   2  2   
  2   2   3  am  
  3   2   4  1   
  4   3   5  1   
  5   3  29  1   
  6   4   6  1   
  7   4  30  1   
  8   4  31  1   
  9   5   7  1   
 10   5   8  1   
 11   5  32  1   
 12   6   8  1   
 13   7   9  ar  
 14   7  10  ar  
 15   8  11  1   
 16   8  33  1   
 17   9  12  ar  
 18   9  34  1   
 19  10  13  ar  
 20  10  35  1   
 21  11  14  2   
 22  11  15  am  
 23  12  16  ar  
 24  12  36  1   
 25  13  16  ar  
 26  13  37  1   
 27  15  17  1   
 28  15  18  1   
 29  16  38  1   
 30  17  19  1   
 31  17  39  1   
 32  17  40  1   
 33  18  20  1   
 34  18  41  1   
 35  18  42  1   
 36  19  21  1   
 37  19  43  1   
 38  19  44  1   
 39  20  21  1   
 40  20  45  1   
 41  20  46  1   
 42  21  22  1   
 43  22  23  1   
 44  22  47  1   
 45  22  48  1   
 46  23  24  1   
 47  23  49  1   
 48  23  50  1   
 49  24  25  1   
 50  24  26  1   
 51  25  27  2   
 52  26  28  2   
 53  26  51  1   
 54  27  28  1   
 55  27  52  1   
@<TRIPOS>SUBSTRUCTURE
  1 ****  15 GROUP 4 **** **** 0

# MOE 2024.06 (io_trps.svl 2023.06)
