@<TRIPOS>MOLECULE
NONAME
49 51 1 0 0 
SMALL
USER_CHARGES


@<TRIPOS>ATOM
  1 O       -0.2140     2.1980     1.5260 O.2   1 <1>  -0.5700 
  2 C       -0.1990     2.9750     0.5990 C.2   1 <1>   0.5690 
  3 N       -1.3410     3.5820     0.1420 N.am  1 <1>  -0.6600 
  4 C        1.1360     3.2720    -0.0580 C.3   1 <1>  -0.0990 
  5 C       -2.6820     3.2330     0.7050 C.3   1 <1>   0.1400 
  6 C       -1.4210     4.5610    -0.9770 C.3   1 <1>   0.1400 
  7 C        2.2510     2.3360     0.4270 C.3   1 <1>   0.0960 
  8 C       -3.5860     2.6050    -0.3870 C.3   1 <1>   0.0000 
  9 C       -2.2770     3.9740    -2.1040 C.3   1 <1>  -0.1600 
 10 N        3.5350     2.7090    -0.1970 N.pl3 1 <1>   0.3140 
 11 C       -4.9820     2.2740     0.1680 C.3   1 <1>   0.2000 
 12 C       -3.6700     3.5590    -1.6000 C.3   1 <1>  -0.1600 
 13 C       -3.0680     1.2090    -0.7750 C.3   1 <1>  -0.1600 
 14 N        3.7660     2.4720    -1.5020 N.2   1 <1>  -0.7070 
 15 C        4.5910     3.3280     0.3830 C.2   1 <1>  -0.3320 
 16 O       -5.4440     3.2800     1.0200 O.3   1 <1>  -0.5600 
 17 C       -4.8310     0.9400     0.9070 C.3   1 <1>  -0.1600 
 18 C       -3.5900     0.2620     0.3100 C.3   1 <1>  -0.1600 
 19 C        4.9580     2.9340    -1.7190 C.2   1 <1>   0.1390 
 20 C        5.5260     3.4840    -0.5770 C.2   1 <1>  -0.1500 
 21 C        4.6660     3.7510     1.8410 C.3   1 <1>  -0.0600 
 22 C       -6.8000     3.2140     1.3280 C.3   1 <1>   0.0400 
 23 H        1.0330     3.1490    -1.1210 H     1 <1>   0.0800 
 24 H        1.4030     4.2890     0.1600 H     1 <1>   0.0800 
 25 H       -2.5830     2.5590     1.5370 H     1 <1>   0.0800 
 26 H       -3.1360     4.1350     1.0780 H     1 <1>   0.0800 
 27 H       -1.8770     5.4660    -0.6120 H     1 <1>   0.0800 
 28 H       -0.4470     4.8140    -1.3530 H     1 <1>   0.0800 
 29 H        2.0230     1.3220     0.1540 H     1 <1>   0.0800 
 30 H        2.3470     2.3890     1.4950 H     1 <1>   0.0800 
 31 H       -2.3830     4.7060    -2.8850 H     1 <1>   0.0800 
 32 H       -1.7680     3.1240    -2.5230 H     1 <1>   0.0800 
 33 H       -5.6720     2.1640    -0.6520 H     1 <1>   0.0800 
 34 H       -4.2220     3.0980    -2.4000 H     1 <1>   0.0800 
 35 H       -4.2080     4.4430    -1.3030 H     1 <1>   0.0800 
 36 H       -3.4900     0.9160    -1.7210 H     1 <1>   0.0800 
 37 H       -1.9960     1.1660    -0.8540 H     1 <1>   0.0800 
 38 H       -4.6760     1.1100     1.9580 H     1 <1>   0.0800 
 39 H       -5.7050     0.3300     0.7640 H     1 <1>   0.0800 
 40 H       -2.8400     0.1450     1.0760 H     1 <1>   0.0800 
 41 H       -3.8210    -0.7060    -0.0990 H     1 <1>   0.0800 
 42 H        5.4430     2.8930    -2.6800 H     1 <1>   0.1500 
 43 H        6.5020     3.9290    -0.5100 H     1 <1>   0.1500 
 44 H        5.6050     4.2360     2.0380 H     1 <1>   0.0800 
 45 H        4.5850     2.8910     2.4820 H     1 <1>   0.0800 
 46 H        3.8710     4.4380     2.0720 H     1 <1>   0.0800 
 47 H       -7.0370     4.0460     1.9670 H     1 <1>   0.0800 
 48 H       -7.0070     2.2930     1.8440 H     1 <1>   0.0800 
 49 H       -7.3740     3.2790     0.4210 H     1 <1>   0.0800 
@<TRIPOS>BOND
  1   1   2  2   
  2   2   3  am  
  3   2   4  1   
  4   3   5  1   
  5   3   6  1   
  6   4   7  1   
  7   4  23  1   
  8   4  24  1   
  9   5   8  1   
 10   5  25  1   
 11   5  26  1   
 12   6   9  1   
 13   6  27  1   
 14   6  28  1   
 15   7  10  1   
 16   7  29  1   
 17   7  30  1   
 18   8  11  1   
 19   8  12  1   
 20   8  13  1   
 21   9  12  1   
 22   9  31  1   
 23   9  32  1   
 24  10  14  1   
 25  10  15  1   
 26  11  16  1   
 27  11  17  1   
 28  11  33  1   
 29  12  34  1   
 30  12  35  1   
 31  13  18  1   
 32  13  36  1   
 33  13  37  1   
 34  14  19  2   
 35  15  20  2   
 36  15  21  1   
 37  16  22  1   
 38  17  18  1   
 39  17  38  1   
 40  17  39  1   
 41  18  40  1   
 42  18  41  1   
 43  19  20  1   
 44  19  42  1   
 45  20  43  1   
 46  21  44  1   
 47  21  45  1   
 48  21  46  1   
 49  22  47  1   
 50  22  48  1   
 51  22  49  1   
@<TRIPOS>SUBSTRUCTURE
  1 ****   2 GROUP 4 **** **** 0

# MOE 2024.06 (io_trps.svl 2023.06)
