@<TRIPOS>MOLECULE
NONAME
44 46 1 0 0 
SMALL
USER_CHARGES


@<TRIPOS>ATOM
  1 O       -0.5440     1.2830     1.5200 O.2   1 <1>  -0.5700 
  2 C       -0.3740     2.1800     0.7250 C.2   1 <1>   0.5770 
  3 N       -1.4190     2.9910     0.3390 N.am  1 <1>  -0.6600 
  4 C        1.0320     2.3500     0.1570 C.3   1 <1>   0.0530 
  5 C       -2.7820     2.8140     0.9280 C.3   1 <1>   0.1400 
  6 C       -1.4020     4.0020    -0.7540 C.3   1 <1>   0.1400 
  7 C        1.6370     3.7370     0.4210 C.3   1 <1>   0.2580 
  8 C        2.1220     1.9230     1.1570 C.3   1 <1>   0.2580 
  9 C        1.2510     1.7750    -1.2640 C.3   1 <1>  -0.2400 
 10 C       -3.7660     2.2960    -0.1380 C.3   1 <1>   0.0000 
 11 C       -2.3500     3.5630    -1.8760 C.3   1 <1>  -0.1600 
 12 O        2.8500     3.0830     0.7670 O.3   1 <1>  -0.5160 
 13 C       -5.1640     2.1020     0.4760 C.3   1 <1>   0.2000 
 14 C       -3.7670     3.2690    -1.3500 C.3   1 <1>  -0.1600 
 15 C       -3.4350     0.8600    -0.5860 C.3   1 <1>  -0.1600 
 16 O       -5.8670     3.3070     0.5600 O.3   1 <1>  -0.5600 
 17 C       -5.8730     1.0950    -0.4330 C.3   1 <1>  -0.1600 
 18 C       -4.7580     0.2620    -1.0800 C.3   1 <1>  -0.1600 
 19 C       -7.0120     3.2670     1.3520 C.3   1 <1>   0.0400 
 20 H       -2.7520     2.1330     1.7610 H     1 <1>   0.0800 
 21 H       -3.1290     3.7630     1.2990 H     1 <1>   0.0800 
 22 H       -1.7300     4.9480    -0.3560 H     1 <1>   0.0800 
 23 H       -0.4170     4.1370    -1.1560 H     1 <1>   0.0800 
 24 H        1.2410     4.2550     1.2780 H     1 <1>   0.0000 
 25 H        1.7800     4.3510    -0.4500 H     1 <1>   0.0000 
 26 H        2.6660     1.0330     0.8950 H     1 <1>   0.0000 
 27 H        1.8580     1.9970     2.1980 H     1 <1>   0.0000 
 28 H        2.2720     1.9120    -1.5770 H     1 <1>   0.0800 
 29 H        0.6070     2.2570    -1.9750 H     1 <1>   0.0800 
 30 H        1.0320     0.7220    -1.2640 H     1 <1>   0.0800 
 31 H       -2.4030     4.3420    -2.6160 H     1 <1>   0.0800 
 32 H       -1.9440     2.6930    -2.3580 H     1 <1>   0.0800 
 33 H       -5.0610     1.6880     1.4650 H     1 <1>   0.0800 
 34 H       -4.3750     2.8800    -2.1470 H     1 <1>   0.0800 
 35 H       -4.2030     4.2060    -1.0470 H     1 <1>   0.0800 
 36 H       -2.6680     0.8140    -1.3370 H     1 <1>   0.0800 
 37 H       -3.0960     0.2930     0.2650 H     1 <1>   0.0800 
 38 H       -6.5400     0.4720     0.1340 H     1 <1>   0.0800 
 39 H       -6.4230     1.6150    -1.1990 H     1 <1>   0.0800 
 40 H       -4.8310    -0.7760    -0.8050 H     1 <1>   0.0800 
 41 H       -4.8210     0.3430    -2.1520 H     1 <1>   0.0800 
 42 H       -7.4440     4.2520     1.3620 H     1 <1>   0.0800 
 43 H       -6.7430     2.9780     2.3530 H     1 <1>   0.0800 
 44 H       -7.7150     2.5700     0.9310 H     1 <1>   0.0800 
@<TRIPOS>BOND
  1   1   2  2   
  2   2   3  am  
  3   2   4  1   
  4   3   5  1   
  5   3   6  1   
  6   4   7  1   
  7   4   8  1   
  8   4   9  1   
  9   5  10  1   
 10   5  20  1   
 11   5  21  1   
 12   6  11  1   
 13   6  22  1   
 14   6  23  1   
 15   7  12  1   
 16   7  24  1   
 17   7  25  1   
 18   8  12  1   
 19   8  26  1   
 20   8  27  1   
 21   9  28  1   
 22   9  29  1   
 23   9  30  1   
 24  10  13  1   
 25  10  14  1   
 26  10  15  1   
 27  11  14  1   
 28  11  31  1   
 29  11  32  1   
 30  13  16  1   
 31  13  17  1   
 32  13  33  1   
 33  14  34  1   
 34  14  35  1   
 35  15  18  1   
 36  15  36  1   
 37  15  37  1   
 38  16  19  1   
 39  17  18  1   
 40  17  38  1   
 41  17  39  1   
 42  18  40  1   
 43  18  41  1   
 44  19  42  1   
 45  19  43  1   
 46  19  44  1   
@<TRIPOS>SUBSTRUCTURE
  1 ****   3 GROUP 4 **** **** 0

# MOE 2024.06 (io_trps.svl 2023.06)
