@<TRIPOS>MOLECULE
NONAME
51 54 1 0 0 
SMALL
USER_CHARGES


@<TRIPOS>ATOM
  1 S        0.2970     0.5250    -2.3580 S.3   1 <1>  -0.2420 
  2 C        0.2950     1.8650    -1.2000 C.2   1 <1>   0.6410 
  3 C       -1.4680     0.3930    -2.3240 C.2   1 <1>  -0.0490 
  4 N        1.2770     2.5350    -0.7090 N.2   1 <1>  -0.6610 
  5 N       -1.0000     2.1070    -0.8860 N.pl3 1 <1>  -0.5500 
  6 C       -1.9890     1.3090    -1.4870 C.2   1 <1>   0.0720 
  7 C        2.5810     2.2830    -1.0070 C.2   1 <1>   0.7200 
  8 C       -3.3820     1.5370    -1.1720 C.ar  1 <1>   0.0280 
  9 O        2.9740     1.4330    -1.7660 O.2   1 <1>  -0.5700 
 10 C        3.5880     3.1840    -0.3070 C.3   1 <1>   0.2370 
 11 C       -3.7860     1.8570     0.1220 C.ar  1 <1>  -0.1500 
 12 C       -4.3630     1.4490    -2.1570 C.ar  1 <1>  -0.1500 
 13 N        3.8200     2.5960     1.0260 N.pl3 1 <1>   0.3140 
 14 C        4.9030     3.4720    -1.0910 C.3   1 <1>  -0.0800 
 15 C       -5.1130     2.0940     0.4290 C.ar  1 <1>   0.0830 
 16 C       -5.6970     1.6610    -1.8610 C.ar  1 <1>  -0.1500 
 17 N        4.6130     1.5760     1.2850 N.2   1 <1>  -0.4180 
 18 C        3.2860     2.9730     2.1730 C.2   1 <1>   0.0360 
 19 C        5.8800     4.3480    -0.2660 C.3   1 <1>  -0.1600 
 20 C        4.5890     4.1480    -2.4430 C.3   1 <1>  -0.2400 
 21 O       -5.3850     2.4670     1.7070 O.3   1 <1>  -0.3620 
 22 C       -6.0900     1.9680    -0.5700 C.ar  1 <1>   0.0830 
 23 N        4.5420     1.3700     2.5510 N.2   1 <1>   0.0000 
 24 N        3.7150     2.2380     3.1230 N.2   1 <1>  -0.3380 
 25 C        7.2340     4.5760    -0.9510 C.3   1 <1>  -0.2400 
 26 C       -6.4050     3.4220     1.9070 C.3   1 <1>   0.1200 
 27 O       -7.4230     2.1040    -0.3470 O.3   1 <1>  -0.3630 
 28 C       -7.7700     2.7300     1.9560 C.3   1 <1>  -0.1600 
 29 C       -7.9350     1.6480     0.8860 C.3   1 <1>   0.1200 
 30 H       -1.9170    -0.3670    -2.9380 H     1 <1>   0.1500 
 31 H       -1.2330     2.8680    -0.2500 H     1 <1>   0.4000 
 32 H        3.1030     4.1290    -0.1500 H     1 <1>   0.0800 
 33 H       -3.0610     1.9260     0.9110 H     1 <1>   0.1500 
 34 H       -4.0810     1.2130    -3.1680 H     1 <1>   0.1500 
 35 H        5.3800     2.5270    -1.2970 H     1 <1>   0.0800 
 36 H       -6.4460     1.5830    -2.6290 H     1 <1>   0.1500 
 37 H        2.5890     3.7830     2.2760 H     1 <1>   0.1500 
 38 H        5.4300     5.3030    -0.0540 H     1 <1>   0.0800 
 39 H        6.0870     3.8710     0.6770 H     1 <1>   0.0800 
 40 H        4.1750     5.1300    -2.2960 H     1 <1>   0.0800 
 41 H        3.8930     3.5640    -3.0190 H     1 <1>   0.0800 
 42 H        5.4800     4.2390    -3.0380 H     1 <1>   0.0800 
 43 H        7.1330     5.1990    -1.8220 H     1 <1>   0.0800 
 44 H        7.6720     3.6360    -1.2410 H     1 <1>   0.0800 
 45 H        7.9070     5.0660    -0.2700 H     1 <1>   0.0800 
 46 H       -6.2060     3.9290     2.8340 H     1 <1>   0.0800 
 47 H       -6.3630     4.1370     1.1030 H     1 <1>   0.0800 
 48 H       -7.9070     2.2850     2.9250 H     1 <1>   0.0800 
 49 H       -8.5400     3.4700     1.8340 H     1 <1>   0.0800 
 50 H       -8.9750     1.4120     0.7450 H     1 <1>   0.0800 
 51 H       -7.4090     0.7490     1.1600 H     1 <1>   0.0800 
@<TRIPOS>BOND
  1   1   2  1   
  2   1   3  1   
  3   2   4  2   
  4   2   5  1   
  5   3   6  2   
  6   3  30  1   
  7   4   7  1   
  8   5   6  1   
  9   5  31  1   
 10   6   8  1   
 11   7   9  2   
 12   7  10  1   
 13   8  11  ar  
 14   8  12  ar  
 15  10  13  1   
 16  10  14  1   
 17  10  32  1   
 18  11  15  ar  
 19  11  33  1   
 20  12  16  ar  
 21  12  34  1   
 22  13  17  1   
 23  13  18  1   
 24  14  19  1   
 25  14  20  1   
 26  14  35  1   
 27  15  21  1   
 28  15  22  ar  
 29  16  22  ar  
 30  16  36  1   
 31  17  23  2   
 32  18  24  2   
 33  18  37  1   
 34  19  25  1   
 35  19  38  1   
 36  19  39  1   
 37  20  40  1   
 38  20  41  1   
 39  20  42  1   
 40  21  26  1   
 41  22  27  1   
 42  23  24  1   
 43  25  43  1   
 44  25  44  1   
 45  25  45  1   
 46  26  28  1   
 47  26  46  1   
 48  26  47  1   
 49  27  29  1   
 50  28  29  1   
 51  28  48  1   
 52  28  49  1   
 53  29  50  1   
 54  29  51  1   
@<TRIPOS>SUBSTRUCTURE
  1 ****   5 GROUP 4 **** **** 0

# MOE 2024.06 (io_trps.svl 2023.06)
