@<TRIPOS>MOLECULE
NONAME
45 47 1 0 0 
SMALL
USER_CHARGES


@<TRIPOS>ATOM
  1 O        0.5480     0.2110    -1.0860 O.3   1 <1>  -0.5600 
  2 C        1.7660    -0.4790    -0.9670 C.3   1 <1>   0.2000 
  3 C        0.6750     1.5850    -1.2870 C.3   1 <1>   0.1200 
  4 C        2.6920     0.1490     0.1250 C.3   1 <1>   0.3340 
  5 C        1.3740    -1.9470    -0.7030 C.3   1 <1>   0.1200 
  6 C        1.3900     2.2120    -0.0880 C.3   1 <1>   0.1100 
  7 N        2.7370     1.6360     0.0750 N.3   1 <1>  -0.8100 
  8 C        4.1300    -0.3610    -0.0350 C.ar  1 <1>  -0.1440 
  9 O        2.4440    -2.7460    -0.3090 O.3   1 <1>  -0.6800 
 10 C        3.3970     2.1800     1.2740 C.3   1 <1>   0.2900 
 11 C        4.7200    -1.1240     0.9630 C.ar  1 <1>  -0.1500 
 12 C        4.8650    -0.0650    -1.1750 C.ar  1 <1>  -0.1500 
 13 C        3.6030     3.6750     1.1360 C.2   1 <1>  -0.3320 
 14 C        6.0180    -1.5840     0.8230 C.ar  1 <1>  -0.1500 
 15 C        6.1620    -0.5250    -1.3190 C.ar  1 <1>  -0.1500 
 16 N        4.3850     4.2620     0.2060 N.pl3 1 <1>   0.0480 
 17 C        3.0790     4.6740     1.8810 C.2   1 <1>   0.0770 
 18 C        6.7400    -1.2850    -0.3180 C.ar  1 <1>  -0.1500 
 19 C        4.2740     5.5860     0.4560 C.2   1 <1>   0.0360 
 20 C        5.1780     3.6310    -0.8710 C.3   1 <1>   0.0960 
 21 N        3.5000     5.8760     1.4510 N.2   1 <1>  -0.5650 
 22 C        6.5230     3.1250    -0.3390 C.3   1 <1>  -0.2400 
 23 H        2.2530    -0.4200    -1.9230 H     1 <1>   0.0800 
 24 H        1.2230     1.7600    -2.1960 H     1 <1>   0.0800 
 25 H       -0.3140     1.9950    -1.3870 H     1 <1>   0.0800 
 26 H        2.3090    -0.1570     1.0830 H     1 <1>   0.0800 
 27 H        0.9560    -2.3750    -1.5960 H     1 <1>   0.0800 
 28 H        0.6410    -1.9930     0.0840 H     1 <1>   0.0800 
 29 H        0.8010     2.0510     0.7990 H     1 <1>   0.0800 
 30 H        1.4670     3.2730    -0.2520 H     1 <1>   0.0800 
 31 H        3.2580    -2.5260    -0.8090 H     1 <1>   0.4000 
 32 H        2.7990     1.9740     2.1460 H     1 <1>   0.0800 
 33 H        4.3580     1.7180     1.4160 H     1 <1>   0.0800 
 34 H        4.1680    -1.3710     1.8540 H     1 <1>   0.1500 
 35 H        4.4260     0.5350    -1.9530 H     1 <1>   0.1500 
 36 H        6.4650    -2.1770     1.6020 H     1 <1>   0.1500 
 37 H        6.7230    -0.2900    -2.2070 H     1 <1>   0.1500 
 38 H        2.4080     4.5900     2.7200 H     1 <1>   0.1500 
 39 H        7.7490    -1.6440    -0.4270 H     1 <1>   0.1500 
 40 H        4.7920     6.3210    -0.1340 H     1 <1>   0.1500 
 41 H        4.6130     2.8180    -1.2850 H     1 <1>   0.0800 
 42 H        5.3420     4.3560    -1.6470 H     1 <1>   0.0800 
 43 H        6.3690     2.3620     0.4030 H     1 <1>   0.0800 
 44 H        7.0860     3.9340     0.0910 H     1 <1>   0.0800 
 45 H        7.0940     2.6980    -1.1440 H     1 <1>   0.0800 
@<TRIPOS>BOND
  1   1   2  1   
  2   1   3  1   
  3   2   4  1   
  4   2   5  1   
  5   2  23  1   
  6   3   6  1   
  7   3  24  1   
  8   3  25  1   
  9   4   7  1   
 10   4   8  1   
 11   4  26  1   
 12   5   9  1   
 13   5  27  1   
 14   5  28  1   
 15   6   7  1   
 16   6  29  1   
 17   6  30  1   
 18   7  10  1   
 19   8  11  ar  
 20   8  12  ar  
 21   9  31  1   
 22  10  13  1   
 23  10  32  1   
 24  10  33  1   
 25  11  14  ar  
 26  11  34  1   
 27  12  15  ar  
 28  12  35  1   
 29  13  16  1   
 30  13  17  2   
 31  14  18  ar  
 32  14  36  1   
 33  15  18  ar  
 34  15  37  1   
 35  16  19  1   
 36  16  20  1   
 37  17  21  1   
 38  17  38  1   
 39  18  39  1   
 40  19  21  2   
 41  19  40  1   
 42  20  22  1   
 43  20  41  1   
 44  20  42  1   
 45  22  43  1   
 46  22  44  1   
 47  22  45  1   
@<TRIPOS>SUBSTRUCTURE
  1 ****   7 GROUP 4 **** **** 0

# MOE 2024.06 (io_trps.svl 2023.06)
