@<TRIPOS>MOLECULE
NONAME
50 54 1 0 0 
SMALL
USER_CHARGES


@<TRIPOS>ATOM
  1 O       -0.6470     0.0610     0.3810 O.2   1 <1>  -0.5700 
  2 C       -1.6110     0.7410     0.6790 C.2   1 <1>   0.5440 
  3 N       -2.8210     0.1120     0.8820 N.am  1 <1>  -0.6600 
  4 C       -1.4760     2.1800     0.7840 C.ar  1 <1>   0.0860 
  5 C       -2.9230    -1.3770     1.0010 C.3   1 <1>   0.1400 
  6 C       -4.1290     0.7430     0.5260 C.3   1 <1>   0.1400 
  7 C       -0.7950     2.9070    -0.1810 C.ar  1 <1>  -0.1500 
  8 C       -2.0400     2.8800     1.8740 C.ar  1 <1>  -0.1500 
  9 C       -3.6100    -1.9760    -0.2380 C.3   1 <1>   0.3440 
 10 C       -4.7680     0.0300    -0.6890 C.3   1 <1>   0.2950 
 11 C       -0.6980     4.2890    -0.0800 C.ar  1 <1>   0.2270 
 12 C       -1.9470     4.2480     1.9890 C.ar  1 <1>  -0.1500 
 13 O       -4.8480    -1.3460    -0.4530 O.3   1 <1>  -0.5600 
 14 C       -3.8200    -3.4770    -0.0610 C.ar  1 <1>  -0.1440 
 15 C       -6.1910     0.5040    -1.0360 C.3   1 <1>  -0.1950 
 16 N       -0.0970     5.1780    -0.9190 N.2   1 <1>  -0.5650 
 17 C       -1.2680     4.9490     0.9920 C.ar  1 <1>  -0.1520 
 18 C       -2.8230    -4.3570    -0.4620 C.ar  1 <1>  -0.1500 
 19 C       -4.9790    -3.9880     0.5060 C.ar  1 <1>  -0.1500 
 20 C       -6.6810     1.9030    -0.8110 C.3   1 <1>  -0.2000 
 21 C       -7.2570     0.7630    -0.0170 C.3   1 <1>  -0.2000 
 22 C       -0.2940     6.3230    -0.3690 C.2   1 <1>   0.0060 
 23 N       -0.9950     6.2610     0.7920 N.pl3 1 <1>   0.0330 
 24 C       -2.9830    -5.7220    -0.2980 C.ar  1 <1>  -0.1500 
 25 C       -5.1410    -5.3530     0.6700 C.ar  1 <1>  -0.1500 
 26 C        0.2040     7.6310    -0.9460 C.3   1 <1>  -0.0600 
 27 C       -4.1410    -6.2220     0.2680 C.ar  1 <1>  -0.1500 
 28 H       -1.9480    -1.8180     1.1150 H     1 <1>   0.0800 
 29 H       -3.4960    -1.6260     1.8760 H     1 <1>   0.0800 
 30 H       -4.7880     0.6790     1.3730 H     1 <1>   0.0800 
 31 H       -3.9930     1.7810     0.2860 H     1 <1>   0.0800 
 32 H       -0.3340     2.4170    -1.0180 H     1 <1>   0.1500 
 33 H       -2.5510     2.3110     2.6310 H     1 <1>   0.1500 
 34 H       -2.9960    -1.8060    -1.1060 H     1 <1>   0.0800 
 35 H       -4.1400     0.1840    -1.5500 H     1 <1>   0.0800 
 36 H       -2.3790     4.7720     2.8240 H     1 <1>   0.1500 
 37 H       -6.5170     0.0390    -1.9510 H     1 <1>   0.1000 
 38 H       -1.9150    -3.9830    -0.9020 H     1 <1>   0.1500 
 39 H       -5.7650    -3.3220     0.8200 H     1 <1>   0.1500 
 40 H       -6.0780     2.6260    -0.2900 H     1 <1>   0.1000 
 41 H       -7.2930     2.3610    -1.5690 H     1 <1>   0.1000 
 42 H       -8.2560     0.4280    -0.2340 H     1 <1>   0.1000 
 43 H       -7.0230     0.6810     1.0300 H     1 <1>   0.1000 
 44 H       -1.2600     7.0410     1.3960 H     1 <1>   0.2700 
 45 H       -2.2050    -6.3960    -0.6120 H     1 <1>   0.1500 
 46 H       -6.0440    -5.7380     1.1090 H     1 <1>   0.1500 
 47 H        0.7330     7.4430    -1.8640 H     1 <1>   0.0800 
 48 H        0.8740     8.1090    -0.2550 H     1 <1>   0.0800 
 49 H       -0.6240     8.2830    -1.1540 H     1 <1>   0.0800 
 50 H       -4.2670    -7.2830     0.3950 H     1 <1>   0.1500 
@<TRIPOS>BOND
  1   1   2  2   
  2   2   3  am  
  3   2   4  1   
  4   3   5  1   
  5   3   6  1   
  6   4   7  ar  
  7   4   8  ar  
  8   5   9  1   
  9   5  28  1   
 10   5  29  1   
 11   6  10  1   
 12   6  30  1   
 13   6  31  1   
 14   7  11  ar  
 15   7  32  1   
 16   8  12  ar  
 17   8  33  1   
 18   9  13  1   
 19   9  14  1   
 20   9  34  1   
 21  10  13  1   
 22  10  15  1   
 23  10  35  1   
 24  11  16  1   
 25  11  17  ar  
 26  12  17  ar  
 27  12  36  1   
 28  14  18  ar  
 29  14  19  ar  
 30  15  20  1   
 31  15  21  1   
 32  15  37  1   
 33  16  22  2   
 34  17  23  1   
 35  18  24  ar  
 36  18  38  1   
 37  19  25  ar  
 38  19  39  1   
 39  20  21  1   
 40  20  40  1   
 41  20  41  1   
 42  21  42  1   
 43  21  43  1   
 44  22  23  1   
 45  22  26  1   
 46  23  44  1   
 47  24  27  ar  
 48  24  45  1   
 49  25  27  ar  
 50  25  46  1   
 51  26  47  1   
 52  26  48  1   
 53  26  49  1   
 54  27  50  1   
@<TRIPOS>SUBSTRUCTURE
  1 ****   3 GROUP 4 **** **** 0

# MOE 2024.06 (io_trps.svl 2023.06)
