@<TRIPOS>MOLECULE
NONAME
42 43 1 0 0 
SMALL
USER_CHARGES


@<TRIPOS>ATOM
  1 O        0.3770     0.6740    -0.2740 O.2   1 <1>  -0.5700 
  2 C        1.5580     0.5070    -0.0220 C.2   1 <1>   0.5440 
  3 N        2.2270     1.5160     0.6200 N.am  1 <1>  -0.7300 
  4 C        2.2380    -0.7240    -0.3690 C.ar  1 <1>   0.0860 
  5 C        1.6520     2.8350     0.9990 C.3   1 <1>   0.0600 
  6 C        1.5590    -1.9610    -0.4330 C.ar  1 <1>   0.4100 
  7 C        3.5990    -0.7350    -0.6510 C.ar  1 <1>  -0.1500 
  8 N        2.1430    -3.1290    -0.6950 N.ar  1 <1>  -0.6200 
  9 N        0.2060    -2.0480    -0.1960 N.pl3 1 <1>  -0.8690 
 10 C        4.2000    -1.9370    -0.9440 C.ar  1 <1>  -0.1500 
 11 C        3.4370    -3.0890    -0.9490 C.ar  1 <1>   0.1600 
 12 C       -0.7130    -2.9060    -1.0110 C.3   1 <1>   0.2090 
 13 C       -1.2080    -4.1050    -0.1740 C.3   1 <1>   0.4230 
 14 N       -0.0340    -4.7420     0.4790 N.4   1 <1>  -0.9590 
 15 C       -2.0300    -5.1000    -0.9950 C.3   1 <1>  -0.2400 
 16 C        0.6480    -5.8690    -0.1920 C.3   1 <1>   0.3430 
 17 C       -0.2240    -5.1030     1.8980 C.3   1 <1>   0.3430 
 18 C        1.5920    -6.3910     0.8770 C.3   1 <1>  -0.1600 
 19 C        0.9050    -6.0820     2.2100 C.3   1 <1>  -0.1600 
 20 H        3.1860     1.3550     0.9340 H     1 <1>   0.3700 
 21 H        0.6600     2.9470     0.5940 H     1 <1>   0.0800 
 22 H        2.2710     3.6260     0.6140 H     1 <1>   0.0800 
 23 H        1.5990     2.9140     2.0700 H     1 <1>   0.0800 
 24 H        4.1750     0.1740    -0.6510 H     1 <1>   0.1500 
 25 H       -0.1970    -1.1000    -0.0540 H     1 <1>   0.4000 
 26 H        5.2520    -1.9850    -1.1700 H     1 <1>   0.1500 
 27 H        3.9270    -4.0220    -1.1780 H     1 <1>   0.1500 
 28 H       -0.2030    -3.2590    -1.8910 H     1 <1>   0.0800 
 29 H       -1.5550    -2.3180    -1.3330 H     1 <1>   0.0800 
 30 H       -1.8450    -3.7000     0.5960 H     1 <1>   0.0800 
 31 H        0.6650    -3.9630     0.4500 H     1 <1>   0.4500 
 32 H       -1.4810    -5.4530    -1.8490 H     1 <1>   0.0800 
 33 H       -2.9200    -4.6150    -1.3540 H     1 <1>   0.0800 
 34 H       -2.3320    -5.9320    -0.3840 H     1 <1>   0.0800 
 35 H        1.1780    -5.5430    -1.0730 H     1 <1>   0.0800 
 36 H       -0.0650    -6.6340    -0.4520 H     1 <1>   0.0800 
 37 H       -1.1750    -5.5920     2.0300 H     1 <1>   0.0800 
 38 H       -0.1760    -4.2300     2.5290 H     1 <1>   0.0800 
 39 H        2.5240    -5.8570     0.8090 H     1 <1>   0.0800 
 40 H        1.7850    -7.4420     0.7490 H     1 <1>   0.0800 
 41 H        0.4930    -6.9740     2.6490 H     1 <1>   0.0800 
 42 H        1.5990    -5.6480     2.9090 H     1 <1>   0.0800 
@<TRIPOS>BOND
  1   1   2  2   
  2   2   3  am  
  3   2   4  1   
  4   3   5  1   
  5   3  20  1   
  6   4   6  ar  
  7   4   7  ar  
  8   5  21  1   
  9   5  22  1   
 10   5  23  1   
 11   6   8  ar  
 12   6   9  1   
 13   7  10  ar  
 14   7  24  1   
 15   8  11  ar  
 16   9  12  1   
 17   9  25  1   
 18  10  11  ar  
 19  10  26  1   
 20  11  27  1   
 21  12  13  1   
 22  12  28  1   
 23  12  29  1   
 24  13  14  1   
 25  13  15  1   
 26  13  30  1   
 27  14  16  1   
 28  14  17  1   
 29  14  31  1   
 30  15  32  1   
 31  15  33  1   
 32  15  34  1   
 33  16  18  1   
 34  16  35  1   
 35  16  36  1   
 36  17  19  1   
 37  17  37  1   
 38  17  38  1   
 39  18  19  1   
 40  18  39  1   
 41  18  40  1   
 42  19  41  1   
 43  19  42  1   
@<TRIPOS>SUBSTRUCTURE
  1 ****   6 GROUP 4 **** **** 0

# MOE 2024.06 (io_trps.svl 2023.06)
