@<TRIPOS>MOLECULE
NONAME
49 51 1 0 0 
SMALL
USER_CHARGES


@<TRIPOS>ATOM
  1 S        0.2470     0.2910    -1.0970 S.o2  1 <1>   1.3330 
  2 O       -0.6790     1.1610    -1.7860 O.2   1 <1>  -0.6500 
  3 O        0.4770    -1.0480    -1.5930 O.2   1 <1>  -0.6500 
  4 N       -0.2850     0.1640     0.5120 N.am  1 <1>  -0.8490 
  5 C        1.8380     1.1080    -0.9580 C.3   1 <1>  -0.0550 
  6 C       -1.2000    -0.9650     0.7020 C.3   1 <1>   0.1160 
  7 C       -0.9070     1.3940     1.0160 C.3   1 <1>   0.1160 
  8 C        2.9380     0.2490    -0.2960 C.3   1 <1>  -0.0800 
  9 C        4.3330     0.8540    -0.3340 C.3   1 <1>   0.2200 
 10 C        2.7340    -0.0410     1.1970 C.3   1 <1>   0.1200 
 11 N        4.2900     2.2990    -0.0080 N.am  1 <1>  -0.7300 
 12 C        4.9870     0.1120     0.8220 C.3   1 <1>   0.1200 
 13 O        3.9950     0.0300     1.7980 O.3   1 <1>  -0.5600 
 14 C        4.3600     3.3020    -0.9140 C.2   1 <1>   0.5690 
 15 O        4.4270     3.0840    -2.0970 O.2   1 <1>  -0.5700 
 16 C        4.3330     4.7300    -0.4230 C.3   1 <1>  -0.0990 
 17 C        5.5570     5.5150    -0.9150 C.3   1 <1>   0.0200 
 18 C        5.5790     6.9330    -0.3720 C.2   1 <1>   0.1980 
 19 S        6.8830     7.9670    -0.9470 S.3   1 <1>  -0.0800 
 20 N        4.7850     7.4870     0.4520 N.2   1 <1>  -0.5650 
 21 C        6.2640     9.2720     0.0410 C.ar  1 <1>   0.0400 
 22 C        5.1430     8.8100     0.7050 C.ar  1 <1>   0.2270 
 23 C        6.7570    10.5560     0.1790 C.ar  1 <1>  -0.1500 
 24 C        4.4780     9.6810     1.5560 C.ar  1 <1>  -0.1500 
 25 C        6.0810    11.4130     1.0320 C.ar  1 <1>  -0.1500 
 26 C        4.9480    10.9760     1.7160 C.ar  1 <1>  -0.1500 
 27 H        2.1700     1.3630    -1.9460 H     1 <1>   0.0800 
 28 H        1.7170     2.0260    -0.4180 H     1 <1>   0.0800 
 29 H       -1.5110    -1.0260     1.7310 H     1 <1>   0.0800 
 30 H       -0.7070    -1.8880     0.4470 H     1 <1>   0.0800 
 31 H       -2.0690    -0.8530     0.0740 H     1 <1>   0.0800 
 32 H       -1.1420     1.2880     2.0610 H     1 <1>   0.0800 
 33 H       -1.8140     1.6080     0.4730 H     1 <1>   0.0800 
 34 H       -0.2340     2.2260     0.9020 H     1 <1>   0.0800 
 35 H        2.9790    -0.6990    -0.8070 H     1 <1>   0.0800 
 36 H        4.8380     0.6870    -1.2710 H     1 <1>   0.0800 
 37 H        2.3200    -1.0220     1.3600 H     1 <1>   0.0800 
 38 H        2.1090     0.6980     1.6680 H     1 <1>   0.0800 
 39 H        4.2030     2.4930     0.9930 H     1 <1>   0.3700 
 40 H        5.8480     0.6230     1.2170 H     1 <1>   0.0800 
 41 H        5.2540    -0.8900     0.5340 H     1 <1>   0.0800 
 42 H        3.4370     5.2010    -0.7870 H     1 <1>   0.0800 
 43 H        4.3050     4.7450     0.6510 H     1 <1>   0.0800 
 44 H        5.5480     5.5550    -1.9900 H     1 <1>   0.0800 
 45 H        6.4550     5.0130    -0.6050 H     1 <1>   0.0800 
 46 H        7.6330    10.8700    -0.3600 H     1 <1>   0.1500 
 47 H        3.6050     9.3350     2.0780 H     1 <1>   0.1500 
 48 H        6.4300    12.4220     1.1690 H     1 <1>   0.1500 
 49 H        4.4320    11.6530     2.3750 H     1 <1>   0.1500 
@<TRIPOS>BOND
  1   1   2  2   
  2   1   3  2   
  3   1   4  am  
  4   1   5  1   
  5   4   6  1   
  6   4   7  1   
  7   5   8  1   
  8   5  27  1   
  9   5  28  1   
 10   6  29  1   
 11   6  30  1   
 12   6  31  1   
 13   7  32  1   
 14   7  33  1   
 15   7  34  1   
 16   8   9  1   
 17   8  10  1   
 18   8  35  1   
 19   9  11  1   
 20   9  12  1   
 21   9  36  1   
 22  10  13  1   
 23  10  37  1   
 24  10  38  1   
 25  11  14  am  
 26  11  39  1   
 27  12  13  1   
 28  12  40  1   
 29  12  41  1   
 30  14  15  2   
 31  14  16  1   
 32  16  17  1   
 33  16  42  1   
 34  16  43  1   
 35  17  18  1   
 36  17  44  1   
 37  17  45  1   
 38  18  19  1   
 39  18  20  2   
 40  19  21  1   
 41  20  22  1   
 42  21  22  ar  
 43  21  23  ar  
 44  22  24  ar  
 45  23  25  ar  
 46  23  46  1   
 47  24  26  ar  
 48  24  47  1   
 49  25  26  ar  
 50  25  48  1   
 51  26  49  1   
@<TRIPOS>SUBSTRUCTURE
  1 ****  16 GROUP 4 **** **** 0

# MOE 2024.06 (io_trps.svl 2023.06)
