@<TRIPOS>MOLECULE
NONAME
48 50 1 0 0 
SMALL
USER_CHARGES


@<TRIPOS>ATOM
  1 O       -1.4680    -1.5490     0.1180 O.2   1 <1>  -0.5700 
  2 C       -0.4690    -2.2190     0.2090 C.2   1 <1>   0.5690 
  3 N       -0.4610    -3.5140     0.6510 N.am  1 <1>  -0.6600 
  4 C        0.8590    -1.6070    -0.1820 C.3   1 <1>  -0.0990 
  5 C        0.8090    -4.2670     0.7730 C.3   1 <1>   0.1400 
  6 C       -1.7000    -4.2100     1.0960 C.3   1 <1>   0.0600 
  7 C        1.6700    -2.5960    -1.0390 C.3   1 <1>  -0.0800 
  8 C        1.6890    -4.0350    -0.4730 C.3   1 <1>  -0.0800 
  9 C        3.1330    -2.1710    -1.2260 C.3   1 <1>  -0.1600 
 10 C        3.1670    -4.3780    -0.2410 C.3   1 <1>  -0.1600 
 11 C        3.9180    -3.4780    -1.2220 C.3   1 <1>   0.4230 
 12 N        5.3600    -3.2720    -0.9020 N.4   1 <1>  -0.9590 
 13 C        5.6540    -2.8150     0.4900 C.3   1 <1>   0.4860 
 14 C        6.1660    -4.4850    -1.2480 C.3   1 <1>   0.2630 
 15 C        6.9600    -2.0570     0.4710 C.ar  1 <1>  -0.1440 
 16 C        6.9700    -0.7190     0.1070 C.ar  1 <1>   0.1600 
 17 C        8.1550    -2.6670     0.8090 C.ar  1 <1>  -0.1500 
 18 N        8.0490     0.0350     0.0280 N.ar  1 <1>  -0.6200 
 19 C        9.2890    -1.8890     0.7410 C.ar  1 <1>  -0.1500 
 20 C        9.1930    -0.5620     0.3480 C.ar  1 <1>   0.3930 
 21 O       10.3400     0.1440     0.2950 O.3   1 <1>  -0.3630 
 22 C       10.3400     1.5110    -0.0710 C.3   1 <1>   0.0400 
 23 H        0.6830    -0.6980    -0.7290 H     1 <1>   0.0800 
 24 H        1.3800    -1.3600     0.7240 H     1 <1>   0.0800 
 25 H        1.3120    -3.9260     1.6620 H     1 <1>   0.0800 
 26 H        0.6050    -5.3190     0.8850 H     1 <1>   0.0800 
 27 H       -1.8590    -5.0890     0.4970 H     1 <1>   0.0800 
 28 H       -2.5560    -3.5650     0.9910 H     1 <1>   0.0800 
 29 H       -1.6090    -4.4930     2.1300 H     1 <1>   0.0800 
 30 H        1.1970    -2.6400    -2.0080 H     1 <1>   0.0800 
 31 H        1.3150    -4.6870    -1.2470 H     1 <1>   0.0800 
 32 H        3.4260    -1.5340    -0.4120 H     1 <1>   0.0800 
 33 H        3.2580    -1.6410    -2.1540 H     1 <1>   0.0800 
 34 H        3.3540    -5.4200    -0.4330 H     1 <1>   0.0800 
 35 H        3.4230    -4.1450     0.7760 H     1 <1>   0.0800 
 36 H        3.8290    -3.9110    -2.2070 H     1 <1>   0.0800 
 37 H        5.6910    -2.5150    -1.5170 H     1 <1>   0.4500 
 38 H        4.8760    -2.1620     0.8480 H     1 <1>   0.0800 
 39 H        5.7190    -3.6580     1.1580 H     1 <1>   0.0800 
 40 H        5.8900    -5.3140    -0.6170 H     1 <1>   0.0800 
 41 H        7.2180    -4.2860    -1.1190 H     1 <1>   0.0800 
 42 H        5.9990    -4.7650    -2.2760 H     1 <1>   0.0800 
 43 H        6.0430    -0.2280    -0.1400 H     1 <1>   0.1500 
 44 H        8.2190    -3.6970     1.1180 H     1 <1>   0.1500 
 45 H       10.2560    -2.2870     0.9890 H     1 <1>   0.1500 
 46 H       11.3520     1.8690    -0.0420 H     1 <1>   0.0800 
 47 H        9.7330     2.0580     0.6280 H     1 <1>   0.0800 
 48 H        9.9430     1.6050    -1.0670 H     1 <1>   0.0800 
@<TRIPOS>BOND
  1   1   2  2   
  2   2   3  am  
  3   2   4  1   
  4   3   5  1   
  5   3   6  1   
  6   4   7  1   
  7   4  23  1   
  8   4  24  1   
  9   5   8  1   
 10   5  25  1   
 11   5  26  1   
 12   6  27  1   
 13   6  28  1   
 14   6  29  1   
 15   7   8  1   
 16   7   9  1   
 17   7  30  1   
 18   8  10  1   
 19   8  31  1   
 20   9  11  1   
 21   9  32  1   
 22   9  33  1   
 23  10  11  1   
 24  10  34  1   
 25  10  35  1   
 26  11  12  1   
 27  11  36  1   
 28  12  13  1   
 29  12  14  1   
 30  12  37  1   
 31  13  15  1   
 32  13  38  1   
 33  13  39  1   
 34  14  40  1   
 35  14  41  1   
 36  14  42  1   
 37  15  16  ar  
 38  15  17  ar  
 39  16  18  ar  
 40  16  43  1   
 41  17  19  ar  
 42  17  44  1   
 43  18  20  ar  
 44  19  20  ar  
 45  19  45  1   
 46  20  21  1   
 47  21  22  1   
 48  22  46  1   
 49  22  47  1   
 50  22  48  1   
@<TRIPOS>SUBSTRUCTURE
  1 ****  13 GROUP 4 **** **** 0

# MOE 2024.06 (io_trps.svl 2023.06)
