@<TRIPOS>MOLECULE
NONAME
30 31 1 0 0 
SMALL
USER_CHARGES


@<TRIPOS>ATOM
  1 F        0.6770    -1.4600    -1.8020 F     1 <1>  -0.3400 
  2 C        0.1830    -1.5410    -0.5740 C.3   1 <1>   1.1640 
  3 F        1.1970    -1.3200     0.2540 F     1 <1>  -0.3400 
  4 F       -0.6400    -0.5080    -0.4330 F     1 <1>  -0.3400 
  5 C       -0.5070    -2.8920    -0.3180 C.ar  1 <1>  -0.1440 
  6 C        0.2250    -3.9900     0.1220 C.ar  1 <1>  -0.1500 
  7 C       -1.8730    -3.0470    -0.5320 C.ar  1 <1>  -0.1500 
  8 C       -0.3800    -5.2200     0.3560 C.ar  1 <1>  -0.1440 
  9 C       -2.5000    -4.2630    -0.3080 C.ar  1 <1>  -0.1440 
 10 C       -1.7460    -5.3400     0.1330 C.ar  1 <1>  -0.1500 
 11 C        0.4390    -6.4310     0.8390 C.3   1 <1>   1.1640 
 12 C       -4.0050    -4.3950    -0.5430 C.3   1 <1>   0.3440 
 13 F       -0.2490    -7.2220     1.6550 F     1 <1>  -0.3400 
 14 F        1.5330    -6.0790     1.5040 F     1 <1>  -0.3400 
 15 F        0.8440    -7.1920    -0.1690 F     1 <1>  -0.3400 
 16 O       -4.2680    -5.5910    -1.2530 O.3   1 <1>  -0.4300 
 17 C       -4.8020    -4.5300     0.7760 C.3   1 <1>   0.2200 
 18 C       -4.9960    -6.4150    -0.5180 C.2   1 <1>   0.7800 
 19 N       -5.2840    -5.8970     0.6820 N.am  1 <1>  -0.7300 
 20 C       -6.0050    -3.5900     0.8660 C.3   1 <1>  -0.2400 
 21 O       -5.3630    -7.4930    -0.9180 O.2   1 <1>  -0.5700 
 22 H        1.2880    -3.8830     0.2830 H     1 <1>   0.1500 
 23 H       -2.4550    -2.2100    -0.8810 H     1 <1>   0.1500 
 24 H       -2.2310    -6.2900     0.3000 H     1 <1>   0.1500 
 25 H       -4.3700    -3.5750    -1.1360 H     1 <1>   0.0800 
 26 H       -4.1590    -4.4120     1.6320 H     1 <1>   0.0800 
 27 H       -5.9890    -6.3080     1.2930 H     1 <1>   0.3700 
 28 H       -6.6600    -3.7250     0.0220 H     1 <1>   0.0800 
 29 H       -5.6700    -2.5690     0.8800 H     1 <1>   0.0800 
 30 H       -6.5520    -3.7760     1.7730 H     1 <1>   0.0800 
@<TRIPOS>BOND
  1   1   2  1   
  2   2   3  1   
  3   2   4  1   
  4   2   5  1   
  5   5   6  ar  
  6   5   7  ar  
  7   6   8  ar  
  8   6  22  1   
  9   7   9  ar  
 10   7  23  1   
 11   8  10  ar  
 12   8  11  1   
 13   9  10  ar  
 14   9  12  1   
 15  10  24  1   
 16  11  13  1   
 17  11  14  1   
 18  11  15  1   
 19  12  16  1   
 20  12  17  1   
 21  12  25  1   
 22  16  18  1   
 23  17  19  1   
 24  17  20  1   
 25  17  26  1   
 26  18  19  am  
 27  18  21  2   
 28  19  27  1   
 29  20  28  1   
 30  20  29  1   
 31  20  30  1   
@<TRIPOS>SUBSTRUCTURE
  1 ****   9 GROUP 4 **** **** 0

# MOE 2024.06 (io_trps.svl 2023.06)
