@<TRIPOS>MOLECULE
NONAME
57 60 1 0 0 
SMALL
USER_CHARGES


@<TRIPOS>ATOM
  1 CL      -1.0770    -0.8620    -2.9890 Cl    1 <1>  -0.1770 
  2 C       -1.9020     0.4450    -2.1830 C.ar  1 <1>   0.1770 
  3 C       -1.4900     1.7480    -2.4260 C.ar  1 <1>  -0.1500 
  4 C       -2.9480     0.1570    -1.3220 C.ar  1 <1>  -0.1500 
  5 C       -2.1300     2.8050    -1.7890 C.ar  1 <1>  -0.1440 
  6 C       -3.5810     1.2140    -0.6920 C.ar  1 <1>  -0.1440 
  7 C       -3.1720     2.5030    -0.9210 C.ar  1 <1>   0.0830 
  8 C       -1.7230     4.2430    -2.0320 C.3   1 <1>   0.4870 
  9 C       -4.7330     1.2220     0.2760 C.3   1 <1>   0.1440 
 10 O       -3.8760     3.4070    -0.2160 O.3   1 <1>  -0.3630 
 11 N       -1.5310     4.9130    -0.7090 N.4   1 <1>  -0.9590 
 12 C       -4.9330     2.7450     0.4810 C.3   1 <1>   0.1200 
 13 C       -4.3390     0.5190     1.5820 C.3   1 <1>  -0.2400 
 14 C       -5.9720     0.5650    -0.3430 C.3   1 <1>  -0.2400 
 15 C       -1.6650     6.4090    -0.8390 C.3   1 <1>   0.3430 
 16 C       -0.3750     4.3270     0.0390 C.3   1 <1>   0.3430 
 17 C       -1.0890     7.2610     0.3250 C.3   1 <1>   0.3430 
 18 C        0.9500     5.0310    -0.2440 C.3   1 <1>  -0.1600 
 19 N        0.4200     7.4220     0.3010 N.4   1 <1>  -0.9590 
 20 C        1.2010     6.2140     0.6920 C.3   1 <1>   0.3430 
 21 C        0.8460     8.5840     1.1540 C.3   1 <1>   0.4860 
 22 C        0.2060     9.8480     0.6200 C.ar  1 <1>  -0.1430 
 23 C        0.6330    10.3910    -0.5830 C.ar  1 <1>   0.1600 
 24 C       -0.8160    10.4750     1.3090 C.ar  1 <1>  -0.1500 
 25 N        0.1020    11.4500    -1.1580 N.ar  1 <1>  -0.6200 
 26 C       -1.3620    11.6000     0.7280 C.ar  1 <1>  -0.1500 
 27 C       -0.8770    12.0390    -0.4910 C.ar  1 <1>   0.1600 
 28 H       -0.6790     1.9050    -3.1160 H     1 <1>   0.1500 
 29 H       -3.2500    -0.8620    -1.1560 H     1 <1>   0.1500 
 30 H       -2.5110     4.7300    -2.5850 H     1 <1>   0.0800 
 31 H       -0.8180     4.2830    -2.6150 H     1 <1>   0.0800 
 32 H       -2.3780     4.5670    -0.2100 H     1 <1>   0.4500 
 33 H       -4.8880     3.0210     1.5200 H     1 <1>   0.0800 
 34 H       -5.8650     3.0770     0.0590 H     1 <1>   0.0800 
 35 H       -3.4540     0.9650     1.9990 H     1 <1>   0.0800 
 36 H       -4.1390    -0.5220     1.3990 H     1 <1>   0.0800 
 37 H       -5.1350     0.5900     2.3020 H     1 <1>   0.0800 
 38 H       -6.2190     1.0360    -1.2790 H     1 <1>   0.0800 
 39 H       -6.8160     0.6510     0.3190 H     1 <1>   0.0800 
 40 H       -5.7900    -0.4780    -0.5290 H     1 <1>   0.0800 
 41 H       -2.7150     6.6410    -0.9280 H     1 <1>   0.0800 
 42 H       -1.1970     6.7360    -1.7530 H     1 <1>   0.0800 
 43 H       -0.2790     3.2840    -0.2240 H     1 <1>   0.0800 
 44 H       -0.5760     4.3600     1.0980 H     1 <1>   0.0800 
 45 H       -1.4090     6.8510     1.2690 H     1 <1>   0.0800 
 46 H       -1.5380     8.2370     0.2370 H     1 <1>   0.0800 
 47 H        1.0570     5.3020    -1.2790 H     1 <1>   0.0800 
 48 H        1.7250     4.3130    -0.0340 H     1 <1>   0.0800 
 49 H        0.7000     7.6870    -0.6550 H     1 <1>   0.4500 
 50 H        2.2540     6.4520     0.6590 H     1 <1>   0.0800 
 51 H        0.9650     5.9320     1.7070 H     1 <1>   0.0800 
 52 H        1.9190     8.6950     1.1280 H     1 <1>   0.0800 
 53 H        0.5480     8.4290     2.1780 H     1 <1>   0.0800 
 54 H        1.4540     9.9390    -1.1160 H     1 <1>   0.1500 
 55 H       -1.1830    10.1260     2.2600 H     1 <1>   0.1500 
 56 H       -2.1560    12.1420     1.2130 H     1 <1>   0.1500 
 57 H       -1.3120    12.9200    -0.9380 H     1 <1>   0.1500 
@<TRIPOS>BOND
  1   1   2  1   
  2   2   3  ar  
  3   2   4  ar  
  4   3   5  ar  
  5   3  28  1   
  6   4   6  ar  
  7   4  29  1   
  8   5   7  ar  
  9   5   8  1   
 10   6   7  ar  
 11   6   9  1   
 12   7  10  1   
 13   8  11  1   
 14   8  30  1   
 15   8  31  1   
 16   9  12  1   
 17   9  13  1   
 18   9  14  1   
 19  10  12  1   
 20  11  15  1   
 21  11  16  1   
 22  11  32  1   
 23  12  33  1   
 24  12  34  1   
 25  13  35  1   
 26  13  36  1   
 27  13  37  1   
 28  14  38  1   
 29  14  39  1   
 30  14  40  1   
 31  15  17  1   
 32  15  41  1   
 33  15  42  1   
 34  16  18  1   
 35  16  43  1   
 36  16  44  1   
 37  17  19  1   
 38  17  45  1   
 39  17  46  1   
 40  18  20  1   
 41  18  47  1   
 42  18  48  1   
 43  19  20  1   
 44  19  21  1   
 45  19  49  1   
 46  20  50  1   
 47  20  51  1   
 48  21  22  1   
 49  21  52  1   
 50  21  53  1   
 51  22  23  ar  
 52  22  24  ar  
 53  23  25  ar  
 54  23  54  1   
 55  24  26  ar  
 56  24  55  1   
 57  25  27  ar  
 58  26  27  ar  
 59  26  56  1   
 60  27  57  1   
@<TRIPOS>SUBSTRUCTURE
  1 ****  11 GROUP 4 **** **** 0

# MOE 2024.06 (io_trps.svl 2023.06)
