@<TRIPOS>MOLECULE
NONAME
42 43 1 0 0 
SMALL
USER_CHARGES


@<TRIPOS>ATOM
  1 CL       0.2840     1.5640    -1.1630 Cl    1 <1>  -0.1770 
  2 C       -1.3710     1.6080    -0.5980 C.ar  1 <1>   0.1770 
  3 C       -1.7620     2.5420     0.3480 C.ar  1 <1>  -0.1440 
  4 C       -2.2640     0.6950    -1.1220 C.ar  1 <1>  -0.1500 
  5 C       -3.0820     2.5410     0.7660 C.ar  1 <1>  -0.1500 
  6 C       -0.7710     3.5480     0.9160 C.3   1 <1>  -0.0960 
  7 C       -3.5900     0.6870    -0.7070 C.ar  1 <1>  -0.0090 
  8 C       -3.9930     1.6190     0.2480 C.ar  1 <1>   0.0830 
  9 S       -4.7680    -0.4960    -1.4020 S.o2  1 <1>   1.4470 
 10 O       -5.2910     1.5870     0.6470 O.3   1 <1>  -0.3630 
 11 O       -5.8210     0.1880    -2.1170 O.2   1 <1>  -0.6500 
 12 O       -4.0780    -1.5880    -2.0480 O.2   1 <1>  -0.6500 
 13 N       -5.5190    -1.1580    -0.0640 N.am  1 <1>  -0.9140 
 14 C       -5.7370     2.2590     1.8040 C.3   1 <1>   0.1200 
 15 C       -6.5300    -2.1120    -0.4350 C.3   1 <1>   0.3770 
 16 C       -7.1610     1.7960     2.0980 C.3   1 <1>  -0.2400 
 17 C       -7.7030    -1.8740     0.4860 C.2   1 <1>  -0.1810 
 18 C       -8.0070    -2.4390     1.6650 C.2   1 <1>  -0.0400 
 19 C       -8.7400    -0.9600     0.2920 C.2   1 <1>   0.1080 
 20 O       -9.1130    -1.8970     2.0970 O.3   1 <1>  -0.0190 
 21 C       -7.3200    -3.5000     2.4990 C.3   1 <1>  -0.0600 
 22 N       -9.5660    -0.9960     1.2740 N.2   1 <1>  -0.4100 
 23 C       -8.8970    -0.0310    -0.8950 C.3   1 <1>  -0.0590 
 24 H       -1.9210    -0.0130    -1.8560 H     1 <1>   0.1500 
 25 H       -3.3920     3.2670     1.4940 H     1 <1>   0.1500 
 26 H        0.0390     3.0320     1.4010 H     1 <1>   0.0800 
 27 H       -1.2400     4.1950     1.6350 H     1 <1>   0.0800 
 28 H       -0.3680     4.1540     0.1240 H     1 <1>   0.0800 
 29 H       -6.0270    -0.3640     0.3300 H     1 <1>   0.4200 
 30 H       -5.7110     3.3180     1.6170 H     1 <1>   0.0800 
 31 H       -5.0840     2.0060     2.6230 H     1 <1>   0.0800 
 32 H       -6.1420    -3.1090    -0.3140 H     1 <1>   0.0800 
 33 H       -6.8490    -1.9960    -1.4580 H     1 <1>   0.0800 
 34 H       -7.8110     2.0380     1.2760 H     1 <1>   0.0800 
 35 H       -7.5300     2.2920     2.9770 H     1 <1>   0.0800 
 36 H       -7.1840     0.7350     2.2750 H     1 <1>   0.0800 
 37 H       -6.4090    -3.8210     2.0280 H     1 <1>   0.0800 
 38 H       -7.9710    -4.3470     2.6180 H     1 <1>   0.0800 
 39 H       -7.0860    -3.1010     3.4700 H     1 <1>   0.0800 
 40 H       -8.8140    -0.5810    -1.8140 H     1 <1>   0.0800 
 41 H       -8.1380     0.7290    -0.8710 H     1 <1>   0.0800 
 42 H       -9.8610     0.4440    -0.8630 H     1 <1>   0.0800 
@<TRIPOS>BOND
  1   1   2  1   
  2   2   3  ar  
  3   2   4  ar  
  4   3   5  ar  
  5   3   6  1   
  6   4   7  ar  
  7   4  24  1   
  8   5   8  ar  
  9   5  25  1   
 10   6  26  1   
 11   6  27  1   
 12   6  28  1   
 13   7   8  ar  
 14   7   9  1   
 15   8  10  1   
 16   9  11  2   
 17   9  12  2   
 18   9  13  am  
 19  10  14  1   
 20  13  15  1   
 21  13  29  1   
 22  14  16  1   
 23  14  30  1   
 24  14  31  1   
 25  15  17  1   
 26  15  32  1   
 27  15  33  1   
 28  16  34  1   
 29  16  35  1   
 30  16  36  1   
 31  17  18  2   
 32  17  19  1   
 33  18  20  1   
 34  18  21  1   
 35  19  22  2   
 36  19  23  1   
 37  20  22  1   
 38  21  37  1   
 39  21  38  1   
 40  21  39  1   
 41  23  40  1   
 42  23  41  1   
 43  23  42  1   
@<TRIPOS>SUBSTRUCTURE
  1 ****  13 GROUP 4 **** **** 0

# MOE 2024.06 (io_trps.svl 2023.06)
