@<TRIPOS>MOLECULE
NONAME
54 57 1 0 0 
SMALL
USER_CHARGES


@<TRIPOS>ATOM
  1 O       -0.3110     0.7280     0.2170 O.2   1 <1>  -0.5700 
  2 C       -1.4200     1.2080     0.3480 C.2   1 <1>   0.5440 
  3 N       -2.5090     0.3650     0.3480 N.am  1 <1>  -0.6600 
  4 C       -1.5680     2.6470     0.4760 C.ar  1 <1>   0.0860 
  5 C       -3.9060     0.7850     0.0760 C.3   1 <1>   0.1400 
  6 C       -2.3700    -1.1070     0.2110 C.3   1 <1>   0.1400 
  7 C       -0.9200     3.5060    -0.4100 C.ar  1 <1>  -0.1500 
  8 C       -2.3430     3.2220     1.4820 C.ar  1 <1>  -0.1500 
  9 C       -4.6180    -0.4880    -0.3810 C.3   1 <1>   0.2000 
 10 C       -3.8030    -1.6430     0.1960 C.3   1 <1>  -0.0800 
 11 C       -1.0460     4.8830    -0.3160 C.ar  1 <1>  -0.1440 
 12 C       -2.4820     4.5940     1.5840 C.ar  1 <1>  -0.1500 
 13 O       -5.9200    -0.5430     0.0920 O.3   1 <1>  -0.6800 
 14 C       -3.9820    -2.9480    -0.5980 C.3   1 <1>  -0.0170 
 15 C       -1.8370     5.4230     0.6860 C.ar  1 <1>  -0.1500 
 16 C       -0.3180     5.7970    -1.2980 C.3   1 <1>   0.2390 
 17 C       -3.2130    -4.0990     0.0300 C.ar  1 <1>   0.1670 
 18 N        0.5130     6.8080    -0.6050 N.pl3 1 <1>   0.3140 
 19 N       -1.9320    -4.1960    -0.2860 N.ar  1 <1>  -0.6200 
 20 C       -3.8620    -4.9820     0.8910 C.ar  1 <1>   0.1600 
 21 N        0.2520     8.1260    -0.7310 N.2   1 <1>  -0.7070 
 22 C        1.5990     6.6000     0.1780 C.2   1 <1>  -0.3320 
 23 C       -1.3480    -5.2200     0.3140 C.ar  1 <1>   0.1600 
 24 N       -3.2800    -6.0060     1.4930 N.ar  1 <1>  -0.6200 
 25 C        1.1650     8.7170    -0.0300 C.2   1 <1>   0.1080 
 26 C        2.0390     7.8160     0.5630 C.2   1 <1>  -0.1500 
 27 C        2.1740     5.2390     0.5350 C.3   1 <1>  -0.0600 
 28 C       -2.0000    -6.0950     1.1740 C.ar  1 <1>   0.1600 
 29 C        1.2360    10.2200     0.1010 C.3   1 <1>  -0.0590 
 30 H       -4.3450     1.1630     0.9820 H     1 <1>   0.0800 
 31 H       -3.9340     1.5370    -0.6940 H     1 <1>   0.0800 
 32 H       -1.8650    -1.3290    -0.7150 H     1 <1>   0.0800 
 33 H       -1.8000    -1.5160     1.0270 H     1 <1>   0.0800 
 34 H       -0.3050     3.0680    -1.1780 H     1 <1>   0.1500 
 35 H       -2.8340     2.5830     2.1940 H     1 <1>   0.1500 
 36 H       -4.6440    -0.5250    -1.4570 H     1 <1>   0.0800 
 37 H       -4.0900    -1.8060     1.2200 H     1 <1>   0.0800 
 38 H       -3.0870     5.0210     2.3660 H     1 <1>   0.1500 
 39 H       -5.9310    -0.5260     1.0680 H     1 <1>   0.4000 
 40 H       -3.6450    -2.8120    -1.6110 H     1 <1>   0.0800 
 41 H       -5.0280    -3.1970    -0.6380 H     1 <1>   0.0800 
 42 H       -1.9440     6.4930     0.7730 H     1 <1>   0.1500 
 43 H       -1.0380     6.3150    -1.9050 H     1 <1>   0.0800 
 44 H        0.3220     5.2270    -1.9440 H     1 <1>   0.0800 
 45 H       -4.9070    -4.8340     1.0940 H     1 <1>   0.1500 
 46 H       -0.3020    -5.3740     0.1150 H     1 <1>   0.1500 
 47 H        2.8760     8.0640     1.1910 H     1 <1>   0.1500 
 48 H        3.0610     5.3570     1.1310 H     1 <1>   0.0800 
 49 H        2.4300     4.6930    -0.3550 H     1 <1>   0.0800 
 50 H        1.4590     4.6700     1.1020 H     1 <1>   0.0800 
 51 H       -1.4380    -6.9000     1.6150 H     1 <1>   0.1500 
 52 H        2.0620    10.5040     0.7250 H     1 <1>   0.0800 
 53 H        0.3230    10.5840     0.5340 H     1 <1>   0.0800 
 54 H        1.3600    10.6580    -0.8720 H     1 <1>   0.0800 
@<TRIPOS>BOND
  1   1   2  2   
  2   2   3  am  
  3   2   4  1   
  4   3   5  1   
  5   3   6  1   
  6   4   7  ar  
  7   4   8  ar  
  8   5   9  1   
  9   5  30  1   
 10   5  31  1   
 11   6  10  1   
 12   6  32  1   
 13   6  33  1   
 14   7  11  ar  
 15   7  34  1   
 16   8  12  ar  
 17   8  35  1   
 18   9  10  1   
 19   9  13  1   
 20   9  36  1   
 21  10  14  1   
 22  10  37  1   
 23  11  15  ar  
 24  11  16  1   
 25  12  15  ar  
 26  12  38  1   
 27  13  39  1   
 28  14  17  1   
 29  14  40  1   
 30  14  41  1   
 31  15  42  1   
 32  16  18  1   
 33  16  43  1   
 34  16  44  1   
 35  17  19  ar  
 36  17  20  ar  
 37  18  21  1   
 38  18  22  1   
 39  19  23  ar  
 40  20  24  ar  
 41  20  45  1   
 42  21  25  2   
 43  22  26  2   
 44  22  27  1   
 45  23  28  ar  
 46  23  46  1   
 47  24  28  ar  
 48  25  26  1   
 49  25  29  1   
 50  26  47  1   
 51  27  48  1   
 52  27  49  1   
 53  27  50  1   
 54  28  51  1   
 55  29  52  1   
 56  29  53  1   
 57  29  54  1   
@<TRIPOS>SUBSTRUCTURE
  1 ****   2 GROUP 4 **** **** 0

# MOE 2024.06 (io_trps.svl 2023.06)
