@<TRIPOS>MOLECULE
NONAME
36 37 1 0 0 
SMALL
USER_CHARGES


@<TRIPOS>ATOM
  1 S       -0.8850     0.8140     0.9880 S.o2  1 <1>   1.5010 
  2 O       -0.8000    -0.0970     2.1090 O.2   1 <1>  -0.6500 
  3 O       -1.4000     2.1480     1.2220 O.2   1 <1>  -0.6500 
  4 N       -1.8550     0.1280    -0.2270 N.am  1 <1>  -0.8490 
  5 C        0.7370     0.9570     0.1900 C.2   1 <1>  -0.0630 
  6 C       -1.4390    -1.2040    -0.7140 C.3   1 <1>   0.1960 
  7 C       -3.2980     0.2340     0.0010 C.3   1 <1>   0.1960 
  8 C        1.0700     1.7650    -0.8410 C.2   1 <1>  -0.1400 
  9 C        1.8430     0.1410     0.6130 C.2   1 <1>  -0.1500 
 10 C       -1.9410    -2.3570     0.1630 C.3   1 <1>  -0.1860 
 11 C       -3.8150    -0.8620     0.9360 C.3   1 <1>  -0.1600 
 12 S        2.7490     1.5580    -1.3040 S.3   1 <1>  -0.0800 
 13 C        0.2730     2.7760    -1.6430 C.3   1 <1>  -0.0600 
 14 C        2.9820     0.3340    -0.0750 C.2   1 <1>  -0.1400 
 15 C       -1.6180    -3.6880    -0.4800 C.2   1 <1>   0.9060 
 16 C       -3.4470    -2.2310     0.3770 C.3   1 <1>   0.2000 
 17 C        4.3520    -0.3010     0.0260 C.3   1 <1>  -0.0600 
 18 O       -0.9410    -3.7170    -1.5120 O.co2 1 <1>  -0.9000 
 19 O       -2.0640    -4.7160     0.0450 O.co2 1 <1>  -0.9000 
 20 O       -3.8530    -3.1940     1.2720 O.3   1 <1>  -0.6800 
 21 H       -1.8360    -1.3370    -1.7070 H     1 <1>   0.0800 
 22 H       -0.3670    -1.2590    -0.8010 H     1 <1>   0.0800 
 23 H       -3.5420     1.2040     0.4020 H     1 <1>   0.0800 
 24 H       -3.7990     0.1430    -0.9480 H     1 <1>   0.0800 
 25 H        1.7170    -0.5630     1.4200 H     1 <1>   0.1500 
 26 H       -1.4360    -2.3330     1.1080 H     1 <1>   0.0800 
 27 H       -4.8840    -0.7860     1.0160 H     1 <1>   0.0800 
 28 H       -3.3900    -0.7370     1.9160 H     1 <1>   0.0800 
 29 H       -0.7480     2.8090    -1.3090 H     1 <1>   0.0800 
 30 H        0.2850     2.5060    -2.6830 H     1 <1>   0.0800 
 31 H        0.7040     3.7540    -1.5300 H     1 <1>   0.0800 
 32 H       -3.9630    -2.4120    -0.5520 H     1 <1>   0.0800 
 33 H        4.3610    -1.0370     0.8100 H     1 <1>   0.0800 
 34 H        5.0890     0.4500     0.2420 H     1 <1>   0.0800 
 35 H        4.6000    -0.7810    -0.9040 H     1 <1>   0.0800 
 36 H       -3.3470    -4.0210     1.0210 H     1 <1>   0.4000 
@<TRIPOS>BOND
  1   1   2  2   
  2   1   3  2   
  3   1   4  am  
  4   1   5  1   
  5   4   6  1   
  6   4   7  1   
  7   5   8  2   
  8   5   9  1   
  9   6  10  1   
 10   6  21  1   
 11   6  22  1   
 12   7  11  1   
 13   7  23  1   
 14   7  24  1   
 15   8  12  1   
 16   8  13  1   
 17   9  14  2   
 18   9  25  1   
 19  10  15  1   
 20  10  16  1   
 21  10  26  1   
 22  11  16  1   
 23  11  27  1   
 24  11  28  1   
 25  12  14  1   
 26  13  29  1   
 27  13  30  1   
 28  13  31  1   
 29  14  17  1   
 30  15  18  ar  
 31  15  19  ar  
 32  16  20  1   
 33  16  32  1   
 34  17  33  1   
 35  17  34  1   
 36  17  35  1   
 37  20  36  1   
@<TRIPOS>SUBSTRUCTURE
  1 ****   6 GROUP 4 **** **** 0

# MOE 2024.06 (io_trps.svl 2023.06)
