@<TRIPOS>MOLECULE
NONAME
33 34 1 0 0 
SMALL
USER_CHARGES


@<TRIPOS>ATOM
  1 S        1.0830     0.4940     0.0010 S.3   1 <1>  -0.2860 
  2 C        0.3590    -1.1380     0.0650 C.2   1 <1>   0.5340 
  3 C        0.5650     1.2330     1.6290 C.3   1 <1>   0.1310 
  4 O        0.5280    -1.9380    -0.9310 O.3   1 <1>  -0.2800 
  5 N       -0.3340    -1.6220     1.0210 N.2   1 <1>  -0.3380 
  6 C        1.0790     2.6540     1.8000 C.2   1 <1>   0.5690 
  7 C       -0.1160    -2.9940    -0.5450 C.2   1 <1>   0.2980 
  8 N       -0.6480    -2.8560     0.6130 N.2   1 <1>  -0.3380 
  9 O        0.7880     3.2300     2.8180 O.2   1 <1>  -0.5700 
 10 N        1.8370     3.2110     0.8080 N.am  1 <1>  -0.4940 
 11 C       -0.1730    -4.2090    -1.4420 C.3   1 <1>  -0.0600 
 12 C        2.4220     4.4800     0.7270 C.2   1 <1>   0.2040 
 13 O        2.3070     5.3690     1.6850 O.3   1 <1>  -0.0190 
 14 C        3.1650     5.0300    -0.2530 C.2   1 <1>  -0.1810 
 15 N        2.9340     6.4810     1.3950 N.2   1 <1>  -0.4100 
 16 C        3.4590     6.3030     0.2360 C.2   1 <1>   0.1080 
 17 C        3.6030     4.4430    -1.5850 C.3   1 <1>  -0.0590 
 18 C        4.2830     7.3650    -0.4720 C.3   1 <1>   0.0210 
 19 C        5.7790     7.1840    -0.1950 C.3   1 <1>  -0.2400 
 20 H        0.9550     0.6020     2.4060 H     1 <1>   0.0800 
 21 H       -0.5090     1.2210     1.6590 H     1 <1>   0.0800 
 22 H        2.0010     2.6090     0.0030 H     1 <1>   0.3700 
 23 H        0.8220    -4.5670    -1.6300 H     1 <1>   0.0800 
 24 H       -0.6390    -3.9490    -2.3750 H     1 <1>   0.0800 
 25 H       -0.7440    -4.9870    -0.9690 H     1 <1>   0.0800 
 26 H        3.2390     3.4380    -1.6970 H     1 <1>   0.0800 
 27 H        4.6760     4.4280    -1.6450 H     1 <1>   0.0800 
 28 H        3.2170     5.0390    -2.3930 H     1 <1>   0.0800 
 29 H        3.9710     8.3340    -0.1220 H     1 <1>   0.0800 
 30 H        4.0960     7.3210    -1.5290 H     1 <1>   0.0800 
 31 H        5.9640     7.2430     0.8630 H     1 <1>   0.0800 
 32 H        6.3430     7.9550    -0.6890 H     1 <1>   0.0800 
 33 H        6.1140     6.2260    -0.5490 H     1 <1>   0.0800 
@<TRIPOS>BOND
  1   1   2  1   
  2   1   3  1   
  3   2   4  1   
  4   2   5  2   
  5   3   6  1   
  6   3  20  1   
  7   3  21  1   
  8   4   7  1   
  9   5   8  1   
 10   6   9  2   
 11   6  10  am  
 12   7   8  2   
 13   7  11  1   
 14  10  12  1   
 15  10  22  1   
 16  11  23  1   
 17  11  24  1   
 18  11  25  1   
 19  12  13  1   
 20  12  14  2   
 21  13  15  1   
 22  14  16  1   
 23  14  17  1   
 24  15  16  2   
 25  16  18  1   
 26  17  26  1   
 27  17  27  1   
 28  17  28  1   
 29  18  19  1   
 30  18  29  1   
 31  18  30  1   
 32  19  31  1   
 33  19  32  1   
 34  19  33  1   
@<TRIPOS>SUBSTRUCTURE
  1 ****  10 GROUP 4 **** **** 0

# MOE 2024.06 (io_trps.svl 2023.06)
