@<TRIPOS>MOLECULE
NONAME
48 51 1 0 0 
SMALL
USER_CHARGES


@<TRIPOS>ATOM
  1 O        2.0230    -0.1130     2.0160 O.3   1 <1>  -0.6800 
  2 C        1.7740    -0.1340     0.6450 C.3   1 <1>   0.2000 
  3 C        2.3650    -1.3920     0.0040 C.3   1 <1>  -0.0800 
  4 C        2.5260     1.0210    -0.0290 C.3   1 <1>   0.2090 
  5 C        3.8090    -1.0090    -0.3130 C.3   1 <1>   0.2090 
  6 C        2.2510    -2.6850     0.8300 C.3   1 <1>   0.0210 
  7 N        3.7880     0.4540    -0.5920 N.pl3 1 <1>  -0.8380 
  8 C        2.7660    -3.8750     0.0470 C.2   1 <1>   0.1080 
  9 C        4.9610     1.2040    -0.5620 C.ar  1 <1>   0.4100 
 10 N        2.0430    -4.5020    -0.8270 N.2   1 <1>  -0.7070 
 11 C        4.0420    -4.4160     0.1630 C.2   1 <1>  -0.1500 
 12 N        5.9680     0.6810     0.1320 N.ar  1 <1>  -0.6200 
 13 C        5.0650     2.4330    -1.2330 C.ar  1 <1>   0.0730 
 14 N        2.8480    -5.4740    -1.2980 N.pl3 1 <1>   0.3000 
 15 C        4.0640    -5.4420    -0.7140 C.2   1 <1>  -0.3320 
 16 C        7.0920     1.3680     0.1990 C.ar  1 <1>   0.1670 
 17 C        3.9820     2.9630    -2.0010 C.1   1 <1>   0.4840 
 18 C        6.2510     3.1370    -1.1520 C.ar  1 <1>  -0.1500 
 19 C        5.1910    -6.4060    -1.0360 C.3   1 <1>  -0.0600 
 20 C        7.2880     2.5960    -0.4210 C.ar  1 <1>  -0.1430 
 21 C        8.2000     0.7050     1.0060 C.3   1 <1>  -0.0170 
 22 N        3.1290     3.4330    -2.5960 N.1   1 <1>  -0.5570 
 23 C        8.5990     3.3680    -0.3130 C.3   1 <1>  -0.0170 
 24 C        9.3540     1.6520     1.3620 C.3   1 <1>  -0.1600 
 25 C        9.7640     2.4810     0.1410 C.3   1 <1>  -0.1600 
 26 H        1.5380    -0.8300     2.4640 H     1 <1>   0.4000 
 27 H        0.7110    -0.0540     0.4960 H     1 <1>   0.0800 
 28 H        1.8670    -1.5470    -0.9370 H     1 <1>   0.0800 
 29 H        2.7290     1.8120     0.6730 H     1 <1>   0.0800 
 30 H        1.9300     1.4040    -0.8390 H     1 <1>   0.0800 
 31 H        4.1850    -1.5530    -1.1630 H     1 <1>   0.0800 
 32 H        4.4310    -1.2100     0.5430 H     1 <1>   0.0800 
 33 H        1.2210    -2.8660     1.0790 H     1 <1>   0.0800 
 34 H        2.8110    -2.6020     1.7440 H     1 <1>   0.0800 
 35 H        4.8210    -4.0700     0.8180 H     1 <1>   0.1500 
 36 H        2.5370    -6.1400    -2.0150 H     1 <1>   0.2700 
 37 H        6.3620     4.0850    -1.6500 H     1 <1>   0.1500 
 38 H        6.0570    -6.1720    -0.4430 H     1 <1>   0.0800 
 39 H        5.4580    -6.3330    -2.0750 H     1 <1>   0.0800 
 40 H        4.8900    -7.4150    -0.8190 H     1 <1>   0.0800 
 41 H        7.7830     0.3000     1.9110 H     1 <1>   0.0800 
 42 H        8.5790    -0.1160     0.4260 H     1 <1>   0.0800 
 43 H        8.8430     3.8090    -1.2640 H     1 <1>   0.0800 
 44 H        8.4650     4.1650     0.3970 H     1 <1>   0.0800 
 45 H        9.0410     2.3120     2.1530 H     1 <1>   0.0800 
 46 H       10.1920     1.0790     1.7180 H     1 <1>   0.0800 
 47 H       10.0470     1.8220    -0.6610 H     1 <1>   0.0800 
 48 H       10.6130     3.0970     0.3830 H     1 <1>   0.0800 
@<TRIPOS>BOND
  1   1   2  1   
  2   1  26  1   
  3   2   3  1   
  4   2   4  1   
  5   2  27  1   
  6   3   5  1   
  7   3   6  1   
  8   3  28  1   
  9   4   7  1   
 10   4  29  1   
 11   4  30  1   
 12   5   7  1   
 13   5  31  1   
 14   5  32  1   
 15   6   8  1   
 16   6  33  1   
 17   6  34  1   
 18   7   9  1   
 19   8  10  2   
 20   8  11  1   
 21   9  12  ar  
 22   9  13  ar  
 23  10  14  1   
 24  11  15  2   
 25  11  35  1   
 26  12  16  ar  
 27  13  17  1   
 28  13  18  ar  
 29  14  15  1   
 30  14  36  1   
 31  15  19  1   
 32  16  20  ar  
 33  16  21  1   
 34  17  22  3   
 35  18  20  ar  
 36  18  37  1   
 37  19  38  1   
 38  19  39  1   
 39  19  40  1   
 40  20  23  1   
 41  21  24  1   
 42  21  41  1   
 43  21  42  1   
 44  23  25  1   
 45  23  43  1   
 46  23  44  1   
 47  24  25  1   
 48  24  45  1   
 49  24  46  1   
 50  25  47  1   
 51  25  48  1   
@<TRIPOS>SUBSTRUCTURE
  1 ****   5 GROUP 4 **** **** 0

# MOE 2024.06 (io_trps.svl 2023.06)
