@<TRIPOS>MOLECULE
NONAME
59 62 1 0 0 
SMALL
USER_CHARGES


@<TRIPOS>ATOM
  1 O       -1.4530     1.5220     3.5410 O.2   1 <1>  -0.5700 
  2 C       -2.1010     1.6480     2.5170 C.2   1 <1>   0.5440 
  3 N       -3.3490     1.0610     2.4380 N.am  1 <1>  -0.6600 
  4 C       -1.5620     2.4430     1.4360 C.ar  1 <1>   0.0860 
  5 C       -3.7930     0.0170     3.3970 C.3   1 <1>   0.1400 
  6 C       -4.3100     1.2940     1.3290 C.3   1 <1>   0.1400 
  7 C       -1.0780     1.8650     0.2560 C.ar  1 <1>   0.0830 
  8 C       -1.5170     3.8310     1.5550 C.ar  1 <1>  -0.1500 
  9 C       -3.9370    -1.3040     2.6400 C.3   1 <1>  -0.1600 
 10 C       -4.4910    -0.0040     0.5400 C.3   1 <1>  -0.1600 
 11 O       -1.1030     0.5120     0.1580 O.3   1 <1>  -0.3620 
 12 C       -0.5900     2.6740    -0.7690 C.ar  1 <1>  -0.1500 
 13 C       -1.0300     4.6260     0.5360 C.ar  1 <1>  -0.1500 
 14 C       -4.8950    -1.1830     1.4440 C.3   1 <1>   0.4240 
 15 C       -0.5800    -0.1870    -0.9500 C.3   1 <1>   0.0400 
 16 C       -0.5660     4.0510    -0.6350 C.ar  1 <1>  -0.1430 
 17 O       -6.1530    -0.8910     2.0060 O.3   1 <1>  -0.5600 
 18 C       -4.9140    -2.5020     0.6420 C.ar  1 <1>  -0.1430 
 19 C       -0.0320     4.9350    -1.7480 C.3   1 <1>  -0.0970 
 20 C       -7.2860    -1.1860     1.2480 C.3   1 <1>   0.1200 
 21 C       -6.0920    -3.2190     0.4600 C.ar  1 <1>  -0.1430 
 22 C       -3.7420    -2.9950     0.0770 C.ar  1 <1>  -0.1500 
 23 C       -7.3800    -2.6980     1.0640 C.3   1 <1>  -0.0170 
 24 C       -6.0950    -4.3970    -0.2720 C.ar  1 <1>  -0.1500 
 25 C       -3.7330    -4.1750    -0.6450 C.ar  1 <1>   0.0830 
 26 C       -4.9280    -4.8740    -0.8410 C.ar  1 <1>   0.0830 
 27 O       -2.5400    -4.6010    -1.1290 O.3   1 <1>  -0.3630 
 28 O       -5.0080    -6.0110    -1.5750 O.3   1 <1>  -0.3620 
 29 C       -2.0380    -5.7980    -0.5760 C.3   1 <1>   0.0400 
 30 C       -4.7420    -5.8840    -2.9550 C.3   1 <1>   0.0400 
 31 H       -4.7360     0.3070     3.8270 H     1 <1>   0.0800 
 32 H       -3.0810    -0.0980     4.1960 H     1 <1>   0.0800 
 33 H       -3.9650     2.0750     0.6750 H     1 <1>   0.0800 
 34 H       -5.2550     1.6010     1.7460 H     1 <1>   0.0800 
 35 H       -1.8710     4.2810     2.4660 H     1 <1>   0.1500 
 36 H       -4.2950    -2.0690     3.3030 H     1 <1>   0.0800 
 37 H       -2.9590    -1.5960     2.3060 H     1 <1>   0.0800 
 38 H       -3.5610    -0.2300     0.0570 H     1 <1>   0.0800 
 39 H       -5.2170     0.1350    -0.2360 H     1 <1>   0.0800 
 40 H       -0.2210     2.2420    -1.6790 H     1 <1>   0.1500 
 41 H       -1.0090     5.6960     0.6580 H     1 <1>   0.1500 
 42 H       -0.6960    -1.2400    -0.7660 H     1 <1>   0.0800 
 43 H        0.4630     0.0530    -1.0520 H     1 <1>   0.0800 
 44 H       -1.1300     0.0920    -1.8310 H     1 <1>   0.0800 
 45 H        0.0540     4.3860    -2.6680 H     1 <1>   0.0800 
 46 H        0.9390     5.3110    -1.4780 H     1 <1>   0.0800 
 47 H       -0.6930     5.7670    -1.9100 H     1 <1>   0.0800 
 48 H       -7.2190    -0.6840     0.2990 H     1 <1>   0.0800 
 49 H       -8.1440    -0.8180     1.7810 H     1 <1>   0.0800 
 50 H       -2.8130    -2.4700     0.1960 H     1 <1>   0.1500 
 51 H       -8.2120    -2.9270     0.4230 H     1 <1>   0.0800 
 52 H       -7.5480    -3.1650     2.0180 H     1 <1>   0.0800 
 53 H       -7.0030    -4.9530    -0.4120 H     1 <1>   0.1500 
 54 H       -1.0500    -5.9610    -0.9680 H     1 <1>   0.0800 
 55 H       -2.6800    -6.6150    -0.8490 H     1 <1>   0.0800 
 56 H       -1.9990    -5.6960     0.4940 H     1 <1>   0.0800 
 57 H       -4.9540    -6.8270    -3.4260 H     1 <1>   0.0800 
 58 H       -3.7080    -5.6280    -3.0970 H     1 <1>   0.0800 
 59 H       -5.3770    -5.1170    -3.3610 H     1 <1>   0.0800 
@<TRIPOS>BOND
  1   1   2  2   
  2   2   3  am  
  3   2   4  1   
  4   3   5  1   
  5   3   6  1   
  6   4   7  ar  
  7   4   8  ar  
  8   5   9  1   
  9   5  31  1   
 10   5  32  1   
 11   6  10  1   
 12   6  33  1   
 13   6  34  1   
 14   7  11  1   
 15   7  12  ar  
 16   8  13  ar  
 17   8  35  1   
 18   9  14  1   
 19   9  36  1   
 20   9  37  1   
 21  10  14  1   
 22  10  38  1   
 23  10  39  1   
 24  11  15  1   
 25  12  16  ar  
 26  12  40  1   
 27  13  16  ar  
 28  13  41  1   
 29  14  17  1   
 30  14  18  1   
 31  15  42  1   
 32  15  43  1   
 33  15  44  1   
 34  16  19  1   
 35  17  20  1   
 36  18  21  ar  
 37  18  22  ar  
 38  19  45  1   
 39  19  46  1   
 40  19  47  1   
 41  20  23  1   
 42  20  48  1   
 43  20  49  1   
 44  21  23  1   
 45  21  24  ar  
 46  22  25  ar  
 47  22  50  1   
 48  23  51  1   
 49  23  52  1   
 50  24  26  ar  
 51  24  53  1   
 52  25  26  ar  
 53  25  27  1   
 54  26  28  1   
 55  27  29  1   
 56  28  30  1   
 57  29  54  1   
 58  29  55  1   
 59  29  56  1   
 60  30  57  1   
 61  30  58  1   
 62  30  59  1   
@<TRIPOS>SUBSTRUCTURE
  1 ****  10 GROUP 4 **** **** 0

# MOE 2024.06 (io_trps.svl 2023.06)
