@<TRIPOS>MOLECULE
NONAME
42 43 1 0 0 
SMALL
USER_CHARGES


@<TRIPOS>ATOM
  1 S       -0.4460     0.1840     1.3180 S.o2  1 <1>   1.4470 
  2 O       -0.2790    -1.0660     2.0200 O.2   1 <1>  -0.6500 
  3 O       -1.0390     1.3090     1.9960 O.2   1 <1>  -0.6500 
  4 N       -1.4770    -0.0730     0.0150 N.am  1 <1>  -0.9140 
  5 C        1.1120     0.6950     0.5380 C.ar  1 <1>  -0.0090 
  6 C       -1.5970    -1.4030    -0.5930 C.3   1 <1>   0.2760 
  7 C        1.1270     1.7180    -0.4090 C.ar  1 <1>  -0.1500 
  8 C        2.3210     0.0800     0.8710 C.ar  1 <1>  -0.1500 
  9 C       -2.3390    -2.4230     0.2760 C.3   1 <1>  -0.0800 
 10 C       -0.2870    -2.1030    -0.9740 C.3   1 <1>   0.1200 
 11 C        2.3200     2.0940    -0.9970 C.ar  1 <1>   0.1900 
 12 C        3.5200     0.4570     0.2810 C.ar  1 <1>  -0.1500 
 13 C       -1.3390    -3.5810     0.3670 C.3   1 <1>   0.1200 
 14 C       -3.6550    -2.8630    -0.3940 C.3   1 <1>  -0.0550 
 15 O       -0.5360    -3.4530    -0.7590 O.3   1 <1>  -0.5600 
 16 F        2.3060     3.0530    -1.8860 F     1 <1>  -0.1900 
 17 C        3.5070     1.4700    -0.6570 C.ar  1 <1>   0.1900 
 18 S       -4.7470    -3.7790     0.6940 S.o2  1 <1>   1.3330 
 19 F        4.6320     1.8290    -1.2180 F     1 <1>  -0.1900 
 20 O       -4.1500    -5.0480     1.0420 O.2   1 <1>  -0.6500 
 21 O       -5.1690    -2.8700     1.7350 O.2   1 <1>  -0.6500 
 22 N       -6.0810    -4.0910    -0.3080 N.am  1 <1>  -0.8490 
 23 C       -5.9060    -5.2760    -1.1560 C.3   1 <1>   0.1160 
 24 C       -7.3300    -4.2060     0.4510 C.3   1 <1>   0.1160 
 25 H       -2.3880     0.2020     0.3810 H     1 <1>   0.4200 
 26 H       -2.1440    -1.2730    -1.5130 H     1 <1>   0.0800 
 27 H        0.2150     2.2180    -0.6850 H     1 <1>   0.1500 
 28 H        2.3250    -0.7100     1.6060 H     1 <1>   0.1500 
 29 H       -2.5490    -2.0440     1.2610 H     1 <1>   0.0800 
 30 H        0.5390    -1.8290    -0.3450 H     1 <1>   0.0800 
 31 H       -0.0340    -1.9580    -2.0090 H     1 <1>   0.0800 
 32 H        4.4470    -0.0240     0.5420 H     1 <1>   0.1500 
 33 H       -1.7940    -4.5570     0.3630 H     1 <1>   0.0800 
 34 H       -0.7110    -3.4840     1.2380 H     1 <1>   0.0800 
 35 H       -3.4310    -3.4520    -1.2620 H     1 <1>   0.0800 
 36 H       -4.1850    -1.9890    -0.7210 H     1 <1>   0.0800 
 37 H       -6.7370    -5.3710    -1.8340 H     1 <1>   0.0800 
 38 H       -5.8430    -6.1660    -0.5520 H     1 <1>   0.0800 
 39 H       -5.0030    -5.1890    -1.7370 H     1 <1>   0.0800 
 40 H       -8.1560    -4.3880    -0.2130 H     1 <1>   0.0800 
 41 H       -7.5240    -3.2900     0.9840 H     1 <1>   0.0800 
 42 H       -7.2620    -5.0120     1.1640 H     1 <1>   0.0800 
@<TRIPOS>BOND
  1   1   2  2   
  2   1   3  2   
  3   1   4  am  
  4   1   5  1   
  5   4   6  1   
  6   4  25  1   
  7   5   7  ar  
  8   5   8  ar  
  9   6   9  1   
 10   6  10  1   
 11   6  26  1   
 12   7  11  ar  
 13   7  27  1   
 14   8  12  ar  
 15   8  28  1   
 16   9  13  1   
 17   9  14  1   
 18   9  29  1   
 19  10  15  1   
 20  10  30  1   
 21  10  31  1   
 22  11  16  1   
 23  11  17  ar  
 24  12  17  ar  
 25  12  32  1   
 26  13  15  1   
 27  13  33  1   
 28  13  34  1   
 29  14  18  1   
 30  14  35  1   
 31  14  36  1   
 32  17  19  1   
 33  18  20  2   
 34  18  21  2   
 35  18  22  am  
 36  22  23  1   
 37  22  24  1   
 38  23  37  1   
 39  23  38  1   
 40  23  39  1   
 41  24  40  1   
 42  24  41  1   
 43  24  42  1   
@<TRIPOS>SUBSTRUCTURE
  1 ****   6 GROUP 4 **** **** 0

# MOE 2024.06 (io_trps.svl 2023.06)
