@<TRIPOS>MOLECULE
NONAME
50 51 1 0 0 
SMALL
USER_CHARGES


@<TRIPOS>ATOM
  1 S        0.8950     0.3570    -0.3550 S.o2  1 <1>   1.3330 
  2 O        1.8790     0.5620     0.6830 O.2   1 <1>  -0.6500 
  3 O        1.3280     0.1340    -1.7160 O.2   1 <1>  -0.6500 
  4 N       -0.0970    -0.9390     0.1110 N.am  1 <1>  -0.8490 
  5 C       -0.2330     1.7480    -0.3730 C.3   1 <1>  -0.0550 
  6 C        0.4010    -2.2230    -0.3910 C.3   1 <1>   0.1160 
  7 C       -0.3060    -1.0190     1.5610 C.3   1 <1>   0.1160 
  8 C        0.4290     3.0530    -0.8600 C.3   1 <1>  -0.0800 
  9 C       -0.5410     4.2230    -1.0410 C.3   1 <1>   0.2000 
 10 C        1.5120     3.6000     0.0810 C.3   1 <1>   0.1400 
 11 O       -1.3800     4.2900     0.0620 O.3   1 <1>  -0.6800 
 12 C        0.3680     5.4490    -1.0210 C.3   1 <1>   0.1400 
 13 N        1.4580     5.0760    -0.0790 N.am  1 <1>  -0.6600 
 14 C        2.3170     5.9090     0.5810 C.2   1 <1>   0.5690 
 15 O        3.1270     5.4920     1.3690 O.2   1 <1>  -0.5700 
 16 C        2.3080     7.3980     0.3130 C.3   1 <1>  -0.0990 
 17 C        3.2080     7.7160    -0.8910 C.3   1 <1>  -0.0550 
 18 S        3.0520     9.4000    -1.4770 S.o2  1 <1>   1.2040 
 19 O        4.0190     9.5690    -2.5380 O.2   1 <1>  -0.6500 
 20 O        1.6460     9.6150    -1.7480 O.2   1 <1>  -0.6500 
 21 C        3.5560    10.3660    -0.0330 C.ar  1 <1>  -0.0090 
 22 C        2.6150    10.9480     0.8090 C.ar  1 <1>  -0.1500 
 23 C        4.9000    10.5190     0.2900 C.ar  1 <1>  -0.1500 
 24 C        2.9980    11.6520     1.9370 C.ar  1 <1>  -0.1500 
 25 C        5.2920    11.2200     1.4170 C.ar  1 <1>  -0.1500 
 26 C        4.3400    11.7860     2.2430 C.ar  1 <1>  -0.1500 
 27 H       -1.0510     1.5160    -1.0270 H     1 <1>   0.0800 
 28 H       -0.6350     1.8920     0.6100 H     1 <1>   0.0800 
 29 H       -0.2580    -3.0210    -0.0950 H     1 <1>   0.0800 
 30 H        1.3900    -2.4170    -0.0100 H     1 <1>   0.0800 
 31 H        0.4440    -2.2060    -1.4680 H     1 <1>   0.0800 
 32 H       -1.0050    -1.8050     1.7900 H     1 <1>   0.0800 
 33 H       -0.7060    -0.0910     1.9310 H     1 <1>   0.0800 
 34 H        0.6250    -1.2200     2.0660 H     1 <1>   0.0800 
 35 H        0.8930     2.8640    -1.8130 H     1 <1>   0.0800 
 36 H       -1.1440     4.1510    -1.9300 H     1 <1>   0.0800 
 37 H        2.4890     3.2240    -0.1770 H     1 <1>   0.0800 
 38 H        1.3030     3.3500     1.1080 H     1 <1>   0.0800 
 39 H       -0.8480     4.5340     0.8470 H     1 <1>   0.4000 
 40 H       -0.1700     6.3260    -0.7070 H     1 <1>   0.0800 
 41 H        0.7870     5.6100    -1.9990 H     1 <1>   0.0800 
 42 H        2.6740     7.9060     1.1870 H     1 <1>   0.0800 
 43 H        1.3040     7.7350     0.1380 H     1 <1>   0.0800 
 44 H        2.9540     7.0530    -1.6960 H     1 <1>   0.0800 
 45 H        4.2290     7.5160    -0.6240 H     1 <1>   0.0800 
 46 H        1.5660    10.8540     0.5790 H     1 <1>   0.1500 
 47 H        5.6520    10.0880    -0.3500 H     1 <1>   0.1500 
 48 H        2.2540    12.0960     2.5760 H     1 <1>   0.1500 
 49 H        6.3380    11.3270     1.6490 H     1 <1>   0.1500 
 50 H        4.6410    12.3320     3.1210 H     1 <1>   0.1500 
@<TRIPOS>BOND
  1   1   2  2   
  2   1   3  2   
  3   1   4  am  
  4   1   5  1   
  5   4   6  1   
  6   4   7  1   
  7   5   8  1   
  8   5  27  1   
  9   5  28  1   
 10   6  29  1   
 11   6  30  1   
 12   6  31  1   
 13   7  32  1   
 14   7  33  1   
 15   7  34  1   
 16   8   9  1   
 17   8  10  1   
 18   8  35  1   
 19   9  11  1   
 20   9  12  1   
 21   9  36  1   
 22  10  13  1   
 23  10  37  1   
 24  10  38  1   
 25  11  39  1   
 26  12  13  1   
 27  12  40  1   
 28  12  41  1   
 29  13  14  am  
 30  14  15  2   
 31  14  16  1   
 32  16  17  1   
 33  16  42  1   
 34  16  43  1   
 35  17  18  1   
 36  17  44  1   
 37  17  45  1   
 38  18  19  2   
 39  18  20  2   
 40  18  21  1   
 41  21  22  ar  
 42  21  23  ar  
 43  22  24  ar  
 44  22  46  1   
 45  23  25  ar  
 46  23  47  1   
 47  24  26  ar  
 48  24  48  1   
 49  25  26  ar  
 50  25  49  1   
 51  26  50  1   
@<TRIPOS>SUBSTRUCTURE
  1 ****  13 GROUP 4 **** **** 0

# MOE 2024.06 (io_trps.svl 2023.06)
