@<TRIPOS>MOLECULE
NONAME
15 15 1 0 0 
SMALL
USER_CHARGES


@<TRIPOS>ATOM
  1 F        4.9340    -1.1710    -1.0720 F     1 <1>  -0.3400 
  2 C        4.6470    -0.7070     0.1360 C.3   1 <1>   0.6950 
  3 F        3.5420    -0.0010    -0.0360 F     1 <1>  -0.3400 
  4 C        5.7480     0.2630     0.5820 C.3   1 <1>  -0.1950 
  5 C        6.3190     1.1700    -0.4490 C.3   1 <1>   0.2960 
  6 C        7.1980     0.1460     0.1940 C.3   1 <1>  -0.2000 
  7 N        6.5000     2.5860    -0.1050 N.4   1 <1>  -0.7460 
  8 H        4.4450    -1.5350     0.7930 H     1 <1>   0.0800 
  9 H        5.5620     0.6270     1.5760 H     1 <1>   0.1000 
 10 H        6.0320     1.0090    -1.4800 H     1 <1>   0.1000 
 11 H        7.5040    -0.7130    -0.3810 H     1 <1>   0.1000 
 12 H        7.9490     0.4480     0.9040 H     1 <1>   0.1000 
 13 H        6.7810     2.6890     0.8740 H     1 <1>   0.4500 
 14 H        5.6240     3.1020    -0.2480 H     1 <1>   0.4500 
 15 H        7.2240     3.0090    -0.6960 H     1 <1>   0.4500 
@<TRIPOS>BOND
  1   1   2  1   
  2   2   3  1   
  3   2   4  1   
  4   2   8  1   
  5   4   5  1   
  6   4   6  1   
  7   4   9  1   
  8   5   6  1   
  9   5   7  1   
 10   5  10  1   
 11   6  11  1   
 12   6  12  1   
 13   7  13  1   
 14   7  14  1   
 15   7  15  1   
@<TRIPOS>SUBSTRUCTURE
  1 ****   4 GROUP 4 **** **** 0

# MOE 2024.06 (io_trps.svl 2023.06)
