@<TRIPOS>MOLECULE
Untitled Document
45 48 1 0 0 
SMALL
USER_CHARGES


@<TRIPOS>ATOM
  1 CL       0.1560     0.1530    -1.9380 Cl    1 <1>  -0.1230 
  2 C        1.6530     0.8110    -1.3000 C.2   1 <1>   0.1230 
  3 C        2.7910     0.1100    -0.8810 C.2   1 <1>   0.2030 
  4 C        1.9000     2.1190    -1.1280 C.2   1 <1>  -0.3020 
  5 N        3.7010     0.9850    -0.4670 N.2   1 <1>  -0.7070 
  6 C        2.9550    -1.3340    -0.8950 C.2   1 <1>   0.7160 
  7 N        3.1470     2.1990    -0.6220 N.pl3 1 <1>   0.3140 
  8 O        2.0730    -2.0790    -1.2910 O.2   1 <1>  -0.5700 
  9 N        4.1380    -1.8620    -0.4490 N.am  1 <1>  -0.4930 
 10 C        3.8880     3.4340    -0.2560 C.3   1 <1>   0.1760 
 11 C        4.5880    -3.2020    -0.3420 C.2   1 <1>   0.0630 
 12 C        3.1610     4.2000     0.8610 C.3   1 <1>  -0.1600 
 13 C        4.1040     4.3300    -1.4860 C.3   1 <1>  -0.1600 
 14 C        5.8420    -3.6410     0.1380 C.2   1 <1>   0.2350 
 15 C        3.9170    -4.3210    -0.6750 C.2   1 <1>  -0.3020 
 16 C        3.8930     5.4970     1.2050 C.3   1 <1>   0.3430 
 17 C        4.8210     5.6250    -1.1040 C.3   1 <1>   0.3430 
 18 N        5.9060    -4.9610     0.0910 N.2   1 <1>  -0.7070 
 19 C        6.9230    -2.7870     0.6210 C.ar  1 <1>   0.3640 
 20 N        4.7260    -5.3590    -0.4060 N.pl3 1 <1>   0.3000 
 21 N        4.0640     6.3200    -0.0250 N.4   1 <1>  -0.9060 
 22 N        6.7630    -1.4510     0.6300 N.ar  1 <1>  -0.6200 
 23 C        8.1120    -3.3720     1.0670 C.ar  1 <1>  -0.1500 
 24 C        7.7740    -0.7280     1.0780 C.ar  1 <1>   0.1600 
 25 C        9.1570    -2.6070     1.5300 C.ar  1 <1>  -0.1500 
 26 C        8.9740    -1.2430     1.5320 C.ar  1 <1>  -0.1500 
 27 H        1.2650     2.9580    -1.3370 H     1 <1>   0.1500 
 28 H        4.8240    -1.1640    -0.1340 H     1 <1>   0.3700 
 29 H        4.8500     3.1210     0.1130 H     1 <1>   0.0800 
 30 H        3.1170     3.5820     1.7410 H     1 <1>   0.0800 
 31 H        2.1510     4.4310     0.5680 H     1 <1>   0.0800 
 32 H        3.1640     4.5700    -1.9510 H     1 <1>   0.0800 
 33 H        4.7040     3.8010    -2.2070 H     1 <1>   0.0800 
 34 H        2.9270    -4.4300    -1.0790 H     1 <1>   0.1500 
 35 H        4.8590     5.2640     1.6250 H     1 <1>   0.0800 
 36 H        3.3300     6.0460     1.9440 H     1 <1>   0.0800 
 37 H        4.9040     6.2630    -1.9710 H     1 <1>   0.0800 
 38 H        5.8180     5.3960    -0.7610 H     1 <1>   0.0800 
 39 H        4.4950    -6.3490    -0.5550 H     1 <1>   0.2700 
 40 H        4.5440     7.2000     0.2160 H     1 <1>   0.4500 
 41 H        3.1380     6.5920    -0.3830 H     1 <1>   0.4500 
 42 H        8.2080    -4.4430     1.0460 H     1 <1>   0.1500 
 43 H        7.6430     0.3400     1.0840 H     1 <1>   0.1500 
 44 H       10.0740    -3.0540     1.8740 H     1 <1>   0.1500 
 45 H        9.7500    -0.5870     1.8810 H     1 <1>   0.1500 
@<TRIPOS>BOND
  1   1   2  1   
  2   2   3  1   
  3   2   4  2   
  4   3   5  2   
  5   3   6  1   
  6   4   7  1   
  7   4  27  1   
  8   5   7  1   
  9   6   8  2   
 10   6   9  am  
 11   7  10  1   
 12   9  11  1   
 13   9  28  1   
 14  10  12  1   
 15  10  13  1   
 16  10  29  1   
 17  11  14  1   
 18  11  15  2   
 19  12  16  1   
 20  12  30  1   
 21  12  31  1   
 22  13  17  1   
 23  13  32  1   
 24  13  33  1   
 25  14  18  2   
 26  14  19  1   
 27  15  20  1   
 28  15  34  1   
 29  16  21  1   
 30  16  35  1   
 31  16  36  1   
 32  17  21  1   
 33  17  37  1   
 34  17  38  1   
 35  18  20  1   
 36  19  22  ar  
 37  19  23  ar  
 38  20  39  1   
 39  21  40  1   
 40  21  41  1   
 41  22  24  ar  
 42  23  25  ar  
 43  23  42  1   
 44  24  26  ar  
 45  24  43  1   
 46  25  26  ar  
 47  25  44  1   
 48  26  45  1   
@<TRIPOS>SUBSTRUCTURE
  1 ****   5 GROUP 4 **** **** 0

# MOE 2024.06 (io_trps.svl 2023.06)
