@<TRIPOS>MOLECULE
NONAME
57 59 1 0 0 
SMALL
USER_CHARGES


@<TRIPOS>ATOM
  1 O       -0.6210    -0.3770    -0.1900 O.2   1 <1>  -0.5700 
  2 C       -1.5890     0.3500    -0.3020 C.2   1 <1>   0.7160 
  3 N       -2.7870    -0.2200    -0.6080 N.am  1 <1>  -0.7300 
  4 C       -1.4940     1.7690    -0.1120 C.2   1 <1>  -0.0860 
  5 C       -3.0840    -1.6560    -0.7830 C.3   1 <1>   0.1400 
  6 C       -2.5670     2.6710    -0.0740 C.2   1 <1>   0.3720 
  7 C       -0.4120     2.5720     0.0990 C.2   1 <1>   0.0870 
  8 C       -3.8680    -2.1510     0.4350 C.3   1 <1>  -0.1600 
  9 N       -2.1640     3.8720     0.1520 N.2   1 <1>  -0.4100 
 10 N       -3.9210     2.3470    -0.2530 N.pl3 1 <1>  -0.8210 
 11 O       -0.8670     3.7900     0.2560 O.3   1 <1>  -0.0190 
 12 C        1.0100     2.3470     0.1710 C.ar  1 <1>   0.0530 
 13 C       -4.2710    -3.6340     0.3550 C.3   1 <1>   0.2800 
 14 C       -4.7810     2.6730     0.9200 C.3   1 <1>   0.2090 
 15 C       -4.5320     2.9520    -1.4690 C.3   1 <1>   0.2090 
 16 C        1.7840     3.0090     1.1250 C.ar  1 <1>  -0.1500 
 17 C        1.6740     1.4920    -0.7080 C.ar  1 <1>  -0.1500 
 18 O       -4.9970    -3.7690    -0.8340 O.3   1 <1>  -0.5600 
 19 C       -5.1670    -3.9710     1.5530 C.3   1 <1>  -0.2400 
 20 C       -3.0330    -4.5430     0.3240 C.3   1 <1>  -0.2400 
 21 C       -5.8260     3.6600     0.4180 C.3   1 <1>  -0.1600 
 22 C       -5.9420     3.3560    -1.0670 C.3   1 <1>  -0.1600 
 23 C        3.1500     2.8190     1.2030 C.ar  1 <1>  -0.1500 
 24 C        3.0400     1.2930    -0.6360 C.ar  1 <1>  -0.1500 
 25 C       -5.5180    -5.0160    -1.1930 C.3   1 <1>   0.0400 
 26 C        3.7920     1.9600     0.3270 C.ar  1 <1>   0.0830 
 27 O        5.1320     1.8240     0.4680 O.3   1 <1>  -0.3620 
 28 C        5.8710     0.9410    -0.3440 C.3   1 <1>   0.0400 
 29 H       -3.5880     0.4300    -0.6030 H     1 <1>   0.3700 
 30 H       -2.1640    -2.2040    -0.8880 H     1 <1>   0.0800 
 31 H       -3.6630    -1.7900    -1.6810 H     1 <1>   0.0800 
 32 H       -4.7600    -1.5600     0.5350 H     1 <1>   0.0800 
 33 H       -3.2680    -1.9980     1.3140 H     1 <1>   0.0800 
 34 H       -4.2100     3.0940     1.7320 H     1 <1>   0.0800 
 35 H       -5.2580     1.7700     1.2590 H     1 <1>   0.0800 
 36 H       -4.5450     2.2430    -2.2790 H     1 <1>   0.0800 
 37 H       -3.9740     3.8240    -1.7720 H     1 <1>   0.0800 
 38 H        1.3040     3.6800     1.8160 H     1 <1>   0.1500 
 39 H        1.1090     0.9720    -1.4610 H     1 <1>   0.1500 
 40 H       -6.0820    -3.4090     1.5040 H     1 <1>   0.0800 
 41 H       -4.6630    -3.7190     2.4680 H     1 <1>   0.0800 
 42 H       -5.3950    -5.0200     1.5890 H     1 <1>   0.0800 
 43 H       -2.4990    -4.4290    -0.6010 H     1 <1>   0.0800 
 44 H       -3.3080    -5.5740     0.4440 H     1 <1>   0.0800 
 45 H       -2.3730    -4.2880     1.1330 H     1 <1>   0.0800 
 46 H       -5.4530     4.6600     0.5600 H     1 <1>   0.0800 
 47 H       -6.7610     3.5540     0.9370 H     1 <1>   0.0800 
 48 H       -6.6050     2.5230    -1.2240 H     1 <1>   0.0800 
 49 H       -6.2920     4.2000    -1.6340 H     1 <1>   0.0800 
 50 H        3.7320     3.3350     1.9460 H     1 <1>   0.1500 
 51 H        3.5000     0.6190    -1.3330 H     1 <1>   0.1500 
 52 H       -6.0260    -4.9000    -2.1340 H     1 <1>   0.0800 
 53 H       -6.2240    -5.3460    -0.4530 H     1 <1>   0.0800 
 54 H       -4.7220    -5.7280    -1.3100 H     1 <1>   0.0800 
 55 H        6.9010     0.9900    -0.0400 H     1 <1>   0.0800 
 56 H        5.7770     1.2490    -1.3700 H     1 <1>   0.0800 
 57 H        5.4960    -0.0580    -0.2050 H     1 <1>   0.0800 
@<TRIPOS>BOND
  1   1   2  2   
  2   2   3  am  
  3   2   4  1   
  4   3   5  1   
  5   3  29  1   
  6   4   6  1   
  7   4   7  2   
  8   5   8  1   
  9   5  30  1   
 10   5  31  1   
 11   6   9  2   
 12   6  10  1   
 13   7  11  1   
 14   7  12  1   
 15   8  13  1   
 16   8  32  1   
 17   8  33  1   
 18   9  11  1   
 19  10  14  1   
 20  10  15  1   
 21  12  16  ar  
 22  12  17  ar  
 23  13  18  1   
 24  13  19  1   
 25  13  20  1   
 26  14  21  1   
 27  14  34  1   
 28  14  35  1   
 29  15  22  1   
 30  15  36  1   
 31  15  37  1   
 32  16  23  ar  
 33  16  38  1   
 34  17  24  ar  
 35  17  39  1   
 36  18  25  1   
 37  19  40  1   
 38  19  41  1   
 39  19  42  1   
 40  20  43  1   
 41  20  44  1   
 42  20  45  1   
 43  21  22  1   
 44  21  46  1   
 45  21  47  1   
 46  22  48  1   
 47  22  49  1   
 48  23  26  ar  
 49  23  50  1   
 50  24  26  ar  
 51  24  51  1   
 52  25  52  1   
 53  25  53  1   
 54  25  54  1   
 55  26  27  1   
 56  27  28  1   
 57  28  55  1   
 58  28  56  1   
 59  28  57  1   
@<TRIPOS>SUBSTRUCTURE
  1 ****   2 GROUP 4 **** **** 0

# MOE 2024.06 (io_trps.svl 2023.06)
