@<TRIPOS>MOLECULE
NONAME
44 47 1 0 0 
SMALL
USER_CHARGES


@<TRIPOS>ATOM
  1 S        0.5630    -0.0600     1.0870 S.3   1 <1>  -0.0800 
  2 C        0.9100    -1.1680    -0.1950 C.2   1 <1>   0.1980 
  3 C        0.8420     1.2090    -0.0530 C.2   1 <1>   0.1980 
  4 N        1.1920    -0.5850    -1.2910 N.2   1 <1>  -0.3380 
  5 C        0.8470    -2.6590     0.1010 C.3   1 <1>   0.2900 
  6 N        1.1520     0.7810    -1.2090 N.2   1 <1>  -0.3380 
  7 C        0.6940     2.6360     0.4220 C.3   1 <1>  -0.0600 
  8 N       -0.5200    -3.1090     0.4430 N.3   1 <1>  -0.8100 
  9 C       -1.4850    -2.8570    -0.6370 C.3   1 <1>   0.1100 
 10 C       -0.5830    -4.5540     0.7240 C.3   1 <1>   0.1100 
 11 C       -2.6320    -3.8120    -0.3380 C.3   1 <1>   0.2000 
 12 C       -1.9130    -5.0710     0.1430 C.3   1 <1>  -0.0800 
 13 O       -3.3360    -3.2950     0.7320 O.3   1 <1>  -0.6800 
 14 C       -1.6950    -6.0570    -1.0210 C.3   1 <1>  -0.0170 
 15 C       -0.9670    -7.3140    -0.5740 C.ar  1 <1>   0.1670 
 16 N        0.2990    -7.4060    -0.8460 N.ar  1 <1>  -0.6200 
 17 C       -1.6890    -8.3060     0.1090 C.ar  1 <1>  -0.1500 
 18 C        0.9530    -8.5250    -0.4430 C.ar  1 <1>   0.3100 
 19 C       -1.0580    -9.4380     0.5270 C.ar  1 <1>  -0.1500 
 20 C        0.3130    -9.5740     0.2530 C.ar  1 <1>   0.0000 
 21 C        2.3230    -8.6490    -0.7260 C.ar  1 <1>  -0.1500 
 22 C        1.0670   -10.7000     0.6390 C.ar  1 <1>  -0.1500 
 23 C        3.0380    -9.7530    -0.3420 C.ar  1 <1>  -0.1500 
 24 C        2.4020   -10.7890     0.3490 C.ar  1 <1>  -0.1500 
 25 H        1.5050    -2.8740     0.9230 H     1 <1>   0.0800 
 26 H        1.2000    -3.1970    -0.7620 H     1 <1>   0.0800 
 27 H        0.8960     3.3110    -0.3900 H     1 <1>   0.0800 
 28 H        1.3880     2.8290     1.2190 H     1 <1>   0.0800 
 29 H       -0.3070     2.8010     0.7740 H     1 <1>   0.0800 
 30 H       -1.8110    -1.8300    -0.6500 H     1 <1>   0.0800 
 31 H       -1.0490    -3.1040    -1.5900 H     1 <1>   0.0800 
 32 H        0.2560    -5.0640     0.2790 H     1 <1>   0.0800 
 33 H       -0.5510    -4.7110     1.7890 H     1 <1>   0.0800 
 34 H       -3.3080    -3.9640    -1.1620 H     1 <1>   0.0800 
 35 H       -2.4880    -5.5670     0.9050 H     1 <1>   0.0800 
 36 H       -2.6640    -2.9600     1.3640 H     1 <1>   0.4000 
 37 H       -1.1270    -5.5830    -1.8030 H     1 <1>   0.0800 
 38 H       -2.6450    -6.3380    -1.4380 H     1 <1>   0.0800 
 39 H       -2.7370    -8.1580     0.2970 H     1 <1>   0.1500 
 40 H       -1.5770   -10.2190     1.0530 H     1 <1>   0.1500 
 41 H        2.7930    -7.8440    -1.2580 H     1 <1>   0.1500 
 42 H        0.5720   -11.4940     1.1690 H     1 <1>   0.1500 
 43 H        4.0880    -9.8360    -0.5650 H     1 <1>   0.1500 
 44 H        2.9750   -11.6510     0.6450 H     1 <1>   0.1500 
@<TRIPOS>BOND
  1   1   2  1   
  2   1   3  1   
  3   2   4  2   
  4   2   5  1   
  5   3   6  2   
  6   3   7  1   
  7   4   6  1   
  8   5   8  1   
  9   5  25  1   
 10   5  26  1   
 11   7  27  1   
 12   7  28  1   
 13   7  29  1   
 14   8   9  1   
 15   8  10  1   
 16   9  11  1   
 17   9  30  1   
 18   9  31  1   
 19  10  12  1   
 20  10  32  1   
 21  10  33  1   
 22  11  12  1   
 23  11  13  1   
 24  11  34  1   
 25  12  14  1   
 26  12  35  1   
 27  13  36  1   
 28  14  15  1   
 29  14  37  1   
 30  14  38  1   
 31  15  16  ar  
 32  15  17  ar  
 33  16  18  ar  
 34  17  19  ar  
 35  17  39  1   
 36  18  20  ar  
 37  18  21  ar  
 38  19  20  ar  
 39  19  40  1   
 40  20  22  ar  
 41  21  23  ar  
 42  21  41  1   
 43  22  24  ar  
 44  22  42  1   
 45  23  24  ar  
 46  23  43  1   
 47  24  44  1   
@<TRIPOS>SUBSTRUCTURE
  1 ****  10 GROUP 4 **** **** 0

# MOE 2024.06 (io_trps.svl 2023.06)
