@<TRIPOS>MOLECULE
NONAME
49 50 1 0 0 
SMALL
USER_CHARGES


@<TRIPOS>ATOM
  1 O        0.1810    -0.5170     0.9580 O.2   1 <1>  -0.5700 
  2 C       -0.1340    -1.5760     0.4510 C.2   1 <1>   0.7800 
  3 O        0.7820    -2.3600    -0.1270 O.3   1 <1>  -0.4300 
  4 N       -1.4310    -2.0210     0.4500 N.am  1 <1>  -0.6600 
  5 C        2.1670    -2.1170    -0.2450 C.3   1 <1>   0.2800 
  6 C       -1.8300    -3.3010    -0.2030 C.3   1 <1>   0.1400 
  7 C       -2.4840    -1.2370     1.1550 C.3   1 <1>   0.1400 
  8 C        2.4170    -0.8570    -1.0810 C.3   1 <1>  -0.2400 
  9 C        2.7220    -3.3330    -0.9880 C.3   1 <1>  -0.2400 
 10 C        2.8130    -2.0370     1.1440 C.3   1 <1>  -0.2400 
 11 C       -3.2370    -3.1860    -0.8010 C.3   1 <1>  -0.1600 
 12 C       -3.6940    -2.1140     1.4850 C.3   1 <1>  -0.1600 
 13 C       -4.3070    -2.7240     0.2130 C.3   1 <1>   0.0630 
 14 C       -5.2860    -3.8530     0.5760 C.ar  1 <1>  -0.1440 
 15 C       -6.6700    -3.7600     0.3960 C.ar  1 <1>  -0.1440 
 16 C       -4.7620    -5.0230     1.1120 C.ar  1 <1>  -0.1500 
 17 C       -7.4780    -4.8340     0.7460 C.ar  1 <1>  -0.1500 
 18 C       -7.3670    -2.5280    -0.1760 C.3   1 <1>  -0.0170 
 19 C       -5.5750    -6.0850     1.4590 C.ar  1 <1>  -0.1500 
 20 C       -6.9390    -5.9910     1.2730 C.ar  1 <1>  -0.1500 
 21 C       -7.2830    -2.5320    -1.7030 C.3   1 <1>   0.1200 
 22 O       -7.8950    -1.3900    -2.1950 O.3   1 <1>  -0.6800 
 23 H       -1.8020    -4.0870     0.5300 H     1 <1>   0.0800 
 24 H       -1.1370    -3.5520    -0.9870 H     1 <1>   0.0800 
 25 H       -2.7860    -0.4180     0.5240 H     1 <1>   0.0800 
 26 H       -2.0780    -0.8260     2.0650 H     1 <1>   0.0800 
 27 H        1.8910    -0.9180    -2.0160 H     1 <1>   0.0800 
 28 H        3.4670    -0.7540    -1.2860 H     1 <1>   0.0800 
 29 H        2.1030     0.0260    -0.5560 H     1 <1>   0.0800 
 30 H        2.2620    -3.4190    -1.9560 H     1 <1>   0.0800 
 31 H        2.5340    -4.2300    -0.4280 H     1 <1>   0.0800 
 32 H        3.7840    -3.2350    -1.1250 H     1 <1>   0.0800 
 33 H        2.4990    -1.1540     1.6680 H     1 <1>   0.0800 
 34 H        3.8830    -1.9930     1.0490 H     1 <1>   0.0800 
 35 H        2.5570    -2.9030     1.7260 H     1 <1>   0.0800 
 36 H       -3.5190    -4.1270    -1.2370 H     1 <1>   0.0800 
 37 H       -3.1900    -2.4740    -1.6050 H     1 <1>   0.0800 
 38 H       -4.4380    -1.5260     1.9900 H     1 <1>   0.0800 
 39 H       -3.3790    -2.8850     2.1660 H     1 <1>   0.0800 
 40 H       -4.8340    -1.9290    -0.2780 H     1 <1>   0.0800 
 41 H       -3.7030    -5.1200     1.2680 H     1 <1>   0.1500 
 42 H       -8.5440    -4.7800     0.6100 H     1 <1>   0.1500 
 43 H       -6.9270    -1.6330     0.2220 H     1 <1>   0.0800 
 44 H       -8.4010    -2.5330     0.1190 H     1 <1>   0.0800 
 45 H       -5.1470    -6.9820     1.8720 H     1 <1>   0.1500 
 46 H       -7.5780    -6.8140     1.5400 H     1 <1>   0.1500 
 47 H       -7.7790    -3.3940    -2.1160 H     1 <1>   0.0800 
 48 H       -6.2580    -2.5260    -2.0320 H     1 <1>   0.0800 
 49 H       -8.8560    -1.4080    -2.0220 H     1 <1>   0.4000 
@<TRIPOS>BOND
  1   1   2  2   
  2   2   3  1   
  3   2   4  am  
  4   3   5  1   
  5   4   6  1   
  6   4   7  1   
  7   5   8  1   
  8   5   9  1   
  9   5  10  1   
 10   6  11  1   
 11   6  23  1   
 12   6  24  1   
 13   7  12  1   
 14   7  25  1   
 15   7  26  1   
 16   8  27  1   
 17   8  28  1   
 18   8  29  1   
 19   9  30  1   
 20   9  31  1   
 21   9  32  1   
 22  10  33  1   
 23  10  34  1   
 24  10  35  1   
 25  11  13  1   
 26  11  36  1   
 27  11  37  1   
 28  12  13  1   
 29  12  38  1   
 30  12  39  1   
 31  13  14  1   
 32  13  40  1   
 33  14  15  ar  
 34  14  16  ar  
 35  15  17  ar  
 36  15  18  1   
 37  16  19  ar  
 38  16  41  1   
 39  17  20  ar  
 40  17  42  1   
 41  18  21  1   
 42  18  43  1   
 43  18  44  1   
 44  19  20  ar  
 45  19  45  1   
 46  20  46  1   
 47  21  22  1   
 48  21  47  1   
 49  21  48  1   
 50  22  49  1   
@<TRIPOS>SUBSTRUCTURE
  1 ****  11 GROUP 4 **** **** 0

# MOE 2024.06 (io_trps.svl 2023.06)
