@<TRIPOS>MOLECULE
NONAME
60 62 1 0 0 
SMALL
USER_CHARGES


@<TRIPOS>ATOM
  1 O       -4.5810     1.3130     1.5350 O.2   1 <1>  -0.5700 
  2 C       -3.6820     1.1080     0.7410 C.2   1 <1>   0.5440 
  3 N       -3.8910     0.1670    -0.2430 N.am  1 <1>  -0.6600 
  4 C       -2.4470     1.8590     0.8520 C.ar  1 <1>   0.0860 
  5 C       -3.1520    -1.1400    -0.1390 C.3   1 <1>   0.3640 
  6 C       -5.2770     0.0580    -0.7790 C.3   1 <1>   0.1400 
  7 C       -1.8740     2.4860    -0.2540 C.ar  1 <1>  -0.1500 
  8 C       -1.7890     1.9810     2.0760 C.ar  1 <1>  -0.1500 
  9 C       -1.6450    -0.8730    -0.1910 C.ar  1 <1>  -0.1430 
 10 C       -3.5400    -2.2000    -1.2200 C.3   1 <1>   0.2000 
 11 C       -5.3430    -0.8910    -1.9750 C.3   1 <1>   0.1200 
 12 C       -0.6910     3.1950    -0.1580 C.ar  1 <1>   0.0830 
 13 C       -0.6110     2.6960     2.1930 C.ar  1 <1>  -0.1500 
 14 C       -0.8630    -1.1160     0.9290 C.ar  1 <1>  -0.1500 
 15 C       -1.0390    -0.3820    -1.3410 C.ar  1 <1>  -0.1500 
 16 O       -4.8950    -2.1480    -1.5830 O.3   1 <1>  -0.5600 
 17 C       -3.2870    -3.6510    -0.7690 C.3   1 <1>   0.1200 
 18 O       -0.2030     3.7320    -1.3070 O.3   1 <1>  -0.3630 
 19 C       -0.0620     3.3220     1.0870 C.ar  1 <1>   0.0830 
 20 C        0.4980    -0.8660     0.9130 C.ar  1 <1>   0.0830 
 21 C        0.3210    -0.1240    -1.3640 C.ar  1 <1>  -0.1500 
 22 O       -1.9990    -3.8410    -0.2760 O.3   1 <1>  -0.6800 
 23 C        1.1390     3.4560    -1.6500 C.3   1 <1>   0.0400 
 24 O        1.0630     4.0460     1.2730 O.3   1 <1>  -0.3630 
 25 O        1.2000    -1.1680     2.0310 O.3   1 <1>  -0.3620 
 26 C        1.0950    -0.3360    -0.2370 C.ar  1 <1>   0.0830 
 27 C        0.9140     5.4460     1.2170 C.3   1 <1>   0.1200 
 28 C        2.0250    -2.3070     1.9390 C.3   1 <1>   0.0400 
 29 O        2.4070     0.0040    -0.3160 O.3   1 <1>  -0.3630 
 30 C        2.2840     6.0770     1.4410 C.3   1 <1>  -0.2400 
 31 C        2.9030     0.8940     0.6630 C.3   1 <1>   0.0400 
 32 H       -3.3910    -1.5650     0.8220 H     1 <1>   0.0800 
 33 H       -5.9340    -0.3010    -0.0050 H     1 <1>   0.0800 
 34 H       -5.6180     1.0350    -1.0750 H     1 <1>   0.0800 
 35 H       -2.3580     2.4080    -1.2090 H     1 <1>   0.1500 
 36 H       -2.2140     1.5050     2.9420 H     1 <1>   0.1500 
 37 H       -2.9780    -2.0230    -2.1190 H     1 <1>   0.0800 
 38 H       -4.7390    -0.5330    -2.7910 H     1 <1>   0.0800 
 39 H       -6.3600    -0.9940    -2.3090 H     1 <1>   0.0800 
 40 H       -0.1150     2.7760     3.1430 H     1 <1>   0.1500 
 41 H       -1.3010    -1.5070     1.8300 H     1 <1>   0.1500 
 42 H       -1.6240    -0.1790    -2.2210 H     1 <1>   0.1500 
 43 H       -3.4270    -4.3230    -1.5970 H     1 <1>   0.0800 
 44 H       -3.9720    -3.9130     0.0190 H     1 <1>   0.0800 
 45 H        0.7840     0.2610    -2.2540 H     1 <1>   0.1500 
 46 H       -1.3220    -3.5250    -0.9080 H     1 <1>   0.4000 
 47 H        1.2480     3.5860    -2.7110 H     1 <1>   0.0800 
 48 H        1.3740     2.4430    -1.3770 H     1 <1>   0.0800 
 49 H        1.7850     4.1400    -1.1320 H     1 <1>   0.0800 
 50 H        0.5190     5.7150     0.2520 H     1 <1>   0.0800 
 51 H        0.2210     5.7420     1.9860 H     1 <1>   0.0800 
 52 H        2.5050    -2.4520     2.8900 H     1 <1>   0.0800 
 53 H        2.7630    -2.1480     1.1730 H     1 <1>   0.0800 
 54 H        1.4140    -3.1590     1.6990 H     1 <1>   0.0800 
 55 H        2.9670     5.7620     0.6730 H     1 <1>   0.0800 
 56 H        2.6680     5.7920     2.4040 H     1 <1>   0.0800 
 57 H        2.2000     7.1480     1.4080 H     1 <1>   0.0800 
 58 H        3.8060     1.3390     0.2870 H     1 <1>   0.0800 
 59 H        3.1150     0.3490     1.5640 H     1 <1>   0.0800 
 60 H        2.1690     1.6560     0.8530 H     1 <1>   0.0800 
@<TRIPOS>BOND
  1   1   2  2   
  2   2   3  am  
  3   2   4  1   
  4   3   5  1   
  5   3   6  1   
  6   4   7  ar  
  7   4   8  ar  
  8   5   9  1   
  9   5  10  1   
 10   5  32  1   
 11   6  11  1   
 12   6  33  1   
 13   6  34  1   
 14   7  12  ar  
 15   7  35  1   
 16   8  13  ar  
 17   8  36  1   
 18   9  14  ar  
 19   9  15  ar  
 20  10  16  1   
 21  10  17  1   
 22  10  37  1   
 23  11  16  1   
 24  11  38  1   
 25  11  39  1   
 26  12  18  1   
 27  12  19  ar  
 28  13  19  ar  
 29  13  40  1   
 30  14  20  ar  
 31  14  41  1   
 32  15  21  ar  
 33  15  42  1   
 34  17  22  1   
 35  17  43  1   
 36  17  44  1   
 37  18  23  1   
 38  19  24  1   
 39  20  25  1   
 40  20  26  ar  
 41  21  26  ar  
 42  21  45  1   
 43  22  46  1   
 44  23  47  1   
 45  23  48  1   
 46  23  49  1   
 47  24  27  1   
 48  25  28  1   
 49  26  29  1   
 50  27  30  1   
 51  27  50  1   
 52  27  51  1   
 53  28  52  1   
 54  28  53  1   
 55  28  54  1   
 56  29  31  1   
 57  30  55  1   
 58  30  56  1   
 59  30  57  1   
 60  31  58  1   
 61  31  59  1   
 62  31  60  1   
@<TRIPOS>SUBSTRUCTURE
  1 ****   9 GROUP 4 **** **** 0

# MOE 2024.06 (io_trps.svl 2023.06)
