@<TRIPOS>MOLECULE
NONAME
47 50 1 0 0 
SMALL
USER_CHARGES


@<TRIPOS>ATOM
  1 S       -0.1320     0.6760    -0.2360 S.3   1 <1>  -0.0800 
  2 C        0.9060    -0.7010     0.0740 C.2   1 <1>  -0.0450 
  3 C        0.7140     1.5820     0.9880 C.2   1 <1>   0.2280 
  4 C        1.7750    -0.3300     1.0440 C.2   1 <1>   0.0460 
  5 C        0.7370    -1.9100    -0.6930 C.2   1 <1>   0.7150 
  6 N        1.6550     0.9440     1.5580 N.2   1 <1>  -0.5650 
  7 C        2.8810    -1.1820     1.6330 C.3   1 <1>  -0.0590 
  8 O        1.7210    -2.4730    -1.1370 O.2   1 <1>  -0.5700 
  9 N       -0.5030    -2.4680    -0.9270 N.am  1 <1>  -0.6600 
 10 C       -0.7250    -3.4630    -2.0130 C.3   1 <1>   0.1400 
 11 C       -1.6780    -2.2750    -0.0340 C.3   1 <1>   0.1400 
 12 C       -1.1000    -4.8130    -1.3990 C.3   1 <1>  -0.1600 
 13 C       -2.0580    -3.6170     0.5960 C.3   1 <1>  -0.1600 
 14 C       -2.3150    -4.7010    -0.4660 C.3   1 <1>   0.4240 
 15 O       -3.3730    -4.2630    -1.2860 O.3   1 <1>  -0.5600 
 16 C       -2.6200    -6.0650     0.1890 C.ar  1 <1>  -0.1430 
 17 C       -4.6730    -4.4990    -0.8410 C.3   1 <1>   0.1200 
 18 C       -3.8550    -6.6840     0.0220 C.ar  1 <1>  -0.1430 
 19 C       -1.6610    -6.7030     0.9700 C.ar  1 <1>  -0.1500 
 20 C       -4.9200    -6.0040    -0.8150 C.3   1 <1>  -0.0170 
 21 C       -4.1190    -7.9100     0.6110 C.ar  1 <1>  -0.1500 
 22 C       -1.9240    -7.9250     1.5610 C.ar  1 <1>  -0.1500 
 23 C       -3.1510    -8.5390     1.3870 C.ar  1 <1>   0.0820 
 24 O       -3.3290    -9.7370     1.9980 O.3   1 <1>  -0.3620 
 25 C       -4.5340   -10.4560     1.8660 C.3   1 <1>   0.0400 
 26 H        0.3880     2.5910     1.1690 H     1 <1>   0.1500 
 27 H        2.8870    -2.1650     1.2000 H     1 <1>   0.0800 
 28 H        2.7440    -1.2710     2.6940 H     1 <1>   0.0800 
 29 H        3.8310    -0.7160     1.4430 H     1 <1>   0.0800 
 30 H        0.1580    -3.5710    -2.6190 H     1 <1>   0.0800 
 31 H       -1.5210    -3.1160    -2.6500 H     1 <1>   0.0800 
 32 H       -2.5010    -1.8890    -0.6110 H     1 <1>   0.0800 
 33 H       -1.4550    -1.5730     0.7510 H     1 <1>   0.0800 
 34 H       -0.2470    -5.1810    -0.8610 H     1 <1>   0.0800 
 35 H       -1.3190    -5.5200    -2.1780 H     1 <1>   0.0800 
 36 H       -2.9230    -3.5000     1.2200 H     1 <1>   0.0800 
 37 H       -1.2510    -3.9270     1.2350 H     1 <1>   0.0800 
 38 H       -5.3480    -4.0190    -1.5270 H     1 <1>   0.0800 
 39 H       -4.7980    -4.0680     0.1370 H     1 <1>   0.0800 
 40 H       -0.6970    -6.2540     1.1270 H     1 <1>   0.1500 
 41 H       -4.8930    -6.3880    -1.8190 H     1 <1>   0.0800 
 42 H       -5.8950    -6.1940    -0.4050 H     1 <1>   0.0800 
 43 H       -5.0800    -8.3630     0.4590 H     1 <1>   0.1500 
 44 H       -1.1780    -8.4120     2.1620 H     1 <1>   0.1500 
 45 H       -4.4410   -11.3700     2.4240 H     1 <1>   0.0800 
 46 H       -4.6970   -10.6770     0.8260 H     1 <1>   0.0800 
 47 H       -5.3390    -9.8640     2.2660 H     1 <1>   0.0800 
@<TRIPOS>BOND
  1   1   2  1   
  2   1   3  1   
  3   2   4  2   
  4   2   5  1   
  5   3   6  2   
  6   3  26  1   
  7   4   6  1   
  8   4   7  1   
  9   5   8  2   
 10   5   9  am  
 11   7  27  1   
 12   7  28  1   
 13   7  29  1   
 14   9  10  1   
 15   9  11  1   
 16  10  12  1   
 17  10  30  1   
 18  10  31  1   
 19  11  13  1   
 20  11  32  1   
 21  11  33  1   
 22  12  14  1   
 23  12  34  1   
 24  12  35  1   
 25  13  14  1   
 26  13  36  1   
 27  13  37  1   
 28  14  15  1   
 29  14  16  1   
 30  15  17  1   
 31  16  18  ar  
 32  16  19  ar  
 33  17  20  1   
 34  17  38  1   
 35  17  39  1   
 36  18  20  1   
 37  18  21  ar  
 38  19  22  ar  
 39  19  40  1   
 40  20  41  1   
 41  20  42  1   
 42  21  23  ar  
 43  21  43  1   
 44  22  23  ar  
 45  22  44  1   
 46  23  24  1   
 47  24  25  1   
 48  25  45  1   
 49  25  46  1   
 50  25  47  1   
@<TRIPOS>SUBSTRUCTURE
  1 ****  13 GROUP 4 **** **** 0

# MOE 2024.06 (io_trps.svl 2023.06)
