@<TRIPOS>MOLECULE
NONAME
53 57 1 0 0 
SMALL
USER_CHARGES


@<TRIPOS>ATOM
  1 O       -0.8240    -0.7570    -1.1300 O.2   1 <1>  -0.5700 
  2 C       -0.8240    -1.9220    -0.8200 C.2   1 <1>   0.5690 
  3 N       -1.7530    -2.7770    -1.3110 N.am  1 <1>  -0.5470 
  4 C        0.2480    -2.4800     0.1160 C.3   1 <1>   0.1810 
  5 C       -1.8170    -4.1100    -0.9140 C.ar  1 <1>   0.1170 
  6 O       -0.1170    -3.7140     0.7430 O.3   1 <1>  -0.3630 
  7 C       -0.9870    -4.5580     0.1180 C.ar  1 <1>   0.0830 
  8 C       -2.6890    -5.0090    -1.5100 C.ar  1 <1>  -0.1500 
  9 C       -1.0420    -5.8720     0.5390 C.ar  1 <1>  -0.1500 
 10 C       -2.7340    -6.3230    -1.0830 C.ar  1 <1>  -0.1500 
 11 C       -1.9200    -6.7840    -0.0460 C.ar  1 <1>   0.0860 
 12 C       -1.9680    -8.1580     0.4090 C.2   1 <1>   0.5440 
 13 O       -0.9760    -8.8550     0.3140 O.2   1 <1>  -0.5700 
 14 N       -3.1050    -8.7040     0.9600 N.am  1 <1>  -0.6600 
 15 C       -4.3770    -8.0060     1.2370 C.3   1 <1>   0.1400 
 16 C       -3.2570   -10.1380     1.2650 C.3   1 <1>   0.1400 
 17 C       -5.4590    -9.0790     1.0660 C.3   1 <1>  -0.0800 
 18 C       -4.7260   -10.4420     0.9590 C.3   1 <1>  -0.0800 
 19 C       -6.4560    -8.7670    -0.0770 C.3   1 <1>   0.4240 
 20 C       -4.8690   -11.1300    -0.4120 C.3   1 <1>  -0.1600 
 21 O       -5.7440    -8.4160    -1.2120 O.3   1 <1>  -0.6800 
 22 C       -7.3970    -7.6080     0.3170 C.ar  1 <1>  -0.1440 
 23 C       -7.2260   -10.0460    -0.4460 C.3   1 <1>  -0.1600 
 24 C       -6.3300   -11.2230    -0.8940 C.3   1 <1>  -0.1600 
 25 C       -7.3330    -6.3570    -0.2920 C.ar  1 <1>  -0.1500 
 26 C       -8.3410    -7.7900     1.3240 C.ar  1 <1>  -0.1500 
 27 C       -8.1800    -5.3300     0.0870 C.ar  1 <1>  -0.1500 
 28 C       -9.1910    -6.7660     1.7050 C.ar  1 <1>  -0.1500 
 29 C       -9.1120    -5.5330     1.0870 C.ar  1 <1>  -0.1500 
 30 H       -2.4350    -2.3860    -1.9590 H     1 <1>   0.3700 
 31 H        0.4550    -1.7680     0.8930 H     1 <1>   0.0800 
 32 H        1.1460    -2.6550    -0.4460 H     1 <1>   0.0800 
 33 H       -3.3320    -4.6830    -2.3080 H     1 <1>   0.1500 
 34 H       -0.3950    -6.2030     1.3320 H     1 <1>   0.1500 
 35 H       -3.4110    -7.0140    -1.5570 H     1 <1>   0.1500 
 36 H       -4.3670    -7.6510     2.2530 H     1 <1>   0.0800 
 37 H       -4.5300    -7.1660     0.5830 H     1 <1>   0.0800 
 38 H       -2.5830   -10.7380     0.6770 H     1 <1>   0.0800 
 39 H       -3.0480   -10.2930     2.3100 H     1 <1>   0.0800 
 40 H       -6.0220    -9.0990     1.9810 H     1 <1>   0.0800 
 41 H       -5.1070   -11.1170     1.7070 H     1 <1>   0.0800 
 42 H       -4.2860   -10.5890    -1.1390 H     1 <1>   0.0800 
 43 H       -4.4490   -12.1210    -0.3640 H     1 <1>   0.0800 
 44 H       -5.1900    -9.1820    -1.4460 H     1 <1>   0.4000 
 45 H       -7.7780   -10.3680     0.4160 H     1 <1>   0.0800 
 46 H       -7.9490    -9.8190    -1.2110 H     1 <1>   0.0800 
 47 H       -6.7650   -12.1380    -0.5280 H     1 <1>   0.0800 
 48 H       -6.3320   -11.2830    -1.9690 H     1 <1>   0.0800 
 49 H       -6.6200    -6.1640    -1.0750 H     1 <1>   0.1500 
 50 H       -8.4290    -8.7350     1.8300 H     1 <1>   0.1500 
 51 H       -8.1130    -4.3730    -0.4000 H     1 <1>   0.1500 
 52 H       -9.9160    -6.9290     2.4840 H     1 <1>   0.1500 
 53 H       -9.7720    -4.7360     1.3810 H     1 <1>   0.1500 
@<TRIPOS>BOND
  1   1   2  2   
  2   2   3  am  
  3   2   4  1   
  4   3   5  1   
  5   3  30  1   
  6   4   6  1   
  7   4  31  1   
  8   4  32  1   
  9   5   7  ar  
 10   5   8  ar  
 11   6   7  1   
 12   7   9  ar  
 13   8  10  ar  
 14   8  33  1   
 15   9  11  ar  
 16   9  34  1   
 17  10  11  ar  
 18  10  35  1   
 19  11  12  1   
 20  12  13  2   
 21  12  14  am  
 22  14  15  1   
 23  14  16  1   
 24  15  17  1   
 25  15  36  1   
 26  15  37  1   
 27  16  18  1   
 28  16  38  1   
 29  16  39  1   
 30  17  18  1   
 31  17  19  1   
 32  17  40  1   
 33  18  20  1   
 34  18  41  1   
 35  19  21  1   
 36  19  22  1   
 37  19  23  1   
 38  20  24  1   
 39  20  42  1   
 40  20  43  1   
 41  21  44  1   
 42  22  25  ar  
 43  22  26  ar  
 44  23  24  1   
 45  23  45  1   
 46  23  46  1   
 47  24  47  1   
 48  24  48  1   
 49  25  27  ar  
 50  25  49  1   
 51  26  28  ar  
 52  26  50  1   
 53  27  29  ar  
 54  27  51  1   
 55  28  29  ar  
 56  28  52  1   
 57  29  53  1   
@<TRIPOS>SUBSTRUCTURE
  1 ****  15 GROUP 4 **** **** 0

# MOE 2024.06 (io_trps.svl 2023.06)
