@<TRIPOS>MOLECULE
NONAME
48 50 1 0 0 
SMALL
USER_CHARGES


@<TRIPOS>ATOM
  1 CL      -1.3920     1.0590     0.4220 Cl    1 <1>  -0.1770 
  2 C       -0.7500     2.6660     0.1970 C.ar  1 <1>   0.1770 
  3 C        0.5020     2.9720     0.6980 C.ar  1 <1>  -0.1500 
  4 C       -1.5030     3.6090    -0.4780 C.ar  1 <1>  -0.1500 
  5 C        1.0140     4.2470     0.5220 C.ar  1 <1>  -0.1500 
  6 C       -0.9890     4.8820    -0.6530 C.ar  1 <1>  -0.1500 
  7 C        0.2660     5.2090    -0.1580 C.ar  1 <1>   0.0830 
  8 O        0.6900     6.4790    -0.3760 O.3   1 <1>  -0.3630 
  9 C        1.9510     6.9190     0.0620 C.3   1 <1>   0.1200 
 10 C        2.0820     8.3890    -0.3510 C.3   1 <1>   0.3430 
 11 N        3.3730     9.0150     0.0920 N.4   1 <1>  -0.9590 
 12 C        3.3020    10.5050    -0.1200 C.3   1 <1>   0.3430 
 13 C        4.5560     8.4340    -0.6150 C.3   1 <1>   0.3430 
 14 C        4.5770    11.2330     0.3420 C.3   1 <1>   0.2000 
 15 C        5.8420     9.0830    -0.0970 C.3   1 <1>  -0.1600 
 16 O        4.4600    12.5480    -0.0870 O.3   1 <1>  -0.5600 
 17 C        5.8340    10.6090    -0.2810 C.3   1 <1>  -0.1600 
 18 C        5.2610    13.4880     0.5900 C.3   1 <1>   0.2630 
 19 C        4.8640    14.9170     0.2340 C.ar  1 <1>   0.1670 
 20 N        5.0430    15.8160     1.1920 N.ar  1 <1>  -0.6200 
 21 C        4.3620    15.2210    -1.0250 C.ar  1 <1>  -0.1500 
 22 C        4.7050    17.0590     0.8860 C.ar  1 <1>   0.1600 
 23 C        4.0140    16.5200    -1.3290 C.ar  1 <1>  -0.1500 
 24 C        4.1950    17.4590    -0.3370 C.ar  1 <1>  -0.1500 
 25 H        1.0620     2.2160     1.2190 H     1 <1>   0.1500 
 26 H       -2.4740     3.3460    -0.8570 H     1 <1>   0.1500 
 27 H        1.9870     4.4620     0.9200 H     1 <1>   0.1500 
 28 H       -1.5630     5.6270    -1.1760 H     1 <1>   0.1500 
 29 H        2.6970     6.3080    -0.4140 H     1 <1>   0.0800 
 30 H        1.9870     6.8150     1.1320 H     1 <1>   0.0800 
 31 H        1.2580     8.9300     0.0860 H     1 <1>   0.0800 
 32 H        1.9970     8.4580    -1.4240 H     1 <1>   0.0800 
 33 H        3.4890     8.8530     1.1020 H     1 <1>   0.4500 
 34 H        2.4610    10.9120     0.4170 H     1 <1>   0.0800 
 35 H        3.1640    10.7080    -1.1690 H     1 <1>   0.0800 
 36 H        4.4700     8.6090    -1.6760 H     1 <1>   0.0800 
 37 H        4.6050     7.3690    -0.4520 H     1 <1>   0.0800 
 38 H        4.6240    11.2180     1.4190 H     1 <1>   0.0800 
 39 H        6.6800     8.6700    -0.6330 H     1 <1>   0.0800 
 40 H        5.9760     8.8360     0.9420 H     1 <1>   0.0800 
 41 H        6.7180    11.0230     0.1750 H     1 <1>   0.0800 
 42 H        5.8580    10.8370    -1.3340 H     1 <1>   0.0800 
 43 H        6.2910    13.3300     0.3270 H     1 <1>   0.0800 
 44 H        5.1370    13.3510     1.6510 H     1 <1>   0.0800 
 45 H        4.2430    14.4490    -1.7630 H     1 <1>   0.1500 
 46 H        4.8420    17.8010     1.6540 H     1 <1>   0.1500 
 47 H        3.6210    16.7890    -2.2940 H     1 <1>   0.1500 
 48 H        3.9440    18.4900    -0.5060 H     1 <1>   0.1500 
@<TRIPOS>BOND
  1   1   2  1   
  2   2   3  ar  
  3   2   4  ar  
  4   3   5  ar  
  5   3  25  1   
  6   4   6  ar  
  7   4  26  1   
  8   5   7  ar  
  9   5  27  1   
 10   6   7  ar  
 11   6  28  1   
 12   7   8  1   
 13   8   9  1   
 14   9  10  1   
 15   9  29  1   
 16   9  30  1   
 17  10  11  1   
 18  10  31  1   
 19  10  32  1   
 20  11  12  1   
 21  11  13  1   
 22  11  33  1   
 23  12  14  1   
 24  12  34  1   
 25  12  35  1   
 26  13  15  1   
 27  13  36  1   
 28  13  37  1   
 29  14  16  1   
 30  14  17  1   
 31  14  38  1   
 32  15  17  1   
 33  15  39  1   
 34  15  40  1   
 35  16  18  1   
 36  17  41  1   
 37  17  42  1   
 38  18  19  1   
 39  18  43  1   
 40  18  44  1   
 41  19  20  ar  
 42  19  21  ar  
 43  20  22  ar  
 44  21  23  ar  
 45  21  45  1   
 46  22  24  ar  
 47  22  46  1   
 48  23  24  ar  
 49  23  47  1   
 50  24  48  1   
@<TRIPOS>SUBSTRUCTURE
  1 ****  11 GROUP 4 **** **** 0

# MOE 2024.06 (io_trps.svl 2023.06)
