@<TRIPOS>MOLECULE
NONAME
53 56 1 0 0 
SMALL
USER_CHARGES


@<TRIPOS>ATOM
  1 O       -0.5050    -1.0700    -0.1910 O.2   1 <1>  -0.5700 
  2 C       -1.6320    -0.6680    -0.3400 C.2   1 <1>   0.5690 
  3 N       -2.0530     0.6100    -0.1960 N.am  1 <1>  -0.6600 
  4 C       -2.7810    -1.5640    -0.7090 C.3   1 <1>  -0.0990 
  5 C       -1.1530     1.7510     0.1140 C.3   1 <1>   0.2200 
  6 C       -3.5000     0.7400    -0.4500 C.3   1 <1>   0.1400 
  7 C       -4.0150    -0.7060    -0.3610 C.3   1 <1>  -0.0800 
  8 C       -1.5900     2.4680     1.3910 C.3   1 <1>  -0.1600 
  9 C       -1.2170     2.8230    -0.9700 C.3   1 <1>  -0.1600 
 10 C       -4.5100    -0.9770     1.0700 C.3   1 <1>   0.2090 
 11 C       -2.4540     3.6660     0.9700 C.3   1 <1>  -0.1600 
 12 C       -2.3170     3.8020    -0.5500 C.3   1 <1>  -0.1600 
 13 N       -5.0110    -2.3830     1.2140 N.pl3 1 <1>  -0.8380 
 14 C       -6.0940    -2.8920     0.5620 C.ar  1 <1>   0.1000 
 15 C       -4.3050    -3.1190     2.3120 C.3   1 <1>   0.1290 
 16 C       -6.2220    -4.2770     0.2040 C.ar  1 <1>   0.0000 
 17 C       -7.1750    -2.0600     0.2520 C.ar  1 <1>  -0.1500 
 18 C       -7.4770    -4.7610    -0.2230 C.ar  1 <1>   0.3610 
 19 C       -5.1540    -5.1970     0.1930 C.ar  1 <1>  -0.1500 
 20 C       -8.3640    -2.5510    -0.2210 C.ar  1 <1>   0.2180 
 21 N       -8.5090    -3.8730    -0.4140 N.ar  1 <1>  -0.1790 
 22 C       -7.6580    -6.1240    -0.4980 C.ar  1 <1>  -0.1500 
 23 C       -5.3380    -6.5230    -0.1020 C.ar  1 <1>  -0.1500 
 24 C       -9.5440    -1.6420    -0.5200 C.3   1 <1>  -0.0970 
 25 C       -6.6040    -6.9990    -0.4330 C.ar  1 <1>  -0.1500 
 26 H       -2.7350    -2.4910    -0.1700 H     1 <1>   0.0800 
 27 H       -2.7350    -1.7580    -1.7640 H     1 <1>   0.0800 
 28 H       -0.1450     1.3830     0.2170 H     1 <1>   0.0800 
 29 H       -3.6480     1.1360    -1.4400 H     1 <1>   0.0800 
 30 H       -3.9690     1.3830     0.2730 H     1 <1>   0.0800 
 31 H       -4.8180    -0.8620    -1.0580 H     1 <1>   0.0800 
 32 H       -0.7090     2.8400     1.8830 H     1 <1>   0.0800 
 33 H       -2.1000     1.8070     2.0690 H     1 <1>   0.0800 
 34 H       -1.3790     2.4040    -1.9480 H     1 <1>   0.0800 
 35 H       -0.2780     3.3480    -0.9760 H     1 <1>   0.0800 
 36 H       -5.2890    -0.2850     1.3370 H     1 <1>   0.0800 
 37 H       -3.6940    -0.8080     1.7540 H     1 <1>   0.0800 
 38 H       -2.1080     4.5590     1.4610 H     1 <1>   0.0800 
 39 H       -3.4840     3.5060     1.2390 H     1 <1>   0.0800 
 40 H       -3.2450     3.5320    -1.0240 H     1 <1>   0.0800 
 41 H       -2.0690     4.8100    -0.8360 H     1 <1>   0.0800 
 42 H       -4.2780    -2.5120     3.2010 H     1 <1>   0.0800 
 43 H       -3.2950    -3.3450     2.0170 H     1 <1>   0.0800 
 44 H       -4.8190    -4.0320     2.5540 H     1 <1>   0.0800 
 45 H       -7.0850    -1.0060     0.4280 H     1 <1>   0.1500 
 46 H       -4.1610    -4.8490     0.4120 H     1 <1>   0.1500 
 47 H       -9.3990    -4.2490    -0.7440 H     1 <1>   0.4570 
 48 H       -8.6280    -6.4970    -0.7750 H     1 <1>   0.1500 
 49 H       -4.5050    -7.2080    -0.0850 H     1 <1>   0.1500 
 50 H       -9.2910    -0.6140    -0.3260 H     1 <1>   0.0800 
 51 H      -10.3850    -1.9000     0.1010 H     1 <1>   0.0800 
 52 H       -9.8320    -1.7250    -1.5530 H     1 <1>   0.0800 
 53 H       -6.7330    -8.0490    -0.6460 H     1 <1>   0.1500 
@<TRIPOS>BOND
  1   1   2  2   
  2   2   3  am  
  3   2   4  1   
  4   3   5  1   
  5   3   6  1   
  6   4   7  1   
  7   4  26  1   
  8   4  27  1   
  9   5   8  1   
 10   5   9  1   
 11   5  28  1   
 12   6   7  1   
 13   6  29  1   
 14   6  30  1   
 15   7  10  1   
 16   7  31  1   
 17   8  11  1   
 18   8  32  1   
 19   8  33  1   
 20   9  12  1   
 21   9  34  1   
 22   9  35  1   
 23  10  13  1   
 24  10  36  1   
 25  10  37  1   
 26  11  12  1   
 27  11  38  1   
 28  11  39  1   
 29  12  40  1   
 30  12  41  1   
 31  13  14  1   
 32  13  15  1   
 33  14  16  ar  
 34  14  17  ar  
 35  15  42  1   
 36  15  43  1   
 37  15  44  1   
 38  16  18  ar  
 39  16  19  ar  
 40  17  20  ar  
 41  17  45  1   
 42  18  21  ar  
 43  18  22  ar  
 44  19  23  ar  
 45  19  46  1   
 46  20  21  ar  
 47  20  24  1   
 48  21  47  1   
 49  22  25  ar  
 50  22  48  1   
 51  23  25  ar  
 52  23  49  1   
 53  24  50  1   
 54  24  51  1   
 55  24  52  1   
 56  25  53  1   
@<TRIPOS>SUBSTRUCTURE
  1 ****  10 GROUP 4 **** **** 0

# MOE 2024.06 (io_trps.svl 2023.06)
