@<TRIPOS>MOLECULE
NONAME
46 48 1 0 0 
SMALL
USER_CHARGES


@<TRIPOS>ATOM
  1 O       -1.9140    -0.6120    -2.5260 O.2   1 <1>  -0.5700 
  2 C       -2.3440    -0.8580    -1.4270 C.2   1 <1>   0.5690 
  3 N       -2.9140     0.0960    -0.6340 N.am  1 <1>  -0.6600 
  4 C       -2.2500    -2.2860    -0.9520 C.3   1 <1>  -0.0190 
  5 C       -3.4610    -0.2000     0.7220 C.3   1 <1>   0.2200 
  6 C       -3.0520     1.5120    -1.0930 C.3   1 <1>   0.0600 
  7 C       -1.3590    -2.4080     0.3020 C.3   1 <1>   0.1200 
  8 C       -3.6600    -2.8850    -0.8790 C.3   1 <1>   0.3430 
  9 C       -2.3460    -0.7070     1.6710 C.3   1 <1>   0.1200 
 10 C       -4.6930    -1.1370     0.6360 C.3   1 <1>   0.3430 
 11 O       -2.0190    -2.0630     1.4890 O.3   1 <1>  -0.5600 
 12 N       -4.3730    -2.5830     0.3950 N.4   1 <1>  -0.9590 
 13 C       -5.6550    -3.3070     0.4890 C.3   1 <1>   0.4860 
 14 C       -5.5570    -4.8080     0.3160 C.ar  1 <1>  -0.1440 
 15 C       -6.5190    -5.4350    -0.4720 C.ar  1 <1>   0.0820 
 16 C       -4.5750    -5.5720     0.9320 C.ar  1 <1>  -0.1500 
 17 O       -7.4870    -4.7280    -1.1060 O.3   1 <1>  -0.3620 
 18 C       -6.4780    -6.8060    -0.6600 C.ar  1 <1>  -0.1500 
 19 C       -4.5410    -6.9440     0.7440 C.ar  1 <1>  -0.1500 
 20 C       -8.6700    -4.3480    -0.3810 C.3   1 <1>   0.0140 
 21 C       -5.4910    -7.5610    -0.0530 C.ar  1 <1>  -0.1500 
 22 C       -8.4840    -3.0920     0.4660 C.2   1 <1>   0.9060 
 23 O       -8.2250    -2.0100    -0.0790 O.co2 1 <1>  -0.9000 
 24 O       -8.3750    -3.2060     1.6900 O.co2 1 <1>  -0.9000 
 25 H       -1.7400    -2.8180    -1.7350 H     1 <1>   0.0800 
 26 H       -3.8140     0.7310     1.1320 H     1 <1>   0.0800 
 27 H       -2.5330     2.1690    -0.4170 H     1 <1>   0.0800 
 28 H       -4.0920     1.7870    -1.1300 H     1 <1>   0.0800 
 29 H       -2.6330     1.6410    -2.0770 H     1 <1>   0.0800 
 30 H       -0.4770    -1.7970     0.2070 H     1 <1>   0.0800 
 31 H       -1.0420    -3.4310     0.4130 H     1 <1>   0.0800 
 32 H       -3.5730    -3.9550    -0.9770 H     1 <1>   0.0800 
 33 H       -4.2440    -2.5320    -1.7150 H     1 <1>   0.0800 
 34 H       -2.6840    -0.6110     2.6880 H     1 <1>   0.0800 
 35 H       -1.4540    -0.1140     1.5610 H     1 <1>   0.0800 
 36 H       -5.3570    -0.7780    -0.1340 H     1 <1>   0.0800 
 37 H       -5.2310    -1.0640     1.5680 H     1 <1>   0.0800 
 38 H       -3.7530    -2.8800     1.1650 H     1 <1>   0.4500 
 39 H       -6.1330    -3.0920     1.4320 H     1 <1>   0.0800 
 40 H       -6.2850    -2.9300    -0.2960 H     1 <1>   0.0800 
 41 H       -3.8370    -5.1140     1.5670 H     1 <1>   0.1500 
 42 H       -7.2220    -7.2730    -1.2810 H     1 <1>   0.1500 
 43 H       -3.7800    -7.5360     1.2230 H     1 <1>   0.1500 
 44 H       -9.4430    -4.1580    -1.0980 H     1 <1>   0.0800 
 45 H       -8.9620    -5.1640     0.2520 H     1 <1>   0.0800 
 46 H       -5.4640    -8.6270    -0.1970 H     1 <1>   0.1500 
@<TRIPOS>BOND
  1   1   2  2   
  2   2   3  am  
  3   2   4  1   
  4   3   5  1   
  5   3   6  1   
  6   4   7  1   
  7   4   8  1   
  8   4  25  1   
  9   5   9  1   
 10   5  10  1   
 11   5  26  1   
 12   6  27  1   
 13   6  28  1   
 14   6  29  1   
 15   7  11  1   
 16   7  30  1   
 17   7  31  1   
 18   8  12  1   
 19   8  32  1   
 20   8  33  1   
 21   9  11  1   
 22   9  34  1   
 23   9  35  1   
 24  10  12  1   
 25  10  36  1   
 26  10  37  1   
 27  12  13  1   
 28  12  38  1   
 29  13  14  1   
 30  13  39  1   
 31  13  40  1   
 32  14  15  ar  
 33  14  16  ar  
 34  15  17  1   
 35  15  18  ar  
 36  16  19  ar  
 37  16  41  1   
 38  17  20  1   
 39  18  21  ar  
 40  18  42  1   
 41  19  21  ar  
 42  19  43  1   
 43  20  22  1   
 44  20  44  1   
 45  20  45  1   
 46  21  46  1   
 47  22  23  ar  
 48  22  24  ar  
@<TRIPOS>SUBSTRUCTURE
  1 ****  12 GROUP 4 **** **** 0

# MOE 2024.06 (io_trps.svl 2023.06)
