@<TRIPOS>MOLECULE
NONAME
43 45 1 0 0 
SMALL
USER_CHARGES


@<TRIPOS>ATOM
  1 O       -0.2390    -0.8730    -1.6350 O.co2 1 <1>  -0.9000 
  2 C       -0.1330    -2.0580    -1.2870 C.2   1 <1>   1.0330 
  3 O       -1.1620    -2.7690    -1.2950 O.co2 1 <1>  -0.9000 
  4 C        1.1200    -2.6170    -0.8770 C.2   1 <1>  -0.2330 
  5 C        1.3840    -3.9850    -0.8630 C.2   1 <1>   0.3720 
  6 C        2.2850    -2.0720    -0.4300 C.2   1 <1>   0.0870 
  7 N        2.5740    -4.2400    -0.4530 N.2   1 <1>  -0.4100 
  8 N        0.4680    -4.9530    -1.2410 N.pl3 1 <1>  -0.8520 
  9 O        3.1060    -3.0740    -0.2020 O.3   1 <1>  -0.0190 
 10 C        2.7380    -0.7270    -0.1640 C.ar  1 <1>   0.0530 
 11 C        0.0270    -5.8380    -0.1420 C.3   1 <1>   0.2890 
 12 C        1.8700     0.2880     0.2390 C.ar  1 <1>  -0.1500 
 13 C        4.0900    -0.3940    -0.2800 C.ar  1 <1>  -0.1500 
 14 C       -1.5070    -5.7560     0.0610 C.3   1 <1>   0.2000 
 15 C        0.4620    -7.2660    -0.4900 C.3   1 <1>  -0.1600 
 16 C        2.3160     1.5690     0.5060 C.ar  1 <1>  -0.1500 
 17 C        4.5480     0.8830    -0.0120 C.ar  1 <1>  -0.1500 
 18 O       -1.8900    -4.4990     0.5090 O.3   1 <1>  -0.6800 
 19 C       -1.9980    -6.7750     1.0950 C.3   1 <1>  -0.1600 
 20 C       -0.0310    -8.2800     0.5540 C.3   1 <1>  -0.1600 
 21 C        3.6680     1.8770     0.3820 C.ar  1 <1>   0.0830 
 22 C       -1.5540    -8.2000     0.7330 C.3   1 <1>  -0.1600 
 23 O        4.1890     3.1030     0.6240 O.3   1 <1>  -0.3620 
 24 C        3.3610     4.1960     0.9530 C.3   1 <1>   0.0400 
 25 H       -0.3680    -4.4200    -1.5500 H     1 <1>   0.4000 
 26 H        0.5030    -5.5510     0.7810 H     1 <1>   0.0800 
 27 H        0.8210     0.0680     0.3400 H     1 <1>   0.1500 
 28 H        4.7880    -1.1500    -0.5900 H     1 <1>   0.1500 
 29 H       -2.0000    -5.9330    -0.8790 H     1 <1>   0.0800 
 30 H        0.0670    -7.5270    -1.4560 H     1 <1>   0.0800 
 31 H        1.5360    -7.2970    -0.5440 H     1 <1>   0.0800 
 32 H        1.5970     2.3060     0.8030 H     1 <1>   0.1500 
 33 H        5.5920     1.1190    -0.1080 H     1 <1>   0.1500 
 34 H       -1.6650    -3.7950    -0.1820 H     1 <1>   0.4000 
 35 H       -1.5990    -6.5140     2.0610 H     1 <1>   0.0800 
 36 H       -3.0710    -6.7350     1.1480 H     1 <1>   0.0800 
 37 H        0.2460    -9.2740     0.2470 H     1 <1>   0.0800 
 38 H        0.4500    -8.0800     1.4960 H     1 <1>   0.0800 
 39 H       -1.8620    -8.8800     1.5080 H     1 <1>   0.0800 
 40 H       -2.0360    -8.5010    -0.1820 H     1 <1>   0.0800 
 41 H        3.9840     5.0640     1.0690 H     1 <1>   0.0800 
 42 H        2.8530     3.9830     1.8760 H     1 <1>   0.0800 
 43 H        2.6580     4.3530     0.1530 H     1 <1>   0.0800 
@<TRIPOS>BOND
  1   1   2  ar  
  2   2   3  ar  
  3   2   4  1   
  4   4   5  1   
  5   4   6  2   
  6   5   7  2   
  7   5   8  1   
  8   6   9  1   
  9   6  10  1   
 10   7   9  1   
 11   8  11  1   
 12   8  25  1   
 13  10  12  ar  
 14  10  13  ar  
 15  11  14  1   
 16  11  15  1   
 17  11  26  1   
 18  12  16  ar  
 19  12  27  1   
 20  13  17  ar  
 21  13  28  1   
 22  14  18  1   
 23  14  19  1   
 24  14  29  1   
 25  15  20  1   
 26  15  30  1   
 27  15  31  1   
 28  16  21  ar  
 29  16  32  1   
 30  17  21  ar  
 31  17  33  1   
 32  18  34  1   
 33  19  22  1   
 34  19  35  1   
 35  19  36  1   
 36  20  22  1   
 37  20  37  1   
 38  20  38  1   
 39  21  23  1   
 40  22  39  1   
 41  22  40  1   
 42  23  24  1   
 43  24  41  1   
 44  24  42  1   
 45  24  43  1   
@<TRIPOS>SUBSTRUCTURE
  1 ****   4 GROUP 4 **** **** 0

# MOE 2024.06 (io_trps.svl 2023.06)
