@<TRIPOS>MOLECULE
NONAME
47 48 1 0 0 
SMALL
USER_CHARGES


@<TRIPOS>ATOM
  1 S       -0.5280    -0.0550    -0.8510 S.3   1 <1>  -0.4600 
  2 C       -1.2100    -1.6790    -0.4230 C.3   1 <1>   0.0700 
  3 C        1.2250    -0.2240    -0.4260 C.3   1 <1>  -0.0100 
  4 C       -2.7010    -1.6630    -0.7650 C.3   1 <1>  -0.0990 
  5 C       -3.4050    -2.9660    -0.4190 C.2   1 <1>   0.5690 
  6 O       -2.7300    -3.8920    -0.0330 O.2   1 <1>  -0.5700 
  7 N       -4.7700    -3.0670    -0.5360 N.am  1 <1>  -0.6600 
  8 C       -5.4790    -4.3320    -0.1680 C.3   1 <1>   0.1400 
  9 C       -5.6620    -1.9590    -0.9810 C.3   1 <1>   0.1400 
 10 C       -6.4460    -4.1340     1.0090 C.3   1 <1>   0.1400 
 11 C       -6.2460    -1.2580     0.2500 C.3   1 <1>  -0.1600 
 12 N       -7.6580    -3.3530     0.6020 N.am  1 <1>  -0.6600 
 13 C       -7.5550    -1.8690     0.7710 C.3   1 <1>   0.1400 
 14 C       -8.8470    -3.9240     0.1720 C.2   1 <1>   0.5690 
 15 O       -9.8000    -3.2070    -0.0580 O.2   1 <1>  -0.5700 
 16 C       -9.0820    -5.4650     0.0010 C.3   1 <1>   0.3410 
 17 O       -7.9330    -6.1780    -0.4030 O.3   1 <1>  -0.5600 
 18 C      -10.1250    -5.7840    -1.0860 C.3   1 <1>  -0.1600 
 19 C       -9.5090    -6.0890     1.3390 C.3   1 <1>  -0.2400 
 20 C       -8.1530    -6.9910    -1.5140 C.3   1 <1>   0.1200 
 21 C       -9.6580    -7.1000    -1.6700 C.3   1 <1>  -0.1600 
 22 H       -1.0480    -1.8370     0.6290 H     1 <1>   0.0800 
 23 H       -0.6810    -2.4200    -0.9960 H     1 <1>   0.0800 
 24 H        1.7080     0.7100    -0.6520 H     1 <1>   0.0800 
 25 H        1.6360    -1.0210    -1.0200 H     1 <1>   0.0800 
 26 H        1.2940    -0.4470     0.6240 H     1 <1>   0.0800 
 27 H       -2.8120    -1.4830    -1.8180 H     1 <1>   0.0800 
 28 H       -3.1670    -0.8620    -0.2220 H     1 <1>   0.0800 
 29 H       -4.7660    -5.0880     0.1090 H     1 <1>   0.0800 
 30 H       -6.0150    -4.6990    -1.0240 H     1 <1>   0.0800 
 31 H       -6.4500    -2.3480    -1.6040 H     1 <1>   0.0800 
 32 H       -5.1090    -1.2510    -1.5700 H     1 <1>   0.0800 
 33 H       -5.9350    -3.6320     1.8120 H     1 <1>   0.0800 
 34 H       -6.7400    -5.0960     1.3840 H     1 <1>   0.0800 
 35 H       -6.4520    -0.2350    -0.0070 H     1 <1>   0.0800 
 36 H       -5.5150    -1.2350     1.0390 H     1 <1>   0.0800 
 37 H       -8.3650    -1.3930     0.2450 H     1 <1>   0.0800 
 38 H       -7.6730    -1.6290     1.8140 H     1 <1>   0.0800 
 39 H      -10.0890    -5.0250    -1.8490 H     1 <1>   0.0800 
 40 H      -11.1270    -5.8260    -0.6980 H     1 <1>   0.0800 
 41 H       -8.7590    -5.9150     2.0870 H     1 <1>   0.0800 
 42 H       -9.6660    -7.1470     1.2370 H     1 <1>   0.0800 
 43 H      -10.4240    -5.6360     1.6730 H     1 <1>   0.0800 
 44 H       -7.6850    -7.9470    -1.3520 H     1 <1>   0.0800 
 45 H       -7.7130    -6.5040    -2.3680 H     1 <1>   0.0800 
 46 H       -9.9510    -7.2280    -2.6970 H     1 <1>   0.0800 
 47 H      -10.0230    -7.9280    -1.0880 H     1 <1>   0.0800 
@<TRIPOS>BOND
  1   1   2  1   
  2   1   3  1   
  3   2   4  1   
  4   2  22  1   
  5   2  23  1   
  6   3  24  1   
  7   3  25  1   
  8   3  26  1   
  9   4   5  1   
 10   4  27  1   
 11   4  28  1   
 12   5   6  2   
 13   5   7  am  
 14   7   8  1   
 15   7   9  1   
 16   8  10  1   
 17   8  29  1   
 18   8  30  1   
 19   9  11  1   
 20   9  31  1   
 21   9  32  1   
 22  10  12  1   
 23  10  33  1   
 24  10  34  1   
 25  11  13  1   
 26  11  35  1   
 27  11  36  1   
 28  12  13  1   
 29  12  14  am  
 30  13  37  1   
 31  13  38  1   
 32  14  15  2   
 33  14  16  1   
 34  16  17  1   
 35  16  18  1   
 36  16  19  1   
 37  17  20  1   
 38  18  21  1   
 39  18  39  1   
 40  18  40  1   
 41  19  41  1   
 42  19  42  1   
 43  19  43  1   
 44  20  21  1   
 45  20  44  1   
 46  20  45  1   
 47  21  46  1   
 48  21  47  1   
@<TRIPOS>SUBSTRUCTURE
  1 ****   8 GROUP 4 **** **** 0

# MOE 2024.06 (io_trps.svl 2023.06)
