@<TRIPOS>MOLECULE
NONAME
46 48 1 0 0 
SMALL
USER_CHARGES


@<TRIPOS>ATOM
  1 F       -0.5840    -0.5840    -0.8960 F     1 <1>  -0.1900 
  2 C       -0.9960    -1.7580    -0.4880 C.ar  1 <1>   0.1900 
  3 C       -0.2900    -2.9320    -0.7750 C.ar  1 <1>   0.0830 
  4 C       -2.1640    -1.7780     0.2490 C.ar  1 <1>  -0.1500 
  5 O        0.8680    -3.0400    -1.4890 O.3   1 <1>  -0.3630 
  6 C       -0.8040    -4.1240    -0.2900 C.ar  1 <1>  -0.1500 
  7 C       -2.6460    -2.9860     0.7170 C.ar  1 <1>  -0.1500 
  8 C        1.4690    -1.9470    -2.1470 C.3   1 <1>   0.0400 
  9 C       -1.9820    -4.1860     0.4580 C.ar  1 <1>   0.0530 
 10 C       -2.4690    -5.4510     0.9560 C.2   1 <1>   0.0870 
 11 O       -1.5990    -6.3740     1.2980 O.3   1 <1>  -0.0190 
 12 C       -3.7050    -5.9740     1.1850 C.2   1 <1>  -0.2330 
 13 N       -2.1590    -7.4630     1.7520 N.2   1 <1>  -0.4100 
 14 C       -3.4230    -7.2360     1.7050 C.2   1 <1>   0.3720 
 15 C       -5.0290    -5.4770     0.9430 C.2   1 <1>   1.0330 
 16 N       -4.3850    -8.1450     2.1120 N.pl3 1 <1>  -0.8520 
 17 O       -5.2180    -4.4650     0.2520 O.co2 1 <1>  -0.9000 
 18 O       -6.0270    -6.0710     1.3960 O.co2 1 <1>  -0.9000 
 19 C       -4.5110    -9.3260     1.2540 C.3   1 <1>   0.2890 
 20 C       -5.6020    -9.0630     0.2120 C.3   1 <1>  -0.1600 
 21 C       -4.8630   -10.5310     2.1270 C.3   1 <1>  -0.1600 
 22 C       -5.8640   -10.2990    -0.6650 C.3   1 <1>  -0.0800 
 23 C       -5.1210   -11.7800     1.2730 C.3   1 <1>  -0.1600 
 24 C       -6.2060   -11.5160     0.2190 C.3   1 <1>  -0.1600 
 25 C       -6.9830    -9.9850    -1.6700 C.3   1 <1>   0.1200 
 26 O       -7.1500   -11.0530    -2.5380 O.3   1 <1>  -0.6800 
 27 H       -2.6930    -0.8650     0.4520 H     1 <1>   0.1500 
 28 H       -0.2740    -5.0340    -0.5040 H     1 <1>   0.1500 
 29 H       -3.5580    -3.0040     1.2900 H     1 <1>   0.1500 
 30 H        2.3270    -2.3100    -2.6830 H     1 <1>   0.0800 
 31 H        1.7780    -1.2240    -1.4130 H     1 <1>   0.0800 
 32 H        0.7610    -1.5210    -2.8360 H     1 <1>   0.0800 
 33 H       -5.2860    -7.6240     2.0690 H     1 <1>   0.4000 
 34 H       -3.5750    -9.5170     0.7530 H     1 <1>   0.0800 
 35 H       -6.5100    -8.7820     0.7180 H     1 <1>   0.0800 
 36 H       -5.3000    -8.2380    -0.4080 H     1 <1>   0.0800 
 37 H       -4.0510   -10.7170     2.8090 H     1 <1>   0.0800 
 38 H       -5.7430   -10.3030     2.7020 H     1 <1>   0.0800 
 39 H       -4.9620   -10.5060    -1.2140 H     1 <1>   0.0800 
 40 H       -4.2080   -12.0690     0.7810 H     1 <1>   0.0800 
 41 H       -5.4250   -12.5940     1.9090 H     1 <1>   0.0800 
 42 H       -7.1450   -11.3400     0.7160 H     1 <1>   0.0800 
 43 H       -6.3230   -12.3930    -0.3950 H     1 <1>   0.0800 
 44 H       -6.7400    -9.1120    -2.2540 H     1 <1>   0.0800 
 45 H       -7.9180    -9.8170    -1.1630 H     1 <1>   0.0800 
 46 H       -6.3130   -11.2390    -3.0040 H     1 <1>   0.4000 
@<TRIPOS>BOND
  1   1   2  1   
  2   2   3  ar  
  3   2   4  ar  
  4   3   5  1   
  5   3   6  ar  
  6   4   7  ar  
  7   4  27  1   
  8   5   8  1   
  9   6   9  ar  
 10   6  28  1   
 11   7   9  ar  
 12   7  29  1   
 13   8  30  1   
 14   8  31  1   
 15   8  32  1   
 16   9  10  1   
 17  10  11  1   
 18  10  12  2   
 19  11  13  1   
 20  12  14  1   
 21  12  15  1   
 22  13  14  2   
 23  14  16  1   
 24  15  17  ar  
 25  15  18  ar  
 26  16  19  1   
 27  16  33  1   
 28  19  20  1   
 29  19  21  1   
 30  19  34  1   
 31  20  22  1   
 32  20  35  1   
 33  20  36  1   
 34  21  23  1   
 35  21  37  1   
 36  21  38  1   
 37  22  24  1   
 38  22  25  1   
 39  22  39  1   
 40  23  24  1   
 41  23  40  1   
 42  23  41  1   
 43  24  42  1   
 44  24  43  1   
 45  25  26  1   
 46  25  44  1   
 47  25  45  1   
 48  26  46  1   
@<TRIPOS>SUBSTRUCTURE
  1 ****  12 GROUP 4 **** **** 0

# MOE 2024.06 (io_trps.svl 2023.06)
