@<TRIPOS>MOLECULE
NONAME
56 59 1 0 0 
SMALL
USER_CHARGES


@<TRIPOS>ATOM
  1 S       -1.1430     0.1410     1.8160 S.o2  1 <1>   1.2040 
  2 O       -1.0210     1.3270     2.6380 O.2   1 <1>  -0.6500 
  3 O       -2.0180    -0.9070     2.3030 O.2   1 <1>  -0.6500 
  4 C       -1.6560     0.6580     0.1530 C.ar  1 <1>  -0.0090 
  5 C        0.5080    -0.5340     1.5980 C.3   1 <1>   0.0890 
  6 C       -2.0120    -0.2770    -0.8240 C.ar  1 <1>   0.0860 
  7 C       -1.6910     2.0080    -0.1780 C.ar  1 <1>  -0.1500 
  8 C        1.3890     0.3220     0.6970 C.ar  1 <1>  -0.1440 
  9 C       -1.9840    -1.6930    -0.5460 C.2   1 <1>   0.5440 
 10 C       -2.3950     0.1660    -2.0880 C.ar  1 <1>  -0.1500 
 11 C       -2.0730     2.4370    -1.4360 C.ar  1 <1>  -0.1500 
 12 C        1.8690     1.5430     1.1450 C.ar  1 <1>  -0.1500 
 13 C        1.7030    -0.1070    -0.5840 C.ar  1 <1>  -0.1500 
 14 O       -0.9290    -2.2900    -0.6260 O.2   1 <1>  -0.5700 
 15 N       -3.1090    -2.3680    -0.1510 N.am  1 <1>  -0.6600 
 16 C       -2.4280     1.5110    -2.3960 C.ar  1 <1>  -0.1500 
 17 C        2.6530     2.3300     0.3190 C.ar  1 <1>  -0.1500 
 18 C        2.4860     0.6800    -1.4090 C.ar  1 <1>  -0.1500 
 19 C       -4.4280    -1.7360     0.1220 C.3   1 <1>   0.1400 
 20 C       -3.0020    -3.6540     0.5870 C.3   1 <1>   0.1400 
 21 C        2.9610     1.8990    -0.9590 C.ar  1 <1>  -0.1500 
 22 C       -5.0040    -2.5100     1.3090 C.3   1 <1>   0.2000 
 23 C       -4.3840    -3.9040     1.2000 C.3   1 <1>  -0.0800 
 24 O       -4.5750    -1.9150     2.4850 O.3   1 <1>  -0.6800 
 25 C       -5.2390    -4.8200     0.3050 C.3   1 <1>   0.0210 
 26 C       -4.6030    -6.1860     0.1380 C.2   1 <1>   0.1080 
 27 N       -4.4200    -7.0020     1.1280 N.2   1 <1>  -0.7070 
 28 C       -4.1380    -6.7060    -1.0650 C.2   1 <1>  -0.1500 
 29 N       -3.8270    -8.0780     0.5770 N.pl3 1 <1>   0.3000 
 30 C       -3.6430    -7.9220    -0.7510 C.2   1 <1>  -0.3320 
 31 C       -2.9950    -8.9580    -1.6500 C.3   1 <1>  -0.0600 
 32 H        0.9790    -0.6230     2.5570 H     1 <1>   0.0800 
 33 H        0.4490    -1.5240     1.1930 H     1 <1>   0.0800 
 34 H       -1.4130     2.7440     0.5590 H     1 <1>   0.1500 
 35 H       -2.6640    -0.5610    -2.8370 H     1 <1>   0.1500 
 36 H       -2.0900     3.4890    -1.6660 H     1 <1>   0.1500 
 37 H        1.6330     1.8930     2.1370 H     1 <1>   0.1500 
 38 H        1.3410    -1.0530    -0.9500 H     1 <1>   0.1500 
 39 H       -2.7240     1.8380    -3.3790 H     1 <1>   0.1500 
 40 H        3.0230     3.2770     0.6710 H     1 <1>   0.1500 
 41 H        2.7260     0.3430    -2.4030 H     1 <1>   0.1500 
 42 H       -4.3460    -0.6870     0.3490 H     1 <1>   0.0800 
 43 H       -5.0580    -1.8680    -0.7390 H     1 <1>   0.0800 
 44 H       -2.6830    -4.4430    -0.0710 H     1 <1>   0.0800 
 45 H       -2.2720    -3.5460     1.3730 H     1 <1>   0.0800 
 46 H        3.5700     2.5100    -1.6020 H     1 <1>   0.1500 
 47 H       -6.0810    -2.5210     1.3200 H     1 <1>   0.0800 
 48 H       -4.2940    -4.3660     2.1680 H     1 <1>   0.0800 
 49 H       -3.6070    -1.7000     2.4340 H     1 <1>   0.4000 
 50 H       -5.3760    -4.3760    -0.6650 H     1 <1>   0.0800 
 51 H       -6.2080    -4.9550     0.7520 H     1 <1>   0.0800 
 52 H       -4.1740    -6.2210    -2.0240 H     1 <1>   0.1500 
 53 H       -3.5570    -8.8960     1.1350 H     1 <1>   0.2700 
 54 H       -2.9640    -8.5990    -2.6640 H     1 <1>   0.0800 
 55 H       -3.5580    -9.8740    -1.6280 H     1 <1>   0.0800 
 56 H       -1.9890    -9.1540    -1.3260 H     1 <1>   0.0800 
@<TRIPOS>BOND
  1   1   2  2   
  2   1   3  2   
  3   1   4  1   
  4   1   5  1   
  5   4   6  ar  
  6   4   7  ar  
  7   5   8  1   
  8   5  32  1   
  9   5  33  1   
 10   6   9  1   
 11   6  10  ar  
 12   7  11  ar  
 13   7  34  1   
 14   8  12  ar  
 15   8  13  ar  
 16   9  14  2   
 17   9  15  am  
 18  10  16  ar  
 19  10  35  1   
 20  11  16  ar  
 21  11  36  1   
 22  12  17  ar  
 23  12  37  1   
 24  13  18  ar  
 25  13  38  1   
 26  15  19  1   
 27  15  20  1   
 28  16  39  1   
 29  17  21  ar  
 30  17  40  1   
 31  18  21  ar  
 32  18  41  1   
 33  19  22  1   
 34  19  42  1   
 35  19  43  1   
 36  20  23  1   
 37  20  44  1   
 38  20  45  1   
 39  21  46  1   
 40  22  23  1   
 41  22  24  1   
 42  22  47  1   
 43  23  25  1   
 44  23  48  1   
 45  24  49  1   
 46  25  26  1   
 47  25  50  1   
 48  25  51  1   
 49  26  27  2   
 50  26  28  1   
 51  27  29  1   
 52  28  30  2   
 53  28  52  1   
 54  29  30  1   
 55  29  53  1   
 56  30  31  1   
 57  31  54  1   
 58  31  55  1   
 59  31  56  1   
@<TRIPOS>SUBSTRUCTURE
  1 ****   9 GROUP 4 **** **** 0

# MOE 2024.06 (io_trps.svl 2023.06)
