@<TRIPOS>MOLECULE
NONAME
49 51 1 0 0 
SMALL
USER_CHARGES


@<TRIPOS>ATOM
  1 S       -0.0900    -0.0670    -0.5130 S.o2  1 <1>   1.0900 
  2 O        0.6250     0.5220    -1.6200 O.2   1 <1>  -0.6500 
  3 O        0.5770    -0.6890     0.6060 O.2   1 <1>  -0.6500 
  4 C       -1.2600     1.1300     0.1080 C.3   1 <1>  -0.0550 
  5 C       -1.3400    -1.1870    -1.1270 C.3   1 <1>  -0.0550 
  6 C       -2.6330     0.4440     0.2000 C.3   1 <1>  -0.0800 
  7 C       -2.7100    -0.4950    -1.0170 C.3   1 <1>  -0.1600 
  8 C       -3.7830     1.4650     0.2660 C.3   1 <1>  -0.1600 
  9 C       -5.1440     0.7810     0.4410 C.3   1 <1>   0.3430 
 10 N       -6.2170     1.7900     0.6620 N.4   1 <1>  -0.9590 
 11 C       -7.4380     1.1330     1.2150 C.3   1 <1>   0.3430 
 12 C       -6.5370     2.5680    -0.5750 C.3   1 <1>   0.3430 
 13 C       -8.4800     2.1860     1.5620 C.3   1 <1>  -0.1600 
 14 C       -7.5590     3.6530    -0.2590 C.3   1 <1>  -0.1600 
 15 C       -8.8260     3.0580     0.3570 C.3   1 <1>   0.4180 
 16 O       -9.5910     4.1030     0.8780 O.3   1 <1>  -0.5600 
 17 C       -9.6280     2.2580    -0.6710 C.2   1 <1>  -0.2880 
 18 C      -10.3960     4.8310    -0.0100 C.3   1 <1>   0.1200 
 19 C      -10.8260     2.6290    -1.1250 C.2   1 <1>  -0.2760 
 20 C      -11.4590     3.9230    -0.6440 C.3   1 <1>  -0.0220 
 21 C      -11.6590     1.8340    -2.1150 C.3   1 <1>  -0.1020 
 22 H       -1.3140     1.9480    -0.5860 H     1 <1>   0.0800 
 23 H       -0.9470     1.5130     1.0610 H     1 <1>   0.0800 
 24 H       -1.3430    -2.0720    -0.5180 H     1 <1>   0.0800 
 25 H       -1.1350    -1.4770    -2.1410 H     1 <1>   0.0800 
 26 H       -2.6350    -0.1590     1.0960 H     1 <1>   0.0800 
 27 H       -3.4940    -1.2260    -0.9230 H     1 <1>   0.0800 
 28 H       -2.8750     0.0800    -1.9130 H     1 <1>   0.0800 
 29 H       -3.7780     2.0550    -0.6340 H     1 <1>   0.0800 
 30 H       -3.6080     2.1180     1.1040 H     1 <1>   0.0800 
 31 H       -5.0890     0.1250     1.2960 H     1 <1>   0.0800 
 32 H       -5.3710     0.1810    -0.4260 H     1 <1>   0.0800 
 33 H       -5.8880     2.4590     1.3730 H     1 <1>   0.4500 
 34 H       -7.1880     0.5770     2.1050 H     1 <1>   0.0800 
 35 H       -7.8460     0.4450     0.4920 H     1 <1>   0.0800 
 36 H       -6.9350     1.9090    -1.3300 H     1 <1>   0.0800 
 37 H       -5.6460     3.0300    -0.9670 H     1 <1>   0.0800 
 38 H       -8.1110     2.8020     2.3630 H     1 <1>   0.0800 
 39 H       -9.3750     1.6980     1.9060 H     1 <1>   0.0800 
 40 H       -7.8090     4.1620    -1.1720 H     1 <1>   0.0800 
 41 H       -7.1250     4.3690     0.4170 H     1 <1>   0.0800 
 42 H       -9.1530     1.3540    -1.0020 H     1 <1>   0.1500 
 43 H       -9.7700     5.2660    -0.7680 H     1 <1>   0.0800 
 44 H      -10.8670     5.6230     0.5450 H     1 <1>   0.0800 
 45 H      -11.9090     4.4480    -1.4670 H     1 <1>   0.0800 
 46 H      -12.2290     3.7070     0.0760 H     1 <1>   0.0800 
 47 H      -11.8370     2.4140    -3.0040 H     1 <1>   0.0800 
 48 H      -12.6070     1.5750    -1.6760 H     1 <1>   0.0800 
 49 H      -11.1560     0.9260    -2.3960 H     1 <1>   0.0800 
@<TRIPOS>BOND
  1   1   2  2   
  2   1   3  2   
  3   1   4  1   
  4   1   5  1   
  5   4   6  1   
  6   4  22  1   
  7   4  23  1   
  8   5   7  1   
  9   5  24  1   
 10   5  25  1   
 11   6   7  1   
 12   6   8  1   
 13   6  26  1   
 14   7  27  1   
 15   7  28  1   
 16   8   9  1   
 17   8  29  1   
 18   8  30  1   
 19   9  10  1   
 20   9  31  1   
 21   9  32  1   
 22  10  11  1   
 23  10  12  1   
 24  10  33  1   
 25  11  13  1   
 26  11  34  1   
 27  11  35  1   
 28  12  14  1   
 29  12  36  1   
 30  12  37  1   
 31  13  15  1   
 32  13  38  1   
 33  13  39  1   
 34  14  15  1   
 35  14  40  1   
 36  14  41  1   
 37  15  16  1   
 38  15  17  1   
 39  16  18  1   
 40  17  19  2   
 41  17  42  1   
 42  18  20  1   
 43  18  43  1   
 44  18  44  1   
 45  19  20  1   
 46  19  21  1   
 47  20  45  1   
 48  20  46  1   
 49  21  47  1   
 50  21  48  1   
 51  21  49  1   
@<TRIPOS>SUBSTRUCTURE
  1 ****  10 GROUP 4 **** **** 0

# MOE 2024.06 (io_trps.svl 2023.06)
