@<TRIPOS>MOLECULE
NONAME
46 47 1 0 0 
SMALL
USER_CHARGES


@<TRIPOS>ATOM
  1 CL      -0.1380     0.3360     0.6650 Cl    1 <1>  -0.1770 
  2 C       -1.8040     0.6960     0.2960 C.ar  1 <1>   0.1770 
  3 C       -2.7570     0.6130     1.2930 C.ar  1 <1>  -0.1500 
  4 C       -2.1520     1.0610    -0.9900 C.ar  1 <1>  -0.1500 
  5 C       -4.0760     0.9020     0.9940 C.ar  1 <1>  -0.1500 
  6 C       -3.4750     1.3460    -1.2780 C.ar  1 <1>  -0.1500 
  7 C       -4.4660     1.2690    -0.2960 C.ar  1 <1>   0.0530 
  8 C       -5.8340     1.5840    -0.6220 C.2   1 <1>   0.0870 
  9 O       -6.0850     2.6520    -1.3370 O.3   1 <1>  -0.0190 
 10 C       -7.0320     0.9890    -0.3630 C.2   1 <1>  -0.0860 
 11 N       -7.3580     2.8300    -1.5640 N.2   1 <1>  -0.4100 
 12 C       -7.9460     1.8560    -0.9780 C.2   1 <1>   0.3720 
 13 C       -7.3530    -0.2370     0.3080 C.2   1 <1>   0.7160 
 14 N       -9.3320     1.7620    -1.0010 N.pl3 1 <1>  -0.8520 
 15 O       -6.5380    -0.8290     0.9870 O.2   1 <1>  -0.5700 
 16 N       -8.6010    -0.7650     0.1850 N.am  1 <1>  -0.7300 
 17 C       -9.9890     2.2440     0.2470 C.3   1 <1>   0.2090 
 18 C       -9.1030    -2.0350     0.7520 C.3   1 <1>   0.1400 
 19 C      -11.3490     1.5700     0.4240 C.3   1 <1>   0.1200 
 20 C       -9.8370    -2.8480    -0.3260 C.3   1 <1>  -0.0800 
 21 O      -11.9520     2.0830     1.5690 O.3   1 <1>  -0.5600 
 22 C      -11.0510    -2.1000    -0.9030 C.3   1 <1>  -0.2400 
 23 C      -10.2940    -4.1920     0.2540 C.3   1 <1>  -0.2400 
 24 C      -13.2000     1.5350     1.8450 C.3   1 <1>   0.0400 
 25 H       -2.4660     0.3260     2.2870 H     1 <1>   0.1500 
 26 H       -1.3940     1.1200    -1.7510 H     1 <1>   0.1500 
 27 H       -4.8170     0.8420     1.7720 H     1 <1>   0.1500 
 28 H       -3.7500     1.6310    -2.2780 H     1 <1>   0.1500 
 29 H       -9.6500     2.3610    -1.7740 H     1 <1>   0.4000 
 30 H       -9.2560    -0.2210    -0.3900 H     1 <1>   0.3700 
 31 H      -10.1220     3.3110     0.1890 H     1 <1>   0.0800 
 32 H       -9.3720     2.0180     1.1010 H     1 <1>   0.0800 
 33 H       -9.7700    -1.8160     1.5680 H     1 <1>   0.0800 
 34 H       -8.2770    -2.6080     1.1390 H     1 <1>   0.0800 
 35 H      -11.2240     0.5090     0.5510 H     1 <1>   0.0800 
 36 H      -11.9830     1.7780    -0.4200 H     1 <1>   0.0800 
 37 H       -9.1420    -3.0510    -1.1240 H     1 <1>   0.0800 
 38 H      -11.7480    -1.8510    -0.1220 H     1 <1>   0.0800 
 39 H      -11.5550    -2.7160    -1.6260 H     1 <1>   0.0800 
 40 H      -10.7440    -1.1970    -1.3990 H     1 <1>   0.0800 
 41 H      -10.9930    -4.0430     1.0580 H     1 <1>   0.0800 
 42 H       -9.4490    -4.7430     0.6300 H     1 <1>   0.0800 
 43 H      -10.7680    -4.7870    -0.5070 H     1 <1>   0.0800 
 44 H      -13.5770     1.9960     2.7420 H     1 <1>   0.0800 
 45 H      -13.0980     0.4740     1.9990 H     1 <1>   0.0800 
 46 H      -13.8680     1.7380     1.0260 H     1 <1>   0.0800 
@<TRIPOS>BOND
  1   1   2  1   
  2   2   3  ar  
  3   2   4  ar  
  4   3   5  ar  
  5   3  25  1   
  6   4   6  ar  
  7   4  26  1   
  8   5   7  ar  
  9   5  27  1   
 10   6   7  ar  
 11   6  28  1   
 12   7   8  1   
 13   8   9  1   
 14   8  10  2   
 15   9  11  1   
 16  10  12  1   
 17  10  13  1   
 18  11  12  2   
 19  12  14  1   
 20  13  15  2   
 21  13  16  am  
 22  14  17  1   
 23  14  29  1   
 24  16  18  1   
 25  16  30  1   
 26  17  19  1   
 27  17  31  1   
 28  17  32  1   
 29  18  20  1   
 30  18  33  1   
 31  18  34  1   
 32  19  21  1   
 33  19  35  1   
 34  19  36  1   
 35  20  22  1   
 36  20  23  1   
 37  20  37  1   
 38  21  24  1   
 39  22  38  1   
 40  22  39  1   
 41  22  40  1   
 42  23  41  1   
 43  23  42  1   
 44  23  43  1   
 45  24  44  1   
 46  24  45  1   
 47  24  46  1   
@<TRIPOS>SUBSTRUCTURE
  1 ****  10 GROUP 4 **** **** 0

# MOE 2024.06 (io_trps.svl 2023.06)
