@<TRIPOS>MOLECULE
NONAME
56 59 1 0 0 
SMALL
USER_CHARGES


@<TRIPOS>ATOM
  1 O        0.2070    -1.1840     2.7650 O.co2 1 <1>  -0.9000 
  2 C        0.7540    -1.4560     1.6790 C.2   1 <1>   0.9790 
  3 O        1.1840    -0.5200     0.9790 O.co2 1 <1>  -0.9000 
  4 C        0.9210    -2.8220     1.2700 C.ar  1 <1>  -0.1790 
  5 C        0.0000    -3.4540     0.4250 C.ar  1 <1>   0.4100 
  6 C        2.0100    -3.5570     1.7090 C.ar  1 <1>  -0.1500 
  7 N        0.1200    -4.7070     0.0020 N.ar  1 <1>  -0.6200 
  8 N       -1.1250    -2.8160    -0.0460 N.pl3 1 <1>  -0.8380 
  9 C        2.1260    -4.8560     1.2790 C.ar  1 <1>  -0.1500 
 10 C        1.1740    -5.4000     0.4220 C.ar  1 <1>   0.3100 
 11 C       -2.1330    -2.3470     0.9430 C.3   1 <1>   0.2090 
 12 C       -0.9470    -1.8870    -1.1800 C.3   1 <1>   0.2090 
 13 C        1.3110    -6.7700    -0.0320 C.ar  1 <1>   0.0000 
 14 C       -3.5270    -2.1930     0.2910 C.3   1 <1>   0.0000 
 15 C       -2.2880    -1.7290    -1.9040 C.3   1 <1>  -0.1600 
 16 C        2.5370    -7.2870    -0.4550 C.ar  1 <1>  -0.1500 
 17 C        0.2120    -7.6290    -0.0600 C.ar  1 <1>  -0.1500 
 18 C       -4.5000    -1.6570     1.3580 C.3   1 <1>   0.2000 
 19 C       -3.4020    -1.2680    -0.9460 C.3   1 <1>  -0.1600 
 20 C       -4.1160    -3.5710    -0.0560 C.3   1 <1>  -0.1600 
 21 C        2.6600    -8.6020    -0.8660 C.ar  1 <1>  -0.1500 
 22 C        0.3250    -8.9450    -0.4710 C.ar  1 <1>  -0.1500 
 23 O       -5.6470    -1.1310     0.7450 O.3   1 <1>  -0.5600 
 24 C       -4.9150    -2.8900     2.1680 C.3   1 <1>  -0.1600 
 25 C       -4.7600    -4.0980     1.2330 C.3   1 <1>  -0.1600 
 26 C        1.5600    -9.4430    -0.8760 C.ar  1 <1>   0.0830 
 27 C       -6.2920    -0.1400     1.4780 C.3   1 <1>   0.0400 
 28 O        1.7630   -10.7170    -1.2890 O.3   1 <1>  -0.3630 
 29 C        0.7030   -11.6420    -1.3650 C.3   1 <1>   0.0400 
 30 H        2.7300    -3.1050     2.3700 H     1 <1>   0.1500 
 31 H        2.9530    -5.4550     1.6090 H     1 <1>   0.1500 
 32 H       -2.1640    -3.0390     1.7660 H     1 <1>   0.0800 
 33 H       -1.8270    -1.3890     1.3280 H     1 <1>   0.0800 
 34 H       -0.6060    -0.9330    -0.8120 H     1 <1>   0.0800 
 35 H       -0.2020    -2.2790    -1.8510 H     1 <1>   0.0800 
 36 H       -2.1750    -1.0150    -2.6990 H     1 <1>   0.0800 
 37 H       -2.5500    -2.6750    -2.3430 H     1 <1>   0.0800 
 38 H        3.4010    -6.6480    -0.4670 H     1 <1>   0.1500 
 39 H       -0.7460    -7.2430     0.2470 H     1 <1>   0.1500 
 40 H       -4.0370    -0.8950     1.9640 H     1 <1>   0.0800 
 41 H       -4.3370    -1.2260    -1.4760 H     1 <1>   0.0800 
 42 H       -3.1740    -0.2720    -0.6080 H     1 <1>   0.0800 
 43 H       -4.8840    -3.4510    -0.8000 H     1 <1>   0.0800 
 44 H       -3.3700    -4.2480    -0.4370 H     1 <1>   0.0800 
 45 H        3.6110    -8.9870    -1.1870 H     1 <1>   0.1500 
 46 H       -0.5530    -9.5610    -0.4710 H     1 <1>   0.1500 
 47 H       -4.2390    -3.0020     2.9980 H     1 <1>   0.0800 
 48 H       -5.9160    -2.8050     2.5500 H     1 <1>   0.0800 
 49 H       -4.1210    -4.8360     1.6890 H     1 <1>   0.0800 
 50 H       -5.7150    -4.5440     1.0170 H     1 <1>   0.0800 
 51 H       -7.1680     0.1610     0.9310 H     1 <1>   0.0800 
 52 H       -5.6290     0.7000     1.5930 H     1 <1>   0.0800 
 53 H       -6.5780    -0.5320     2.4380 H     1 <1>   0.0800 
 54 H        1.0980   -12.5740    -1.7280 H     1 <1>   0.0800 
 55 H       -0.0380   -11.2680    -2.0490 H     1 <1>   0.0800 
 56 H        0.2880   -11.7790    -0.3830 H     1 <1>   0.0800 
@<TRIPOS>BOND
  1   1   2  ar  
  2   2   3  ar  
  3   2   4  1   
  4   4   5  ar  
  5   4   6  ar  
  6   5   7  ar  
  7   5   8  1   
  8   6   9  ar  
  9   6  30  1   
 10   7  10  ar  
 11   8  11  1   
 12   8  12  1   
 13   9  10  ar  
 14   9  31  1   
 15  10  13  1   
 16  11  14  1   
 17  11  32  1   
 18  11  33  1   
 19  12  15  1   
 20  12  34  1   
 21  12  35  1   
 22  13  16  ar  
 23  13  17  ar  
 24  14  18  1   
 25  14  19  1   
 26  14  20  1   
 27  15  19  1   
 28  15  36  1   
 29  15  37  1   
 30  16  21  ar  
 31  16  38  1   
 32  17  22  ar  
 33  17  39  1   
 34  18  23  1   
 35  18  24  1   
 36  18  40  1   
 37  19  41  1   
 38  19  42  1   
 39  20  25  1   
 40  20  43  1   
 41  20  44  1   
 42  21  26  ar  
 43  21  45  1   
 44  22  26  ar  
 45  22  46  1   
 46  23  27  1   
 47  24  25  1   
 48  24  47  1   
 49  24  48  1   
 50  25  49  1   
 51  25  50  1   
 52  26  28  1   
 53  27  51  1   
 54  27  52  1   
 55  27  53  1   
 56  28  29  1   
 57  29  54  1   
 58  29  55  1   
 59  29  56  1   
@<TRIPOS>SUBSTRUCTURE
  1 ****   7 GROUP 4 **** **** 0

# MOE 2024.06 (io_trps.svl 2023.06)
