@<TRIPOS>MOLECULE
NONAME
48 49 1 0 0 
SMALL
USER_CHARGES


@<TRIPOS>ATOM
  1 O        0.5280    -1.0640    -1.3650 O.3   1 <1>  -0.3630 
  2 C        0.3140    -2.2930    -0.8310 C.ar  1 <1>   0.0820 
  3 C        0.5380     0.1260    -0.6080 C.3   1 <1>   0.2000 
  4 C       -0.0420    -2.5230     0.4940 C.ar  1 <1>  -0.1500 
  5 C        0.4690    -3.3710    -1.6860 C.ar  1 <1>  -0.1500 
  6 C        0.3560     1.2810    -1.5900 C.3   1 <1>  -0.2400 
  7 C        1.8750     0.2360     0.1290 C.3   1 <1>  -0.2400 
  8 C       -0.2460    -3.8160     0.9440 C.ar  1 <1>  -0.1500 
  9 C        0.2660    -4.6630    -1.2380 C.ar  1 <1>  -0.1500 
 10 C       -0.1070    -4.8950     0.0800 C.ar  1 <1>  -0.1440 
 11 C       -0.3490    -6.3170     0.5650 C.3   1 <1>   0.4860 
 12 N       -1.7970    -6.6560     0.4930 N.4   1 <1>  -0.9590 
 13 C       -2.3310    -6.5480    -0.8930 C.3   1 <1>   0.5240 
 14 C       -2.6160    -5.9070     1.4960 C.3   1 <1>   0.3430 
 15 C       -3.2630    -7.7340    -1.1030 C.2   1 <1>   0.0460 
 16 C       -4.0090    -6.5110     1.7270 C.3   1 <1>   0.1200 
 17 N       -3.0300    -8.8980    -0.4550 N.2   1 <1>  -0.5650 
 18 C       -4.3720    -7.8260    -1.8690 C.2   1 <1>  -0.3020 
 19 O       -4.6070    -5.8050     2.7560 O.3   1 <1>  -0.6800 
 20 C       -3.9880    -9.6710    -0.8480 C.2   1 <1>   0.0060 
 21 N       -4.8410    -9.0780    -1.7110 N.pl3 1 <1>   0.0330 
 22 C       -4.1540   -11.1090    -0.3990 C.3   1 <1>  -0.0600 
 23 H       -0.2930     0.1140     0.0760 H     1 <1>   0.0800 
 24 H       -0.1600    -1.7110     1.1860 H     1 <1>   0.1500 
 25 H        0.7550    -3.1830    -2.7070 H     1 <1>   0.1500 
 26 H        1.1590     1.2940    -2.3060 H     1 <1>   0.0800 
 27 H        0.3500     2.2170    -1.0620 H     1 <1>   0.0800 
 28 H       -0.5800     1.1770    -2.1080 H     1 <1>   0.0800 
 29 H        2.6880     0.2310    -0.5750 H     1 <1>   0.0800 
 30 H        2.0010    -0.5790     0.8170 H     1 <1>   0.0800 
 31 H        1.9110     1.1550     0.6860 H     1 <1>   0.0800 
 32 H       -0.5090    -3.9640     1.9770 H     1 <1>   0.1500 
 33 H        0.4100    -5.4750    -1.9290 H     1 <1>   0.1500 
 34 H        0.0010    -6.4150     1.5800 H     1 <1>   0.0800 
 35 H        0.2150    -7.0010    -0.0470 H     1 <1>   0.0800 
 36 H       -1.9110    -7.6720     0.6770 H     1 <1>   0.4500 
 37 H       -1.5270    -6.6240    -1.6050 H     1 <1>   0.0800 
 38 H       -2.8450    -5.6130    -1.0450 H     1 <1>   0.0800 
 39 H       -2.7270    -4.8820     1.1810 H     1 <1>   0.0800 
 40 H       -2.1020    -5.9120     2.4430 H     1 <1>   0.0800 
 41 H       -3.9380    -7.5440     2.0250 H     1 <1>   0.0800 
 42 H       -4.6320    -6.4160     0.8540 H     1 <1>   0.0800 
 43 H       -4.8480    -7.1010    -2.5070 H     1 <1>   0.1500 
 44 H       -5.4970    -6.1620     2.9660 H     1 <1>   0.4000 
 45 H       -5.6640    -9.5040    -2.1540 H     1 <1>   0.2700 
 46 H       -3.3660   -11.3750     0.2820 H     1 <1>   0.0800 
 47 H       -4.1100   -11.7680    -1.2470 H     1 <1>   0.0800 
 48 H       -5.0970   -11.2370     0.1000 H     1 <1>   0.0800 
@<TRIPOS>BOND
  1   1   2  1   
  2   1   3  1   
  3   2   4  ar  
  4   2   5  ar  
  5   3   6  1   
  6   3   7  1   
  7   3  23  1   
  8   4   8  ar  
  9   4  24  1   
 10   5   9  ar  
 11   5  25  1   
 12   6  26  1   
 13   6  27  1   
 14   6  28  1   
 15   7  29  1   
 16   7  30  1   
 17   7  31  1   
 18   8  10  ar  
 19   8  32  1   
 20   9  10  ar  
 21   9  33  1   
 22  10  11  1   
 23  11  12  1   
 24  11  34  1   
 25  11  35  1   
 26  12  13  1   
 27  12  14  1   
 28  12  36  1   
 29  13  15  1   
 30  13  37  1   
 31  13  38  1   
 32  14  16  1   
 33  14  39  1   
 34  14  40  1   
 35  15  17  1   
 36  15  18  2   
 37  16  19  1   
 38  16  41  1   
 39  16  42  1   
 40  17  20  2   
 41  18  21  1   
 42  18  43  1   
 43  19  44  1   
 44  20  21  1   
 45  20  22  1   
 46  21  45  1   
 47  22  46  1   
 48  22  47  1   
 49  22  48  1   
@<TRIPOS>SUBSTRUCTURE
  1 ****  10 GROUP 4 **** **** 0

# MOE 2024.06 (io_trps.svl 2023.06)
