@<TRIPOS>MOLECULE
NONAME
50 52 1 0 0 
SMALL
USER_CHARGES


@<TRIPOS>ATOM
  1 O       -1.2250    -1.8410    -0.2990 O.3   1 <1>  -0.6800 
  2 C        0.0210    -2.1000    -0.8470 C.3   1 <1>   0.1200 
  3 C        1.0900    -2.2360     0.2810 C.3   1 <1>   0.0000 
  4 C        2.4890    -2.6510    -0.2490 C.3   1 <1>   0.4230 
  5 C        1.2700    -0.8560     0.9660 C.3   1 <1>  -0.1600 
  6 C        0.6820    -3.2810     1.3440 C.3   1 <1>  -0.1600 
  7 N        2.6440    -4.1350    -0.5790 N.4   1 <1>  -0.9590 
  8 C        2.9970    -1.6220    -1.2850 C.3   1 <1>   0.2090 
  9 C        1.8600     0.2180     0.0360 C.3   1 <1>   0.2090 
 10 C        0.6270    -4.7170     0.7860 C.3   1 <1>  -0.1600 
 11 C        1.3890    -4.9410    -0.5260 C.3   1 <1>   0.3430 
 12 C        3.4170    -4.4310    -1.8250 C.3   1 <1>   0.2630 
 13 N        3.1030    -0.2890    -0.6220 N.pl3 1 <1>  -0.8380 
 14 C        4.3160     0.0710    -0.0020 C.ar  1 <1>   0.4100 
 15 N        5.0270    -0.9580     0.4440 N.ar  1 <1>  -0.6200 
 16 C        4.7340     1.4430     0.1600 C.ar  1 <1>   0.4100 
 17 C        6.1430    -0.5790     1.0540 C.ar  1 <1>   0.1600 
 18 N        5.8530     1.7780     0.7810 N.ar  1 <1>  -0.6200 
 19 N        3.9900     2.5250    -0.3450 N.pl3 1 <1>  -0.8380 
 20 C        6.5380     0.7330     1.2180 C.ar  1 <1>   0.1600 
 21 C        4.0800     3.8460     0.3390 C.3   1 <1>   0.1290 
 22 C        3.8820     2.6250    -1.8230 C.3   1 <1>   0.1290 
 23 H       -1.8930    -1.6490    -0.9890 H     1 <1>   0.4000 
 24 H       -0.0730    -2.9910    -1.4360 H     1 <1>   0.0800 
 25 H        0.2500    -1.2880    -1.5140 H     1 <1>   0.0800 
 26 H        3.1490    -2.4940     0.5890 H     1 <1>   0.0800 
 27 H        1.9290    -0.9480     1.8120 H     1 <1>   0.0800 
 28 H        0.3260    -0.5030     1.3450 H     1 <1>   0.0800 
 29 H        1.4020    -3.2590     2.1450 H     1 <1>   0.0800 
 30 H       -0.2700    -3.0260     1.7820 H     1 <1>   0.0800 
 31 H        3.2130    -4.4880     0.2050 H     1 <1>   0.4500 
 32 H        2.3350    -1.5490    -2.1280 H     1 <1>   0.0800 
 33 H        3.9720    -1.8940    -1.6470 H     1 <1>   0.0800 
 34 H        2.0790     1.0980     0.6180 H     1 <1>   0.0800 
 35 H        1.1500     0.5080    -0.7180 H     1 <1>   0.0800 
 36 H       -0.4030    -4.9800     0.6120 H     1 <1>   0.0800 
 37 H        0.9940    -5.3990     1.5330 H     1 <1>   0.0800 
 38 H        0.7590    -4.6730    -1.3550 H     1 <1>   0.0800 
 39 H        1.6190    -5.9900    -0.6250 H     1 <1>   0.0800 
 40 H        2.8900    -4.0630    -2.6900 H     1 <1>   0.0800 
 41 H        3.5580    -5.4950    -1.9350 H     1 <1>   0.0800 
 42 H        4.3880    -3.9640    -1.7830 H     1 <1>   0.0800 
 43 H        6.7750    -1.3570     1.4450 H     1 <1>   0.1500 
 44 H        7.4610     0.9420     1.7300 H     1 <1>   0.1500 
 45 H        3.2300     4.4520     0.0810 H     1 <1>   0.0800 
 46 H        4.9840     4.3500     0.0430 H     1 <1>   0.0800 
 47 H        4.0950     3.7050     1.4060 H     1 <1>   0.0800 
 48 H        2.9230     3.0340    -2.0890 H     1 <1>   0.0800 
 49 H        3.9820     1.6540    -2.2750 H     1 <1>   0.0800 
 50 H        4.6600     3.2640    -2.2040 H     1 <1>   0.0800 
@<TRIPOS>BOND
  1   1   2  1   
  2   1  23  1   
  3   2   3  1   
  4   2  24  1   
  5   2  25  1   
  6   3   4  1   
  7   3   5  1   
  8   3   6  1   
  9   4   7  1   
 10   4   8  1   
 11   4  26  1   
 12   5   9  1   
 13   5  27  1   
 14   5  28  1   
 15   6  10  1   
 16   6  29  1   
 17   6  30  1   
 18   7  11  1   
 19   7  12  1   
 20   7  31  1   
 21   8  13  1   
 22   8  32  1   
 23   8  33  1   
 24   9  13  1   
 25   9  34  1   
 26   9  35  1   
 27  10  11  1   
 28  10  36  1   
 29  10  37  1   
 30  11  38  1   
 31  11  39  1   
 32  12  40  1   
 33  12  41  1   
 34  12  42  1   
 35  13  14  1   
 36  14  15  ar  
 37  14  16  ar  
 38  15  17  ar  
 39  16  18  ar  
 40  16  19  1   
 41  17  20  ar  
 42  17  43  1   
 43  18  20  ar  
 44  19  21  1   
 45  19  22  1   
 46  20  44  1   
 47  21  45  1   
 48  21  46  1   
 49  21  47  1   
 50  22  48  1   
 51  22  49  1   
 52  22  50  1   
@<TRIPOS>SUBSTRUCTURE
  1 ****  13 GROUP 4 **** **** 0

# MOE 2024.06 (io_trps.svl 2023.06)
