@<TRIPOS>MOLECULE
NONAME
43 45 1 0 0 
SMALL
USER_CHARGES


@<TRIPOS>ATOM
  1 O       -0.4330    -0.3370     0.2170 O.3   1 <1>  -0.3630 
  2 C       -0.2950    -1.6780     0.1740 C.ar  1 <1>   0.3920 
  3 C        0.6590     0.5530     0.1620 C.3   1 <1>   0.0400 
  4 N       -1.4150    -2.3470     0.2610 N.ar  1 <1>  -0.6200 
  5 C        0.9250    -2.3030     0.0480 C.ar  1 <1>  -0.1500 
  6 C       -1.3060    -3.6670     0.2220 C.ar  1 <1>   0.7200 
  7 C        0.9160    -3.6790     0.0130 C.ar  1 <1>   0.3920 
  8 N       -0.1910    -4.3710     0.0980 N.ar  1 <1>  -0.6200 
  9 N       -2.4780    -4.3810     0.3220 N.pl3 1 <1>  -0.8380 
 10 O        2.0370    -4.4190    -0.1100 O.3   1 <1>  -0.3630 
 11 C       -3.8070    -3.7670     0.0670 C.3   1 <1>   0.2090 
 12 C       -2.5320    -5.8480     0.1310 C.3   1 <1>   0.2090 
 13 C        3.3300    -3.8570    -0.1580 C.3   1 <1>   0.0400 
 14 C       -4.7030    -4.9250    -0.3780 C.3   1 <1>   0.2000 
 15 C       -4.0200    -6.1970     0.1240 C.3   1 <1>  -0.0800 
 16 O       -5.9790    -4.8320     0.1610 O.3   1 <1>  -0.6800 
 17 C       -4.3620    -7.4300    -0.7280 C.3   1 <1>  -0.0170 
 18 C       -3.6960    -8.6820    -0.1790 C.ar  1 <1>  -0.1430 
 19 C       -2.4730    -9.1280    -0.6390 C.ar  1 <1>  -0.1500 
 20 C       -4.2870    -9.4390     0.8120 C.ar  1 <1>  -0.1500 
 21 C       -1.9160   -10.2760    -0.0990 C.ar  1 <1>   0.1600 
 22 C       -3.6450   -10.5740     1.2820 C.ar  1 <1>   0.1600 
 23 N       -2.4740   -11.0110     0.8500 N.ar  1 <1>  -0.6200 
 24 H        0.2730     1.5550     0.2240 H     1 <1>   0.0800 
 25 H        1.1740     0.4190    -0.7730 H     1 <1>   0.0800 
 26 H        1.3100     0.3620     0.9960 H     1 <1>   0.0800 
 27 H        1.8330    -1.7480    -0.0220 H     1 <1>   0.1500 
 28 H       -4.1650    -3.3200     0.9770 H     1 <1>   0.0800 
 29 H       -3.7400    -3.0220    -0.7070 H     1 <1>   0.0800 
 30 H       -2.0740    -6.0960    -0.8110 H     1 <1>   0.0800 
 31 H       -2.0110    -6.3560     0.9260 H     1 <1>   0.0800 
 32 H        4.0380    -4.6620    -0.2350 H     1 <1>   0.0800 
 33 H        3.5050    -3.3030     0.7470 H     1 <1>   0.0800 
 34 H        3.4050    -3.2230    -1.0240 H     1 <1>   0.0800 
 35 H       -4.7860    -4.9230    -1.4510 H     1 <1>   0.0800 
 36 H       -4.3050    -6.3760     1.1450 H     1 <1>   0.0800 
 37 H       -5.9260    -4.7890     1.1350 H     1 <1>   0.4000 
 38 H       -4.0520    -7.2710    -1.7460 H     1 <1>   0.0800 
 39 H       -5.4290    -7.5700    -0.7340 H     1 <1>   0.0800 
 40 H       -1.9460    -8.5960    -1.4090 H     1 <1>   0.1500 
 41 H       -5.2390    -9.1590     1.2220 H     1 <1>   0.1500 
 42 H       -0.9600   -10.6060    -0.4690 H     1 <1>   0.1500 
 43 H       -4.1220   -11.1530     2.0540 H     1 <1>   0.1500 
@<TRIPOS>BOND
  1   1   2  1   
  2   1   3  1   
  3   2   4  ar  
  4   2   5  ar  
  5   3  24  1   
  6   3  25  1   
  7   3  26  1   
  8   4   6  ar  
  9   5   7  ar  
 10   5  27  1   
 11   6   8  ar  
 12   6   9  1   
 13   7   8  ar  
 14   7  10  1   
 15   9  11  1   
 16   9  12  1   
 17  10  13  1   
 18  11  14  1   
 19  11  28  1   
 20  11  29  1   
 21  12  15  1   
 22  12  30  1   
 23  12  31  1   
 24  13  32  1   
 25  13  33  1   
 26  13  34  1   
 27  14  15  1   
 28  14  16  1   
 29  14  35  1   
 30  15  17  1   
 31  15  36  1   
 32  16  37  1   
 33  17  18  1   
 34  17  38  1   
 35  17  39  1   
 36  18  19  ar  
 37  18  20  ar  
 38  19  21  ar  
 39  19  40  1   
 40  20  22  ar  
 41  20  41  1   
 42  21  23  ar  
 43  21  42  1   
 44  22  23  ar  
 45  22  43  1   
@<TRIPOS>SUBSTRUCTURE
  1 ****  12 GROUP 4 **** **** 0

# MOE 2024.06 (io_trps.svl 2023.06)
