@<TRIPOS>MOLECULE
NONAME
55 59 1 0 0 
SMALL
USER_CHARGES


@<TRIPOS>ATOM
  1 N        1.3310     0.9530     1.3120 N.ar  1 <1>  -0.6200 
  2 C        0.5550     1.9650     1.6820 C.ar  1 <1>   0.4760 
  3 C        1.8240     1.0730     0.1010 C.ar  1 <1>   0.1660 
  4 N        0.2460     3.0500     0.9850 N.ar  1 <1>  -0.6200 
  5 C       -0.0470     1.8780     3.0630 C.3   1 <1>  -0.0960 
  6 C        1.5830     2.1410    -0.7070 C.ar  1 <1>  -0.1440 
  7 C        2.7290     0.0600    -0.5560 C.3   1 <1>   0.1430 
  8 C        0.7690     3.1340    -0.2210 C.ar  1 <1>   0.1600 
  9 C        2.2930     2.0100    -2.0310 C.3   1 <1>  -0.0160 
 10 C        3.8400    -0.3110     0.4400 C.3   1 <1>   0.3430 
 11 C        1.9210    -1.1940    -0.9550 C.3   1 <1>  -0.1600 
 12 C        3.2620     0.8350    -1.7920 C.3   1 <1>  -0.1600 
 13 N        4.7040    -1.4320    -0.0710 N.4   1 <1>  -0.9590 
 14 C        2.8310    -2.3610    -1.3800 C.3   1 <1>  -0.1600 
 15 C        3.9060    -2.6620    -0.3310 C.3   1 <1>   0.3430 
 16 C        5.8450    -1.6850     0.8460 C.3   1 <1>   0.4860 
 17 C        6.8010    -0.5190     0.7070 C.ar  1 <1>  -0.1440 
 18 C        6.8080     0.5030     1.6450 C.ar  1 <1>  -0.1500 
 19 C        7.6670    -0.4500    -0.3750 C.ar  1 <1>  -0.1500 
 20 C        7.6530     1.5850     1.4860 C.ar  1 <1>  -0.1500 
 21 C        8.5100     0.6360    -0.5240 C.ar  1 <1>  -0.1500 
 22 C        8.5190     1.6780     0.4000 C.ar  1 <1>   0.0000 
 23 C        9.3880     2.8250     0.2400 C.ar  1 <1>   0.3100 
 24 N        8.8300     4.0360     0.2920 N.ar  1 <1>  -0.6200 
 25 C       10.7560     2.6430     0.0410 C.ar  1 <1>  -0.1500 
 26 C        9.6420     5.0670     0.1380 C.ar  1 <1>   0.1600 
 27 C       11.5910     3.7260    -0.1180 C.ar  1 <1>  -0.1500 
 28 C       11.0070     4.9720    -0.0670 C.ar  1 <1>  -0.1500 
 29 H       -0.1030     0.8540     3.3840 H     1 <1>   0.0800 
 30 H       -1.0370     2.2940     3.0570 H     1 <1>   0.0800 
 31 H        0.5620     2.4320     3.7510 H     1 <1>   0.0800 
 32 H        0.5440     4.0020    -0.8170 H     1 <1>   0.1500 
 33 H        2.8180     2.9130    -2.2920 H     1 <1>   0.0800 
 34 H        1.5790     1.7690    -2.8010 H     1 <1>   0.0800 
 35 H        3.3790    -0.6040     1.3690 H     1 <1>   0.0800 
 36 H        4.4370     0.5660     0.6310 H     1 <1>   0.0800 
 37 H        1.2310    -0.9530    -1.7480 H     1 <1>   0.0800 
 38 H        1.3310    -1.5080    -0.1100 H     1 <1>   0.0800 
 39 H        3.3450     0.2210    -2.6710 H     1 <1>   0.0800 
 40 H        4.2320     1.2480    -1.5710 H     1 <1>   0.0800 
 41 H        5.1180    -1.1120    -0.9550 H     1 <1>   0.4500 
 42 H        3.3010    -2.1460    -2.3230 H     1 <1>   0.0800 
 43 H        2.2280    -3.2410    -1.5200 H     1 <1>   0.0800 
 44 H        3.4340    -2.9910     0.5810 H     1 <1>   0.0800 
 45 H        4.5450    -3.4530    -0.6890 H     1 <1>   0.0800 
 46 H        6.3540    -2.5950     0.5700 H     1 <1>   0.0800 
 47 H        5.5030    -1.7740     1.8640 H     1 <1>   0.0800 
 48 H        6.1590     0.4760     2.5040 H     1 <1>   0.1500 
 49 H        7.6980    -1.2340    -1.1130 H     1 <1>   0.1500 
 50 H        7.6480     2.3840     2.2090 H     1 <1>   0.1500 
 51 H        9.1710     0.6850    -1.3730 H     1 <1>   0.1500 
 52 H       11.1590     1.6480     0.0170 H     1 <1>   0.1500 
 53 H        9.1950     6.0470     0.1780 H     1 <1>   0.1500 
 54 H       12.6500     3.6070    -0.2730 H     1 <1>   0.1500 
 55 H       11.5990     5.8610    -0.1830 H     1 <1>   0.1500 
@<TRIPOS>BOND
  1   1   2  ar  
  2   1   3  ar  
  3   2   4  ar  
  4   2   5  1   
  5   3   6  ar  
  6   3   7  1   
  7   4   8  ar  
  8   5  29  1   
  9   5  30  1   
 10   5  31  1   
 11   6   8  ar  
 12   6   9  1   
 13   7  10  1   
 14   7  11  1   
 15   7  12  1   
 16   8  32  1   
 17   9  12  1   
 18   9  33  1   
 19   9  34  1   
 20  10  13  1   
 21  10  35  1   
 22  10  36  1   
 23  11  14  1   
 24  11  37  1   
 25  11  38  1   
 26  12  39  1   
 27  12  40  1   
 28  13  15  1   
 29  13  16  1   
 30  13  41  1   
 31  14  15  1   
 32  14  42  1   
 33  14  43  1   
 34  15  44  1   
 35  15  45  1   
 36  16  17  1   
 37  16  46  1   
 38  16  47  1   
 39  17  18  ar  
 40  17  19  ar  
 41  18  20  ar  
 42  18  48  1   
 43  19  21  ar  
 44  19  49  1   
 45  20  22  ar  
 46  20  50  1   
 47  21  22  ar  
 48  21  51  1   
 49  22  23  1   
 50  23  24  ar  
 51  23  25  ar  
 52  24  26  ar  
 53  25  27  ar  
 54  25  52  1   
 55  26  28  ar  
 56  26  53  1   
 57  27  28  ar  
 58  27  54  1   
 59  28  55  1   
@<TRIPOS>SUBSTRUCTURE
  1 ****  10 GROUP 4 **** **** 0

# MOE 2024.06 (io_trps.svl 2023.06)
