@<TRIPOS>MOLECULE
NONAME
49 51 1 0 0 
SMALL
USER_CHARGES


@<TRIPOS>ATOM
  1 S       -0.7330     0.8500    -0.2620 S.3   1 <1>  -0.0800 
  2 C       -0.6230    -0.8420    -0.6660 C.2   1 <1>  -0.1400 
  3 C        0.6110     0.6460     0.8370 C.2   1 <1>   0.1980 
  4 C        0.3850    -1.3880     0.0350 C.2   1 <1>   0.0460 
  5 C       -1.6190    -1.3820    -1.6630 C.3   1 <1>   0.5230 
  6 N        1.0680    -0.5390     0.8820 N.2   1 <1>  -0.5650 
  7 C        1.0830     1.8610     1.6010 C.3   1 <1>  -0.0600 
  8 C        0.8670    -2.8240     0.0140 C.3   1 <1>  -0.0590 
  9 N       -2.9830    -1.2040    -1.1090 N.4   1 <1>  -0.9590 
 10 C       -3.2180    -1.9150     0.1730 C.3   1 <1>   0.3430 
 11 C       -4.0740    -1.4390    -2.0930 C.3   1 <1>   0.3430 
 12 C       -4.4560    -1.3320     0.8620 C.3   1 <1>  -0.1600 
 13 C       -5.4520    -1.2760    -1.4380 C.3   1 <1>  -0.1600 
 14 C       -5.4070    -0.5550    -0.0750 C.3   1 <1>   0.2800 
 15 O       -4.7820     0.6920    -0.3200 O.3   1 <1>  -0.5600 
 16 C       -6.8090    -0.4000     0.5930 C.3   1 <1>   0.2000 
 17 C       -5.4520     1.8730     0.0270 C.3   1 <1>   0.1200 
 18 O       -7.4790    -1.6270     0.6440 O.3   1 <1>  -0.6800 
 19 C       -7.6990     0.7230    -0.0230 C.3   1 <1>   0.2800 
 20 C       -6.8420     1.8560    -0.6090 C.3   1 <1>  -0.1600 
 21 O       -8.4210     1.2590     1.0240 O.3   1 <1>  -0.6800 
 22 C       -8.7520     0.2620    -1.0410 C.3   1 <1>  -0.2400 
 23 H       -1.4260    -2.4250    -1.8500 H     1 <1>   0.0800 
 24 H       -1.5210    -0.8390    -2.5890 H     1 <1>   0.0800 
 25 H        1.9050     1.5900     2.2380 H     1 <1>   0.0800 
 26 H        0.2840     2.2460     2.2060 H     1 <1>   0.0800 
 27 H        1.4100     2.6200     0.9150 H     1 <1>   0.0800 
 28 H        0.2950    -3.4220    -0.6680 H     1 <1>   0.0800 
 29 H        0.7900    -3.2440     1.0010 H     1 <1>   0.0800 
 30 H        1.9000    -2.8490    -0.2850 H     1 <1>   0.0800 
 31 H       -3.0790    -0.2020    -0.8530 H     1 <1>   0.4500 
 32 H       -3.3700    -2.9640    -0.0190 H     1 <1>   0.0800 
 33 H       -2.3670    -1.8080     0.8290 H     1 <1>   0.0800 
 34 H       -3.9840    -0.7210    -2.8930 H     1 <1>   0.0800 
 35 H       -3.9930    -2.4280    -2.5150 H     1 <1>   0.0800 
 36 H       -4.1510    -0.6900     1.6690 H     1 <1>   0.0800 
 37 H       -4.9840    -2.1560     1.3090 H     1 <1>   0.0800 
 38 H       -5.8770    -2.2550    -1.3050 H     1 <1>   0.0800 
 39 H       -6.0950    -0.7510    -2.1160 H     1 <1>   0.0800 
 40 H       -6.6220    -0.1300     1.6190 H     1 <1>   0.0800 
 41 H       -5.5080     1.9470     1.1010 H     1 <1>   0.0800 
 42 H       -4.8750     2.7010    -0.3480 H     1 <1>   0.0800 
 43 H       -8.3340    -1.4940     1.1050 H     1 <1>   0.4000 
 44 H       -6.7120     1.7170    -1.6670 H     1 <1>   0.0800 
 45 H       -7.3220     2.8090    -0.4690 H     1 <1>   0.0800 
 46 H       -9.0770     1.8970     0.6830 H     1 <1>   0.4000 
 47 H       -8.2860    -0.2450    -1.8640 H     1 <1>   0.0800 
 48 H       -9.2930     1.1040    -1.4360 H     1 <1>   0.0800 
 49 H       -9.4520    -0.4180    -0.5900 H     1 <1>   0.0800 
@<TRIPOS>BOND
  1   1   2  1   
  2   1   3  1   
  3   2   4  2   
  4   2   5  1   
  5   3   6  2   
  6   3   7  1   
  7   4   6  1   
  8   4   8  1   
  9   5   9  1   
 10   5  23  1   
 11   5  24  1   
 12   7  25  1   
 13   7  26  1   
 14   7  27  1   
 15   8  28  1   
 16   8  29  1   
 17   8  30  1   
 18   9  10  1   
 19   9  11  1   
 20   9  31  1   
 21  10  12  1   
 22  10  32  1   
 23  10  33  1   
 24  11  13  1   
 25  11  34  1   
 26  11  35  1   
 27  12  14  1   
 28  12  36  1   
 29  12  37  1   
 30  13  14  1   
 31  13  38  1   
 32  13  39  1   
 33  14  15  1   
 34  14  16  1   
 35  15  17  1   
 36  16  18  1   
 37  16  19  1   
 38  16  40  1   
 39  17  20  1   
 40  17  41  1   
 41  17  42  1   
 42  18  43  1   
 43  19  20  1   
 44  19  21  1   
 45  19  22  1   
 46  20  44  1   
 47  20  45  1   
 48  21  46  1   
 49  22  47  1   
 50  22  48  1   
 51  22  49  1   
@<TRIPOS>SUBSTRUCTURE
  1 ****   9 GROUP 4 **** **** 0

# MOE 2024.06 (io_trps.svl 2023.06)
