@<TRIPOS>MOLECULE
NONAME
50 52 1 0 0 
SMALL
USER_CHARGES


@<TRIPOS>ATOM
  1 O       -1.0020     0.6290     2.1660 O.3   1 <1>  -0.0190 
  2 N        0.0020     1.4440     2.1040 N.2   1 <1>  -0.4100 
  3 C       -1.8130     1.0510     1.2310 C.2   1 <1>   0.2980 
  4 C       -0.2330     2.2950     1.1670 C.2   1 <1>   0.4620 
  5 N       -1.4150     2.0680     0.5820 N.2   1 <1>  -0.5650 
  6 C       -3.1280     0.3110     1.0190 C.3   1 <1>   0.2900 
  7 C        0.6490     3.3800     0.7670 C.ar  1 <1>   0.0540 
  8 N       -2.9720    -1.0720     0.4950 N.3   1 <1>  -0.8100 
  9 C        0.3120     4.2600    -0.2640 C.ar  1 <1>  -0.1500 
 10 C        1.8760     3.5840     1.4010 C.ar  1 <1>  -0.1500 
 11 C       -4.2820    -1.7670     0.4950 C.3   1 <1>   0.2480 
 12 C       -2.3560    -1.0900    -0.8470 C.3   1 <1>   0.1100 
 13 C        1.1490     5.2950    -0.6470 C.ar  1 <1>  -0.1430 
 14 C        2.7210     4.6120     1.0260 C.ar  1 <1>  -0.1500 
 15 C       -4.1220    -3.2820     0.3330 C.2   1 <1>  -0.0380 
 16 C       -0.8740    -1.4360    -0.7310 C.3   1 <1>  -0.2400 
 17 C        2.3590     5.4680     0.0020 C.ar  1 <1>  -0.1500 
 18 C        0.7490     6.2320    -1.7730 C.3   1 <1>  -0.0970 
 19 N       -2.9650    -3.7970     0.8640 N.pl3 1 <1>  -0.6000 
 20 C       -5.0140    -4.1210    -0.2730 C.2   1 <1>  -0.1240 
 21 C       -2.6560    -5.1300     0.8110 C.2   1 <1>  -0.0500 
 22 C       -4.7250    -5.5210    -0.3620 C.2   1 <1>   0.5410 
 23 C       -6.3420    -3.6520    -0.8740 C.3   1 <1>  -0.1020 
 24 C       -3.5080    -6.0020     0.2130 C.2   1 <1>  -0.1240 
 25 O       -5.5020    -6.2960    -0.9220 O.2   1 <1>  -0.5700 
 26 C       -3.1900    -7.4900     0.1390 C.3   1 <1>  -0.1020 
 27 H       -3.7390     0.8840     0.3430 H     1 <1>   0.0800 
 28 H       -3.6310     0.2740     1.9690 H     1 <1>   0.0800 
 29 H       -0.6260     4.1280    -0.7740 H     1 <1>   0.1500 
 30 H        2.1730     2.9270     2.1990 H     1 <1>   0.1500 
 31 H       -4.9000    -1.3590    -0.2840 H     1 <1>   0.0800 
 32 H       -4.7710    -1.5990     1.4390 H     1 <1>   0.0800 
 33 H       -2.4780    -0.1400    -1.3410 H     1 <1>   0.0800 
 34 H       -2.8210    -1.8420    -1.4630 H     1 <1>   0.0800 
 35 H        3.6620     4.7470     1.5310 H     1 <1>   0.1500 
 36 H       -0.3370    -0.6860    -0.1820 H     1 <1>   0.0800 
 37 H       -0.4450    -1.4970    -1.7140 H     1 <1>   0.0800 
 38 H       -0.7490    -2.3880    -0.2500 H     1 <1>   0.0800 
 39 H        3.0210     6.2660    -0.2860 H     1 <1>   0.1500 
 40 H       -0.3200     6.2620    -1.8790 H     1 <1>   0.0800 
 41 H        1.1800     5.8920    -2.6980 H     1 <1>   0.0800 
 42 H        1.0980     7.2290    -1.5720 H     1 <1>   0.0800 
 43 H       -2.3030    -3.0940     1.2340 H     1 <1>   0.4000 
 44 H       -1.7240    -5.4420     1.2530 H     1 <1>   0.1500 
 45 H       -7.1410    -4.2780    -0.5160 H     1 <1>   0.0800 
 46 H       -6.3020    -3.7390    -1.9450 H     1 <1>   0.0800 
 47 H       -6.5840    -2.6400    -0.6160 H     1 <1>   0.0800 
 48 H       -3.9630    -8.0520     0.6320 H     1 <1>   0.0800 
 49 H       -2.2490    -7.7090     0.6110 H     1 <1>   0.0800 
 50 H       -3.1430    -7.8010    -0.8890 H     1 <1>   0.0800 
@<TRIPOS>BOND
  1   1   2  1   
  2   1   3  1   
  3   2   4  2   
  4   3   5  2   
  5   3   6  1   
  6   4   5  1   
  7   4   7  1   
  8   6   8  1   
  9   6  27  1   
 10   6  28  1   
 11   7   9  ar  
 12   7  10  ar  
 13   8  11  1   
 14   8  12  1   
 15   9  13  ar  
 16   9  29  1   
 17  10  14  ar  
 18  10  30  1   
 19  11  15  1   
 20  11  31  1   
 21  11  32  1   
 22  12  16  1   
 23  12  33  1   
 24  12  34  1   
 25  13  17  ar  
 26  13  18  1   
 27  14  17  ar  
 28  14  35  1   
 29  15  19  1   
 30  15  20  2   
 31  16  36  1   
 32  16  37  1   
 33  16  38  1   
 34  17  39  1   
 35  18  40  1   
 36  18  41  1   
 37  18  42  1   
 38  19  21  1   
 39  19  43  1   
 40  20  22  1   
 41  20  23  1   
 42  21  24  2   
 43  21  44  1   
 44  22  24  1   
 45  22  25  2   
 46  23  45  1   
 47  23  46  1   
 48  23  47  1   
 49  24  26  1   
 50  26  48  1   
 51  26  49  1   
 52  26  50  1   
@<TRIPOS>SUBSTRUCTURE
  1 ****   8 GROUP 4 **** **** 0

# MOE 2024.06 (io_trps.svl 2023.06)
