@<TRIPOS>MOLECULE
NONAME
44 46 1 0 0 
SMALL
USER_CHARGES


@<TRIPOS>ATOM
  1 O       -1.5240    -1.2050    -0.2040 O.3   1 <1>  -0.3630 
  2 C       -2.1540    -0.0190    -0.0250 C.ar  1 <1>   0.3920 
  3 C       -0.3270    -1.2790    -0.9620 C.3   1 <1>   0.0400 
  4 N       -1.7000     1.0390    -0.6830 N.ar  1 <1>  -0.6200 
  5 C       -3.2530     0.0040     0.8300 C.ar  1 <1>  -0.1430 
  6 C       -2.3550     2.1690    -0.4750 C.ar  1 <1>   0.1600 
  7 C       -3.9250     1.1930     1.0320 C.ar  1 <1>  -0.1500 
  8 C       -3.6920    -1.2650     1.5260 C.3   1 <1>   0.4870 
  9 C       -3.4530     2.2980     0.3560 C.ar  1 <1>  -0.1500 
 10 N       -4.1100    -2.2570     0.5010 N.4   1 <1>  -0.9590 
 11 C       -5.3490    -1.8130    -0.2140 C.3   1 <1>   0.3430 
 12 C       -4.4000    -3.5850     1.1200 C.3   1 <1>   0.3430 
 13 C       -6.4780    -2.6970     0.3250 C.3   1 <1>   0.2000 
 14 C       -5.7760    -4.0230     0.6020 C.3   1 <1>  -0.0800 
 15 O       -6.8980    -2.1700     1.5420 O.3   1 <1>  -0.6800 
 16 C       -5.6650    -4.8950    -0.6670 C.3   1 <1>  -0.0170 
 17 C       -4.7040    -6.0510    -0.4480 C.ar  1 <1>  -0.1430 
 18 C       -4.9920    -7.0860     0.4200 C.ar  1 <1>  -0.1500 
 19 C       -3.4870    -6.1200    -1.0990 C.ar  1 <1>  -0.1500 
 20 C       -4.0660    -8.1000     0.6060 C.ar  1 <1>   0.1600 
 21 C       -2.6330    -7.1800    -0.8410 C.ar  1 <1>   0.1600 
 22 N       -2.8910    -8.1620     0.0050 N.ar  1 <1>  -0.6200 
 23 H        0.0260    -2.2940    -0.9500 H     1 <1>   0.0800 
 24 H        0.4070    -0.6290    -0.5190 H     1 <1>   0.0800 
 25 H       -0.5310    -0.9700    -1.9730 H     1 <1>   0.0800 
 26 H       -1.9950     3.0420    -0.9970 H     1 <1>   0.1500 
 27 H       -4.7780     1.2740     1.6860 H     1 <1>   0.1500 
 28 H       -4.5130    -1.0590     2.1950 H     1 <1>   0.0800 
 29 H       -2.8670    -1.6540     2.1000 H     1 <1>   0.0800 
 30 H       -3.9290     3.2570     0.4710 H     1 <1>   0.1500 
 31 H       -3.3180    -2.3200    -0.1600 H     1 <1>   0.4500 
 32 H       -5.5660    -0.7690    -0.0540 H     1 <1>   0.0800 
 33 H       -5.2350    -1.9880    -1.2700 H     1 <1>   0.0800 
 34 H       -3.6340    -4.3060     0.8870 H     1 <1>   0.0800 
 35 H       -4.4580    -3.4780     2.1920 H     1 <1>   0.0800 
 36 H       -7.3210    -2.7610    -0.3420 H     1 <1>   0.0800 
 37 H       -6.2910    -4.5890     1.3580 H     1 <1>   0.0800 
 38 H       -7.7400    -2.5810     1.8360 H     1 <1>   0.4000 
 39 H       -5.3270    -4.3110    -1.5050 H     1 <1>   0.0800 
 40 H       -6.6350    -5.2890    -0.9220 H     1 <1>   0.0800 
 41 H       -5.9240    -7.1240     0.9530 H     1 <1>   0.1500 
 42 H       -3.1880    -5.3700    -1.8080 H     1 <1>   0.1500 
 43 H       -4.3040    -8.9010     1.2860 H     1 <1>   0.1500 
 44 H       -1.6880    -7.2230    -1.3570 H     1 <1>   0.1500 
@<TRIPOS>BOND
  1   1   2  1   
  2   1   3  1   
  3   2   4  ar  
  4   2   5  ar  
  5   3  23  1   
  6   3  24  1   
  7   3  25  1   
  8   4   6  ar  
  9   5   7  ar  
 10   5   8  1   
 11   6   9  ar  
 12   6  26  1   
 13   7   9  ar  
 14   7  27  1   
 15   8  10  1   
 16   8  28  1   
 17   8  29  1   
 18   9  30  1   
 19  10  11  1   
 20  10  12  1   
 21  10  31  1   
 22  11  13  1   
 23  11  32  1   
 24  11  33  1   
 25  12  14  1   
 26  12  34  1   
 27  12  35  1   
 28  13  14  1   
 29  13  15  1   
 30  13  36  1   
 31  14  16  1   
 32  14  37  1   
 33  15  38  1   
 34  16  17  1   
 35  16  39  1   
 36  16  40  1   
 37  17  18  ar  
 38  17  19  ar  
 39  18  20  ar  
 40  18  41  1   
 41  19  21  ar  
 42  19  42  1   
 43  20  22  ar  
 44  20  43  1   
 45  21  22  ar  
 46  21  44  1   
@<TRIPOS>SUBSTRUCTURE
  1 ****  10 GROUP 4 **** **** 0

# MOE 2024.06 (io_trps.svl 2023.06)
