@<TRIPOS>MOLECULE
NONAME
50 53 1 0 0 
SMALL
USER_CHARGES


@<TRIPOS>ATOM
  1 O        0.2450     1.2750     1.6110 O.2   1 <1>  -0.5700 
  2 C        0.2970     2.3350     1.0140 C.2   1 <1>   0.5440 
  3 N       -0.8810     2.9800     0.7000 N.am  1 <1>  -0.6600 
  4 C        1.5910     2.8870     0.6640 C.ar  1 <1>   0.0860 
  5 C       -2.1910     2.2730     0.8780 C.3   1 <1>   0.1400 
  6 C       -0.9350     4.4280     0.3380 C.3   1 <1>   0.1400 
  7 C        1.8910     3.2990    -0.6350 C.ar  1 <1>  -0.1500 
  8 C        2.5950     3.0190     1.6220 C.ar  1 <1>  -0.1500 
  9 C       -3.3130     2.8650    -0.0070 C.3   1 <1>   0.0000 
 10 C       -2.2250     5.0630     0.8590 C.3   1 <1>  -0.1600 
 11 C        3.1250     3.8320    -0.9580 C.ar  1 <1>  -0.1500 
 12 C        3.8310     3.5510     1.3070 C.ar  1 <1>  -0.1500 
 13 C       -4.6080     2.0530     0.2100 C.3   1 <1>   0.2000 
 14 C       -3.4930     4.3750     0.3180 C.3   1 <1>  -0.1600 
 15 C       -3.0130     2.6010    -1.4980 C.3   1 <1>  -0.1600 
 16 C        4.1140     3.9680     0.0110 C.ar  1 <1>  -0.0230 
 17 O       -5.7020     2.7780    -0.2790 O.3   1 <1>  -0.5600 
 18 C       -4.4420     0.7950    -0.6510 C.3   1 <1>  -0.1600 
 19 C       -3.4680     1.1650    -1.7770 C.3   1 <1>  -0.1600 
 20 N        5.3800     4.5130    -0.3170 N.pl3 1 <1>   0.3260 
 21 C       -6.9310     2.4460     0.2850 C.3   1 <1>   0.0400 
 22 C        6.6130     4.0810     0.0630 C.2   1 <1>   0.0360 
 23 C        5.6520     5.5960    -1.0820 C.2   1 <1>  -0.3020 
 24 N        7.5990     4.7860    -0.3870 N.2   1 <1>  -0.5650 
 25 C        6.9930     5.7450    -1.1120 C.2   1 <1>   0.0770 
 26 H       -2.0560     1.2290     0.6540 H     1 <1>   0.0800 
 27 H       -2.4750     2.3480     1.9130 H     1 <1>   0.0800 
 28 H       -0.0920     4.9440     0.7630 H     1 <1>   0.0800 
 29 H       -0.8920     4.5290    -0.7320 H     1 <1>   0.0800 
 30 H        1.1400     3.1890    -1.3980 H     1 <1>   0.1500 
 31 H        2.3890     2.6920     2.6280 H     1 <1>   0.1500 
 32 H       -2.2160     5.0010     1.9340 H     1 <1>   0.0800 
 33 H       -2.2450     6.1060     0.5990 H     1 <1>   0.0800 
 34 H        3.3230     4.1370    -1.9710 H     1 <1>   0.1500 
 35 H        4.5770     3.6430     2.0780 H     1 <1>   0.1500 
 36 H       -4.7670     1.8300     1.2510 H     1 <1>   0.0800 
 37 H       -3.8360     4.8920    -0.5610 H     1 <1>   0.0800 
 38 H       -4.2630     4.4910     1.0600 H     1 <1>   0.0800 
 39 H       -3.6090     3.2610    -2.1050 H     1 <1>   0.0800 
 40 H       -1.9800     2.7420    -1.7560 H     1 <1>   0.0800 
 41 H       -4.0070     0.0140    -0.0540 H     1 <1>   0.0800 
 42 H       -5.3810     0.4440    -1.0400 H     1 <1>   0.0800 
 43 H       -2.6220     0.4980    -1.7640 H     1 <1>   0.0800 
 44 H       -3.9470     1.1030    -2.7390 H     1 <1>   0.0800 
 45 H       -7.6880     3.0440    -0.1910 H     1 <1>   0.0800 
 46 H       -6.9070     2.6630     1.3380 H     1 <1>   0.0800 
 47 H       -7.1350     1.4030     0.1170 H     1 <1>   0.0800 
 48 H        6.7270     3.2130     0.6870 H     1 <1>   0.1500 
 49 H        4.8840     6.1850    -1.5450 H     1 <1>   0.1500 
 50 H        7.5670     6.5020    -1.6230 H     1 <1>   0.1500 
@<TRIPOS>BOND
  1   1   2  2   
  2   2   3  am  
  3   2   4  1   
  4   3   5  1   
  5   3   6  1   
  6   4   7  ar  
  7   4   8  ar  
  8   5   9  1   
  9   5  26  1   
 10   5  27  1   
 11   6  10  1   
 12   6  28  1   
 13   6  29  1   
 14   7  11  ar  
 15   7  30  1   
 16   8  12  ar  
 17   8  31  1   
 18   9  13  1   
 19   9  14  1   
 20   9  15  1   
 21  10  14  1   
 22  10  32  1   
 23  10  33  1   
 24  11  16  ar  
 25  11  34  1   
 26  12  16  ar  
 27  12  35  1   
 28  13  17  1   
 29  13  18  1   
 30  13  36  1   
 31  14  37  1   
 32  14  38  1   
 33  15  19  1   
 34  15  39  1   
 35  15  40  1   
 36  16  20  1   
 37  17  21  1   
 38  18  19  1   
 39  18  41  1   
 40  18  42  1   
 41  19  43  1   
 42  19  44  1   
 43  20  22  1   
 44  20  23  1   
 45  21  45  1   
 46  21  46  1   
 47  21  47  1   
 48  22  24  2   
 49  22  48  1   
 50  23  25  2   
 51  23  49  1   
 52  24  25  1   
 53  25  50  1   
@<TRIPOS>SUBSTRUCTURE
  1 ****   2 GROUP 4 **** **** 0

# MOE 2024.06 (io_trps.svl 2023.06)
