@<TRIPOS>MOLECULE
NONAME
51 53 1 0 0 
SMALL
USER_CHARGES


@<TRIPOS>ATOM
  1 O        1.7020    -0.0970    -2.4320 O.2   1 <1>  -0.5700 
  2 C        1.5910    -0.9340    -1.5500 C.2   1 <1>   0.5440 
  3 N        2.3570    -0.7420    -0.4110 N.am  1 <1>  -0.6600 
  4 C        0.6930    -2.0740    -1.7690 C.ar  1 <1>   0.3960 
  5 C        3.3240     0.3700    -0.2770 C.3   1 <1>   0.1400 
  6 C        2.4530    -1.6600     0.7490 C.3   1 <1>   0.1400 
  7 N        0.1260    -2.7310    -0.7430 N.ar  1 <1>  -0.6200 
  8 C        0.4430    -2.4540    -3.0930 C.ar  1 <1>   0.1600 
  9 C        4.2880    -0.0840     0.8110 C.3   1 <1>  -0.1600 
 10 C        3.4570    -1.0090     1.6950 C.3   1 <1>  -0.1600 
 11 C       -0.6620    -3.7290    -1.1040 C.ar  1 <1>   0.4100 
 12 N       -0.3380    -3.4540    -3.4810 N.ar  1 <1>  -0.6200 
 13 N       -1.2640    -4.4520    -0.0820 N.pl3 1 <1>  -0.8380 
 14 C       -0.8810    -4.0640    -2.4490 C.ar  1 <1>   0.1600 
 15 C       -0.9780    -5.9020     0.0350 C.3   1 <1>   0.2090 
 16 C       -1.6000    -3.7660     1.2010 C.3   1 <1>   0.1290 
 17 C       -2.2860    -6.6850    -0.0560 C.3   1 <1>  -0.1600 
 18 C       -2.0240    -8.1960    -0.0170 C.3   1 <1>   0.0960 
 19 N       -3.2930    -8.9490     0.0060 N.pl3 1 <1>   0.3140 
 20 N       -3.8630    -9.2950     1.1730 N.2   1 <1>  -0.7070 
 21 C       -4.0260    -9.3790    -1.0480 C.2   1 <1>  -0.3320 
 22 C       -4.9400    -9.9340     0.8420 C.2   1 <1>   0.1080 
 23 C       -5.0970   -10.0200    -0.5350 C.2   1 <1>  -0.1500 
 24 C       -3.6760    -9.1620    -2.5100 C.3   1 <1>  -0.0600 
 25 C       -5.8890   -10.5040     1.8680 C.3   1 <1>  -0.0590 
 26 H        2.7950     1.2570     0.0270 H     1 <1>   0.0800 
 27 H        3.8350     0.5560    -1.2070 H     1 <1>   0.0800 
 28 H        2.8100    -2.6190     0.4150 H     1 <1>   0.0800 
 29 H        1.4950    -1.7730     1.2290 H     1 <1>   0.0800 
 30 H        0.9210    -1.8920    -3.8770 H     1 <1>   0.1500 
 31 H        4.6970     0.7490     1.3550 H     1 <1>   0.0800 
 32 H        5.0920    -0.6350     0.3560 H     1 <1>   0.0800 
 33 H        4.0590    -1.7410     2.2030 H     1 <1>   0.0800 
 34 H        2.9210    -0.4290     2.4250 H     1 <1>   0.0800 
 35 H       -1.5490    -4.8800    -2.6490 H     1 <1>   0.1500 
 36 H       -0.4900    -6.0990     0.9760 H     1 <1>   0.0800 
 37 H       -0.3110    -6.2060    -0.7550 H     1 <1>   0.0800 
 38 H       -1.8710    -2.7410     1.0100 H     1 <1>   0.0800 
 39 H       -0.7500    -3.7830     1.8590 H     1 <1>   0.0800 
 40 H       -2.4320    -4.2560     1.6770 H     1 <1>   0.0800 
 41 H       -2.7910    -6.4320    -0.9700 H     1 <1>   0.0800 
 42 H       -2.9150    -6.4210     0.7760 H     1 <1>   0.0800 
 43 H       -1.4770    -8.4530     0.8730 H     1 <1>   0.0800 
 44 H       -1.4530    -8.5060    -0.8720 H     1 <1>   0.0800 
 45 H       -5.9090   -10.5000    -1.0510 H     1 <1>   0.1500 
 46 H       -3.6230    -8.1110    -2.7300 H     1 <1>   0.0800 
 47 H       -4.4290    -9.6030    -3.1380 H     1 <1>   0.0800 
 48 H       -2.7300    -9.6200    -2.7400 H     1 <1>   0.0800 
 49 H       -5.3650   -11.2110     2.4850 H     1 <1>   0.0800 
 50 H       -6.7120   -10.9970     1.3860 H     1 <1>   0.0800 
 51 H       -6.2640    -9.7110     2.4870 H     1 <1>   0.0800 
@<TRIPOS>BOND
  1   1   2  2   
  2   2   3  am  
  3   2   4  1   
  4   3   5  1   
  5   3   6  1   
  6   4   7  ar  
  7   4   8  ar  
  8   5   9  1   
  9   5  26  1   
 10   5  27  1   
 11   6  10  1   
 12   6  28  1   
 13   6  29  1   
 14   7  11  ar  
 15   8  12  ar  
 16   8  30  1   
 17   9  10  1   
 18   9  31  1   
 19   9  32  1   
 20  10  33  1   
 21  10  34  1   
 22  11  13  1   
 23  11  14  ar  
 24  12  14  ar  
 25  13  15  1   
 26  13  16  1   
 27  14  35  1   
 28  15  17  1   
 29  15  36  1   
 30  15  37  1   
 31  16  38  1   
 32  16  39  1   
 33  16  40  1   
 34  17  18  1   
 35  17  41  1   
 36  17  42  1   
 37  18  19  1   
 38  18  43  1   
 39  18  44  1   
 40  19  20  1   
 41  19  21  1   
 42  20  22  2   
 43  21  23  2   
 44  21  24  1   
 45  22  23  1   
 46  22  25  1   
 47  23  45  1   
 48  24  46  1   
 49  24  47  1   
 50  24  48  1   
 51  25  49  1   
 52  25  50  1   
 53  25  51  1   
@<TRIPOS>SUBSTRUCTURE
  1 ****  13 GROUP 4 **** **** 0

# MOE 2024.06 (io_trps.svl 2023.06)
