@<TRIPOS>MOLECULE
NONAME
57 62 1 0 0 
SMALL
USER_CHARGES


@<TRIPOS>ATOM
  1 O        0.2160    -1.2030     0.8340 O.2   1 <1>  -0.5700 
  2 C        0.2210    -2.2730     0.2510 C.2   1 <1>   0.7160 
  3 N       -0.5170    -3.3010     0.7350 N.am  1 <1>  -0.4900 
  4 C        0.9290    -2.5480    -0.9460 C.2   1 <1>  -0.0860 
  5 C       -0.6290    -4.5030     0.0800 C.2   1 <1>   0.4490 
  6 C        0.7930    -3.7710    -1.5280 C.2   1 <1>  -0.0260 
  7 C        1.8030    -1.8580    -1.7830 C.2   1 <1>   0.1390 
  8 N       -0.0080    -4.7730    -1.0150 N.2   1 <1>  -0.5760 
  9 C       -1.5770    -5.5110     0.7310 C.3   1 <1>   0.1710 
 10 N        1.5610    -3.7610    -2.6420 N.pl3 1 <1>   0.3140 
 11 N        2.1860    -2.5710    -2.7980 N.2   1 <1>  -0.7070 
 12 N       -2.6910    -4.8460     1.4610 N.3   1 <1>  -0.8100 
 13 C        1.7400    -4.8570    -3.6000 C.3   1 <1>   0.0160 
 14 C       -3.6480    -4.2220     0.5120 C.3   1 <1>   0.1100 
 15 C       -3.3930    -5.7910     2.3430 C.3   1 <1>   0.1100 
 16 C       -4.7160    -3.3970     1.2530 C.3   1 <1>   0.1430 
 17 C       -4.4610    -5.0520     3.1610 C.3   1 <1>  -0.1600 
 18 C       -5.6380    -2.7710     0.2220 C.ar  1 <1>   0.1670 
 19 C       -5.4560    -4.3070     2.2540 C.3   1 <1>  -0.1600 
 20 C       -4.0970    -2.1490     1.9390 C.3   1 <1>  -0.1600 
 21 N       -6.5610    -3.4040    -0.4630 N.ar  1 <1>  -0.6200 
 22 C       -5.3800    -1.4440     0.0640 C.ar  1 <1>  -0.1440 
 23 C       -4.2600    -0.9750     0.9590 C.3   1 <1>  -0.0170 
 24 C       -7.2600    -2.6600    -1.3310 C.ar  1 <1>   0.6200 
 25 C       -6.1320    -0.7520    -0.8490 C.ar  1 <1>   0.1600 
 26 N       -7.0720    -1.3490    -1.5470 N.ar  1 <1>  -0.6200 
 27 C       -8.3040    -3.3270    -2.0990 C.ar  1 <1>   0.0000 
 28 C       -8.2580    -4.6990    -2.3680 C.ar  1 <1>  -0.1500 
 29 C       -9.4040    -2.6270    -2.6060 C.ar  1 <1>  -0.1500 
 30 C       -9.2460    -5.3340    -3.0960 C.ar  1 <1>  -0.1500 
 31 C      -10.3970    -3.2550    -3.3360 C.ar  1 <1>  -0.1500 
 32 C      -10.3200    -4.6130    -3.5830 C.ar  1 <1>  -0.1500 
 33 H       -1.1000    -3.1540     1.5570 H     1 <1>   0.3700 
 34 H        2.1240    -0.8440    -1.6070 H     1 <1>   0.1500 
 35 H       -0.9980    -6.0960     1.4240 H     1 <1>   0.0800 
 36 H       -1.9680    -6.1750    -0.0210 H     1 <1>   0.0800 
 37 H        1.0020    -5.6160    -3.4200 H     1 <1>   0.0800 
 38 H        2.7240    -5.2680    -3.4780 H     1 <1>   0.0800 
 39 H        1.6300    -4.4710    -4.5960 H     1 <1>   0.0800 
 40 H       -4.1350    -4.9880    -0.0690 H     1 <1>   0.0800 
 41 H       -3.1270    -3.5750    -0.1730 H     1 <1>   0.0800 
 42 H       -2.6880    -6.2480     3.0170 H     1 <1>   0.0800 
 43 H       -3.8550    -6.5670     1.7550 H     1 <1>   0.0800 
 44 H       -3.9740    -4.3580     3.8230 H     1 <1>   0.0800 
 45 H       -4.9940    -5.7620     3.7690 H     1 <1>   0.0800 
 46 H       -6.0300    -5.0320     1.7040 H     1 <1>   0.0800 
 47 H       -6.1460    -3.7320     2.8460 H     1 <1>   0.0800 
 48 H       -3.0700    -2.2950     2.2200 H     1 <1>   0.0800 
 49 H       -4.6570    -1.9190     2.8280 H     1 <1>   0.0800 
 50 H       -3.3630    -0.8370     0.3790 H     1 <1>   0.0800 
 51 H       -4.5100    -0.0630     1.4720 H     1 <1>   0.0800 
 52 H       -5.9640     0.2990    -1.0100 H     1 <1>   0.1500 
 53 H       -7.4300    -5.2790    -1.9990 H     1 <1>   0.1500 
 54 H       -9.4830    -1.5690    -2.4230 H     1 <1>   0.1500 
 55 H       -9.1800    -6.3920    -3.2850 H     1 <1>   0.1500 
 56 H      -11.2290    -2.6860    -3.7110 H     1 <1>   0.1500 
 57 H      -11.0910    -5.1040    -4.1510 H     1 <1>   0.1500 
@<TRIPOS>BOND
  1   1   2  2   
  2   2   3  am  
  3   2   4  1   
  4   3   5  1   
  5   3  33  1   
  6   4   6  2   
  7   4   7  1   
  8   5   8  2   
  9   5   9  1   
 10   6   8  1   
 11   6  10  1   
 12   7  11  2   
 13   7  34  1   
 14   9  12  1   
 15   9  35  1   
 16   9  36  1   
 17  10  11  1   
 18  10  13  1   
 19  12  14  1   
 20  12  15  1   
 21  13  37  1   
 22  13  38  1   
 23  13  39  1   
 24  14  16  1   
 25  14  40  1   
 26  14  41  1   
 27  15  17  1   
 28  15  42  1   
 29  15  43  1   
 30  16  18  1   
 31  16  19  1   
 32  16  20  1   
 33  17  19  1   
 34  17  44  1   
 35  17  45  1   
 36  18  21  ar  
 37  18  22  ar  
 38  19  46  1   
 39  19  47  1   
 40  20  23  1   
 41  20  48  1   
 42  20  49  1   
 43  21  24  ar  
 44  22  23  1   
 45  22  25  ar  
 46  23  50  1   
 47  23  51  1   
 48  24  26  ar  
 49  24  27  1   
 50  25  26  ar  
 51  25  52  1   
 52  27  28  ar  
 53  27  29  ar  
 54  28  30  ar  
 55  28  53  1   
 56  29  31  ar  
 57  29  54  1   
 58  30  32  ar  
 59  30  55  1   
 60  31  32  ar  
 61  31  56  1   
 62  32  57  1   
@<TRIPOS>SUBSTRUCTURE
  1 ****  14 GROUP 4 **** **** 0

# MOE 2024.06 (io_trps.svl 2023.06)
