@<TRIPOS>MOLECULE
NONAME
54 55 1 0 0 
SMALL
USER_CHARGES


@<TRIPOS>ATOM
  1 O       -4.1430     0.5280     1.9230 O.2   1 <1>  -0.5700 
  2 C       -3.9140     0.9950     0.8260 C.2   1 <1>   0.5690 
  3 N       -4.3220     0.3540    -0.3210 N.am  1 <1>  -0.6600 
  4 C       -3.0190     2.2650     0.7680 C.3   1 <1>   0.4840 
  5 C       -4.6980    -1.0800    -0.2390 C.3   1 <1>   0.3200 
  6 C       -4.1440     0.8880    -1.7110 C.3   1 <1>   0.1400 
  7 N       -1.5740     1.9920     1.1440 N.4   1 <1>  -0.9590 
  8 C       -3.5690     3.3620     1.6890 C.3   1 <1>  -0.2400 
  9 C       -3.4160    -1.8280     0.0550 C.2   1 <1>  -0.3320 
 10 C       -5.1940     1.9520    -2.0630 C.3   1 <1>   0.1200 
 11 C       -0.6710     3.1380     0.8310 C.3   1 <1>   0.4230 
 12 C       -1.0910     0.6770     0.5850 C.3   1 <1>   0.2630 
 13 N       -3.0710    -2.2220     1.2950 N.pl3 1 <1>   0.0330 
 14 C       -2.3970    -2.1850    -0.7560 C.2   1 <1>   0.0770 
 15 O       -4.9960     3.0960    -1.2960 O.3   1 <1>  -0.6800 
 16 C       -0.3740     3.2630    -0.6710 C.3   1 <1>  -0.1600 
 17 C        0.6240     3.0470     1.6600 C.3   1 <1>  -0.1600 
 18 C       -1.8460    -2.7730     1.1620 C.2   1 <1>   0.0060 
 19 N       -1.4030    -2.7540    -0.0520 N.2   1 <1>  -0.5650 
 20 C        0.4040     4.5590    -0.9690 C.3   1 <1>  -0.1600 
 21 C        1.8010     3.8170     1.0270 C.3   1 <1>  -0.1600 
 22 C       -1.0780    -3.3540     2.3300 C.3   1 <1>  -0.0600 
 23 C        1.3130     5.0080     0.1920 C.3   1 <1>  -0.1600 
 24 H       -3.0470     2.6300    -0.2410 H     1 <1>   0.0800 
 25 H       -5.1320    -1.4190    -1.1640 H     1 <1>   0.0800 
 26 H       -5.4190    -1.2300     0.5480 H     1 <1>   0.0800 
 27 H       -4.2310     0.0820    -2.4190 H     1 <1>   0.0800 
 28 H       -3.1580     1.3000    -1.8320 H     1 <1>   0.0800 
 29 H       -1.5920     1.8860     2.1660 H     1 <1>   0.4500 
 30 H       -3.4680     3.0820     2.7230 H     1 <1>   0.0800 
 31 H       -4.6180     3.4920     1.4870 H     1 <1>   0.0800 
 32 H       -3.0940     4.3080     1.5140 H     1 <1>   0.0800 
 33 H       -6.1870     1.5780    -1.8780 H     1 <1>   0.0800 
 34 H       -5.1080     2.2300    -3.1000 H     1 <1>   0.0800 
 35 H       -1.1560     4.0540     1.1250 H     1 <1>   0.0800 
 36 H       -1.1780     0.6640    -0.4890 H     1 <1>   0.0800 
 37 H       -1.6740    -0.1380     0.9800 H     1 <1>   0.0800 
 38 H       -0.0600     0.5030     0.8460 H     1 <1>   0.0800 
 39 H       -3.6100    -2.0940     2.1590 H     1 <1>   0.2700 
 40 H       -2.3130    -2.0480    -1.8220 H     1 <1>   0.1500 
 41 H       -5.7010     3.7530    -1.4860 H     1 <1>   0.4000 
 42 H       -1.2800     3.2670    -1.2490 H     1 <1>   0.0800 
 43 H        0.2310     2.4320    -0.9890 H     1 <1>   0.0800 
 44 H        0.9380     2.0300     1.8020 H     1 <1>   0.0800 
 45 H        0.4240     3.4680     2.6290 H     1 <1>   0.0800 
 46 H       -0.2850     5.3580    -1.1910 H     1 <1>   0.0800 
 47 H        1.0040     4.4050    -1.8510 H     1 <1>   0.0800 
 48 H        2.3620     3.1560     0.3880 H     1 <1>   0.0800 
 49 H        2.4700     4.1600     1.8000 H     1 <1>   0.0800 
 50 H       -0.9250    -2.6060     3.0860 H     1 <1>   0.0800 
 51 H       -0.1200    -3.7100     1.9960 H     1 <1>   0.0800 
 52 H       -1.6210    -4.1800     2.7510 H     1 <1>   0.0800 
 53 H        0.7740     5.6860     0.8320 H     1 <1>   0.0800 
 54 H        2.1580     5.5470    -0.2030 H     1 <1>   0.0800 
@<TRIPOS>BOND
  1   1   2  2   
  2   2   3  am  
  3   2   4  1   
  4   3   5  1   
  5   3   6  1   
  6   4   7  1   
  7   4   8  1   
  8   4  24  1   
  9   5   9  1   
 10   5  25  1   
 11   5  26  1   
 12   6  10  1   
 13   6  27  1   
 14   6  28  1   
 15   7  11  1   
 16   7  12  1   
 17   7  29  1   
 18   8  30  1   
 19   8  31  1   
 20   8  32  1   
 21   9  13  1   
 22   9  14  2   
 23  10  15  1   
 24  10  33  1   
 25  10  34  1   
 26  11  16  1   
 27  11  17  1   
 28  11  35  1   
 29  12  36  1   
 30  12  37  1   
 31  12  38  1   
 32  13  18  1   
 33  13  39  1   
 34  14  19  1   
 35  14  40  1   
 36  15  41  1   
 37  16  20  1   
 38  16  42  1   
 39  16  43  1   
 40  17  21  1   
 41  17  44  1   
 42  17  45  1   
 43  18  19  2   
 44  18  22  1   
 45  20  23  1   
 46  20  46  1   
 47  20  47  1   
 48  21  23  1   
 49  21  48  1   
 50  21  49  1   
 51  22  50  1   
 52  22  51  1   
 53  22  52  1   
 54  23  53  1   
 55  23  54  1   
@<TRIPOS>SUBSTRUCTURE
  1 ****  12 GROUP 4 **** **** 0

# MOE 2024.06 (io_trps.svl 2023.06)
