@<TRIPOS>MOLECULE
NONAME
52 55 1 0 0 
SMALL
USER_CHARGES


@<TRIPOS>ATOM
  1 S        0.0690    -0.1500    -1.2150 S.o2  1 <1>   1.5010 
  2 O       -0.0280     0.4970    -2.5070 O.2   1 <1>  -0.6500 
  3 O        0.4100    -1.5550    -1.1540 O.2   1 <1>  -0.6500 
  4 N       -1.4140     0.1010    -0.4220 N.am  1 <1>  -0.8490 
  5 C        1.2220     0.7770    -0.1900 C.2   1 <1>  -0.0630 
  6 C       -2.6110    -0.1120    -1.2390 C.3   1 <1>   0.1960 
  7 C       -1.5440    -0.4570     0.9310 C.3   1 <1>   0.1960 
  8 C        1.3020     2.0870     0.1670 C.2   1 <1>  -0.3320 
  9 C        2.3000     0.1910     0.4590 C.2   1 <1>   0.1390 
 10 C       -2.9800    -1.5950    -1.3290 C.3   1 <1>  -0.1600 
 11 C       -1.9360    -1.9400     0.9300 C.3   1 <1>  -0.1600 
 12 N        2.3760     2.2140     0.9740 N.pl3 1 <1>   0.3140 
 13 C        0.3830     3.2300    -0.2380 C.3   1 <1>  -0.0600 
 14 N        2.9910     1.0370     1.1580 N.2   1 <1>  -0.7070 
 15 C       -3.1780    -2.2100     0.0680 C.3   1 <1>   0.4240 
 16 C        2.8760     3.4410     1.6080 C.3   1 <1>   0.0160 
 17 O       -4.1930    -1.4620     0.7030 O.3   1 <1>  -0.5600 
 18 C       -3.5310    -3.7260     0.0250 C.ar  1 <1>  -0.1440 
 19 C       -5.5150    -1.8190     0.4590 C.3   1 <1>   0.1200 
 20 C       -2.6530    -4.6790    -0.5090 C.ar  1 <1>   0.0820 
 21 C       -4.7530    -4.1740     0.5270 C.ar  1 <1>  -0.1440 
 22 C       -5.7560    -3.1850     1.0830 C.3   1 <1>  -0.0170 
 23 O       -1.4740    -4.2560    -1.0280 O.3   1 <1>  -0.3630 
 24 C       -2.9920    -6.0300    -0.5100 C.ar  1 <1>  -0.1500 
 25 C       -5.0800    -5.5190     0.5240 C.ar  1 <1>  -0.1500 
 26 C       -0.4450    -5.1290    -1.4340 C.3   1 <1>   0.0400 
 27 C       -4.2010    -6.4490     0.0080 C.ar  1 <1>  -0.1500 
 28 H       -2.4640     0.2900    -2.2280 H     1 <1>   0.0800 
 29 H       -3.4300     0.4290    -0.7950 H     1 <1>   0.0800 
 30 H       -2.3080     0.0970     1.4510 H     1 <1>   0.0800 
 31 H       -0.6260    -0.3240     1.4780 H     1 <1>   0.0800 
 32 H        2.5400    -0.8590     0.3930 H     1 <1>   0.1500 
 33 H       -2.1990    -2.1010    -1.8590 H     1 <1>   0.0800 
 34 H       -3.8730    -1.7160    -1.9100 H     1 <1>   0.0800 
 35 H       -2.1400    -2.2580     1.9360 H     1 <1>   0.0800 
 36 H       -1.1000    -2.5160     0.5940 H     1 <1>   0.0800 
 37 H       -0.3960     2.8740    -0.8890 H     1 <1>   0.0800 
 38 H        0.9400     3.9870    -0.7610 H     1 <1>   0.0800 
 39 H       -0.0750     3.6660     0.6310 H     1 <1>   0.0800 
 40 H        2.1140     3.8450     2.2460 H     1 <1>   0.0800 
 41 H        3.1350     4.1510     0.8450 H     1 <1>   0.0800 
 42 H        3.7470     3.2060     2.1910 H     1 <1>   0.0800 
 43 H       -5.6910    -1.8380    -0.6020 H     1 <1>   0.0800 
 44 H       -6.1480    -1.0780     0.9130 H     1 <1>   0.0800 
 45 H       -6.7580    -3.5030     0.8600 H     1 <1>   0.0800 
 46 H       -5.6500    -3.1170     2.1510 H     1 <1>   0.0800 
 47 H       -2.3310    -6.7710    -0.9140 H     1 <1>   0.1500 
 48 H       -6.0230    -5.8510     0.9240 H     1 <1>   0.1500 
 49 H        0.3990    -4.5290    -1.7250 H     1 <1>   0.0800 
 50 H       -0.7890    -5.7080    -2.2730 H     1 <1>   0.0800 
 51 H       -0.1770    -5.7620    -0.6070 H     1 <1>   0.0800 
 52 H       -4.4580    -7.4930     0.0080 H     1 <1>   0.1500 
@<TRIPOS>BOND
  1   1   2  2   
  2   1   3  2   
  3   1   4  am  
  4   1   5  1   
  5   4   6  1   
  6   4   7  1   
  7   5   8  2   
  8   5   9  1   
  9   6  10  1   
 10   6  28  1   
 11   6  29  1   
 12   7  11  1   
 13   7  30  1   
 14   7  31  1   
 15   8  12  1   
 16   8  13  1   
 17   9  14  2   
 18   9  32  1   
 19  10  15  1   
 20  10  33  1   
 21  10  34  1   
 22  11  15  1   
 23  11  35  1   
 24  11  36  1   
 25  12  14  1   
 26  12  16  1   
 27  13  37  1   
 28  13  38  1   
 29  13  39  1   
 30  15  17  1   
 31  15  18  1   
 32  16  40  1   
 33  16  41  1   
 34  16  42  1   
 35  17  19  1   
 36  18  20  ar  
 37  18  21  ar  
 38  19  22  1   
 39  19  43  1   
 40  19  44  1   
 41  20  23  1   
 42  20  24  ar  
 43  21  22  1   
 44  21  25  ar  
 45  22  45  1   
 46  22  46  1   
 47  23  26  1   
 48  24  27  ar  
 49  24  47  1   
 50  25  27  ar  
 51  25  48  1   
 52  26  49  1   
 53  26  50  1   
 54  26  51  1   
 55  27  52  1   
@<TRIPOS>SUBSTRUCTURE
  1 ****  11 GROUP 4 **** **** 0

# MOE 2024.06 (io_trps.svl 2023.06)
