@<TRIPOS>MOLECULE
NONAME
53 55 1 0 0 
SMALL
USER_CHARGES


@<TRIPOS>ATOM
  1 O       -0.3520     0.9270     0.8890 O.2   1 <1>  -0.5700 
  2 C       -1.2240     1.2850     0.1190 C.2   1 <1>   0.5440 
  3 N       -1.0800     2.4910    -0.5430 N.am  1 <1>  -0.6600 
  4 C       -2.3850     0.4380    -0.0680 C.ar  1 <1>   0.0860 
  5 C       -2.2060     3.2020    -1.2110 C.3   1 <1>   0.1400 
  6 C        0.1910     3.2630    -0.4830 C.3   1 <1>   0.1400 
  7 C       -3.1670     0.0460     1.0180 C.ar  1 <1>  -0.1500 
  8 C       -2.7610    -0.0210    -1.3320 C.ar  1 <1>  -0.1500 
  9 C       -2.4560     4.5390    -0.5110 C.3   1 <1>  -0.1600 
 10 C       -0.0480     4.5960     0.2300 C.3   1 <1>  -0.1600 
 11 C       -4.2860    -0.7510     0.8560 C.ar  1 <1>  -0.1500 
 12 C       -3.8770    -0.8170    -1.5030 C.ar  1 <1>  -0.1500 
 13 C       -1.1790     5.4020    -0.4360 C.3   1 <1>  -0.0190 
 14 C       -4.6510    -1.1870    -0.4150 C.ar  1 <1>   0.0820 
 15 C       -1.4010     6.7360     0.2830 C.2   1 <1>   0.5690 
 16 O       -5.7290    -1.9630    -0.6640 O.3   1 <1>  -0.3630 
 17 O       -2.3340     6.8590     1.0410 O.2   1 <1>  -0.5700 
 18 N       -0.5080     7.7420     0.0250 N.am  1 <1>  -0.4940 
 19 C       -6.5670    -2.4250     0.3720 C.3   1 <1>   0.0400 
 20 C       -0.4590     9.0560     0.5580 C.2   1 <1>  -0.0880 
 21 N        0.4760     9.9950     0.2440 N.pl3 1 <1>   0.3140 
 22 C       -1.2860     9.6410     1.4570 C.2   1 <1>  -0.1500 
 23 N        0.2660    11.1500     0.9130 N.2   1 <1>  -0.7070 
 24 C        1.6000     9.8640    -0.7040 C.3   1 <1>   0.0960 
 25 C       -0.7880    10.9250     1.6340 C.2   1 <1>   0.1390 
 26 C        2.7590     9.0700    -0.0820 C.3   1 <1>  -0.1600 
 27 C        3.9110     8.8920    -1.0760 C.3   1 <1>  -0.2400 
 28 H       -3.1090     2.6180    -1.1770 H     1 <1>   0.0800 
 29 H       -1.9530     3.3670    -2.2450 H     1 <1>   0.0800 
 30 H        0.5400     3.4360    -1.4870 H     1 <1>   0.0800 
 31 H        0.9530     2.7070     0.0370 H     1 <1>   0.0800 
 32 H       -2.8810     0.3780     2.0010 H     1 <1>   0.1500 
 33 H       -2.1630     0.2510    -2.1830 H     1 <1>   0.1500 
 34 H       -2.8200     4.3410     0.4830 H     1 <1>   0.0800 
 35 H       -3.2260     5.0780    -1.0350 H     1 <1>   0.0800 
 36 H        0.8660     5.1630     0.2280 H     1 <1>   0.0800 
 37 H       -0.3020     4.3950     1.2580 H     1 <1>   0.0800 
 38 H       -4.8570    -1.0230     1.7230 H     1 <1>   0.1500 
 39 H       -4.1580    -1.1630    -2.4820 H     1 <1>   0.1500 
 40 H       -0.8840     5.6270    -1.4450 H     1 <1>   0.0800 
 41 H        0.2400     7.4960    -0.6200 H     1 <1>   0.3700 
 42 H       -7.3410    -3.0270    -0.0680 H     1 <1>   0.0800 
 43 H       -7.0030    -1.5780     0.8720 H     1 <1>   0.0800 
 44 H       -5.9840    -3.0190     1.0530 H     1 <1>   0.0800 
 45 H       -2.1470     9.2220     1.9430 H     1 <1>   0.1500 
 46 H        1.9340    10.8520    -0.9650 H     1 <1>   0.0800 
 47 H        1.2420     9.3810    -1.5940 H     1 <1>   0.0800 
 48 H       -1.2230    11.6570     2.2930 H     1 <1>   0.1500 
 49 H        2.4140     8.1010     0.2360 H     1 <1>   0.0800 
 50 H        3.1190     9.6000     0.7850 H     1 <1>   0.0800 
 51 H        3.5850     8.3510    -1.9480 H     1 <1>   0.0800 
 52 H        4.7130     8.3420    -0.6140 H     1 <1>   0.0800 
 53 H        4.2930     9.8500    -1.3850 H     1 <1>   0.0800 
@<TRIPOS>BOND
  1   1   2  2   
  2   2   3  am  
  3   2   4  1   
  4   3   5  1   
  5   3   6  1   
  6   4   7  ar  
  7   4   8  ar  
  8   5   9  1   
  9   5  28  1   
 10   5  29  1   
 11   6  10  1   
 12   6  30  1   
 13   6  31  1   
 14   7  11  ar  
 15   7  32  1   
 16   8  12  ar  
 17   8  33  1   
 18   9  13  1   
 19   9  34  1   
 20   9  35  1   
 21  10  13  1   
 22  10  36  1   
 23  10  37  1   
 24  11  14  ar  
 25  11  38  1   
 26  12  14  ar  
 27  12  39  1   
 28  13  15  1   
 29  13  40  1   
 30  14  16  1   
 31  15  17  2   
 32  15  18  am  
 33  16  19  1   
 34  18  20  1   
 35  18  41  1   
 36  19  42  1   
 37  19  43  1   
 38  19  44  1   
 39  20  21  1   
 40  20  22  2   
 41  21  23  1   
 42  21  24  1   
 43  22  25  1   
 44  22  45  1   
 45  23  25  2   
 46  24  26  1   
 47  24  46  1   
 48  24  47  1   
 49  25  48  1   
 50  26  27  1   
 51  26  49  1   
 52  26  50  1   
 53  27  51  1   
 54  27  52  1   
 55  27  53  1   
@<TRIPOS>SUBSTRUCTURE
  1 ****  13 GROUP 4 **** **** 0

# MOE 2024.06 (io_trps.svl 2023.06)
