@<TRIPOS>MOLECULE
NONAME
51 54 1 0 0 
SMALL
USER_CHARGES


@<TRIPOS>ATOM
  1 O        0.3750     0.5710     0.7140 O.3   1 <1>  -0.0190 
  2 N        1.2290    -0.3900     0.5110 N.2   1 <1>  -0.4100 
  3 C        0.7830     1.7050     0.2080 C.2   1 <1>  -0.0400 
  4 C        2.2050     0.1320    -0.1380 C.2   1 <1>   0.1080 
  5 C        1.9770     1.4860    -0.3680 C.2   1 <1>  -0.1500 
  6 C       -0.1000     2.9330     0.3540 C.3   1 <1>   0.0200 
  7 C        3.4330    -0.6280    -0.5880 C.3   1 <1>  -0.0590 
  8 C        0.5550     4.2180    -0.1840 C.3   1 <1>  -0.0800 
  9 C       -0.3660     5.4410    -0.2290 C.3   1 <1>   0.2000 
 10 C        1.7500     4.6870     0.6470 C.3   1 <1>   0.2090 
 11 O       -1.1660     5.4460     0.9240 O.3   1 <1>  -0.5600 
 12 C        0.6040     6.6340    -0.2320 C.3   1 <1>   0.2090 
 13 N        1.8820     6.1230     0.3220 N.pl3 1 <1>  -0.8380 
 14 C       -2.2720     6.2910     0.8780 C.3   1 <1>   0.0400 
 15 C        3.0820     6.7760     0.1670 C.ar  1 <1>   0.7200 
 16 N        4.1760     6.1250     0.5430 N.ar  1 <1>  -0.6200 
 17 N        3.0340     7.9990    -0.3510 N.ar  1 <1>  -0.6200 
 18 C        5.3120     6.7620     0.4020 C.ar  1 <1>   0.1660 
 19 C        4.1770     8.6210    -0.4890 C.ar  1 <1>   0.1670 
 20 C        5.3760     8.0430    -0.1140 C.ar  1 <1>  -0.1430 
 21 C        6.5520     6.0070     0.8580 C.3   1 <1>  -0.0170 
 22 C        4.0960    10.0140    -1.0850 C.3   1 <1>  -0.0970 
 23 C        6.7100     8.7760    -0.2690 C.3   1 <1>  -0.0170 
 24 C        7.8610     6.6270     0.3550 C.3   1 <1>  -0.1600 
 25 C        7.8380     8.1440     0.5540 C.3   1 <1>  -0.1600 
 26 H        2.6320     2.1570    -0.8910 H     1 <1>   0.1500 
 27 H       -1.0190     2.7540    -0.1750 H     1 <1>   0.0800 
 28 H       -0.3440     3.0580     1.3950 H     1 <1>   0.0800 
 29 H        3.5450    -0.5420    -1.6520 H     1 <1>   0.0800 
 30 H        3.3360    -1.6670    -0.3290 H     1 <1>   0.0800 
 31 H        4.3050    -0.2270    -0.1040 H     1 <1>   0.0800 
 32 H        0.9060     4.0390    -1.1840 H     1 <1>   0.0800 
 33 H       -1.0030     5.4290    -1.0970 H     1 <1>   0.0800 
 34 H        2.6420     4.1380     0.4050 H     1 <1>   0.0800 
 35 H        1.5440     4.5900     1.7000 H     1 <1>   0.0800 
 36 H        0.2420     7.4550     0.3610 H     1 <1>   0.0800 
 37 H        0.7700     6.9660    -1.2420 H     1 <1>   0.0800 
 38 H       -2.8010     6.1960     1.8100 H     1 <1>   0.0800 
 39 H       -2.9140     5.9930     0.0670 H     1 <1>   0.0800 
 40 H       -1.9480     7.3090     0.7530 H     1 <1>   0.0800 
 41 H        6.5510     5.9960     1.9330 H     1 <1>   0.0800 
 42 H        6.4890     4.9870     0.5220 H     1 <1>   0.0800 
 43 H        4.8810    10.1700    -1.8000 H     1 <1>   0.0800 
 44 H        4.1730    10.7450    -0.3010 H     1 <1>   0.0800 
 45 H        3.1550    10.1480    -1.5870 H     1 <1>   0.0800 
 46 H        6.9850     8.7590    -1.3100 H     1 <1>   0.0800 
 47 H        6.6040     9.8030     0.0310 H     1 <1>   0.0800 
 48 H        8.6910     6.1960     0.8850 H     1 <1>   0.0800 
 49 H        7.9810     6.4050    -0.6920 H     1 <1>   0.0800 
 50 H        8.7820     8.5680     0.2570 H     1 <1>   0.0800 
 51 H        7.6870     8.3660     1.5970 H     1 <1>   0.0800 
@<TRIPOS>BOND
  1   1   2  1   
  2   1   3  1   
  3   2   4  2   
  4   3   5  2   
  5   3   6  1   
  6   4   5  1   
  7   4   7  1   
  8   5  26  1   
  9   6   8  1   
 10   6  27  1   
 11   6  28  1   
 12   7  29  1   
 13   7  30  1   
 14   7  31  1   
 15   8   9  1   
 16   8  10  1   
 17   8  32  1   
 18   9  11  1   
 19   9  12  1   
 20   9  33  1   
 21  10  13  1   
 22  10  34  1   
 23  10  35  1   
 24  11  14  1   
 25  12  13  1   
 26  12  36  1   
 27  12  37  1   
 28  13  15  1   
 29  14  38  1   
 30  14  39  1   
 31  14  40  1   
 32  15  16  ar  
 33  15  17  ar  
 34  16  18  ar  
 35  17  19  ar  
 36  18  20  ar  
 37  18  21  1   
 38  19  20  ar  
 39  19  22  1   
 40  20  23  1   
 41  21  24  1   
 42  21  41  1   
 43  21  42  1   
 44  22  43  1   
 45  22  44  1   
 46  22  45  1   
 47  23  25  1   
 48  23  46  1   
 49  23  47  1   
 50  24  25  1   
 51  24  48  1   
 52  24  49  1   
 53  25  50  1   
 54  25  51  1   
@<TRIPOS>SUBSTRUCTURE
  1 ****  10 GROUP 4 **** **** 0

# MOE 2024.06 (io_trps.svl 2023.06)
