@<TRIPOS>MOLECULE
NONAME
51 53 1 0 0 
SMALL
USER_CHARGES


@<TRIPOS>ATOM
  1 F       -0.5400     0.4840    -0.5450 F     1 <1>  -0.1900 
  2 C       -1.8310     0.6730    -0.4520 C.ar  1 <1>   0.1900 
  3 C       -2.4330     1.1270     0.7270 C.ar  1 <1>   0.0830 
  4 C       -2.5740     0.4020    -1.5850 C.ar  1 <1>  -0.1500 
  5 O       -1.8120     1.4290     1.9030 O.3   1 <1>  -0.3630 
  6 C       -3.8080     1.2940     0.7230 C.ar  1 <1>  -0.1500 
  7 C       -3.9450     0.5800    -1.5540 C.ar  1 <1>  -0.1500 
  8 C       -0.4170     1.3230     2.0860 C.3   1 <1>   0.0400 
  9 C       -4.5930     1.0250    -0.4000 C.ar  1 <1>   0.0530 
 10 C       -6.0210     1.2160    -0.3570 C.2   1 <1>   0.0870 
 11 O       -6.5120     2.2490     0.2800 O.3   1 <1>  -0.0190 
 12 C       -7.0780     0.5250    -0.8640 C.2   1 <1>  -0.0860 
 13 N       -7.8150     2.3070     0.2340 N.2   1 <1>  -0.4100 
 14 C       -8.1830     1.2810    -0.4480 C.2   1 <1>   0.3720 
 15 C       -7.1330    -0.6950    -1.6120 C.2   1 <1>   0.7160 
 16 N       -9.5290     0.9720    -0.7070 N.pl3 1 <1>  -0.8210 
 17 O       -6.1890    -1.4600    -1.6610 O.2   1 <1>  -0.5700 
 18 N       -8.2760    -1.0460    -2.2550 N.am  1 <1>  -0.7300 
 19 C      -10.1220    -0.0020     0.2540 C.3   1 <1>   0.1290 
 20 C      -10.4170     2.1510    -0.9140 C.3   1 <1>   0.1290 
 21 C       -8.6800    -2.4440    -2.5850 C.3   1 <1>   0.2010 
 22 C       -9.6590    -3.0150    -1.5540 C.2   1 <1>   0.5690 
 23 O      -10.8430    -2.8770    -1.7630 O.2   1 <1>  -0.5700 
 24 N       -9.2100    -3.6370    -0.4180 N.am  1 <1>  -0.6600 
 25 C       -7.7950    -3.8350    -0.0220 C.3   1 <1>   0.1400 
 26 C      -10.1250    -4.2950     0.5380 C.3   1 <1>   0.1400 
 27 C       -7.8590    -4.5500     1.3240 C.3   1 <1>  -0.1600 
 28 C       -9.2290    -5.2210     1.3510 C.3   1 <1>  -0.1600 
 29 H       -2.0850     0.0540    -2.4770 H     1 <1>   0.1500 
 30 H       -4.2830     1.6420     1.6230 H     1 <1>   0.1500 
 31 H       -4.5220     0.3700    -2.4380 H     1 <1>   0.1500 
 32 H       -0.1890     1.6210     3.0940 H     1 <1>   0.0800 
 33 H        0.0790     1.9790     1.3920 H     1 <1>   0.0800 
 34 H       -0.1200     0.3010     1.9330 H     1 <1>   0.0800 
 35 H       -9.0670    -0.4110    -2.0630 H     1 <1>   0.3700 
 36 H       -9.4130    -0.7790     0.4860 H     1 <1>   0.0800 
 37 H      -10.9970    -0.4570    -0.1780 H     1 <1>   0.0800 
 38 H      -10.3950     0.4980     1.1680 H     1 <1>   0.0800 
 39 H       -9.9510     2.8450    -1.5920 H     1 <1>   0.0800 
 40 H      -10.5950     2.6510     0.0230 H     1 <1>   0.0800 
 41 H      -11.3560     1.8350    -1.3330 H     1 <1>   0.0800 
 42 H       -7.8140    -3.0760    -2.6520 H     1 <1>   0.0800 
 43 H       -9.1620    -2.4450    -3.5460 H     1 <1>   0.0800 
 44 H       -7.2830    -2.8940     0.0740 H     1 <1>   0.0800 
 45 H       -7.2980    -4.4500    -0.7530 H     1 <1>   0.0800 
 46 H      -10.8990    -4.8390     0.0220 H     1 <1>   0.0800 
 47 H      -10.5700    -3.5460     1.1700 H     1 <1>   0.0800 
 48 H       -7.7950    -3.8170     2.1100 H     1 <1>   0.0800 
 49 H       -7.0540    -5.2540     1.4390 H     1 <1>   0.0800 
 50 H       -9.1780    -6.1770     0.8590 H     1 <1>   0.0800 
 51 H       -9.6000    -5.3610     2.3510 H     1 <1>   0.0800 
@<TRIPOS>BOND
  1   1   2  1   
  2   2   3  ar  
  3   2   4  ar  
  4   3   5  1   
  5   3   6  ar  
  6   4   7  ar  
  7   4  29  1   
  8   5   8  1   
  9   6   9  ar  
 10   6  30  1   
 11   7   9  ar  
 12   7  31  1   
 13   8  32  1   
 14   8  33  1   
 15   8  34  1   
 16   9  10  1   
 17  10  11  1   
 18  10  12  2   
 19  11  13  1   
 20  12  14  1   
 21  12  15  1   
 22  13  14  2   
 23  14  16  1   
 24  15  17  2   
 25  15  18  am  
 26  16  19  1   
 27  16  20  1   
 28  18  21  1   
 29  18  35  1   
 30  19  36  1   
 31  19  37  1   
 32  19  38  1   
 33  20  39  1   
 34  20  40  1   
 35  20  41  1   
 36  21  22  1   
 37  21  42  1   
 38  21  43  1   
 39  22  23  2   
 40  22  24  am  
 41  24  25  1   
 42  24  26  1   
 43  25  27  1   
 44  25  44  1   
 45  25  45  1   
 46  26  28  1   
 47  26  46  1   
 48  26  47  1   
 49  27  28  1   
 50  27  48  1   
 51  27  49  1   
 52  28  50  1   
 53  28  51  1   
@<TRIPOS>SUBSTRUCTURE
  1 ****  12 GROUP 4 **** **** 0

# MOE 2024.06 (io_trps.svl 2023.06)
