@<TRIPOS>MOLECULE
NONAME
52 54 1 0 0 
SMALL
USER_CHARGES


@<TRIPOS>ATOM
  1 O        3.1150    -1.4690     2.1830 O.2   1 <1>  -0.5700 
  2 C        2.2760    -1.8140     1.3650 C.2   1 <1>   0.5440 
  3 N        1.6470    -0.8090     0.6500 N.am  1 <1>  -0.6600 
  4 C        2.0210    -3.2450     1.1790 C.ar  1 <1>   0.3960 
  5 C        0.6950    -0.9990    -0.4690 C.3   1 <1>   0.1400 
  6 C        2.0000     0.6210     0.7990 C.3   1 <1>   0.1400 
  7 N        0.8080    -3.7010     0.8160 N.ar  1 <1>  -0.6200 
  8 C        3.0880    -4.1230     1.4010 C.ar  1 <1>   0.1600 
  9 C        0.3650     0.4080    -0.9600 C.3   1 <1>  -0.1600 
 10 C        1.5360     1.2700    -0.4980 C.3   1 <1>  -0.1600 
 11 C        0.7470    -5.0080     0.6980 C.ar  1 <1>   0.4100 
 12 N        3.0460    -5.4440     1.2750 N.ar  1 <1>  -0.6200 
 13 N       -0.4980    -5.4550     0.3380 N.pl3 1 <1>  -0.8690 
 14 C        1.8470    -5.8530     0.9170 C.ar  1 <1>   0.1600 
 15 C       -1.1060    -6.6450     0.9760 C.3   1 <1>   0.2090 
 16 C       -1.2350    -7.7510    -0.0670 C.3   1 <1>  -0.0990 
 17 C       -1.9000    -8.9690     0.5320 C.2   1 <1>   0.5690 
 18 O       -1.5570    -9.3190     1.6340 O.2   1 <1>  -0.5700 
 19 N       -2.8600    -9.6000    -0.2090 N.am  1 <1>  -0.5470 
 20 C       -3.6480   -10.7310     0.0720 C.ar  1 <1>   0.1170 
 21 C       -4.9110   -10.8680    -0.5190 C.ar  1 <1>  -0.1430 
 22 C       -3.1810   -11.7370     0.9130 C.ar  1 <1>  -0.1500 
 23 C       -5.6610   -12.0070    -0.2510 C.ar  1 <1>  -0.1500 
 24 C       -5.4370    -9.7600    -1.4430 C.3   1 <1>  -0.0170 
 25 C       -3.9400   -12.8600     1.1740 C.ar  1 <1>  -0.1500 
 26 C       -5.1830   -12.9960     0.5890 C.ar  1 <1>  -0.1500 
 27 C       -6.8950    -9.8980    -1.8980 C.3   1 <1>  -0.2400 
 28 H       -0.1950    -1.5040    -0.1350 H     1 <1>   0.0800 
 29 H        1.1690    -1.5720    -1.2480 H     1 <1>   0.0800 
 30 H        3.0590     0.7480     0.9500 H     1 <1>   0.0800 
 31 H        1.4650     1.0250     1.6410 H     1 <1>   0.0800 
 32 H        4.0320    -3.7020     1.7000 H     1 <1>   0.1500 
 33 H       -0.5410     0.7380    -0.4820 H     1 <1>   0.0800 
 34 H        0.2290     0.4370    -2.0260 H     1 <1>   0.0800 
 35 H        2.3350     1.2200    -1.2170 H     1 <1>   0.0800 
 36 H        1.2580     2.2990    -0.3520 H     1 <1>   0.0800 
 37 H       -1.1440    -4.6630     0.2710 H     1 <1>   0.4000 
 38 H        1.7050    -6.9080     0.7820 H     1 <1>   0.1500 
 39 H       -2.0790    -6.3860     1.3590 H     1 <1>   0.0800 
 40 H       -0.5020    -6.9780     1.8040 H     1 <1>   0.0800 
 41 H       -0.2590    -8.0350    -0.4140 H     1 <1>   0.0800 
 42 H       -1.8100    -7.3900    -0.8990 H     1 <1>   0.0800 
 43 H       -3.0760    -9.1670    -1.1020 H     1 <1>   0.3700 
 44 H       -2.2130   -11.6490     1.3690 H     1 <1>   0.1500 
 45 H       -6.6320   -12.1540    -0.6850 H     1 <1>   0.1500 
 46 H       -4.8140    -9.7210    -2.3200 H     1 <1>   0.0800 
 47 H       -5.3470    -8.8180    -0.9300 H     1 <1>   0.0800 
 48 H       -3.5620   -13.6250     1.8300 H     1 <1>   0.1500 
 49 H       -5.7780   -13.8710     0.7880 H     1 <1>   0.1500 
 50 H       -7.0230   -10.7830    -2.4950 H     1 <1>   0.0800 
 51 H       -7.1740    -9.0470    -2.4940 H     1 <1>   0.0800 
 52 H       -7.5500    -9.9440    -1.0460 H     1 <1>   0.0800 
@<TRIPOS>BOND
  1   1   2  2   
  2   2   3  am  
  3   2   4  1   
  4   3   5  1   
  5   3   6  1   
  6   4   7  ar  
  7   4   8  ar  
  8   5   9  1   
  9   5  28  1   
 10   5  29  1   
 11   6  10  1   
 12   6  30  1   
 13   6  31  1   
 14   7  11  ar  
 15   8  12  ar  
 16   8  32  1   
 17   9  10  1   
 18   9  33  1   
 19   9  34  1   
 20  10  35  1   
 21  10  36  1   
 22  11  13  1   
 23  11  14  ar  
 24  12  14  ar  
 25  13  15  1   
 26  13  37  1   
 27  14  38  1   
 28  15  16  1   
 29  15  39  1   
 30  15  40  1   
 31  16  17  1   
 32  16  41  1   
 33  16  42  1   
 34  17  18  2   
 35  17  19  am  
 36  19  20  1   
 37  19  43  1   
 38  20  21  ar  
 39  20  22  ar  
 40  21  23  ar  
 41  21  24  1   
 42  22  25  ar  
 43  22  44  1   
 44  23  26  ar  
 45  23  45  1   
 46  24  27  1   
 47  24  46  1   
 48  24  47  1   
 49  25  26  ar  
 50  25  48  1   
 51  26  49  1   
 52  27  50  1   
 53  27  51  1   
 54  27  52  1   
@<TRIPOS>SUBSTRUCTURE
  1 ****  15 GROUP 4 **** **** 0

# MOE 2024.06 (io_trps.svl 2023.06)
