@<TRIPOS>MOLECULE
NONAME
46 48 1 0 0 
SMALL
USER_CHARGES


@<TRIPOS>ATOM
  1 F       -0.8150    -0.4720    -1.4270 F     1 <1>  -0.3400 
  2 C       -1.6040    -1.0060    -0.5060 C.3   1 <1>   1.3000 
  3 F       -0.9230    -1.9740     0.0980 F     1 <1>  -0.3400 
  4 F       -1.8800    -0.0660     0.3890 F     1 <1>  -0.3400 
  5 O       -2.7790    -1.5090    -1.1100 O.3   1 <1>  -0.3630 
  6 C       -3.6680    -2.1320    -0.3100 C.ar  1 <1>   0.0830 
  7 C       -3.5980    -3.5070    -0.1540 C.ar  1 <1>  -0.1500 
  8 C       -4.6520    -1.4010     0.3350 C.ar  1 <1>  -0.1500 
  9 C       -4.5130    -4.1590     0.6590 C.ar  1 <1>  -0.1440 
 10 C       -5.5600    -2.0490     1.1530 C.ar  1 <1>  -0.1500 
 11 C       -5.4890    -3.4220     1.3170 C.ar  1 <1>  -0.1500 
 12 C       -4.4580    -5.6650     0.8300 C.3   1 <1>   0.4870 
 13 N       -4.9530    -6.3130    -0.4180 N.4   1 <1>  -0.9590 
 14 C       -6.3970    -5.9960    -0.6560 C.3   1 <1>   0.3430 
 15 C       -4.8660    -7.8000    -0.2870 C.3   1 <1>   0.3430 
 16 C       -7.1820    -7.1290     0.0100 C.3   1 <1>   0.2000 
 17 C       -6.3010    -8.3460    -0.2770 C.3   1 <1>  -0.0800 
 18 O       -7.2330    -6.8820     1.3800 O.3   1 <1>  -0.6800 
 19 C       -6.4700    -9.5460     0.6760 C.3   1 <1>   0.0210 
 20 C       -5.5790   -10.7020     0.2630 C.2   1 <1>   0.1080 
 21 N       -4.2860   -10.6060     0.1900 N.2   1 <1>  -0.7070 
 22 C       -6.0330   -11.9720    -0.0730 C.2   1 <1>  -0.1500 
 23 N       -3.8760   -11.8370    -0.1880 N.pl3 1 <1>   0.3000 
 24 C       -4.9180   -12.6760    -0.3580 C.2   1 <1>  -0.3320 
 25 C       -4.7820   -14.1270    -0.7830 C.3   1 <1>  -0.0600 
 26 H       -2.8250    -4.0490    -0.6700 H     1 <1>   0.1500 
 27 H       -4.7080    -0.3340     0.2020 H     1 <1>   0.1500 
 28 H       -6.3210    -1.4810     1.6630 H     1 <1>   0.1500 
 29 H       -6.2040    -3.9080     1.9620 H     1 <1>   0.1500 
 30 H       -5.0660    -5.9610     1.6690 H     1 <1>   0.0800 
 31 H       -3.4420    -5.9660     1.0250 H     1 <1>   0.0800 
 32 H       -4.3830    -5.9700    -1.1990 H     1 <1>   0.4500 
 33 H       -6.6830    -5.0360    -0.2610 H     1 <1>   0.0800 
 34 H       -6.5950    -6.0110    -1.7150 H     1 <1>   0.0800 
 35 H       -4.3130    -8.2360    -1.1040 H     1 <1>   0.0800 
 36 H       -4.3730    -8.0690     0.6330 H     1 <1>   0.0800 
 37 H       -8.1860    -7.2160    -0.3700 H     1 <1>   0.0800 
 38 H       -6.5150    -8.6870    -1.2750 H     1 <1>   0.0800 
 39 H       -7.8980    -7.4530     1.8190 H     1 <1>   0.4000 
 40 H       -7.4950    -9.8740     0.6720 H     1 <1>   0.0800 
 41 H       -6.2100    -9.2720     1.6830 H     1 <1>   0.0800 
 42 H       -7.0560   -12.3040    -0.0910 H     1 <1>   0.1500 
 43 H       -2.8850   -12.0770    -0.3160 H     1 <1>   0.2700 
 44 H       -5.7520   -14.5870    -0.8460 H     1 <1>   0.0800 
 45 H       -4.1920   -14.6710    -0.0670 H     1 <1>   0.0800 
 46 H       -4.3100   -14.1910    -1.7480 H     1 <1>   0.0800 
@<TRIPOS>BOND
  1   1   2  1   
  2   2   3  1   
  3   2   4  1   
  4   2   5  1   
  5   5   6  1   
  6   6   7  ar  
  7   6   8  ar  
  8   7   9  ar  
  9   7  26  1   
 10   8  10  ar  
 11   8  27  1   
 12   9  11  ar  
 13   9  12  1   
 14  10  11  ar  
 15  10  28  1   
 16  11  29  1   
 17  12  13  1   
 18  12  30  1   
 19  12  31  1   
 20  13  14  1   
 21  13  15  1   
 22  13  32  1   
 23  14  16  1   
 24  14  33  1   
 25  14  34  1   
 26  15  17  1   
 27  15  35  1   
 28  15  36  1   
 29  16  17  1   
 30  16  18  1   
 31  16  37  1   
 32  17  19  1   
 33  17  38  1   
 34  18  39  1   
 35  19  20  1   
 36  19  40  1   
 37  19  41  1   
 38  20  21  2   
 39  20  22  1   
 40  21  23  1   
 41  22  24  2   
 42  22  42  1   
 43  23  24  1   
 44  23  43  1   
 45  24  25  1   
 46  25  44  1   
 47  25  45  1   
 48  25  46  1   
@<TRIPOS>SUBSTRUCTURE
  1 ****  13 GROUP 4 **** **** 0

# MOE 2024.06 (io_trps.svl 2023.06)
