@<TRIPOS>MOLECULE
NONAME
45 47 1 0 0 
SMALL
USER_CHARGES


@<TRIPOS>ATOM
  1 O       -1.1130    -0.0660     0.5700 O.2   1 <1>  -0.5700 
  2 C       -0.8900    -1.2400     0.7820 C.2   1 <1>   0.7800 
  3 O        0.3320    -1.7040     1.0240 O.3   1 <1>  -0.4300 
  4 N       -1.8650    -2.1700     0.7780 N.am  1 <1>  -0.7300 
  5 C        1.5280    -0.9560     1.0760 C.3   1 <1>   0.2800 
  6 C       -3.3340    -1.8690     0.6340 C.3   1 <1>   0.2200 
  7 C        2.6250    -1.9750     1.3870 C.3   1 <1>  -0.2400 
  8 C        1.4600     0.0750     2.2090 C.3   1 <1>  -0.2400 
  9 C        1.8090    -0.3100    -0.2860 C.3   1 <1>  -0.2400 
 10 C       -3.8620    -1.2820    -0.6810 C.3   1 <1>   0.2890 
 11 C       -4.3690    -3.0030     0.7240 C.3   1 <1>   0.0640 
 12 N       -4.9120    -0.3310    -0.1840 N.pl3 1 <1>  -0.8690 
 13 C       -3.0610    -2.0560    -1.7520 C.3   1 <1>  -0.1600 
 14 C       -5.4640    -2.1770     1.4260 C.ar  1 <1>  -0.1440 
 15 C       -3.6210    -4.1390    -0.0270 C.3   1 <1>  -0.1600 
 16 C       -5.7200    -0.8820     0.8770 C.ar  1 <1>   0.1000 
 17 C       -3.2430    -3.6260    -1.4960 C.3   1 <1>  -0.1600 
 18 C       -6.1960    -2.6460     2.5000 C.ar  1 <1>  -0.1500 
 19 C       -6.7330    -0.1230     1.4430 C.ar  1 <1>  -0.1500 
 20 C       -7.1950    -1.8570     3.0450 C.ar  1 <1>  -0.1500 
 21 C       -7.4640    -0.6040     2.5160 C.ar  1 <1>  -0.1500 
 22 H       -1.6030    -3.1230     1.0090 H     1 <1>   0.3700 
 23 H       -3.4650    -1.1510     1.4300 H     1 <1>   0.0800 
 24 H        3.5820    -1.4890     1.4450 H     1 <1>   0.0800 
 25 H        2.6710    -2.7210     0.6140 H     1 <1>   0.0800 
 26 H        2.4310    -2.4560     2.3280 H     1 <1>   0.0800 
 27 H        2.4180     0.5460     2.3350 H     1 <1>   0.0800 
 28 H        1.1910    -0.4030     3.1340 H     1 <1>   0.0800 
 29 H        0.7460     0.8470     1.9900 H     1 <1>   0.0800 
 30 H        2.7840     0.1420    -0.2830 H     1 <1>   0.0800 
 31 H        1.0950     0.4620    -0.5040 H     1 <1>   0.0800 
 32 H        1.7790    -1.0510    -1.0650 H     1 <1>   0.0800 
 33 H       -4.6870    -1.7840    -1.1470 H     1 <1>   0.0800 
 34 H       -5.1460    -3.1540    -0.0070 H     1 <1>   0.0800 
 35 H       -4.5180     0.5950     0.0190 H     1 <1>   0.4000 
 36 H       -3.4090    -1.7960    -2.7380 H     1 <1>   0.0800 
 37 H       -2.0210    -1.7860    -1.7120 H     1 <1>   0.0800 
 38 H       -2.7480    -4.4640     0.5090 H     1 <1>   0.0800 
 39 H       -4.2510    -5.0100    -0.1050 H     1 <1>   0.0800 
 40 H       -4.0430    -3.9450    -2.1430 H     1 <1>   0.0800 
 41 H       -2.3620    -4.1420    -1.8370 H     1 <1>   0.0800 
 42 H       -5.9970    -3.6210     2.9090 H     1 <1>   0.1500 
 43 H       -6.9420     0.8490     1.0380 H     1 <1>   0.1500 
 44 H       -7.7680    -2.2190     3.8810 H     1 <1>   0.1500 
 45 H       -8.2450    -0.0010     2.9420 H     1 <1>   0.1500 
@<TRIPOS>BOND
  1   1   2  2   
  2   2   3  1   
  3   2   4  am  
  4   3   5  1   
  5   4   6  1   
  6   4  22  1   
  7   5   7  1   
  8   5   8  1   
  9   5   9  1   
 10   6  10  1   
 11   6  11  1   
 12   6  23  1   
 13   7  24  1   
 14   7  25  1   
 15   7  26  1   
 16   8  27  1   
 17   8  28  1   
 18   8  29  1   
 19   9  30  1   
 20   9  31  1   
 21   9  32  1   
 22  10  12  1   
 23  10  13  1   
 24  10  33  1   
 25  11  14  1   
 26  11  15  1   
 27  11  34  1   
 28  12  16  1   
 29  12  35  1   
 30  13  17  1   
 31  13  36  1   
 32  13  37  1   
 33  14  16  ar  
 34  14  18  ar  
 35  15  17  1   
 36  15  38  1   
 37  15  39  1   
 38  16  19  ar  
 39  17  40  1   
 40  17  41  1   
 41  18  20  ar  
 42  18  42  1   
 43  19  21  ar  
 44  19  43  1   
 45  20  21  ar  
 46  20  44  1   
 47  21  45  1   
@<TRIPOS>SUBSTRUCTURE
  1 ****   6 GROUP 4 **** **** 0

# MOE 2024.06 (io_trps.svl 2023.06)
