@<TRIPOS>MOLECULE
NONAME
43 45 1 0 0 
SMALL
USER_CHARGES


@<TRIPOS>ATOM
  1 O       -2.1650     0.1920    -1.2560 O.2   1 <1>  -0.5700 
  2 C       -2.0090    -1.0020    -1.1390 C.2   1 <1>   0.6900 
  3 N       -2.3450    -1.7360    -0.0480 N.am  1 <1>  -0.6600 
  4 N       -1.5050    -1.7910    -2.1100 N.am  1 <1>  -0.4900 
  5 C       -2.0910    -3.1790    -0.3320 C.3   1 <1>   0.2010 
  6 C       -3.1500    -1.2770     1.1260 C.3   1 <1>   0.2010 
  7 C       -1.5170    -3.0890    -1.7380 C.2   1 <1>   0.5690 
  8 C       -4.5210    -1.9560     1.2150 C.2   1 <1>   0.5690 
  9 O       -1.1420    -4.0130    -2.4120 O.2   1 <1>  -0.5700 
 10 O       -4.5800    -2.9870     1.8460 O.2   1 <1>  -0.5700 
 11 N       -5.6280    -1.4290     0.5930 N.am  1 <1>  -0.6600 
 12 C       -5.5750    -0.2250    -0.2950 C.3   1 <1>   0.1400 
 13 C       -6.9650    -2.0730     0.7760 C.3   1 <1>   0.1400 
 14 C       -6.7440    -0.2370    -1.2760 C.3   1 <1>  -0.1600 
 15 C       -8.0730    -1.0180     0.7630 C.3   1 <1>  -0.1600 
 16 C       -8.0850    -0.1850    -0.5340 C.3   1 <1>   0.4180 
 17 O       -8.2670     1.1630    -0.1840 O.3   1 <1>  -0.5600 
 18 C       -9.1980    -0.6390    -1.4770 C.2   1 <1>  -0.2880 
 19 C       -9.5710     1.5640     0.1340 C.3   1 <1>   0.1200 
 20 C      -10.2850     0.0860    -1.7550 C.2   1 <1>  -0.2760 
 21 C      -10.4830     1.4380    -1.0940 C.3   1 <1>  -0.0220 
 22 C      -11.3790    -0.3360    -2.7190 C.3   1 <1>  -0.1020 
 23 H       -1.1940    -1.4410    -3.0080 H     1 <1>   0.3700 
 24 H       -3.0030    -3.7480    -0.3270 H     1 <1>   0.0800 
 25 H       -1.3730    -3.5890     0.3550 H     1 <1>   0.0800 
 26 H       -3.2760    -0.2100     1.0830 H     1 <1>   0.0800 
 27 H       -2.6050    -1.5010     2.0240 H     1 <1>   0.0800 
 28 H       -4.6560    -0.2130    -0.8520 H     1 <1>   0.0800 
 29 H       -5.6200     0.6670     0.3090 H     1 <1>   0.0800 
 30 H       -6.9930    -2.6050     1.7130 H     1 <1>   0.0800 
 31 H       -7.1240    -2.7850    -0.0150 H     1 <1>   0.0800 
 32 H       -6.6790    -1.1300    -1.8690 H     1 <1>   0.0800 
 33 H       -6.6770     0.6000    -1.9470 H     1 <1>   0.0800 
 34 H       -7.9170    -0.3740     1.6100 H     1 <1>   0.0800 
 35 H       -9.0220    -1.5040     0.8900 H     1 <1>   0.0800 
 36 H       -9.0160    -1.6080    -1.9040 H     1 <1>   0.1500 
 37 H       -9.5300     2.5850     0.4680 H     1 <1>   0.0800 
 38 H       -9.9330     0.9480     0.9380 H     1 <1>   0.0800 
 39 H      -10.2590     2.2220    -1.7950 H     1 <1>   0.0800 
 40 H      -11.5040     1.5520    -0.7750 H     1 <1>   0.0800 
 41 H      -11.4700     0.3830    -3.5130 H     1 <1>   0.0800 
 42 H      -12.3210    -0.4080    -2.2050 H     1 <1>   0.0800 
 43 H      -11.1520    -1.2950    -3.1500 H     1 <1>   0.0800 
@<TRIPOS>BOND
  1   1   2  2   
  2   2   3  am  
  3   2   4  am  
  4   3   5  1   
  5   3   6  1   
  6   4   7  am  
  7   4  23  1   
  8   5   7  1   
  9   5  24  1   
 10   5  25  1   
 11   6   8  1   
 12   6  26  1   
 13   6  27  1   
 14   7   9  2   
 15   8  10  2   
 16   8  11  am  
 17  11  12  1   
 18  11  13  1   
 19  12  14  1   
 20  12  28  1   
 21  12  29  1   
 22  13  15  1   
 23  13  30  1   
 24  13  31  1   
 25  14  16  1   
 26  14  32  1   
 27  14  33  1   
 28  15  16  1   
 29  15  34  1   
 30  15  35  1   
 31  16  17  1   
 32  16  18  1   
 33  17  19  1   
 34  18  20  2   
 35  18  36  1   
 36  19  21  1   
 37  19  37  1   
 38  19  38  1   
 39  20  21  1   
 40  20  22  1   
 41  21  39  1   
 42  21  40  1   
 43  22  41  1   
 44  22  42  1   
 45  22  43  1   
@<TRIPOS>SUBSTRUCTURE
  1 ****  12 GROUP 4 **** **** 0

# MOE 2024.06 (io_trps.svl 2023.06)
