@<TRIPOS>MOLECULE
NONAME
50 52 1 0 0 
SMALL
USER_CHARGES


@<TRIPOS>ATOM
  1 O        3.2190    -2.1230    -1.8140 O.2   1 <1>  -0.5700 
  2 C        3.0510    -2.2100    -0.6120 C.2   1 <1>   0.5440 
  3 N        4.1690    -2.1270     0.1980 N.am  1 <1>  -0.6600 
  4 C        1.7190    -2.3960    -0.0920 C.ar  1 <1>   0.0860 
  5 C        5.5300    -2.1570    -0.4090 C.3   1 <1>   0.1400 
  6 C        4.1200    -1.7470     1.6310 C.3   1 <1>   0.1400 
  7 C        0.9730    -1.3300     0.4240 C.ar  1 <1>   0.3920 
  8 C        1.1320    -3.6530    -0.0940 C.ar  1 <1>  -0.1500 
  9 C        5.8160    -0.8410    -1.1550 C.3   1 <1>   0.3430 
 10 C        4.7610    -0.3670     1.8380 C.3   1 <1>  -0.1600 
 11 O        1.5340    -0.0980     0.4240 O.3   1 <1>  -0.3630 
 12 N       -0.2530    -1.4410     0.9320 N.ar  1 <1>  -0.6200 
 13 C       -0.1390    -3.7750     0.4210 C.ar  1 <1>  -0.1500 
 14 N        5.8440     0.4000    -0.2940 N.4   1 <1>  -0.9590 
 15 C        4.6610     0.5610     0.6200 C.3   1 <1>   0.3430 
 16 C        0.8090     1.0380     0.8680 C.3   1 <1>   0.0400 
 17 C       -0.7790    -2.6530     0.9150 C.ar  1 <1>   0.1600 
 18 C        5.9860     1.5830    -1.1890 C.3   1 <1>   0.5240 
 19 C        6.1450     2.8280    -0.3510 C.2   1 <1>  -0.1810 
 20 C        7.1810     3.2570     0.3890 C.2   1 <1>  -0.0400 
 21 C        5.1830     3.8230    -0.1710 C.2   1 <1>   0.1080 
 22 O        6.8270     4.3770     0.9550 O.3   1 <1>  -0.0190 
 23 C        8.5720     2.7150     0.6590 C.3   1 <1>  -0.0600 
 24 N        5.6190     4.7270     0.6260 N.2   1 <1>  -0.4100 
 25 C        3.8090     3.8840    -0.8090 C.3   1 <1>  -0.0590 
 26 H        5.5710    -2.9690    -1.1160 H     1 <1>   0.0800 
 27 H        6.2780    -2.3400     0.3420 H     1 <1>   0.0800 
 28 H        4.6340    -2.4890     2.2200 H     1 <1>   0.0800 
 29 H        3.1010    -1.7190     1.9740 H     1 <1>   0.0800 
 30 H        1.6590    -4.5030    -0.4920 H     1 <1>   0.1500 
 31 H        5.0590    -0.7300    -1.9150 H     1 <1>   0.0800 
 32 H        6.7620    -0.9420    -1.6610 H     1 <1>   0.0800 
 33 H        5.7840    -0.4740     2.1470 H     1 <1>   0.0800 
 34 H        4.2430     0.0990     2.6570 H     1 <1>   0.0800 
 35 H       -0.6350    -4.7300     0.4380 H     1 <1>   0.1500 
 36 H        6.6750     0.3810     0.3050 H     1 <1>   0.4500 
 37 H        4.6280     1.5730     0.9900 H     1 <1>   0.0800 
 38 H        3.7460     0.3770     0.0810 H     1 <1>   0.0800 
 39 H        1.4320     1.9070     0.7690 H     1 <1>   0.0800 
 40 H        0.5330     0.8960     1.8980 H     1 <1>   0.0800 
 41 H       -0.0730     1.1460     0.2600 H     1 <1>   0.0800 
 42 H       -1.7740    -2.7600     1.3170 H     1 <1>   0.1500 
 43 H        5.1180     1.6760    -1.8220 H     1 <1>   0.0800 
 44 H        6.8540     1.4690    -1.8170 H     1 <1>   0.0800 
 45 H        8.7500     1.8090     0.1120 H     1 <1>   0.0800 
 46 H        8.6920     2.5250     1.7110 H     1 <1>   0.0800 
 47 H        9.3040     3.4460     0.3610 H     1 <1>   0.0800 
 48 H        3.2910     2.9510    -0.6970 H     1 <1>   0.0800 
 49 H        3.9030     4.1190    -1.8540 H     1 <1>   0.0800 
 50 H        3.2260     4.6580    -0.3410 H     1 <1>   0.0800 
@<TRIPOS>BOND
  1   1   2  2   
  2   2   3  am  
  3   2   4  1   
  4   3   5  1   
  5   3   6  1   
  6   4   7  ar  
  7   4   8  ar  
  8   5   9  1   
  9   5  26  1   
 10   5  27  1   
 11   6  10  1   
 12   6  28  1   
 13   6  29  1   
 14   7  11  1   
 15   7  12  ar  
 16   8  13  ar  
 17   8  30  1   
 18   9  14  1   
 19   9  31  1   
 20   9  32  1   
 21  10  15  1   
 22  10  33  1   
 23  10  34  1   
 24  11  16  1   
 25  12  17  ar  
 26  13  17  ar  
 27  13  35  1   
 28  14  15  1   
 29  14  18  1   
 30  14  36  1   
 31  15  37  1   
 32  15  38  1   
 33  16  39  1   
 34  16  40  1   
 35  16  41  1   
 36  17  42  1   
 37  18  19  1   
 38  18  43  1   
 39  18  44  1   
 40  19  20  2   
 41  19  21  1   
 42  20  22  1   
 43  20  23  1   
 44  21  24  2   
 45  21  25  1   
 46  22  24  1   
 47  23  45  1   
 48  23  46  1   
 49  23  47  1   
 50  25  48  1   
 51  25  49  1   
 52  25  50  1   
@<TRIPOS>SUBSTRUCTURE
  1 ****  15 GROUP 4 **** **** 0

# MOE 2024.06 (io_trps.svl 2023.06)
