@<TRIPOS>MOLECULE
NONAME
49 52 1 0 0 
SMALL
USER_CHARGES


@<TRIPOS>ATOM
  1 S       -4.1180    -3.9950    -1.5110 S.3   1 <1>  -0.0880 
  2 C       -3.0510    -2.8610    -0.6920 C.2   1 <1>  -0.1480 
  3 C       -5.4470    -2.8540    -1.4610 C.2   1 <1>  -0.1180 
  4 C       -3.7000    -1.7100    -0.4290 C.2   1 <1>  -0.1580 
  5 C       -1.6490    -3.3480    -0.4030 C.3   1 <1>   0.5180 
  6 C       -5.0640    -1.7100    -0.8660 C.2   1 <1>  -0.1580 
  7 N       -1.8320    -4.5190     0.4900 N.4   1 <1>  -0.9610 
  8 C       -2.2160    -4.0900     1.8770 C.3   1 <1>   0.3370 
  9 C       -0.6870    -5.4630     0.4760 C.3   1 <1>   0.3370 
 10 C       -3.1990    -5.0680     2.5640 C.3   1 <1>   0.1600 
 11 C       -1.1940    -6.9010     0.6520 C.3   1 <1>  -0.1680 
 12 N       -3.3130    -6.4000     1.8680 N.pl3 1 <1>  -0.5970 
 13 C       -2.0260    -7.1600     1.9180 C.3   1 <1>   0.1600 
 14 C       -4.4410    -6.7860     1.2070 C.cat 1 <1>   1.0690 
 15 N       -5.4250    -5.9310     0.9430 N.pl3 1 <1>  -0.7040 
 16 N       -4.7300    -7.9840     0.6540 N.pl3 1 <1>  -0.7670 
 17 C       -6.3670    -6.5490     0.1550 C.ar  1 <1>   0.3020 
 18 C       -5.9380    -7.8450    -0.0350 C.ar  1 <1>   0.3020 
 19 C       -4.0920    -9.3190     0.8120 C.3   1 <1>   0.2670 
 20 C       -7.5310    -6.0710    -0.4140 C.ar  1 <1>  -0.1170 
 21 C       -6.6970    -8.7090    -0.8190 C.ar  1 <1>  -0.1170 
 22 C       -8.3030    -6.9120    -1.2070 C.ar  1 <1>  -0.1860 
 23 C       -7.8620    -8.2360    -1.3900 C.ar  1 <1>  -0.1580 
 24 C       -9.5220    -6.4180    -1.8270 C.2   1 <1>   0.9770 
 25 O       -9.8160    -5.2160    -1.7190 O.co2 1 <1>  -0.9030 
 26 O      -10.2630    -7.1820    -2.4630 O.co2 1 <1>  -0.9030 
 27 H       -6.3890    -3.1560    -1.8950 H     1 <1>   0.1420 
 28 H       -3.2910    -0.8390     0.0570 H     1 <1>   0.1420 
 29 H       -1.0600    -2.5830     0.0750 H     1 <1>   0.0720 
 30 H       -1.1740    -3.6420    -1.3250 H     1 <1>   0.0720 
 31 H       -5.6940    -0.8470    -0.7200 H     1 <1>   0.1420 
 32 H       -2.6350    -5.0040     0.0700 H     1 <1>   0.4440 
 33 H       -2.6820    -3.1180     1.8450 H     1 <1>   0.0720 
 34 H       -1.3300    -3.9920     2.4820 H     1 <1>   0.0720 
 35 H        0.0110    -5.2110     1.2580 H     1 <1>   0.0720 
 36 H       -0.1690    -5.3950    -0.4680 H     1 <1>   0.0720 
 37 H       -4.1600    -4.5890     2.6350 H     1 <1>   0.0720 
 38 H       -2.8750    -5.2260     3.5800 H     1 <1>   0.0720 
 39 H       -0.3280    -7.5400     0.6930 H     1 <1>   0.0720 
 40 H       -1.7490    -7.1980    -0.2210 H     1 <1>   0.0720 
 41 H       -1.4590    -6.8630     2.7860 H     1 <1>   0.0720 
 42 H       -2.2050    -8.2110     2.0300 H     1 <1>   0.0720 
 43 H       -5.5080    -4.9530     1.2010 H     1 <1>   0.4440 
 44 H       -3.8880    -9.5120     1.8510 H     1 <1>   0.0720 
 45 H       -3.1780    -9.3630     0.2460 H     1 <1>   0.0720 
 46 H       -4.7460   -10.0970     0.4600 H     1 <1>   0.0720 
 47 H       -7.8450    -5.0530    -0.2530 H     1 <1>   0.1420 
 48 H       -6.3920    -9.7240    -0.9890 H     1 <1>   0.1420 
 49 H       -8.4680    -8.8860    -2.0040 H     1 <1>   0.1420 
@<TRIPOS>BOND
  1   1   2  1   
  2   1   3  1   
  3   2   4  2   
  4   2   5  1   
  5   3   6  2   
  6   3  27  1   
  7   4   6  1   
  8   4  28  1   
  9   5   7  1   
 10   5  29  1   
 11   5  30  1   
 12   6  31  1   
 13   7   8  1   
 14   7   9  1   
 15   7  32  1   
 16   8  10  1   
 17   8  33  1   
 18   8  34  1   
 19   9  11  1   
 20   9  35  1   
 21   9  36  1   
 22  10  12  1   
 23  10  37  1   
 24  10  38  1   
 25  11  13  1   
 26  11  39  1   
 27  11  40  1   
 28  12  13  1   
 29  12  14  ar  
 30  13  41  1   
 31  13  42  1   
 32  14  15  ar  
 33  14  16  ar  
 34  15  17  1   
 35  15  43  1   
 36  16  18  1   
 37  16  19  1   
 38  17  18  ar  
 39  17  20  ar  
 40  18  21  ar  
 41  19  44  1   
 42  19  45  1   
 43  19  46  1   
 44  20  22  ar  
 45  20  47  1   
 46  21  23  ar  
 47  21  48  1   
 48  22  23  ar  
 49  22  24  1   
 50  23  49  1   
 51  24  25  ar  
 52  24  26  ar  
@<TRIPOS>SUBSTRUCTURE
  1 ****  15 GROUP 4 **** **** 0

# MOE 2024.06 (io_trps.svl 2023.06)
