@<TRIPOS>MOLECULE
NONAME
36 38 1 0 0 
SMALL
USER_CHARGES


@<TRIPOS>ATOM
  1 CL      -0.6510    -0.1490    -1.3370 Cl    1 <1>  -0.1770 
  2 C       -1.9920    -0.9690    -0.5720 C.ar  1 <1>   0.1770 
  3 C       -3.0210    -1.4880    -1.3390 C.ar  1 <1>   0.1600 
  4 C       -2.0180    -1.0960     0.8000 C.ar  1 <1>  -0.1500 
  5 N       -4.0750    -2.1250    -0.8470 N.ar  1 <1>  -0.6200 
  6 C       -3.1090    -1.7550     1.3220 C.ar  1 <1>  -0.1500 
  7 C       -4.1030    -2.2470     0.4780 C.ar  1 <1>   0.4100 
  8 N       -5.1830    -2.9050     1.0230 N.pl3 1 <1>  -0.8380 
  9 C       -6.5160    -2.2920     0.7560 C.3   1 <1>   0.2090 
 10 C       -5.2570    -4.3630     0.7290 C.3   1 <1>   0.2090 
 11 C       -7.3000    -3.3410    -0.0270 C.3   1 <1>   0.2000 
 12 C       -6.7220    -4.6760     0.4220 C.3   1 <1>  -0.0800 
 13 O       -8.6610    -3.2930     0.2440 O.3   1 <1>  -0.6800 
 14 C       -6.9070    -5.7850    -0.6240 C.3   1 <1>   0.0200 
 15 C       -6.2040    -7.0600    -0.1990 C.2   1 <1>  -0.0400 
 16 O       -6.5460    -7.6600     0.9090 O.3   1 <1>  -0.0190 
 17 C       -5.2100    -7.7640    -0.7600 C.2   1 <1>  -0.1500 
 18 N       -5.8320    -8.7270     1.1220 N.2   1 <1>  -0.4100 
 19 C       -5.0190    -8.8160     0.1310 C.2   1 <1>   0.1080 
 20 C       -3.9970    -9.9180    -0.0340 C.3   1 <1>  -0.0590 
 21 H       -2.9680    -1.3700    -2.4070 H     1 <1>   0.1500 
 22 H       -1.2300    -0.7010     1.4150 H     1 <1>   0.1500 
 23 H       -3.2180    -1.9030     2.3800 H     1 <1>   0.1500 
 24 H       -6.9930    -2.0830     1.6970 H     1 <1>   0.0800 
 25 H       -6.4230    -1.3830     0.1860 H     1 <1>   0.0800 
 26 H       -4.6360    -4.5970    -0.1210 H     1 <1>   0.0800 
 27 H       -4.9130    -4.9340     1.5750 H     1 <1>   0.0800 
 28 H       -7.1530    -3.1810    -1.0820 H     1 <1>   0.0800 
 29 H       -7.1810    -4.9750     1.3480 H     1 <1>   0.0800 
 30 H       -8.8260    -3.4770     1.1890 H     1 <1>   0.4000 
 31 H       -6.5100    -5.4640    -1.5710 H     1 <1>   0.0800 
 32 H       -7.9560    -5.9870    -0.7530 H     1 <1>   0.0800 
 33 H       -4.6690    -7.5900    -1.6710 H     1 <1>   0.1500 
 34 H       -4.1550   -10.4260    -0.9670 H     1 <1>   0.0800 
 35 H       -4.0890   -10.6270     0.7690 H     1 <1>   0.0800 
 36 H       -3.0060    -9.5020    -0.0180 H     1 <1>   0.0800 
@<TRIPOS>BOND
  1   1   2  1   
  2   2   3  ar  
  3   2   4  ar  
  4   3   5  ar  
  5   3  21  1   
  6   4   6  ar  
  7   4  22  1   
  8   5   7  ar  
  9   6   7  ar  
 10   6  23  1   
 11   7   8  1   
 12   8   9  1   
 13   8  10  1   
 14   9  11  1   
 15   9  24  1   
 16   9  25  1   
 17  10  12  1   
 18  10  26  1   
 19  10  27  1   
 20  11  12  1   
 21  11  13  1   
 22  11  28  1   
 23  12  14  1   
 24  12  29  1   
 25  13  30  1   
 26  14  15  1   
 27  14  31  1   
 28  14  32  1   
 29  15  16  1   
 30  15  17  2   
 31  16  18  1   
 32  17  19  1   
 33  17  33  1   
 34  18  19  2   
 35  19  20  1   
 36  20  34  1   
 37  20  35  1   
 38  20  36  1   
@<TRIPOS>SUBSTRUCTURE
  1 ****  10 GROUP 4 **** **** 0

# MOE 2024.06 (io_trps.svl 2023.06)
