@<TRIPOS>MOLECULE
NONAME
50 53 1 0 0 
SMALL
USER_CHARGES


@<TRIPOS>ATOM
  1 F       -0.7270    -0.7550    -0.1180 F     1 <1>  -0.1900 
  2 C       -0.2360    -1.7130     0.6220 C.ar  1 <1>   0.1900 
  3 C       -0.4150    -3.0420     0.2320 C.ar  1 <1>   0.0530 
  4 C        0.4330    -1.3450     1.7740 C.ar  1 <1>  -0.1500 
  5 C       -1.1200    -3.4190    -0.9710 C.2   1 <1>   0.0870 
  6 C        0.1250    -4.0100     1.0800 C.ar  1 <1>  -0.1500 
  7 C        0.9540    -2.3320     2.5910 C.ar  1 <1>  -0.1500 
  8 O       -1.8580    -4.5210    -0.9860 O.3   1 <1>  -0.2800 
  9 C       -1.1990    -2.8290    -2.1940 C.2   1 <1>  -0.1500 
 10 C        0.7980    -3.6640     2.2400 C.ar  1 <1>  -0.1500 
 11 C       -2.4140    -4.6440    -2.1750 C.2   1 <1>  -0.0400 
 12 C       -2.0400    -3.6230    -2.9760 C.2   1 <1>  -0.1500 
 13 C       -3.3440    -5.8170    -2.4060 C.3   1 <1>   0.5230 
 14 N       -4.3070    -5.8450    -1.2700 N.4   1 <1>  -0.9590 
 15 C       -4.9410    -7.1970    -1.1170 C.3   1 <1>   0.3430 
 16 C       -5.2530    -4.6880    -1.3470 C.3   1 <1>   0.3430 
 17 C       -5.9340    -7.3090     0.0570 C.3   1 <1>   0.1400 
 18 C       -5.7580    -4.3390     0.0510 C.3   1 <1>  -0.1600 
 19 N       -7.1400    -6.4420    -0.1490 N.am  1 <1>  -0.6600 
 20 C       -7.0430    -5.0730     0.4460 C.3   1 <1>   0.1400 
 21 C       -8.3480    -6.8690    -0.6690 C.2   1 <1>   0.5690 
 22 O       -9.2630    -6.1020    -0.8310 O.2   1 <1>  -0.5700 
 23 C       -8.6160    -8.3020    -1.0790 C.3   1 <1>   0.1570 
 24 N       -8.7630    -9.1290     0.1200 N.pl3 1 <1>   0.3140 
 25 N       -7.9580   -10.1330     0.3880 N.2   1 <1>  -0.4180 
 26 C       -9.6160    -9.0220     1.1190 C.2   1 <1>   0.0360 
 27 N       -8.3350   -10.6030     1.5230 N.2   1 <1>   0.0000 
 28 N       -9.3700    -9.9170     1.9960 N.2   1 <1>  -0.3380 
 29 H        0.5400    -0.3050     2.0260 H     1 <1>   0.1500 
 30 H        0.0220    -5.0500     0.8230 H     1 <1>   0.1500 
 31 H        1.4780    -2.0680     3.4940 H     1 <1>   0.1500 
 32 H       -0.7170    -1.9230    -2.5180 H     1 <1>   0.1500 
 33 H        1.2070    -4.4320     2.8750 H     1 <1>   0.1500 
 34 H       -2.3050    -3.4130    -3.9990 H     1 <1>   0.1500 
 35 H       -2.7600    -6.7220    -2.4200 H     1 <1>   0.0800 
 36 H       -3.8580    -5.7150    -3.3480 H     1 <1>   0.0800 
 37 H       -3.7050    -5.6580    -0.4530 H     1 <1>   0.4500 
 38 H       -4.1660    -7.9300    -0.9680 H     1 <1>   0.0800 
 39 H       -5.4610    -7.4560    -2.0250 H     1 <1>   0.0800 
 40 H       -6.0800    -4.9070    -2.0030 H     1 <1>   0.0800 
 41 H       -4.7320    -3.8270    -1.7360 H     1 <1>   0.0800 
 42 H       -5.4440    -7.0440     0.9790 H     1 <1>   0.0800 
 43 H       -6.2230    -8.3370     0.1540 H     1 <1>   0.0800 
 44 H       -5.9780    -3.2860     0.0740 H     1 <1>   0.0800 
 45 H       -4.9900    -4.5010     0.7870 H     1 <1>   0.0800 
 46 H       -7.8800    -4.4730     0.1260 H     1 <1>   0.0800 
 47 H       -7.1040    -5.1470     1.5200 H     1 <1>   0.0800 
 48 H       -7.8130    -8.6790    -1.6800 H     1 <1>   0.0800 
 49 H       -9.5280    -8.3540    -1.6440 H     1 <1>   0.0800 
 50 H      -10.3930    -8.2800     1.1760 H     1 <1>   0.1500 
@<TRIPOS>BOND
  1   1   2  1   
  2   2   3  ar  
  3   2   4  ar  
  4   3   5  1   
  5   3   6  ar  
  6   4   7  ar  
  7   4  29  1   
  8   5   8  1   
  9   5   9  2   
 10   6  10  ar  
 11   6  30  1   
 12   7  10  ar  
 13   7  31  1   
 14   8  11  1   
 15   9  12  1   
 16   9  32  1   
 17  10  33  1   
 18  11  12  2   
 19  11  13  1   
 20  12  34  1   
 21  13  14  1   
 22  13  35  1   
 23  13  36  1   
 24  14  15  1   
 25  14  16  1   
 26  14  37  1   
 27  15  17  1   
 28  15  38  1   
 29  15  39  1   
 30  16  18  1   
 31  16  40  1   
 32  16  41  1   
 33  17  19  1   
 34  17  42  1   
 35  17  43  1   
 36  18  20  1   
 37  18  44  1   
 38  18  45  1   
 39  19  20  1   
 40  19  21  am  
 41  20  46  1   
 42  20  47  1   
 43  21  22  2   
 44  21  23  1   
 45  23  24  1   
 46  23  48  1   
 47  23  49  1   
 48  24  25  1   
 49  24  26  1   
 50  25  27  2   
 51  26  28  2   
 52  26  50  1   
 53  27  28  1   
@<TRIPOS>SUBSTRUCTURE
  1 ****  14 GROUP 4 **** **** 0

# MOE 2024.06 (io_trps.svl 2023.06)
