@<TRIPOS>MOLECULE
NONAME
54 56 1 0 0 
SMALL
USER_CHARGES


@<TRIPOS>ATOM
  1 O        1.1930    -0.4900     1.8130 O.2   1 <1>  -0.5700 
  2 C        1.4640    -0.4930     0.6240 C.2   1 <1>   0.5440 
  3 N        1.7500    -1.7040     0.0460 N.am  1 <1>  -0.7300 
  4 C        1.5110     0.7250    -0.1840 C.ar  1 <1>   0.3960 
  5 C        1.6250    -3.0280     0.6860 C.3   1 <1>   0.1400 
  6 N        2.4500     0.7630    -1.1550 N.ar  1 <1>  -0.6200 
  7 C        0.6290     1.8110     0.0190 C.ar  1 <1>   0.0830 
  8 C        0.9710    -3.9900    -0.3060 C.3   1 <1>  -0.1600 
  9 C        2.5570     1.8720    -1.8590 C.ar  1 <1>   0.1600 
 10 O       -0.3990     1.8400     0.9000 O.3   1 <1>  -0.3630 
 11 C        0.7790     2.9640    -0.7260 C.ar  1 <1>  -0.1500 
 12 C        0.5020    -5.2770     0.3860 C.3   1 <1>  -0.1600 
 13 C        1.7640     2.9900    -1.6830 C.ar  1 <1>  -0.1500 
 14 C       -1.3640     0.8090     0.9310 C.3   1 <1>   0.1200 
 15 C       -0.1590    -6.2290    -0.6130 C.3   1 <1>   0.1400 
 16 C       -2.7200     1.4470     1.2360 C.3   1 <1>  -0.1600 
 17 N       -1.0550    -7.1510     0.1170 N.am  1 <1>  -0.7300 
 18 C       -3.7830     0.4030     1.6160 C.3   1 <1>   0.0960 
 19 C       -2.4100    -7.1740     0.1570 C.2   1 <1>   0.5690 
 20 N       -3.9680    -0.6180     0.5650 N.pl3 1 <1>   0.3140 
 21 O       -2.9690    -7.9490     0.8870 O.2   1 <1>  -0.5700 
 22 C       -3.2490    -6.2380    -0.6980 C.3   1 <1>  -0.0990 
 23 N       -4.4690    -0.3380    -0.6410 N.2   1 <1>  -0.4180 
 24 C       -3.7130    -1.9250     0.6470 C.2   1 <1>  -0.3020 
 25 C       -3.3160    -4.8130    -0.1190 C.3   1 <1>  -0.1600 
 26 N       -4.5390    -1.4320    -1.3160 N.2   1 <1>  -0.2270 
 27 C       -4.0840    -2.4240    -0.5430 C.2   1 <1>   0.0460 
 28 C       -4.0540    -3.8510    -1.0620 C.3   1 <1>   0.0210 
 29 H        2.1770    -1.6750    -0.8840 H     1 <1>   0.3700 
 30 H        1.0160    -2.9410     1.5720 H     1 <1>   0.0800 
 31 H        2.5990    -3.3840     0.9760 H     1 <1>   0.0800 
 32 H        1.6740    -4.2270    -1.0860 H     1 <1>   0.0800 
 33 H        0.1160    -3.5040    -0.7460 H     1 <1>   0.0800 
 34 H        3.3190     1.8980    -2.6210 H     1 <1>   0.1500 
 35 H        0.1310     3.8060    -0.5600 H     1 <1>   0.1500 
 36 H       -0.2070    -5.0120     1.1530 H     1 <1>   0.0800 
 37 H        1.3360    -5.7720     0.8530 H     1 <1>   0.0800 
 38 H        1.9170     3.8640    -2.2910 H     1 <1>   0.1500 
 39 H       -1.0970     0.1220     1.7130 H     1 <1>   0.0800 
 40 H       -1.3780     0.3020    -0.0200 H     1 <1>   0.0800 
 41 H        0.5900    -6.7940    -1.1420 H     1 <1>   0.0800 
 42 H       -0.7230    -5.6670    -1.3360 H     1 <1>   0.0800 
 43 H       -3.0550     2.0050     0.3800 H     1 <1>   0.0800 
 44 H       -2.6080     2.1280     2.0610 H     1 <1>   0.0800 
 45 H       -0.5990    -7.8240     0.7370 H     1 <1>   0.3700 
 46 H       -4.7270     0.8910     1.7740 H     1 <1>   0.0800 
 47 H       -3.5000    -0.0920     2.5270 H     1 <1>   0.0800 
 48 H       -4.2440    -6.6420    -0.7600 H     1 <1>   0.0800 
 49 H       -2.8480    -6.2240    -1.6940 H     1 <1>   0.0800 
 50 H       -3.3060    -2.4030     1.5170 H     1 <1>   0.1500 
 51 H       -2.3230    -4.4380     0.0450 H     1 <1>   0.0800 
 52 H       -3.8200    -4.8440     0.8320 H     1 <1>   0.0800 
 53 H       -5.0670    -4.1840    -1.2040 H     1 <1>   0.0800 
 54 H       -3.5680    -3.8470    -2.0210 H     1 <1>   0.0800 
@<TRIPOS>BOND
  1   1   2  2   
  2   2   3  am  
  3   2   4  1   
  4   3   5  1   
  5   3  29  1   
  6   4   6  ar  
  7   4   7  ar  
  8   5   8  1   
  9   5  30  1   
 10   5  31  1   
 11   6   9  ar  
 12   7  10  1   
 13   7  11  ar  
 14   8  12  1   
 15   8  32  1   
 16   8  33  1   
 17   9  13  ar  
 18   9  34  1   
 19  10  14  1   
 20  11  13  ar  
 21  11  35  1   
 22  12  15  1   
 23  12  36  1   
 24  12  37  1   
 25  13  38  1   
 26  14  16  1   
 27  14  39  1   
 28  14  40  1   
 29  15  17  1   
 30  15  41  1   
 31  15  42  1   
 32  16  18  1   
 33  16  43  1   
 34  16  44  1   
 35  17  19  am  
 36  17  45  1   
 37  18  20  1   
 38  18  46  1   
 39  18  47  1   
 40  19  21  2   
 41  19  22  1   
 42  20  23  1   
 43  20  24  1   
 44  22  25  1   
 45  22  48  1   
 46  22  49  1   
 47  23  26  2   
 48  24  27  2   
 49  24  50  1   
 50  25  28  1   
 51  25  51  1   
 52  25  52  1   
 53  26  27  1   
 54  27  28  1   
 55  28  53  1   
 56  28  54  1   
@<TRIPOS>SUBSTRUCTURE
  1 ****  24 GROUP 4 **** **** 0

# MOE 2024.06 (io_trps.svl 2023.06)
