@<TRIPOS>MOLECULE
NONAME
53 57 1 0 0 
SMALL
USER_CHARGES


@<TRIPOS>ATOM
  1 O       -1.3730     1.2950     3.8520 O.2   1 <1>  -0.5700 
  2 C       -0.9760     1.6910     2.7700 C.2   1 <1>   0.7160 
  3 N       -1.8320     1.6360     1.6870 N.am  1 <1>  -0.6600 
  4 C        0.3560     2.2370     2.6600 C.2   1 <1>  -0.0860 
  5 C       -1.5980     2.4270     0.4290 C.3   1 <1>   0.1400 
  6 C       -3.1300     0.9040     1.7880 C.3   1 <1>   0.1400 
  7 C        1.0510     2.9010     3.6720 C.2   1 <1>   0.1390 
  8 C        1.2230     2.2940     1.6120 C.2   1 <1>  -0.3020 
  9 C       -2.9040     2.9570    -0.1880 C.3   1 <1>   0.1440 
 10 C       -3.6730     0.5530     0.3980 C.3   1 <1>  -0.1600 
 11 N        2.2010     3.3620     3.2840 N.2   1 <1>  -0.7070 
 12 N        2.3020     2.9930     1.9930 N.pl3 1 <1>   0.3140 
 13 C       -2.5330     3.7930    -1.4040 C.ar  1 <1>   0.1660 
 14 C       -3.8560     1.7780    -0.5230 C.3   1 <1>  -0.1600 
 15 C       -3.5680     4.0140     0.7430 C.3   1 <1>  -0.1600 
 16 C        3.4190     3.4230     1.1210 C.3   1 <1>   0.2390 
 17 N       -2.1270     3.3250    -2.5610 N.ar  1 <1>  -0.6200 
 18 C       -2.6390     5.1290    -1.1460 C.ar  1 <1>  -0.1440 
 19 C       -3.0990     5.3980     0.2640 C.3   1 <1>  -0.0170 
 20 C        2.9130     3.6590    -0.3000 C.ar  1 <1>  -0.1440 
 21 C       -1.8340     4.2600    -3.4520 C.ar  1 <1>   0.7200 
 22 C       -2.3160     6.0070    -2.1530 C.ar  1 <1>   0.1600 
 23 C        3.3190     2.8400    -1.3440 C.ar  1 <1>  -0.1500 
 24 C        2.0010     4.6760    -0.5500 C.ar  1 <1>  -0.1500 
 25 N       -1.9090     5.5780    -3.3260 N.ar  1 <1>  -0.6200 
 26 N       -1.4360     3.8180    -4.6460 N.pl3 1 <1>  -0.9000 
 27 C        2.8070     3.0260    -2.6160 C.ar  1 <1>  -0.1500 
 28 C        1.4860     4.8580    -1.8210 C.ar  1 <1>  -0.1500 
 29 C        1.8860     4.0310    -2.8540 C.ar  1 <1>  -0.1500 
 30 H       -1.1030     1.7980    -0.2910 H     1 <1>   0.0800 
 31 H       -0.9570     3.2670     0.6320 H     1 <1>   0.0800 
 32 H       -3.8390     1.5180     2.3160 H     1 <1>   0.0800 
 33 H       -2.9860     0.0000     2.3570 H     1 <1>   0.0800 
 34 H        0.6650     3.0240     4.6710 H     1 <1>   0.1500 
 35 H        1.1080     1.8950     0.6200 H     1 <1>   0.1500 
 36 H       -4.6100     0.0350     0.4990 H     1 <1>   0.0800 
 37 H       -2.9810    -0.1330    -0.0600 H     1 <1>   0.0800 
 38 H       -3.6740     1.4490    -1.5320 H     1 <1>   0.0800 
 39 H       -4.8780     2.1070    -0.4920 H     1 <1>   0.0800 
 40 H       -3.3310     3.8640     1.7820 H     1 <1>   0.0800 
 41 H       -4.6370     3.9770     0.6380 H     1 <1>   0.0800 
 42 H        4.1750     2.6610     1.1390 H     1 <1>   0.0800 
 43 H        3.8320     4.3300     1.5200 H     1 <1>   0.0800 
 44 H       -2.2700     5.7450     0.8560 H     1 <1>   0.0800 
 45 H       -3.8980     6.1190     0.2930 H     1 <1>   0.0800 
 46 H       -2.3900     7.0690    -1.9930 H     1 <1>   0.1500 
 47 H        4.0270     2.0470    -1.1740 H     1 <1>   0.1500 
 48 H        1.6770     5.3230     0.2480 H     1 <1>   0.1500 
 49 H       -1.5570     4.4800    -5.4080 H     1 <1>   0.4000 
 50 H       -1.6790     2.8520    -4.8420 H     1 <1>   0.4000 
 51 H        3.1180     2.3860    -3.4230 H     1 <1>   0.1500 
 52 H        0.7690     5.6380    -2.0130 H     1 <1>   0.1500 
 53 H        1.4740     4.1690    -3.8390 H     1 <1>   0.1500 
@<TRIPOS>BOND
  1   1   2  2   
  2   2   3  am  
  3   2   4  1   
  4   3   5  1   
  5   3   6  1   
  6   4   7  1   
  7   4   8  2   
  8   5   9  1   
  9   5  30  1   
 10   5  31  1   
 11   6  10  1   
 12   6  32  1   
 13   6  33  1   
 14   7  11  2   
 15   7  34  1   
 16   8  12  1   
 17   8  35  1   
 18   9  13  1   
 19   9  14  1   
 20   9  15  1   
 21  10  14  1   
 22  10  36  1   
 23  10  37  1   
 24  11  12  1   
 25  12  16  1   
 26  13  17  ar  
 27  13  18  ar  
 28  14  38  1   
 29  14  39  1   
 30  15  19  1   
 31  15  40  1   
 32  15  41  1   
 33  16  20  1   
 34  16  42  1   
 35  16  43  1   
 36  17  21  ar  
 37  18  19  1   
 38  18  22  ar  
 39  19  44  1   
 40  19  45  1   
 41  20  23  ar  
 42  20  24  ar  
 43  21  25  ar  
 44  21  26  1   
 45  22  25  ar  
 46  22  46  1   
 47  23  27  ar  
 48  23  47  1   
 49  24  28  ar  
 50  24  48  1   
 51  26  49  1   
 52  26  50  1   
 53  27  29  ar  
 54  27  51  1   
 55  28  29  ar  
 56  28  52  1   
 57  29  53  1   
@<TRIPOS>SUBSTRUCTURE
  1 ****   5 GROUP 4 **** **** 0

# MOE 2024.06 (io_trps.svl 2023.06)
