@<TRIPOS>MOLECULE
NONAME
54 56 1 0 0 
SMALL
USER_CHARGES


@<TRIPOS>ATOM
  1 O        0.3390    -2.3640    -2.0560 O.co2 1 <1>  -0.9000 
  2 C       -0.3510    -3.3950    -1.9650 C.2   1 <1>   0.9790 
  3 O       -0.1270    -4.3350    -2.7510 O.co2 1 <1>  -0.9000 
  4 C       -1.3930    -3.5090    -0.9510 C.ar  1 <1>  -0.1790 
  5 C       -2.2620    -4.6010    -0.9240 C.ar  1 <1>  -0.1500 
  6 C       -1.5610    -2.5410     0.0410 C.ar  1 <1>  -0.1500 
  7 C       -3.2350    -4.7450     0.0520 C.ar  1 <1>  -0.1440 
  8 C       -2.5320    -2.6660     1.0170 C.ar  1 <1>  -0.1500 
  9 C       -3.3670    -3.7690     1.0270 C.ar  1 <1>  -0.1500 
 10 C       -4.1360    -5.9680     0.0520 C.3   1 <1>   0.2640 
 11 O       -3.8310    -6.7560     1.1890 O.3   1 <1>  -0.3630 
 12 C       -3.9200    -8.1070     1.1030 C.ar  1 <1>   0.0830 
 13 C       -3.2170    -8.8780     0.1690 C.ar  1 <1>   0.0830 
 14 C       -4.7480    -8.7380     2.0160 C.ar  1 <1>  -0.1500 
 15 O       -2.3650    -8.3550    -0.7450 O.3   1 <1>  -0.3620 
 16 C       -3.3890   -10.2510     0.1440 C.ar  1 <1>  -0.1500 
 17 C       -4.9080   -10.1130     1.9910 C.ar  1 <1>  -0.1500 
 18 C       -1.1920    -7.7220    -0.2660 C.3   1 <1>   0.0400 
 19 C       -4.2350   -10.8780     1.0480 C.ar  1 <1>  -0.1430 
 20 C       -4.4140   -12.3840     1.0000 C.3   1 <1>   0.4860 
 21 N       -5.2560   -12.7230    -0.1740 N.4   1 <1>  -0.9590 
 22 C       -5.1840   -14.2020    -0.4420 C.3   1 <1>   0.3430 
 23 C       -6.6520   -12.1920     0.0050 C.3   1 <1>   0.3430 
 24 C       -6.3370   -14.9150     0.2340 C.3   1 <1>  -0.1860 
 25 C       -7.6420   -12.9940    -0.8290 C.3   1 <1>  -0.1600 
 26 C       -6.1930   -16.3870     0.0230 C.2   1 <1>   0.9060 
 27 C       -7.6740   -14.4460    -0.3430 C.3   1 <1>   0.2000 
 28 O       -5.1970   -16.7920    -0.5790 O.co2 1 <1>  -0.9000 
 29 O       -7.0850   -17.1130     0.4590 O.co2 1 <1>  -0.9000 
 30 O       -8.5870   -14.5400     0.6790 O.3   1 <1>  -0.6800 
 31 H       -2.1510    -5.3480    -1.6920 H     1 <1>   0.1500 
 32 H       -0.9070    -1.6850     0.0340 H     1 <1>   0.1500 
 33 H       -2.6330    -1.9050     1.7690 H     1 <1>   0.1500 
 34 H       -4.1130    -3.8690     1.7950 H     1 <1>   0.1500 
 35 H       -3.9950    -6.5430    -0.8450 H     1 <1>   0.0800 
 36 H       -5.1670    -5.6750     0.1200 H     1 <1>   0.0800 
 37 H       -5.2650    -8.1410     2.7470 H     1 <1>   0.1500 
 38 H       -2.8390   -10.8130    -0.5910 H     1 <1>   0.1500 
 39 H       -5.5590   -10.5740     2.7150 H     1 <1>   0.1500 
 40 H       -0.6760    -7.2860    -1.1040 H     1 <1>   0.0800 
 41 H       -0.5690    -8.4580     0.2080 H     1 <1>   0.0800 
 42 H       -1.4510    -6.9500     0.4350 H     1 <1>   0.0800 
 43 H       -4.8820   -12.7360     1.9050 H     1 <1>   0.0800 
 44 H       -3.4490   -12.8540     0.9110 H     1 <1>   0.0800 
 45 H       -4.8400   -12.2440    -0.9800 H     1 <1>   0.4500 
 46 H       -5.2480   -14.3930    -1.5020 H     1 <1>   0.0800 
 47 H       -4.2490   -14.6160    -0.0970 H     1 <1>   0.0800 
 48 H       -6.9450   -12.2810     1.0400 H     1 <1>   0.0800 
 49 H       -6.6890   -11.1490    -0.2670 H     1 <1>   0.0800 
 50 H       -6.2810   -14.7430     1.2920 H     1 <1>   0.0800 
 51 H       -7.3440   -12.9610    -1.8610 H     1 <1>   0.0800 
 52 H       -8.6270   -12.5650    -0.7620 H     1 <1>   0.0800 
 53 H       -8.0070   -15.0950    -1.1390 H     1 <1>   0.0800 
 54 H       -8.6060   -15.4910     0.9530 H     1 <1>   0.4000 
@<TRIPOS>BOND
  1   1   2  ar  
  2   2   3  ar  
  3   2   4  1   
  4   4   5  ar  
  5   4   6  ar  
  6   5   7  ar  
  7   5  31  1   
  8   6   8  ar  
  9   6  32  1   
 10   7   9  ar  
 11   7  10  1   
 12   8   9  ar  
 13   8  33  1   
 14   9  34  1   
 15  10  11  1   
 16  10  35  1   
 17  10  36  1   
 18  11  12  1   
 19  12  13  ar  
 20  12  14  ar  
 21  13  15  1   
 22  13  16  ar  
 23  14  17  ar  
 24  14  37  1   
 25  15  18  1   
 26  16  19  ar  
 27  16  38  1   
 28  17  19  ar  
 29  17  39  1   
 30  18  40  1   
 31  18  41  1   
 32  18  42  1   
 33  19  20  1   
 34  20  21  1   
 35  20  43  1   
 36  20  44  1   
 37  21  22  1   
 38  21  23  1   
 39  21  45  1   
 40  22  24  1   
 41  22  46  1   
 42  22  47  1   
 43  23  25  1   
 44  23  48  1   
 45  23  49  1   
 46  24  26  1   
 47  24  27  1   
 48  24  50  1   
 49  25  27  1   
 50  25  51  1   
 51  25  52  1   
 52  26  28  ar  
 53  26  29  ar  
 54  27  30  1   
 55  27  53  1   
 56  30  54  1   
@<TRIPOS>SUBSTRUCTURE
  1 ****  13 GROUP 4 **** **** 0

# MOE 2024.06 (io_trps.svl 2023.06)
