@<TRIPOS>MOLECULE
NONAME
57 59 1 0 0 
SMALL
USER_CHARGES


@<TRIPOS>ATOM
  1 O       -0.1560     0.8350     2.6700 O.2   1 <1>  -0.5700 
  2 C       -0.9150     1.5780     2.0920 C.2   1 <1>   0.5690 
  3 N       -2.2470     1.2530     1.9280 N.am  1 <1>  -0.6600 
  4 C       -0.3200     2.8910     1.5850 C.3   1 <1>   0.0440 
  5 C       -3.2230     2.1360     1.2190 C.3   1 <1>   0.2200 
  6 C       -2.7430    -0.0610     2.4470 C.3   1 <1>   0.0600 
  7 C       -0.4030     3.0780     0.0650 C.ar  1 <1>  -0.1440 
  8 C       -4.5610     2.3150     1.9390 C.3   1 <1>  -0.1600 
  9 C       -3.6020     1.6090    -0.1640 C.3   1 <1>  -0.1600 
 10 C       -0.7860     4.2810    -0.5270 C.ar  1 <1>  -0.1430 
 11 C       -0.0760     1.9980    -0.7430 C.ar  1 <1>  -0.1500 
 12 C       -5.5160     2.7930     0.8360 C.3   1 <1>  -0.0800 
 13 C       -4.9180     2.3230    -0.4950 C.3   1 <1>  -0.0800 
 14 C       -0.8580     4.3640    -1.9090 C.ar  1 <1>  -0.1500 
 15 C       -1.1180     5.5240     0.2870 C.3   1 <1>  -0.0970 
 16 C       -0.1510     2.0850    -2.1220 C.ar  1 <1>  -0.1430 
 17 C       -6.9350     2.2030     0.8890 C.3   1 <1>  -0.1600 
 18 C       -5.9930     1.4460    -1.1510 C.3   1 <1>  -0.1600 
 19 C       -0.5460     3.2760    -2.7030 C.ar  1 <1>  -0.1500 
 20 C        0.2070     0.8850    -2.9800 C.3   1 <1>  -0.0970 
 21 C       -7.3230     1.9380    -0.5710 C.3   1 <1>   0.4230 
 22 N       -7.7600     3.2040    -1.2440 N.4   1 <1>  -0.9590 
 23 C       -8.9880     3.7970    -0.6220 C.3   1 <1>   0.2630 
 24 C       -8.0110     3.0240    -2.7100 C.3   1 <1>   0.2630 
 25 H       -0.8070     3.6850     2.1140 H     1 <1>   0.0800 
 26 H        0.7180     2.9210     1.8640 H     1 <1>   0.0800 
 27 H       -2.8090     3.1180     1.0910 H     1 <1>   0.0800 
 28 H       -3.5010    -0.4680     1.8040 H     1 <1>   0.0800 
 29 H       -3.1480     0.0730     3.4340 H     1 <1>   0.0800 
 30 H       -1.9380    -0.7740     2.5030 H     1 <1>   0.0800 
 31 H       -4.9020     1.3810     2.3430 H     1 <1>   0.0800 
 32 H       -4.4790     3.0360     2.7330 H     1 <1>   0.0800 
 33 H       -2.8440     1.8430    -0.8890 H     1 <1>   0.0800 
 34 H       -3.7380     0.5450    -0.1320 H     1 <1>   0.0800 
 35 H        0.2390     1.0710    -0.2950 H     1 <1>   0.1500 
 36 H       -5.5560     3.8700     0.8390 H     1 <1>   0.0800 
 37 H       -4.7090     3.1850    -1.1090 H     1 <1>   0.0800 
 38 H       -1.1510     5.2840    -2.3840 H     1 <1>   0.1500 
 39 H       -1.2650     6.3760    -0.3520 H     1 <1>   0.0800 
 40 H       -0.3080     5.7520     0.9570 H     1 <1>   0.0800 
 41 H       -2.0160     5.3700     0.8570 H     1 <1>   0.0800 
 42 H       -7.6170     2.8270     1.4350 H     1 <1>   0.0800 
 43 H       -6.9090     1.2500     1.3870 H     1 <1>   0.0800 
 44 H       -5.8650     0.4260    -0.8330 H     1 <1>   0.0800 
 45 H       -5.9310     1.4550    -2.2230 H     1 <1>   0.0800 
 46 H       -0.6040     3.3640    -3.7730 H     1 <1>   0.1500 
 47 H       -0.2570     0.9580    -3.9470 H     1 <1>   0.0800 
 48 H       -0.1280    -0.0220    -2.5100 H     1 <1>   0.0800 
 49 H        1.2730     0.8370    -3.1090 H     1 <1>   0.0800 
 50 H       -8.0910     1.1850    -0.6460 H     1 <1>   0.0800 
 51 H       -6.9810     3.8680    -1.1270 H     1 <1>   0.4500 
 52 H       -9.8000     3.0870    -0.6460 H     1 <1>   0.0800 
 53 H       -9.2890     4.6810    -1.1610 H     1 <1>   0.0800 
 54 H       -8.8040     4.0770     0.4010 H     1 <1>   0.0800 
 55 H       -8.7550     2.2610    -2.8720 H     1 <1>   0.0800 
 56 H       -7.1070     2.7400    -3.2220 H     1 <1>   0.0800 
 57 H       -8.3640     3.9460    -3.1440 H     1 <1>   0.0800 
@<TRIPOS>BOND
  1   1   2  2   
  2   2   3  am  
  3   2   4  1   
  4   3   5  1   
  5   3   6  1   
  6   4   7  1   
  7   4  25  1   
  8   4  26  1   
  9   5   8  1   
 10   5   9  1   
 11   5  27  1   
 12   6  28  1   
 13   6  29  1   
 14   6  30  1   
 15   7  10  ar  
 16   7  11  ar  
 17   8  12  1   
 18   8  31  1   
 19   8  32  1   
 20   9  13  1   
 21   9  33  1   
 22   9  34  1   
 23  10  14  ar  
 24  10  15  1   
 25  11  16  ar  
 26  11  35  1   
 27  12  13  1   
 28  12  17  1   
 29  12  36  1   
 30  13  18  1   
 31  13  37  1   
 32  14  19  ar  
 33  14  38  1   
 34  15  39  1   
 35  15  40  1   
 36  15  41  1   
 37  16  19  ar  
 38  16  20  1   
 39  17  21  1   
 40  17  42  1   
 41  17  43  1   
 42  18  21  1   
 43  18  44  1   
 44  18  45  1   
 45  19  46  1   
 46  20  47  1   
 47  20  48  1   
 48  20  49  1   
 49  21  22  1   
 50  21  50  1   
 51  22  23  1   
 52  22  24  1   
 53  22  51  1   
 54  23  52  1   
 55  23  53  1   
 56  23  54  1   
 57  24  55  1   
 58  24  56  1   
 59  24  57  1   
@<TRIPOS>SUBSTRUCTURE
  1 ****   9 GROUP 4 **** **** 0

# MOE 2024.06 (io_trps.svl 2023.06)
