@<TRIPOS>MOLECULE
NONAME
51 55 1 0 0 
SMALL
USER_CHARGES


@<TRIPOS>ATOM
  1 O       -2.5850    -0.4820     1.3590 O.2   1 <1>  -0.5700 
  2 C       -2.7310     0.3550     0.4800 C.2   1 <1>   0.7670 
  3 N       -2.3270     1.6300     0.7900 N.2   1 <1>  -0.6610 
  4 C       -3.2920     0.0390    -0.8010 C.2   1 <1>   0.0290 
  5 C       -2.4730     2.5480    -0.0880 C.2   1 <1>   0.5000 
  6 C       -3.7070    -1.2990    -1.1390 C.2   1 <1>   0.6160 
  7 C       -3.4190     1.0720    -1.6860 C.2   1 <1>  -0.0500 
  8 N       -3.0080     2.3170    -1.3190 N.pl3 1 <1>  -0.5500 
  9 C       -2.0450     3.9770     0.2010 C.3   1 <1>  -0.1000 
 10 O       -4.3120    -1.4970    -2.1770 O.2   1 <1>  -0.5700 
 11 N       -3.4570    -2.3840    -0.3510 N.am  1 <1>  -0.7300 
 12 C       -2.3520     4.6270     1.5180 C.3   1 <1>  -0.2000 
 13 C       -3.0580     5.0820     0.2780 C.3   1 <1>  -0.2000 
 14 C       -3.8810    -3.7750    -0.6310 C.3   1 <1>   0.2200 
 15 C       -5.2200    -4.0320     0.0390 C.3   1 <1>  -0.0800 
 16 C       -2.9570    -4.7660     0.0800 C.3   1 <1>   0.1200 
 17 C       -4.7800    -4.4340     1.4450 C.3   1 <1>   0.1200 
 18 C       -5.9950    -5.1570    -0.6750 C.3   1 <1>  -0.0170 
 19 O       -3.5690    -5.1080     1.2910 O.3   1 <1>  -0.5600 
 20 C       -7.3680    -5.3820    -0.0500 C.ar  1 <1>  -0.1430 
 21 C       -8.4590    -4.5100    -0.2820 C.ar  1 <1>   0.0000 
 22 C       -7.5810    -6.4550     0.7650 C.ar  1 <1>  -0.1500 
 23 C       -9.6860    -4.8090     0.3590 C.ar  1 <1>   0.3100 
 24 C       -8.4050    -3.3650    -1.1110 C.ar  1 <1>  -0.1500 
 25 C       -8.8380    -6.6620     1.3460 C.ar  1 <1>   0.1600 
 26 N       -9.8590    -5.8850     1.1670 N.ar  1 <1>  -0.6200 
 27 C      -10.7840    -3.9580     0.1530 C.ar  1 <1>  -0.1500 
 28 C       -9.4950    -2.5570    -1.2910 C.ar  1 <1>  -0.1500 
 29 C      -10.7010    -2.8540    -0.6510 C.ar  1 <1>  -0.1500 
 30 H       -3.8360     0.9340    -2.6730 H     1 <1>   0.1500 
 31 H       -3.0940     3.1200    -1.9500 H     1 <1>   0.4000 
 32 H       -1.0870     4.1990    -0.2320 H     1 <1>   0.1000 
 33 H       -3.0530    -2.2160     0.5830 H     1 <1>   0.3700 
 34 H       -2.8970     4.0600     2.2540 H     1 <1>   0.1000 
 35 H       -1.6060     5.2630     1.9610 H     1 <1>   0.1000 
 36 H       -2.8090     6.0480    -0.1280 H     1 <1>   0.1000 
 37 H       -4.1060     4.8520     0.1860 H     1 <1>   0.1000 
 38 H       -3.9040    -3.9420    -1.6950 H     1 <1>   0.0800 
 39 H       -5.8230    -3.1420     0.0660 H     1 <1>   0.0800 
 40 H       -1.9840    -4.3510     0.2770 H     1 <1>   0.0800 
 41 H       -2.8570    -5.6690    -0.4950 H     1 <1>   0.0800 
 42 H       -5.4840    -5.0730     1.9480 H     1 <1>   0.0800 
 43 H       -4.5930    -3.5610     2.0480 H     1 <1>   0.0800 
 44 H       -5.4270    -6.0700    -0.6290 H     1 <1>   0.0800 
 45 H       -6.1160    -4.9180    -1.7160 H     1 <1>   0.0800 
 46 H       -6.8000    -7.1610     0.9830 H     1 <1>   0.1500 
 47 H       -7.4900    -3.1170    -1.6160 H     1 <1>   0.1500 
 48 H       -8.9610    -7.5210     1.9830 H     1 <1>   0.1500 
 49 H      -11.7010    -4.2080     0.6540 H     1 <1>   0.1500 
 50 H       -9.4390    -1.6880    -1.9240 H     1 <1>   0.1500 
 51 H      -11.5510    -2.2120    -0.8000 H     1 <1>   0.1500 
@<TRIPOS>BOND
  1   1   2  2   
  2   2   3  1   
  3   2   4  1   
  4   3   5  2   
  5   4   6  1   
  6   4   7  2   
  7   5   8  1   
  8   5   9  1   
  9   6  10  2   
 10   6  11  am  
 11   7   8  1   
 12   7  30  1   
 13   8  31  1   
 14   9  12  1   
 15   9  13  1   
 16   9  32  1   
 17  11  14  1   
 18  11  33  1   
 19  12  13  1   
 20  12  34  1   
 21  12  35  1   
 22  13  36  1   
 23  13  37  1   
 24  14  15  1   
 25  14  16  1   
 26  14  38  1   
 27  15  17  1   
 28  15  18  1   
 29  15  39  1   
 30  16  19  1   
 31  16  40  1   
 32  16  41  1   
 33  17  19  1   
 34  17  42  1   
 35  17  43  1   
 36  18  20  1   
 37  18  44  1   
 38  18  45  1   
 39  20  21  ar  
 40  20  22  ar  
 41  21  23  ar  
 42  21  24  ar  
 43  22  25  ar  
 44  22  46  1   
 45  23  26  ar  
 46  23  27  ar  
 47  24  28  ar  
 48  24  47  1   
 49  25  26  ar  
 50  25  48  1   
 51  27  29  ar  
 52  27  49  1   
 53  28  29  ar  
 54  28  50  1   
 55  29  51  1   
@<TRIPOS>SUBSTRUCTURE
  1 ****  11 GROUP 4 **** **** 0

# MOE 2024.06 (io_trps.svl 2023.06)
