@<TRIPOS>MOLECULE
NONAME
58 61 1 0 0 
SMALL
USER_CHARGES


@<TRIPOS>ATOM
  1 O       -1.1820     0.4580     2.3310 O.2   1 <1>  -0.5700 
  2 C       -1.6530     0.8520     1.2820 C.2   1 <1>   0.5440 
  3 N       -2.2510    -0.0470     0.4280 N.am  1 <1>  -0.6600 
  4 C       -1.5670     2.2580     0.9420 C.ar  1 <1>   0.0860 
  5 C       -2.2550    -1.5190     0.7380 C.3   1 <1>   0.3640 
  6 C       -2.9470     0.3870    -0.8230 C.3   1 <1>   0.1400 
  7 C       -0.3900     2.8290     0.4370 C.ar  1 <1>  -0.1440 
  8 C       -2.6830     3.0800     1.1030 C.ar  1 <1>  -0.1500 
  9 C       -1.0330    -2.2330     0.1380 C.ar  1 <1>  -0.1440 
 10 C       -3.5730    -2.2320     0.2930 C.3   1 <1>   0.2000 
 11 C       -3.5620    -0.7910    -1.5900 C.3   1 <1>   0.1200 
 12 C       -0.3480     4.1730     0.1000 C.ar  1 <1>  -0.1500 
 13 C        0.8630     1.9790     0.2620 C.3   1 <1>  -0.0960 
 14 C       -2.6450     4.4150     0.7580 C.ar  1 <1>   0.0830 
 15 C       -0.6680    -3.4580     0.6830 C.ar  1 <1>  -0.1500 
 16 C       -0.2770    -1.7270    -0.9150 C.ar  1 <1>  -0.1500 
 17 O       -4.3100    -1.5670    -0.7100 O.3   1 <1>  -0.5600 
 18 C       -4.5270    -2.4340     1.4760 C.3   1 <1>   0.1200 
 19 C       -1.4660     4.9710     0.2610 C.ar  1 <1>   0.0830 
 20 O       -3.7670     5.1660     0.9060 O.3   1 <1>  -0.3630 
 21 C        0.4080    -4.1750     0.1890 C.ar  1 <1>   0.0830 
 22 C        0.8140    -2.4250    -1.4060 C.ar  1 <1>  -0.1500 
 23 O       -4.0250    -3.4030     2.3420 O.3   1 <1>  -0.6800 
 24 O       -1.3920     6.2840    -0.0620 O.3   1 <1>  -0.3630 
 25 C       -3.7860     6.4280     0.2650 C.3   1 <1>   0.1200 
 26 O        0.6610    -5.3840     0.7490 O.3   1 <1>  -0.3630 
 27 C        1.1740    -3.6400    -0.8520 C.ar  1 <1>   0.0830 
 28 C       -2.4260     7.1250     0.4120 C.3   1 <1>   0.1200 
 29 C        0.5410    -6.5090    -0.0930 C.3   1 <1>   0.0400 
 30 O        2.2760    -4.2520    -1.3500 O.3   1 <1>  -0.3630 
 31 C        3.3770    -4.3540    -0.4740 C.3   1 <1>   0.0400 
 32 H       -2.1720    -1.6410     1.8050 H     1 <1>   0.0800 
 33 H       -3.7360     1.0710    -0.5650 H     1 <1>   0.0800 
 34 H       -2.2530     0.9070    -1.4600 H     1 <1>   0.0800 
 35 H       -3.5920     2.6660     1.5010 H     1 <1>   0.1500 
 36 H       -3.3310    -3.2010    -0.1070 H     1 <1>   0.0800 
 37 H       -2.8070    -1.4070    -2.0470 H     1 <1>   0.0800 
 38 H       -4.2240    -0.4300    -2.3570 H     1 <1>   0.0800 
 39 H        0.5500     4.6210    -0.2850 H     1 <1>   0.1500 
 40 H        1.6840     2.5680    -0.1030 H     1 <1>   0.0800 
 41 H        0.6780     1.1820    -0.4340 H     1 <1>   0.0800 
 42 H        1.1490     1.5500     1.2070 H     1 <1>   0.0800 
 43 H       -1.2230    -3.8740     1.5060 H     1 <1>   0.1500 
 44 H       -0.5190    -0.7820    -1.3620 H     1 <1>   0.1500 
 45 H       -5.4930    -2.7610     1.1340 H     1 <1>   0.0800 
 46 H       -4.6310    -1.5150     2.0290 H     1 <1>   0.0800 
 47 H        1.3970    -2.0260    -2.2150 H     1 <1>   0.1500 
 48 H       -4.1590    -4.2990     1.9760 H     1 <1>   0.4000 
 49 H       -4.0140     6.2720    -0.7750 H     1 <1>   0.0800 
 50 H       -4.5670     7.0160     0.7130 H     1 <1>   0.0800 
 51 H       -2.2290     7.3460     1.4460 H     1 <1>   0.0800 
 52 H       -2.3980     8.0370    -0.1560 H     1 <1>   0.0800 
 53 H        0.6230    -7.3930     0.5140 H     1 <1>   0.0800 
 54 H        1.3280    -6.4940    -0.8240 H     1 <1>   0.0800 
 55 H       -0.4200    -6.4810    -0.5760 H     1 <1>   0.0800 
 56 H        4.2040    -4.7720    -1.0190 H     1 <1>   0.0800 
 57 H        3.1200    -4.9930     0.3510 H     1 <1>   0.0800 
 58 H        3.6290    -3.3700    -0.1180 H     1 <1>   0.0800 
@<TRIPOS>BOND
  1   1   2  2   
  2   2   3  am  
  3   2   4  1   
  4   3   5  1   
  5   3   6  1   
  6   4   7  ar  
  7   4   8  ar  
  8   5   9  1   
  9   5  10  1   
 10   5  32  1   
 11   6  11  1   
 12   6  33  1   
 13   6  34  1   
 14   7  12  ar  
 15   7  13  1   
 16   8  14  ar  
 17   8  35  1   
 18   9  15  ar  
 19   9  16  ar  
 20  10  17  1   
 21  10  18  1   
 22  10  36  1   
 23  11  17  1   
 24  11  37  1   
 25  11  38  1   
 26  12  19  ar  
 27  12  39  1   
 28  13  40  1   
 29  13  41  1   
 30  13  42  1   
 31  14  19  ar  
 32  14  20  1   
 33  15  21  ar  
 34  15  43  1   
 35  16  22  ar  
 36  16  44  1   
 37  18  23  1   
 38  18  45  1   
 39  18  46  1   
 40  19  24  1   
 41  20  25  1   
 42  21  26  1   
 43  21  27  ar  
 44  22  27  ar  
 45  22  47  1   
 46  23  48  1   
 47  24  28  1   
 48  25  28  1   
 49  25  49  1   
 50  25  50  1   
 51  26  29  1   
 52  27  30  1   
 53  28  51  1   
 54  28  52  1   
 55  29  53  1   
 56  29  54  1   
 57  29  55  1   
 58  30  31  1   
 59  31  56  1   
 60  31  57  1   
 61  31  58  1   
@<TRIPOS>SUBSTRUCTURE
  1 ****   3 GROUP 4 **** **** 0

# MOE 2024.06 (io_trps.svl 2023.06)
