@<TRIPOS>MOLECULE
NONAME
47 48 1 0 0 
SMALL
USER_CHARGES


@<TRIPOS>ATOM
  1 O       -1.2080    -0.3530    -1.5420 O.2   1 <1>  -0.5700 
  2 C       -1.5790     0.5370    -0.8010 C.2   1 <1>   0.5440 
  3 N       -2.3020     0.1920     0.3220 N.am  1 <1>  -0.6600 
  4 C       -1.3770     1.9290    -1.1650 C.ar  1 <1>   0.0860 
  5 C       -2.3090    -1.2160     0.8020 C.3   1 <1>   0.3200 
  6 C       -3.4180     1.0500     0.8240 C.3   1 <1>   0.1400 
  7 C       -0.7480     2.8710    -0.3350 C.ar  1 <1>  -0.1440 
  8 C       -1.8720     2.3600    -2.3950 C.ar  1 <1>  -0.1500 
  9 C       -3.5270    -1.8690     0.1940 C.2   1 <1>  -0.3320 
 10 C       -4.4810     1.2380    -0.2790 C.3   1 <1>   0.3430 
 11 C       -0.6980     4.2110    -0.7120 C.ar  1 <1>  -0.1440 
 12 C       -0.0920     2.4310     0.9760 C.3   1 <1>  -0.0960 
 13 C       -1.8070     3.6830    -2.7750 C.ar  1 <1>  -0.1500 
 14 N       -3.6190    -2.1090    -1.1260 N.pl3 1 <1>   0.0330 
 15 C       -4.6850    -2.2870     0.7470 C.2   1 <1>   0.0770 
 16 N       -5.8480     1.5670     0.2450 N.4   1 <1>  -0.9590 
 17 C       -1.2310     4.6070    -1.9280 C.ar  1 <1>  -0.1500 
 18 C       -0.0580     5.2800     0.1670 C.3   1 <1>  -0.0970 
 19 C       -4.8570    -2.6170    -1.3000 C.2   1 <1>   0.0360 
 20 N       -5.5370    -2.7190    -0.2010 N.2   1 <1>  -0.5650 
 21 C       -6.5240     0.3400     0.7790 C.3   1 <1>   0.2630 
 22 C       -6.6820     2.1580    -0.8460 C.3   1 <1>   0.2630 
 23 H       -2.3580    -1.2370     1.8770 H     1 <1>   0.0800 
 24 H       -1.4110    -1.7290     0.4950 H     1 <1>   0.0800 
 25 H       -3.0300     2.0090     1.1210 H     1 <1>   0.0800 
 26 H       -3.8580     0.5810     1.6860 H     1 <1>   0.0800 
 27 H       -2.3100     1.6400    -3.0650 H     1 <1>   0.1500 
 28 H       -4.5420     0.3280    -0.8540 H     1 <1>   0.0800 
 29 H       -4.1450     2.0250    -0.9340 H     1 <1>   0.0800 
 30 H        0.1280     1.3790     0.9810 H     1 <1>   0.0800 
 31 H       -0.7340     2.6540     1.8080 H     1 <1>   0.0800 
 32 H        0.8450     2.9380     1.1190 H     1 <1>   0.0800 
 33 H       -2.1940     3.9980    -3.7300 H     1 <1>   0.1500 
 34 H       -2.8860    -1.9240    -1.8270 H     1 <1>   0.2700 
 35 H       -4.9640    -2.2890     1.7880 H     1 <1>   0.1500 
 36 H       -5.7630     2.2660     0.9990 H     1 <1>   0.4500 
 37 H       -1.1860     5.6400    -2.2310 H     1 <1>   0.1500 
 38 H       -0.4120     5.2020     1.1780 H     1 <1>   0.0800 
 39 H       -0.2930     6.2670    -0.1900 H     1 <1>   0.0800 
 40 H        1.0120     5.1670     0.1590 H     1 <1>   0.0800 
 41 H       -5.2230    -2.9070    -2.2710 H     1 <1>   0.1500 
 42 H       -6.6020    -0.4120     0.0100 H     1 <1>   0.0800 
 43 H       -7.5160     0.5770     1.1290 H     1 <1>   0.0800 
 44 H       -5.9630    -0.0740     1.6000 H     1 <1>   0.0800 
 45 H       -6.7980     1.4520    -1.6530 H     1 <1>   0.0800 
 46 H       -6.2180     3.0510    -1.2330 H     1 <1>   0.0800 
 47 H       -7.6600     2.4150    -0.4720 H     1 <1>   0.0800 
@<TRIPOS>BOND
  1   1   2  2   
  2   2   3  am  
  3   2   4  1   
  4   3   5  1   
  5   3   6  1   
  6   4   7  ar  
  7   4   8  ar  
  8   5   9  1   
  9   5  23  1   
 10   5  24  1   
 11   6  10  1   
 12   6  25  1   
 13   6  26  1   
 14   7  11  ar  
 15   7  12  1   
 16   8  13  ar  
 17   8  27  1   
 18   9  14  1   
 19   9  15  2   
 20  10  16  1   
 21  10  28  1   
 22  10  29  1   
 23  11  17  ar  
 24  11  18  1   
 25  12  30  1   
 26  12  31  1   
 27  12  32  1   
 28  13  17  ar  
 29  13  33  1   
 30  14  19  1   
 31  14  34  1   
 32  15  20  1   
 33  15  35  1   
 34  16  21  1   
 35  16  22  1   
 36  16  36  1   
 37  17  37  1   
 38  18  38  1   
 39  18  39  1   
 40  18  40  1   
 41  19  20  2   
 42  19  41  1   
 43  21  42  1   
 44  21  43  1   
 45  21  44  1   
 46  22  45  1   
 47  22  46  1   
 48  22  47  1   
@<TRIPOS>SUBSTRUCTURE
  1 ****   3 GROUP 4 **** **** 0

# MOE 2024.06 (io_trps.svl 2023.06)
