@<TRIPOS>MOLECULE
NONAME
25 25 1 0 0 
SMALL
USER_CHARGES


@<TRIPOS>ATOM
  1 F        1.5810    -0.5140     0.7090 F     1 <1>  -0.3400 
  2 C        1.5310     0.2360    -0.3900 C.3   1 <1>   1.1640 
  3 F        0.5390    -0.2540    -1.1290 F     1 <1>  -0.3400 
  4 F        2.6460    -0.0470    -1.0620 F     1 <1>  -0.3400 
  5 C        1.3680     1.7500    -0.0830 C.ar  1 <1>   0.1660 
  6 N        0.2850     2.1500     0.5950 N.ar  1 <1>  -0.6200 
  7 C        2.3430     2.6440    -0.5210 C.ar  1 <1>  -0.1500 
  8 C        0.1790     3.4490     0.8260 C.ar  1 <1>   0.1600 
  9 C        2.2170     3.9910    -0.2680 C.ar  1 <1>  -0.1500 
 10 C        1.1000     4.4010     0.4240 C.ar  1 <1>  -0.1440 
 11 C        0.8860     5.8760     0.7280 C.3   1 <1>  -0.0160 
 12 C        0.4080     6.6550    -0.5070 C.3   1 <1>  -0.1860 
 13 C        0.3950     8.1400    -0.1730 C.2   1 <1>   0.9060 
 14 C       -0.9630     6.1600    -1.0170 C.3   1 <1>  -0.2400 
 15 O       -0.3230     8.5370     0.7510 O.co2 1 <1>  -0.9000 
 16 O        1.1320     8.8920    -0.8180 O.co2 1 <1>  -0.9000 
 17 H        3.2080     2.3060    -1.0640 H     1 <1>   0.1500 
 18 H       -0.6940     3.7790     1.3630 H     1 <1>   0.1500 
 19 H        2.9550     4.7020    -0.6010 H     1 <1>   0.1500 
 20 H        1.8110     6.3040     1.0720 H     1 <1>   0.0800 
 21 H        0.1680     5.9970     1.5220 H     1 <1>   0.0800 
 22 H        1.1270     6.5260    -1.2940 H     1 <1>   0.0800 
 23 H       -1.7030     6.2670    -0.2430 H     1 <1>   0.0800 
 24 H       -0.9140     5.1320    -1.3260 H     1 <1>   0.0800 
 25 H       -1.2680     6.7580    -1.8590 H     1 <1>   0.0800 
@<TRIPOS>BOND
  1   1   2  1   
  2   2   3  1   
  3   2   4  1   
  4   2   5  1   
  5   5   6  ar  
  6   5   7  ar  
  7   6   8  ar  
  8   7   9  ar  
  9   7  17  1   
 10   8  10  ar  
 11   8  18  1   
 12   9  10  ar  
 13   9  19  1   
 14  10  11  1   
 15  11  12  1   
 16  11  20  1   
 17  11  21  1   
 18  12  13  1   
 19  12  14  1   
 20  12  22  1   
 21  13  15  ar  
 22  13  16  ar  
 23  14  23  1   
 24  14  24  1   
 25  14  25  1   
@<TRIPOS>SUBSTRUCTURE
  1 ****  10 GROUP 4 **** **** 0

# MOE 2024.06 (io_trps.svl 2023.06)
