@<TRIPOS>MOLECULE
NONAME
39 41 1 0 0 
SMALL
USER_CHARGES


@<TRIPOS>ATOM
  1 S        0.0510    -0.3980     1.1860 S.o2  1 <1>   1.4470 
  2 O       -0.5540     0.5090     2.1360 O.2   1 <1>  -0.6500 
  3 O        0.5560    -1.6740     1.6430 O.2   1 <1>  -0.6500 
  4 N        1.3450     0.4110     0.4490 N.am  1 <1>  -0.8490 
  5 C       -1.1070    -0.6540    -0.1930 C.ar  1 <1>  -0.0090 
  6 C        2.1340     1.2170     1.4070 C.3   1 <1>   0.1960 
  7 C        2.1720    -0.4850    -0.3780 C.3   1 <1>   0.1960 
  8 C       -1.9190    -1.7850    -0.2330 C.ar  1 <1>  -0.1500 
  9 C       -1.2190     0.2800    -1.2270 C.ar  1 <1>  -0.1500 
 10 C        3.1210     2.2360     0.7730 C.3   1 <1>   0.2200 
 11 C        3.1140     0.2490    -1.3510 C.3   1 <1>  -0.0190 
 12 C       -2.8000    -1.9640    -1.2830 C.ar  1 <1>   0.1900 
 13 C       -2.1010     0.1020    -2.2830 C.ar  1 <1>  -0.1500 
 14 N        2.7530     2.6170    -0.6290 N.am  1 <1>  -0.6600 
 15 C        4.5850     1.7590     0.8470 C.3   1 <1>   0.1200 
 16 C        2.6830     1.6790    -1.6240 C.2   1 <1>   0.5690 
 17 C        4.5890     0.1900    -0.9260 C.3   1 <1>   0.1200 
 18 F       -3.5480    -3.0370    -1.2990 F     1 <1>  -0.1900 
 19 C       -2.8910    -1.0310    -2.3000 C.ar  1 <1>   0.1900 
 20 C        2.3070     4.0230    -0.8340 C.3   1 <1>   0.0600 
 21 O        4.7440     0.4320     0.4370 O.3   1 <1>  -0.5600 
 22 O        2.2960     1.9460    -2.7390 O.2   1 <1>  -0.5700 
 23 F       -3.7250    -1.2070    -3.2920 F     1 <1>  -0.1900 
 24 H        1.4550     1.7990     2.0060 H     1 <1>   0.0800 
 25 H        2.6600     0.5650     2.0850 H     1 <1>   0.0800 
 26 H        2.7330    -1.1550     0.2550 H     1 <1>   0.0800 
 27 H        1.5150    -1.0950    -0.9750 H     1 <1>   0.0800 
 28 H       -1.8640    -2.5240     0.5490 H     1 <1>   0.1500 
 29 H       -0.6010     1.1650    -1.2080 H     1 <1>   0.1500 
 30 H        3.0770     3.1260     1.3750 H     1 <1>   0.0800 
 31 H        3.0630    -0.2700    -2.2900 H     1 <1>   0.0800 
 32 H       -2.1740     0.8260    -3.0760 H     1 <1>   0.1500 
 33 H        4.9150     1.8010     1.8700 H     1 <1>   0.0800 
 34 H        5.2280     2.3930     0.2610 H     1 <1>   0.0800 
 35 H        5.1880     0.8900    -1.4840 H     1 <1>   0.0800 
 36 H        4.9710    -0.8000    -1.1070 H     1 <1>   0.0800 
 37 H        3.0860     4.7010    -0.5350 H     1 <1>   0.0800 
 38 H        1.4230     4.2110    -0.2490 H     1 <1>   0.0800 
 39 H        2.0760     4.2020    -1.8700 H     1 <1>   0.0800 
@<TRIPOS>BOND
  1   1   2  2   
  2   1   3  2   
  3   1   4  am  
  4   1   5  1   
  5   4   6  1   
  6   4   7  1   
  7   5   8  ar  
  8   5   9  ar  
  9   6  10  1   
 10   6  24  1   
 11   6  25  1   
 12   7  11  1   
 13   7  26  1   
 14   7  27  1   
 15   8  12  ar  
 16   8  28  1   
 17   9  13  ar  
 18   9  29  1   
 19  10  14  1   
 20  10  15  1   
 21  10  30  1   
 22  11  16  1   
 23  11  17  1   
 24  11  31  1   
 25  12  18  1   
 26  12  19  ar  
 27  13  19  ar  
 28  13  32  1   
 29  14  16  am  
 30  14  20  1   
 31  15  21  1   
 32  15  33  1   
 33  15  34  1   
 34  16  22  2   
 35  17  21  1   
 36  17  35  1   
 37  17  36  1   
 38  19  23  1   
 39  20  37  1   
 40  20  38  1   
 41  20  39  1   
@<TRIPOS>SUBSTRUCTURE
  1 ****   4 GROUP 4 **** **** 0

# MOE 2024.06 (io_trps.svl 2023.06)
