@<TRIPOS>MOLECULE
NONAME
41 42 1 0 0 
SMALL
USER_CHARGES


@<TRIPOS>ATOM
  1 CL      -1.8290    -1.8060     1.6700 Cl    1 <1>  -0.1770 
  2 C       -2.0200    -0.1900     1.0360 C.ar  1 <1>   0.1770 
  3 C       -2.6840     0.0150    -0.1750 C.ar  1 <1>   0.0860 
  4 C       -1.4890     0.8530     1.7780 C.ar  1 <1>  -0.1500 
  5 C       -3.2490    -1.0740    -0.9360 C.2   1 <1>   0.5440 
  6 C       -2.7880     1.3270    -0.6370 C.ar  1 <1>  -0.1500 
  7 C       -1.6060     2.1520     1.3120 C.ar  1 <1>  -0.1500 
  8 O       -2.7190    -1.3920    -1.9830 O.2   1 <1>  -0.5700 
  9 N       -4.3890    -1.7260    -0.5280 N.am  1 <1>  -0.6600 
 10 C       -2.2550     2.3590     0.1090 C.ar  1 <1>   0.1900 
 11 C       -4.8900    -2.9310    -1.2770 C.3   1 <1>   0.1400 
 12 C       -5.2120    -1.2960     0.6490 C.3   1 <1>   0.1400 
 13 F       -2.3690     3.5800    -0.3380 F     1 <1>  -0.1900 
 14 C       -5.8540    -3.7450    -0.4060 C.3   1 <1>   0.2000 
 15 C       -6.6940    -1.4550     0.3070 C.3   1 <1>  -0.1600 
 16 O       -6.2350    -4.9130    -1.0460 O.3   1 <1>  -0.6800 
 17 C       -7.1030    -2.9420     0.0500 C.3   1 <1>  -0.1060 
 18 C       -7.5450    -3.6750     1.3270 C.2   1 <1>   0.9060 
 19 C       -8.2510    -2.9520    -1.0110 C.3   1 <1>  -0.1600 
 20 O       -7.4980    -3.1030     2.4230 O.co2 1 <1>  -0.9000 
 21 O       -7.8840    -4.8640     1.2250 O.co2 1 <1>  -0.9000 
 22 C       -9.5120    -2.1810    -0.5800 C.3   1 <1>  -0.1600 
 23 C      -10.6060    -2.2810    -1.6470 C.3   1 <1>  -0.2400 
 24 H       -0.9880     0.6460     2.7070 H     1 <1>   0.1500 
 25 H       -3.2800     1.5290    -1.5720 H     1 <1>   0.1500 
 26 H       -1.2060     2.9850     1.8630 H     1 <1>   0.1500 
 27 H       -5.3950    -2.6060    -2.1680 H     1 <1>   0.0800 
 28 H       -4.0550    -3.5500    -1.5540 H     1 <1>   0.0800 
 29 H       -4.9700    -1.9020     1.5070 H     1 <1>   0.0800 
 30 H       -5.0180    -0.2670     0.8940 H     1 <1>   0.0800 
 31 H       -5.3010    -4.0570     0.4650 H     1 <1>   0.0800 
 32 H       -7.2890    -1.0400     1.1010 H     1 <1>   0.0800 
 33 H       -6.8820    -0.8590    -0.5680 H     1 <1>   0.0800 
 34 H       -6.9020    -5.3300    -0.4380 H     1 <1>   0.4000 
 35 H       -7.8830    -2.5500    -1.9380 H     1 <1>   0.0800 
 36 H       -8.5470    -3.9690    -1.2000 H     1 <1>   0.0800 
 37 H       -9.8830    -2.5920     0.3440 H     1 <1>   0.0800 
 38 H       -9.2830    -1.1440    -0.4120 H     1 <1>   0.0800 
 39 H      -10.8760    -3.3100    -1.8050 H     1 <1>   0.0800 
 40 H      -10.2630    -1.8630    -2.5770 H     1 <1>   0.0800 
 41 H      -11.4800    -1.7430    -1.3270 H     1 <1>   0.0800 
@<TRIPOS>BOND
  1   1   2  1   
  2   2   3  ar  
  3   2   4  ar  
  4   3   5  1   
  5   3   6  ar  
  6   4   7  ar  
  7   4  24  1   
  8   5   8  2   
  9   5   9  am  
 10   6  10  ar  
 11   6  25  1   
 12   7  10  ar  
 13   7  26  1   
 14   9  11  1   
 15   9  12  1   
 16  10  13  1   
 17  11  14  1   
 18  11  27  1   
 19  11  28  1   
 20  12  15  1   
 21  12  29  1   
 22  12  30  1   
 23  14  16  1   
 24  14  17  1   
 25  14  31  1   
 26  15  17  1   
 27  15  32  1   
 28  15  33  1   
 29  16  34  1   
 30  17  18  1   
 31  17  19  1   
 32  18  20  ar  
 33  18  21  ar  
 34  19  22  1   
 35  19  35  1   
 36  19  36  1   
 37  22  23  1   
 38  22  37  1   
 39  22  38  1   
 40  23  39  1   
 41  23  40  1   
 42  23  41  1   
@<TRIPOS>SUBSTRUCTURE
  1 ****  12 GROUP 4 **** **** 0

# MOE 2024.06 (io_trps.svl 2023.06)
