@<TRIPOS>MOLECULE
NONAME
39 41 1 0 0 
SMALL
USER_CHARGES


@<TRIPOS>ATOM
  1 S        0.3300     0.4100    -0.9920 S.3   1 <1>  -0.0800 
  2 C        1.1190    -0.9930    -0.2840 C.2   1 <1>  -0.1400 
  3 C        1.0970     1.4820     0.1640 C.2   1 <1>  -0.1100 
  4 C        1.9040    -0.6210     0.7460 C.2   1 <1>  -0.1500 
  5 C        0.8360    -2.3400    -0.9120 C.3   1 <1>   0.5230 
  6 C        1.8870     0.7880     1.0020 C.2   1 <1>  -0.1500 
  7 N       -0.3050    -2.9830    -0.1990 N.4   1 <1>  -0.9590 
  8 C       -0.3920    -4.4480    -0.5390 C.3   1 <1>   0.3430 
  9 C       -1.5920    -2.2730    -0.4650 C.3   1 <1>   0.3430 
 10 C       -1.5390    -5.1830     0.1940 C.3   1 <1>   0.2890 
 11 C       -2.7240    -2.9380     0.3200 C.3   1 <1>  -0.1600 
 12 N       -1.6430    -6.5730    -0.3200 N.pl3 1 <1>  -0.8690 
 13 C       -2.8640    -4.4330    -0.0140 C.3   1 <1>  -0.1600 
 14 C       -2.7250    -7.3520     0.0860 C.ar  1 <1>   0.1000 
 15 C       -2.8140    -7.9840     1.3220 C.ar  1 <1>   0.1900 
 16 C       -3.8120    -7.5650    -0.7440 C.ar  1 <1>  -0.1500 
 17 F       -1.8290    -7.8480     2.1800 F     1 <1>  -0.1900 
 18 C       -3.9140    -8.7420     1.6690 C.ar  1 <1>   0.1600 
 19 C       -4.8760    -8.3420    -0.3150 C.ar  1 <1>   0.1600 
 20 N       -4.9600    -8.9330     0.8710 N.ar  1 <1>  -0.6200 
 21 H        0.8750     2.5330     0.0920 H     1 <1>   0.1500 
 22 H        2.5140    -1.2680     1.3550 H     1 <1>   0.1500 
 23 H        1.7160    -2.9540    -0.8140 H     1 <1>   0.0800 
 24 H        0.6170    -2.2220    -1.9610 H     1 <1>   0.0800 
 25 H        2.4710     1.2140     1.8010 H     1 <1>   0.1500 
 26 H       -0.1070    -2.8780     0.8040 H     1 <1>   0.4500 
 27 H        0.5370    -4.9340    -0.2940 H     1 <1>   0.0800 
 28 H       -0.5610    -4.5550    -1.5980 H     1 <1>   0.0800 
 29 H       -1.8180    -2.3040    -1.5200 H     1 <1>   0.0800 
 30 H       -1.5170    -1.2400    -0.1650 H     1 <1>   0.0800 
 31 H       -1.3120    -5.2230     1.2470 H     1 <1>   0.0800 
 32 H       -3.6480    -2.4380     0.0840 H     1 <1>   0.0800 
 33 H       -2.5540    -2.8090     1.3750 H     1 <1>   0.0800 
 34 H       -0.7660    -7.0840    -0.1410 H     1 <1>   0.4000 
 35 H       -3.6270    -4.8590     0.6160 H     1 <1>   0.0800 
 36 H       -3.1750    -4.5390    -1.0390 H     1 <1>   0.0800 
 37 H       -3.8240    -7.1280    -1.7240 H     1 <1>   0.1500 
 38 H       -3.9380    -9.2090     2.6380 H     1 <1>   0.1500 
 39 H       -5.7080    -8.4890    -0.9840 H     1 <1>   0.1500 
@<TRIPOS>BOND
  1   1   2  1   
  2   1   3  1   
  3   2   4  2   
  4   2   5  1   
  5   3   6  2   
  6   3  21  1   
  7   4   6  1   
  8   4  22  1   
  9   5   7  1   
 10   5  23  1   
 11   5  24  1   
 12   6  25  1   
 13   7   8  1   
 14   7   9  1   
 15   7  26  1   
 16   8  10  1   
 17   8  27  1   
 18   8  28  1   
 19   9  11  1   
 20   9  29  1   
 21   9  30  1   
 22  10  12  1   
 23  10  13  1   
 24  10  31  1   
 25  11  13  1   
 26  11  32  1   
 27  11  33  1   
 28  12  14  1   
 29  12  34  1   
 30  13  35  1   
 31  13  36  1   
 32  14  15  ar  
 33  14  16  ar  
 34  15  17  1   
 35  15  18  ar  
 36  16  19  ar  
 37  16  37  1   
 38  18  20  ar  
 39  18  38  1   
 40  19  20  ar  
 41  19  39  1   
@<TRIPOS>SUBSTRUCTURE
  1 ****  10 GROUP 4 **** **** 0

# MOE 2024.06 (io_trps.svl 2023.06)
