@<TRIPOS>MOLECULE
NONAME
50 53 1 0 0 
SMALL
USER_CHARGES


@<TRIPOS>ATOM
  1 F       -2.1690     1.5590    -1.1330 F     1 <1>  -0.1900 
  2 C       -2.9620     1.3110    -0.1210 C.ar  1 <1>   0.1900 
  3 C       -3.0160     2.1480     0.9980 C.ar  1 <1>   0.0830 
  4 C       -3.7490     0.1790    -0.2300 C.ar  1 <1>  -0.1500 
  5 O       -2.2950     3.2830     1.2140 O.3   1 <1>  -0.3630 
  6 C       -3.8970     1.8020     2.0110 C.ar  1 <1>  -0.1500 
  7 C       -4.6310    -0.1440     0.7920 C.ar  1 <1>  -0.1430 
  8 C       -1.2500     3.7040     0.3650 C.3   1 <1>   0.0400 
  9 C       -4.6930     0.6720     1.9150 C.ar  1 <1>  -0.1500 
 10 C       -5.5240    -1.3650     0.6780 C.3   1 <1>   0.4870 
 11 N       -6.6210    -1.0490    -0.2750 N.4   1 <1>  -0.9590 
 12 C       -7.5160     0.0330     0.2690 C.3   1 <1>   0.3430 
 13 C       -7.4050    -2.2620    -0.6430 C.3   1 <1>   0.3430 
 14 C       -8.5830     0.4650    -0.7500 C.3   1 <1>   0.1430 
 15 C       -8.4430    -1.9010    -1.7100 C.3   1 <1>  -0.1600 
 16 C       -9.5090     1.4450    -0.0730 C.ar  1 <1>   0.1670 
 17 C       -9.3730    -0.7620    -1.2530 C.3   1 <1>  -0.1600 
 18 C       -7.9990     1.3070    -1.9180 C.3   1 <1>  -0.1600 
 19 N      -10.0440     1.2630     1.1120 N.ar  1 <1>  -0.6200 
 20 C       -9.7160     2.5570    -0.8300 C.ar  1 <1>  -0.1430 
 21 C       -8.9610     2.4920    -2.1340 C.3   1 <1>  -0.0170 
 22 C      -10.8250     2.2600     1.5100 C.ar  1 <1>   0.4770 
 23 C      -10.5380     3.5290    -0.3170 C.ar  1 <1>   0.1600 
 24 N      -11.1010     3.3850     0.8650 N.ar  1 <1>  -0.6200 
 25 C      -11.4770     2.1030     2.8630 C.3   1 <1>  -0.0970 
 26 H       -3.6540    -0.4300    -1.1120 H     1 <1>   0.1500 
 27 H       -3.9510     2.4310     2.8840 H     1 <1>   0.1500 
 28 H       -0.7970     4.5760     0.8010 H     1 <1>   0.0800 
 29 H       -1.6570     3.9520    -0.5990 H     1 <1>   0.0800 
 30 H       -0.5210     2.9170     0.2860 H     1 <1>   0.0800 
 31 H       -5.3600     0.4430     2.7310 H     1 <1>   0.1500 
 32 H       -5.9280    -1.6220     1.6440 H     1 <1>   0.0800 
 33 H       -4.9430    -2.1980     0.3160 H     1 <1>   0.0800 
 34 H       -6.1780    -0.6770    -1.1230 H     1 <1>   0.4500 
 35 H       -6.9360     0.8980     0.5460 H     1 <1>   0.0800 
 36 H       -8.0180    -0.3230     1.1540 H     1 <1>   0.0800 
 37 H       -7.9080    -2.6500     0.2280 H     1 <1>   0.0800 
 38 H       -6.7490    -3.0280    -1.0260 H     1 <1>   0.0800 
 39 H       -9.0380    -2.7730    -1.9240 H     1 <1>   0.0800 
 40 H       -7.9410    -1.6320    -2.6220 H     1 <1>   0.0800 
 41 H      -10.0320    -0.4750    -2.0550 H     1 <1>   0.0800 
 42 H       -9.9940    -1.1250    -0.4500 H     1 <1>   0.0800 
 43 H       -7.8760     0.7420    -2.8260 H     1 <1>   0.0800 
 44 H       -7.0410     1.7080    -1.6340 H     1 <1>   0.0800 
 45 H       -9.6480     2.2880    -2.9380 H     1 <1>   0.0800 
 46 H       -8.4300     3.4070    -2.3330 H     1 <1>   0.0800 
 47 H      -10.7380     4.4300    -0.8730 H     1 <1>   0.1500 
 48 H      -11.5150     1.0670     3.1440 H     1 <1>   0.0800 
 49 H      -12.4780     2.4910     2.8310 H     1 <1>   0.0800 
 50 H      -10.9120     2.6480     3.5940 H     1 <1>   0.0800 
@<TRIPOS>BOND
  1   1   2  1   
  2   2   3  ar  
  3   2   4  ar  
  4   3   5  1   
  5   3   6  ar  
  6   4   7  ar  
  7   4  26  1   
  8   5   8  1   
  9   6   9  ar  
 10   6  27  1   
 11   7   9  ar  
 12   7  10  1   
 13   8  28  1   
 14   8  29  1   
 15   8  30  1   
 16   9  31  1   
 17  10  11  1   
 18  10  32  1   
 19  10  33  1   
 20  11  12  1   
 21  11  13  1   
 22  11  34  1   
 23  12  14  1   
 24  12  35  1   
 25  12  36  1   
 26  13  15  1   
 27  13  37  1   
 28  13  38  1   
 29  14  16  1   
 30  14  17  1   
 31  14  18  1   
 32  15  17  1   
 33  15  39  1   
 34  15  40  1   
 35  16  19  ar  
 36  16  20  ar  
 37  17  41  1   
 38  17  42  1   
 39  18  21  1   
 40  18  43  1   
 41  18  44  1   
 42  19  22  ar  
 43  20  21  1   
 44  20  23  ar  
 45  21  45  1   
 46  21  46  1   
 47  22  24  ar  
 48  22  25  1   
 49  23  24  ar  
 50  23  47  1   
 51  25  48  1   
 52  25  49  1   
 53  25  50  1   
@<TRIPOS>SUBSTRUCTURE
  1 ****  12 GROUP 4 **** **** 0

# MOE 2024.06 (io_trps.svl 2023.06)
