@<TRIPOS>MOLECULE
NONAME
50 52 1 0 0 
SMALL
USER_CHARGES


@<TRIPOS>ATOM
  1 O        4.6960     3.3090    -3.1890 O.2   1 <1>  -0.5700 
  2 C        3.8420     3.8630    -2.5060 C.2   1 <1>   0.6160 
  3 N        3.5250     3.3800    -1.2460 N.am  1 <1>  -0.4690 
  4 C        3.1540     5.0080    -2.9900 C.2   1 <1>  -0.1360 
  5 C        2.6030     4.0590    -0.4490 C.2   1 <1>  -0.0290 
  6 C        4.1090     2.0570    -0.8530 C.3   1 <1>   0.1400 
  7 C        2.2310     5.6490    -2.2290 C.2   1 <1>  -0.1500 
  8 C        1.9640     5.1620    -0.9280 C.2   1 <1>  -0.1500 
  9 C        2.3340     3.5700     0.9780 C.3   1 <1>   0.0580 
 10 C        3.9020     1.6840     0.6260 C.3   1 <1>  -0.0800 
 11 C        3.3200     4.2390     1.9550 C.3   1 <1>   0.1400 
 12 C        2.4750     2.0450     1.0610 C.3   1 <1>  -0.1600 
 13 C        4.9430     2.3580     1.5430 C.3   1 <1>   0.1400 
 14 N        4.7150     3.8260     1.6460 N.am  1 <1>  -0.6600 
 15 C        5.6310     4.7630     1.2730 C.2   1 <1>   0.6900 
 16 O        5.6720     5.8490     1.8200 O.2   1 <1>  -0.5700 
 17 N        6.4670     4.4790     0.2540 N.am  1 <1>  -0.7300 
 18 C        7.5170     5.3840    -0.2940 C.3   1 <1>   0.2810 
 19 C        8.8580     4.6430    -0.4400 C.2   1 <1>   0.6590 
 20 C        7.0260     5.9880    -1.6360 C.3   1 <1>  -0.0800 
 21 O        8.9350     3.5270    -0.8980 O.2   1 <1>  -0.5700 
 22 O        9.9410     5.3040    -0.0360 O.3   1 <1>  -0.4300 
 23 C        8.0990     6.8610    -2.3100 C.3   1 <1>  -0.2400 
 24 C        5.7560     6.8400    -1.4520 C.3   1 <1>  -0.2400 
 25 C       11.2300     4.7320    -0.1120 C.3   1 <1>   0.0400 
 26 H        3.4090     5.3320    -3.9800 H     1 <1>   0.1500 
 27 H        3.6400     1.3070    -1.4650 H     1 <1>   0.0800 
 28 H        5.1600     2.0460    -1.0830 H     1 <1>   0.0800 
 29 H        1.7020     6.5180    -2.5800 H     1 <1>   0.1500 
 30 H        1.2490     5.7010    -0.3310 H     1 <1>   0.1500 
 31 H        1.3350     3.8460     1.2640 H     1 <1>   0.0800 
 32 H        4.0380     0.6200     0.7140 H     1 <1>   0.0800 
 33 H        3.0880     3.9570     2.9670 H     1 <1>   0.0800 
 34 H        3.2290     5.3100     1.8770 H     1 <1>   0.0800 
 35 H        2.2940     1.7090     2.0660 H     1 <1>   0.0800 
 36 H        1.7580     1.5760     0.4100 H     1 <1>   0.0800 
 37 H        5.9400     2.1560     1.1890 H     1 <1>   0.0800 
 38 H        4.8650     1.9400     2.5320 H     1 <1>   0.0800 
 39 H        6.2110     3.7040    -0.3530 H     1 <1>   0.3700 
 40 H        7.6750     6.1880     0.4030 H     1 <1>   0.0800 
 41 H        6.7980     5.1740    -2.3050 H     1 <1>   0.0800 
 42 H        8.4050     7.6590    -1.6560 H     1 <1>   0.0800 
 43 H        7.7110     7.2930    -3.2170 H     1 <1>   0.0800 
 44 H        8.9630     6.2770    -2.5730 H     1 <1>   0.0800 
 45 H        5.9440     7.6550    -0.7750 H     1 <1>   0.0800 
 46 H        4.9540     6.2500    -1.0470 H     1 <1>   0.0800 
 47 H        5.4290     7.2400    -2.3950 H     1 <1>   0.0800 
 48 H       11.9420     5.4430     0.2690 H     1 <1>   0.0800 
 49 H       11.4490     4.5010    -1.1400 H     1 <1>   0.0800 
 50 H       11.2480     3.8350     0.4820 H     1 <1>   0.0800 
@<TRIPOS>BOND
  1   1   2  2   
  2   2   3  am  
  3   2   4  1   
  4   3   5  1   
  5   3   6  1   
  6   4   7  2   
  7   4  26  1   
  8   5   8  2   
  9   5   9  1   
 10   6  10  1   
 11   6  27  1   
 12   6  28  1   
 13   7   8  1   
 14   7  29  1   
 15   8  30  1   
 16   9  11  1   
 17   9  12  1   
 18   9  31  1   
 19  10  12  1   
 20  10  13  1   
 21  10  32  1   
 22  11  14  1   
 23  11  33  1   
 24  11  34  1   
 25  12  35  1   
 26  12  36  1   
 27  13  14  1   
 28  13  37  1   
 29  13  38  1   
 30  14  15  am  
 31  15  16  2   
 32  15  17  am  
 33  17  18  1   
 34  17  39  1   
 35  18  19  1   
 36  18  20  1   
 37  18  40  1   
 38  19  21  2   
 39  19  22  1   
 40  20  23  1   
 41  20  24  1   
 42  20  41  1   
 43  22  25  1   
 44  23  42  1   
 45  23  43  1   
 46  23  44  1   
 47  24  45  1   
 48  24  46  1   
 49  24  47  1   
 50  25  48  1   
 51  25  49  1   
 52  25  50  1   
@<TRIPOS>SUBSTRUCTURE
  1 ****  17 GROUP 4 **** **** 0

# MOE 2024.06 (io_trps.svl 2023.06)
