@<TRIPOS>MOLECULE
NONAME
51 53 1 0 0 
SMALL
USER_CHARGES


@<TRIPOS>ATOM
  1 O       -1.4810     0.2100    -1.9160 O.2   1 <1>  -0.5700 
  2 C       -1.6750     0.5080    -0.7640 C.2   1 <1>   0.5690 
  3 N       -1.9460    -0.4240     0.1800 N.am  1 <1>  -0.7300 
  4 C       -1.6240     1.9630    -0.3600 C.3   1 <1>  -0.0990 
  5 C       -2.0020    -1.8840    -0.0660 C.3   1 <1>   0.2200 
  6 C       -0.1800     2.4690    -0.3180 C.3   1 <1>   0.0210 
  7 C       -3.4400    -2.3870    -0.0950 C.3   1 <1>  -0.0800 
  8 C       -1.4800    -2.6100     1.1660 C.3   1 <1>   0.1200 
  9 C       -0.1560     3.9310     0.0910 C.2   1 <1>  -0.1810 
 10 C       -3.7590    -2.6100     1.3880 C.3   1 <1>   0.1200 
 11 C       -4.4520    -1.4930    -0.8350 C.3   1 <1>  -0.0160 
 12 O       -2.5390    -2.5890     2.0730 O.3   1 <1>  -0.5600 
 13 C       -0.0110     4.4360     1.3810 C.2   1 <1>   0.1080 
 14 C       -0.2730     5.0250    -0.6930 C.2   1 <1>  -0.3320 
 15 C       -5.8240    -2.1470    -0.8760 C.ar  1 <1>  -0.1440 
 16 N       -0.0350     5.7290     1.4060 N.2   1 <1>  -0.7070 
 17 C        0.1600     3.6180     2.6410 C.3   1 <1>  -0.0590 
 18 N       -0.1940     6.0970     0.1260 N.pl3 1 <1>   0.3140 
 19 C       -0.4620     5.1170    -2.2000 C.3   1 <1>  -0.0600 
 20 C       -6.8270    -1.8060     0.0100 C.ar  1 <1>  -0.1500 
 21 C       -6.1370    -3.1180    -1.8040 C.ar  1 <1>  -0.1500 
 22 C       -0.2660     7.5130    -0.2510 C.3   1 <1>   0.0160 
 23 C       -8.0550    -2.4410    -0.0690 C.ar  1 <1>   0.1600 
 24 C       -7.3980    -3.6910    -1.7990 C.ar  1 <1>   0.1600 
 25 N       -8.3640    -3.3770    -0.9510 N.ar  1 <1>  -0.6200 
 26 H       -2.1410    -0.1600     1.1480 H     1 <1>   0.3700 
 27 H       -2.1810     2.5370    -1.0780 H     1 <1>   0.0800 
 28 H       -2.0840     2.0960     0.6000 H     1 <1>   0.0800 
 29 H       -1.4540    -2.1420    -0.9570 H     1 <1>   0.0800 
 30 H        0.2700     2.3590    -1.2890 H     1 <1>   0.0800 
 31 H        0.3980     1.8850     0.3750 H     1 <1>   0.0800 
 32 H       -3.4380    -3.3520    -0.5690 H     1 <1>   0.0800 
 33 H       -0.6170    -2.1350     1.5990 H     1 <1>   0.0800 
 34 H       -1.2590    -3.6390     0.9390 H     1 <1>   0.0800 
 35 H       -4.2390    -3.5590     1.5540 H     1 <1>   0.0800 
 36 H       -4.3700    -1.8190     1.7890 H     1 <1>   0.0800 
 37 H       -4.1080    -1.3230    -1.8420 H     1 <1>   0.0800 
 38 H       -4.5300    -0.5330    -0.3560 H     1 <1>   0.0800 
 39 H       -0.5720     2.8340     2.6760 H     1 <1>   0.0800 
 40 H        0.0360     4.2490     3.5020 H     1 <1>   0.0800 
 41 H        1.1460     3.1930     2.6620 H     1 <1>   0.0800 
 42 H       -0.5300     4.1380    -2.6370 H     1 <1>   0.0800 
 43 H        0.3710     5.6310    -2.6460 H     1 <1>   0.0800 
 44 H       -1.3670     5.6520    -2.4280 H     1 <1>   0.0800 
 45 H       -6.6670    -1.0550     0.7610 H     1 <1>   0.1500 
 46 H       -5.4120    -3.4350    -2.5320 H     1 <1>   0.1500 
 47 H        0.5220     7.7330    -0.9450 H     1 <1>   0.0800 
 48 H       -0.1500     8.1170     0.6300 H     1 <1>   0.0800 
 49 H       -1.2210     7.7090    -0.6990 H     1 <1>   0.0800 
 50 H       -8.8250    -2.1630     0.6300 H     1 <1>   0.1500 
 51 H       -7.6230    -4.4480    -2.5310 H     1 <1>   0.1500 
@<TRIPOS>BOND
  1   1   2  2   
  2   2   3  am  
  3   2   4  1   
  4   3   5  1   
  5   3  26  1   
  6   4   6  1   
  7   4  27  1   
  8   4  28  1   
  9   5   7  1   
 10   5   8  1   
 11   5  29  1   
 12   6   9  1   
 13   6  30  1   
 14   6  31  1   
 15   7  10  1   
 16   7  11  1   
 17   7  32  1   
 18   8  12  1   
 19   8  33  1   
 20   8  34  1   
 21   9  13  1   
 22   9  14  2   
 23  10  12  1   
 24  10  35  1   
 25  10  36  1   
 26  11  15  1   
 27  11  37  1   
 28  11  38  1   
 29  13  16  2   
 30  13  17  1   
 31  14  18  1   
 32  14  19  1   
 33  15  20  ar  
 34  15  21  ar  
 35  16  18  1   
 36  17  39  1   
 37  17  40  1   
 38  17  41  1   
 39  18  22  1   
 40  19  42  1   
 41  19  43  1   
 42  19  44  1   
 43  20  23  ar  
 44  20  45  1   
 45  21  24  ar  
 46  21  46  1   
 47  22  47  1   
 48  22  48  1   
 49  22  49  1   
 50  23  25  ar  
 51  23  50  1   
 52  24  25  ar  
 53  24  51  1   
@<TRIPOS>SUBSTRUCTURE
  1 ****   2 GROUP 4 **** **** 0

# MOE 2024.06 (io_trps.svl 2023.06)
