@<TRIPOS>MOLECULE
NONAME
51 53 1 0 0 
SMALL
USER_CHARGES


@<TRIPOS>ATOM
  1 S        1.2410     0.3200    -1.1290 S.o2  1 <1>   1.4470 
  2 O        2.4450     0.7240    -1.8110 O.2   1 <1>  -0.6500 
  3 O       -0.0700     0.5070    -1.6990 O.2   1 <1>  -0.6500 
  4 N        1.2310     1.1690     0.3040 N.am  1 <1>  -0.9780 
  5 C        1.4180    -1.3970    -0.5650 C.ar  1 <1>  -0.0090 
  6 C        2.6690    -1.9840    -0.4200 C.ar  1 <1>  -0.1500 
  7 C        0.3080    -2.1650    -0.2360 C.ar  1 <1>  -0.1500 
  8 C        2.8050    -3.2870     0.0270 C.ar  1 <1>  -0.1500 
  9 C        0.4430    -3.4670     0.2110 C.ar  1 <1>  -0.1500 
 10 C        1.6940    -4.0670     0.3450 C.ar  1 <1>   0.0860 
 11 C        1.8200    -5.4440     0.7950 C.2   1 <1>   0.5440 
 12 O        0.9530    -5.9620     1.4720 O.2   1 <1>  -0.5700 
 13 N        2.8620    -6.2520     0.4080 N.am  1 <1>  -0.6600 
 14 C        3.3580    -7.3160     1.3640 C.3   1 <1>   0.2200 
 15 C        3.1470    -6.4090    -1.0490 C.3   1 <1>   0.1400 
 16 C        4.7980    -7.7700     1.0710 C.3   1 <1>   0.1200 
 17 C        2.4100    -8.5400     1.3970 C.3   1 <1>   0.3430 
 18 C        3.2900    -7.8740    -1.5060 C.3   1 <1>  -0.0800 
 19 O        4.8040    -8.8100     0.1370 O.3   1 <1>  -0.5600 
 20 N        1.4810    -8.5600     0.2160 N.4   1 <1>  -0.9590 
 21 C        4.6870    -8.4380    -1.1940 C.3   1 <1>   0.1200 
 22 C        2.1530    -8.8420    -1.0970 C.3   1 <1>   0.3430 
 23 C        0.2730    -9.3950     0.4630 C.3   1 <1>   0.3430 
 24 C        0.6110   -10.8860     0.5890 C.3   1 <1>  -0.1600 
 25 C       -0.6510   -11.7080     0.8720 C.3   1 <1>  -0.2400 
 26 H        2.1090     0.9890     0.7780 H     1 <1>   0.4200 
 27 H        0.4490     0.8360     0.8570 H     1 <1>   0.4200 
 28 H        3.5510    -1.4120    -0.6640 H     1 <1>   0.1500 
 29 H       -0.6780    -1.7390    -0.3360 H     1 <1>   0.1500 
 30 H        3.7920    -3.7030     0.1330 H     1 <1>   0.1500 
 31 H       -0.4410    -4.0310     0.4600 H     1 <1>   0.1500 
 32 H        3.3680    -6.8840     2.3500 H     1 <1>   0.0800 
 33 H        2.3490    -5.9530    -1.6110 H     1 <1>   0.0800 
 34 H        4.0490    -5.8690    -1.2860 H     1 <1>   0.0800 
 35 H        5.2300    -8.1690     1.9720 H     1 <1>   0.0800 
 36 H        5.4190    -6.9580     0.7320 H     1 <1>   0.0800 
 37 H        1.8250    -8.4740     2.2990 H     1 <1>   0.0800 
 38 H        2.9820    -9.4520     1.4430 H     1 <1>   0.0800 
 39 H        3.2620    -7.8390    -2.5810 H     1 <1>   0.0800 
 40 H        1.1630    -7.5720     0.1980 H     1 <1>   0.4500 
 41 H        5.4650    -7.7300    -1.4270 H     1 <1>   0.0800 
 42 H        4.8610    -9.3250    -1.7790 H     1 <1>   0.0800 
 43 H        2.5500    -9.8440    -1.0840 H     1 <1>   0.0800 
 44 H        1.4000    -8.8070    -1.8680 H     1 <1>   0.0800 
 45 H       -0.2060    -9.0640     1.3710 H     1 <1>   0.0800 
 46 H       -0.4280    -9.2590    -0.3440 H     1 <1>   0.0800 
 47 H        1.0520   -11.2480    -0.3230 H     1 <1>   0.0800 
 48 H        1.3050   -11.0460     1.3950 H     1 <1>   0.0800 
 49 H       -1.3660   -11.6000     0.0740 H     1 <1>   0.0800 
 50 H       -1.1120   -11.3970     1.7940 H     1 <1>   0.0800 
 51 H       -0.4000   -12.7510     0.9580 H     1 <1>   0.0800 
@<TRIPOS>BOND
  1   1   2  2   
  2   1   3  2   
  3   1   4  am  
  4   1   5  1   
  5   4  26  1   
  6   4  27  1   
  7   5   6  ar  
  8   5   7  ar  
  9   6   8  ar  
 10   6  28  1   
 11   7   9  ar  
 12   7  29  1   
 13   8  10  ar  
 14   8  30  1   
 15   9  10  ar  
 16   9  31  1   
 17  10  11  1   
 18  11  12  2   
 19  11  13  am  
 20  13  14  1   
 21  13  15  1   
 22  14  16  1   
 23  14  17  1   
 24  14  32  1   
 25  15  18  1   
 26  15  33  1   
 27  15  34  1   
 28  16  19  1   
 29  16  35  1   
 30  16  36  1   
 31  17  20  1   
 32  17  37  1   
 33  17  38  1   
 34  18  21  1   
 35  18  22  1   
 36  18  39  1   
 37  19  21  1   
 38  20  22  1   
 39  20  23  1   
 40  20  40  1   
 41  21  41  1   
 42  21  42  1   
 43  22  43  1   
 44  22  44  1   
 45  23  24  1   
 46  23  45  1   
 47  23  46  1   
 48  24  25  1   
 49  24  47  1   
 50  24  48  1   
 51  25  49  1   
 52  25  50  1   
 53  25  51  1   
@<TRIPOS>SUBSTRUCTURE
  1 ****  11 GROUP 4 **** **** 0

# MOE 2024.06 (io_trps.svl 2023.06)
