@<TRIPOS>MOLECULE
NONAME
43 46 1 0 0 
SMALL
USER_CHARGES


@<TRIPOS>ATOM
  1 F        0.3280    -0.4440     0.0530 F     1 <1>  -0.1900 
  2 C       -0.3540    -1.5610     0.0060 C.ar  1 <1>   0.1900 
  3 C        0.1840    -2.7370    -0.5290 C.ar  1 <1>   0.0820 
  4 C       -1.6360    -1.5210     0.5190 C.ar  1 <1>  -0.1500 
  5 O        1.4310    -2.9020    -1.0610 O.3   1 <1>  -0.3630 
  6 C       -0.6170    -3.8670    -0.5280 C.ar  1 <1>  -0.1500 
  7 C       -2.4060    -2.6680     0.5050 C.ar  1 <1>  -0.1500 
  8 C        2.3490    -1.8420    -1.2080 C.3   1 <1>   0.0400 
  9 C       -1.9190    -3.8680    -0.0200 C.ar  1 <1>   0.0530 
 10 C       -2.7160    -5.0730    -0.0390 C.2   1 <1>   0.0870 
 11 O       -2.1310    -6.2450    -0.0350 O.3   1 <1>  -0.0190 
 12 C       -4.0530    -5.3040    -0.0540 C.2   1 <1>  -0.2330 
 13 N       -2.9820    -7.2360    -0.0420 N.2   1 <1>  -0.4100 
 14 C       -4.1580    -6.7020    -0.0570 C.2   1 <1>   0.3720 
 15 C       -5.1010    -4.3400    -0.0510 C.2   1 <1>   1.0330 
 16 N       -5.3170    -7.5070    -0.0750 N.pl3 1 <1>  -0.8210 
 17 O       -5.5440    -3.8720    -1.1130 O.co2 1 <1>  -0.9000 
 18 O       -5.5790    -3.9360     1.0230 O.co2 1 <1>  -0.9000 
 19 C       -6.6610    -6.8420    -0.1640 C.3   1 <1>   0.2090 
 20 C       -5.2560    -8.7420     0.7710 C.3   1 <1>   0.2090 
 21 C       -7.8130    -7.8660    -0.2450 C.3   1 <1>  -0.0800 
 22 C       -6.5200    -9.6170     0.6240 C.3   1 <1>  -0.0800 
 23 C       -7.7420    -8.7760     0.9760 C.3   1 <1>  -0.1600 
 24 C       -7.6090    -8.8370    -1.4190 C.3   1 <1>  -0.1600 
 25 C       -6.7640    -9.9880    -0.8480 C.3   1 <1>  -0.1600 
 26 H       -2.0290    -0.6060     0.9230 H     1 <1>   0.1500 
 27 H       -0.2180    -4.7760    -0.9400 H     1 <1>   0.1500 
 28 H       -3.4020    -2.6290     0.9130 H     1 <1>   0.1500 
 29 H        3.2320    -2.2280    -1.6850 H     1 <1>   0.0800 
 30 H        2.5990    -1.4580    -0.2350 H     1 <1>   0.0800 
 31 H        1.9060    -1.0780    -1.8230 H     1 <1>   0.0800 
 32 H       -6.8060    -6.2160     0.7000 H     1 <1>   0.0800 
 33 H       -6.6860    -6.2180    -1.0410 H     1 <1>   0.0800 
 34 H       -4.3960    -9.3220     0.4840 H     1 <1>   0.0800 
 35 H       -5.1320    -8.4500     1.7990 H     1 <1>   0.0800 
 36 H       -8.7540    -7.3490    -0.3110 H     1 <1>   0.0800 
 37 H       -6.4380   -10.4890     1.2480 H     1 <1>   0.0800 
 38 H       -8.6220    -9.3920     1.0400 H     1 <1>   0.0800 
 39 H       -7.6170    -8.2250     1.8930 H     1 <1>   0.0800 
 40 H       -8.5580    -9.2140    -1.7560 H     1 <1>   0.0800 
 41 H       -7.1080    -8.3540    -2.2420 H     1 <1>   0.0800 
 42 H       -5.8370   -10.0950    -1.3850 H     1 <1>   0.0800 
 43 H       -7.3160   -10.9090    -0.9100 H     1 <1>   0.0800 
@<TRIPOS>BOND
  1   1   2  1   
  2   2   3  ar  
  3   2   4  ar  
  4   3   5  1   
  5   3   6  ar  
  6   4   7  ar  
  7   4  26  1   
  8   5   8  1   
  9   6   9  ar  
 10   6  27  1   
 11   7   9  ar  
 12   7  28  1   
 13   8  29  1   
 14   8  30  1   
 15   8  31  1   
 16   9  10  1   
 17  10  11  1   
 18  10  12  2   
 19  11  13  1   
 20  12  14  1   
 21  12  15  1   
 22  13  14  2   
 23  14  16  1   
 24  15  17  ar  
 25  15  18  ar  
 26  16  19  1   
 27  16  20  1   
 28  19  21  1   
 29  19  32  1   
 30  19  33  1   
 31  20  22  1   
 32  20  34  1   
 33  20  35  1   
 34  21  23  1   
 35  21  24  1   
 36  21  36  1   
 37  22  23  1   
 38  22  25  1   
 39  22  37  1   
 40  23  38  1   
 41  23  39  1   
 42  24  25  1   
 43  24  40  1   
 44  24  41  1   
 45  25  42  1   
 46  25  43  1   
@<TRIPOS>SUBSTRUCTURE
  1 ****  12 GROUP 4 **** **** 0

# MOE 2024.06 (io_trps.svl 2023.06)
