@<TRIPOS>MOLECULE
NONAME
46 49 1 0 0 
SMALL
USER_CHARGES


@<TRIPOS>ATOM
  1 F        1.4640     1.6900    -1.9390 F     1 <1>  -0.1900 
  2 C        2.4780     1.9790    -1.1720 C.ar  1 <1>   0.1900 
  3 C        3.2810     0.9640    -0.7140 C.ar  1 <1>  -0.1500 
  4 C        2.7030     3.3060    -0.8450 C.ar  1 <1>  -0.1500 
  5 C        4.3650     1.2780     0.1010 C.ar  1 <1>   0.1170 
  6 C        3.7790     3.6170    -0.0410 C.ar  1 <1>  -0.1500 
  7 N        5.1770     0.2700     0.6020 N.am  1 <1>  -0.5470 
  8 C        4.6450     2.6200     0.4360 C.ar  1 <1>   0.0280 
  9 C        6.2290     0.5050     1.4270 C.2   1 <1>   0.6160 
 10 C        5.8010     2.8990     1.2620 C.2   1 <1>  -0.0140 
 11 O        6.8780    -0.4390     1.8320 O.2   1 <1>  -0.5700 
 12 C        6.5270     1.8520     1.7480 C.2   1 <1>  -0.1360 
 13 C        6.1850     4.2590     1.5610 C.2   1 <1>   0.6160 
 14 O        6.2050     4.6300     2.7160 O.2   1 <1>  -0.5700 
 15 N        6.5930     5.1510     0.5840 N.am  1 <1>  -0.6600 
 16 C        6.7440     6.6090     0.9110 C.3   1 <1>   0.1400 
 17 C        6.9990     4.7190    -0.7800 C.3   1 <1>   0.1400 
 18 C        8.2150     7.0710     1.0460 C.3   1 <1>   0.4230 
 19 C        8.4460     5.1120    -1.1250 C.3   1 <1>  -0.0800 
 20 N        8.8460     7.4860    -0.2590 N.4   1 <1>  -0.9590 
 21 C        9.1460     6.0150     1.6950 C.3   1 <1>   0.1200 
 22 C        9.4950     4.5290    -0.1420 C.3   1 <1>   0.1200 
 23 C        8.5550     6.6170    -1.4410 C.3   1 <1>   0.3430 
 24 C        8.7040     8.9410    -0.5600 C.3   1 <1>   0.2630 
 25 O       10.0300     5.4770     0.7390 O.3   1 <1>  -0.5600 
 26 H        3.0670    -0.0540    -0.9810 H     1 <1>   0.1500 
 27 H        2.0360     4.0650    -1.2160 H     1 <1>   0.1500 
 28 H        3.9400     4.6460     0.2240 H     1 <1>   0.1500 
 29 H        4.9900    -0.7150     0.4090 H     1 <1>   0.3700 
 30 H        7.3700     1.9990     2.3980 H     1 <1>   0.1500 
 31 H        6.2380     7.2010     0.1700 H     1 <1>   0.0800 
 32 H        6.2530     6.8120     1.8470 H     1 <1>   0.0800 
 33 H        6.9150     3.6490    -0.8670 H     1 <1>   0.0800 
 34 H        6.3180     5.1450    -1.4970 H     1 <1>   0.0800 
 35 H        8.2060     7.9250     1.7030 H     1 <1>   0.0800 
 36 H        8.6250     4.6160    -2.0620 H     1 <1>   0.0800 
 37 H        9.8420     7.2690    -0.0610 H     1 <1>   0.4500 
 38 H        8.6160     5.2210     2.1890 H     1 <1>   0.0800 
 39 H        9.7510     6.5000     2.4400 H     1 <1>   0.0800 
 40 H       10.3280     4.1410    -0.7040 H     1 <1>   0.0800 
 41 H        9.0870     3.7150     0.4350 H     1 <1>   0.0800 
 42 H        7.6380     6.9380    -1.9060 H     1 <1>   0.0800 
 43 H        9.3450     6.7530    -2.1620 H     1 <1>   0.0800 
 44 H        7.6720     9.1860    -0.7540 H     1 <1>   0.0800 
 45 H        9.2890     9.2020    -1.4270 H     1 <1>   0.0800 
 46 H        9.0490     9.5310     0.2740 H     1 <1>   0.0800 
@<TRIPOS>BOND
  1   1   2  1   
  2   2   3  ar  
  3   2   4  ar  
  4   3   5  ar  
  5   3  26  1   
  6   4   6  ar  
  7   4  27  1   
  8   5   7  1   
  9   5   8  ar  
 10   6   8  ar  
 11   6  28  1   
 12   7   9  am  
 13   7  29  1   
 14   8  10  1   
 15   9  11  2   
 16   9  12  1   
 17  10  12  2   
 18  10  13  1   
 19  12  30  1   
 20  13  14  2   
 21  13  15  am  
 22  15  16  1   
 23  15  17  1   
 24  16  18  1   
 25  16  31  1   
 26  16  32  1   
 27  17  19  1   
 28  17  33  1   
 29  17  34  1   
 30  18  20  1   
 31  18  21  1   
 32  18  35  1   
 33  19  22  1   
 34  19  23  1   
 35  19  36  1   
 36  20  23  1   
 37  20  24  1   
 38  20  37  1   
 39  21  25  1   
 40  21  38  1   
 41  21  39  1   
 42  22  25  1   
 43  22  40  1   
 44  22  41  1   
 45  23  42  1   
 46  23  43  1   
 47  24  44  1   
 48  24  45  1   
 49  24  46  1   
@<TRIPOS>SUBSTRUCTURE
  1 ****  13 GROUP 4 **** **** 0

# MOE 2024.06 (io_trps.svl 2023.06)
