@<TRIPOS>MOLECULE
NONAME
46 48 1 0 0 
SMALL
USER_CHARGES


@<TRIPOS>ATOM
  1 O       -3.3720     1.4960    -2.8410 O.2   1 <1>  -0.5700 
  2 C       -2.6740     1.5940    -1.8600 C.2   1 <1>   0.5690 
  3 N       -2.3390     0.5100    -1.1150 N.am  1 <1>  -0.7300 
  4 C       -2.1640     2.9730    -1.4560 C.3   1 <1>   0.1810 
  5 C       -2.7620    -0.8830    -1.3750 C.3   1 <1>   0.2200 
  6 O       -1.4870     2.9290    -0.2070 O.3   1 <1>  -0.3630 
  7 C       -3.7690    -1.3040    -0.3200 C.3   1 <1>  -0.0800 
  8 C       -1.6000    -1.8380    -1.1100 C.3   1 <1>   0.1200 
  9 C       -0.9510     4.0480     0.3400 C.ar  1 <1>   0.0820 
 10 C       -2.8530    -1.7390     0.8250 C.3   1 <1>   0.1200 
 11 C       -4.6650    -2.4540    -0.8190 C.3   1 <1>  -0.0160 
 12 O       -1.6690    -2.1960     0.2410 O.3   1 <1>  -0.5600 
 13 C       -0.3000     3.8980     1.5540 C.ar  1 <1>  -0.1500 
 14 C       -1.0240     5.3090    -0.2470 C.ar  1 <1>  -0.1500 
 15 C       -5.6800    -2.8670     0.2340 C.ar  1 <1>  -0.1440 
 16 C        0.2780     4.9850     2.1890 C.ar  1 <1>  -0.1440 
 17 C       -0.4460     6.3970     0.3840 C.ar  1 <1>  -0.1500 
 18 C       -5.5400    -4.0240     0.9740 C.ar  1 <1>  -0.1500 
 19 C       -6.7980    -2.1030     0.5050 C.ar  1 <1>  -0.1500 
 20 C        0.2020     6.2350     1.5970 C.ar  1 <1>  -0.1500 
 21 C        0.9910     4.8120     3.5180 C.3   1 <1>  -0.0970 
 22 C       -6.4940    -4.3500     1.9240 C.ar  1 <1>   0.1600 
 23 C       -7.6930    -2.5190     1.4770 C.ar  1 <1>   0.1600 
 24 N       -7.5670    -3.6240     2.1940 N.ar  1 <1>  -0.6200 
 25 H       -1.7560     0.6530    -0.2840 H     1 <1>   0.3700 
 26 H       -2.9970     3.6460    -1.3680 H     1 <1>   0.0800 
 27 H       -1.4790     3.3300    -2.2030 H     1 <1>   0.0800 
 28 H       -3.1390    -0.9740    -2.3810 H     1 <1>   0.0800 
 29 H       -4.3940    -0.4790    -0.0240 H     1 <1>   0.0800 
 30 H       -0.6430    -1.3910    -1.3170 H     1 <1>   0.0800 
 31 H       -1.7120    -2.7380    -1.6880 H     1 <1>   0.0800 
 32 H       -3.2700    -2.5200     1.4360 H     1 <1>   0.0800 
 33 H       -2.6020    -0.8970     1.4480 H     1 <1>   0.0800 
 34 H       -4.0630    -3.3040    -1.0920 H     1 <1>   0.0800 
 35 H       -5.1940    -2.1360    -1.7010 H     1 <1>   0.0800 
 36 H       -0.2490     2.9200     1.9970 H     1 <1>   0.1500 
 37 H       -1.5190     5.4670    -1.1850 H     1 <1>   0.1500 
 38 H       -0.5000     7.3720    -0.0670 H     1 <1>   0.1500 
 39 H       -4.6980    -4.6750     0.8220 H     1 <1>   0.1500 
 40 H       -6.9810    -1.1900    -0.0310 H     1 <1>   0.1500 
 41 H        0.6490     7.0880     2.0780 H     1 <1>   0.1500 
 42 H        0.8140     5.6630     4.1500 H     1 <1>   0.0800 
 43 H        2.0490     4.7160     3.3520 H     1 <1>   0.0800 
 44 H        0.6380     3.9330     4.0260 H     1 <1>   0.0800 
 45 H       -6.3670    -5.2560     2.4910 H     1 <1>   0.1500 
 46 H       -8.5580    -1.9100     1.6740 H     1 <1>   0.1500 
@<TRIPOS>BOND
  1   1   2  2   
  2   2   3  am  
  3   2   4  1   
  4   3   5  1   
  5   3  25  1   
  6   4   6  1   
  7   4  26  1   
  8   4  27  1   
  9   5   7  1   
 10   5   8  1   
 11   5  28  1   
 12   6   9  1   
 13   7  10  1   
 14   7  11  1   
 15   7  29  1   
 16   8  12  1   
 17   8  30  1   
 18   8  31  1   
 19   9  13  ar  
 20   9  14  ar  
 21  10  12  1   
 22  10  32  1   
 23  10  33  1   
 24  11  15  1   
 25  11  34  1   
 26  11  35  1   
 27  13  16  ar  
 28  13  36  1   
 29  14  17  ar  
 30  14  37  1   
 31  15  18  ar  
 32  15  19  ar  
 33  16  20  ar  
 34  16  21  1   
 35  17  20  ar  
 36  17  38  1   
 37  18  22  ar  
 38  18  39  1   
 39  19  23  ar  
 40  19  40  1   
 41  20  41  1   
 42  21  42  1   
 43  21  43  1   
 44  21  44  1   
 45  22  24  ar  
 46  22  45  1   
 47  23  24  ar  
 48  23  46  1   
@<TRIPOS>SUBSTRUCTURE
  1 ****   3 GROUP 4 **** **** 0

# MOE 2024.06 (io_trps.svl 2023.06)
