@<TRIPOS>MOLECULE
NONAME
44 48 1 0 0 
SMALL
USER_CHARGES


@<TRIPOS>ATOM
  1 N        0.3030     0.1560     0.8230 N.ar  1 <1>  -0.6200 
  2 C       -0.5160     1.0670     1.3290 C.ar  1 <1>   0.4760 
  3 C        1.3190     0.6510     0.1510 C.ar  1 <1>   0.1660 
  4 N       -0.4230     2.3880     1.2420 N.ar  1 <1>  -0.6200 
  5 C       -1.6960     0.5360     2.1050 C.3   1 <1>  -0.0960 
  6 C        1.5220     1.9900    -0.0010 C.ar  1 <1>  -0.1430 
  7 C        2.4080    -0.1610    -0.5270 C.3   1 <1>   0.1430 
  8 C        0.6120     2.8450     0.5680 C.ar  1 <1>   0.1600 
  9 C        2.7690     2.2850    -0.7970 C.3   1 <1>  -0.0160 
 10 C        3.3280    -0.7500     0.5620 C.3   1 <1>   0.2090 
 11 C        1.8410    -1.3020    -1.3980 C.3   1 <1>  -0.1600 
 12 C        3.1350     0.9110    -1.3850 C.3   1 <1>  -0.1600 
 13 N        4.4110    -1.5920    -0.0350 N.pl3 1 <1>  -0.8380 
 14 C        2.9720    -2.1710    -1.9760 C.3   1 <1>  -0.1600 
 15 C        5.5970    -1.7540     0.6580 C.ar  1 <1>   0.4100 
 16 C        3.8980    -2.7100    -0.8780 C.3   1 <1>   0.2090 
 17 N        5.9750    -2.9800     0.9470 N.ar  1 <1>  -0.6200 
 18 C        6.3810    -0.6580     1.0590 C.ar  1 <1>   0.0000 
 19 C        7.1090    -3.1110     1.6470 C.ar  1 <1>   0.4700 
 20 C        7.5240    -0.9400     1.7770 C.ar  1 <1>   0.1050 
 21 C        6.3500     0.7520     0.9250 C.2   1 <1>  -0.1500 
 22 N        7.9130    -2.1770     2.0900 N.ar  1 <1>  -0.5670 
 23 N        8.1630     0.2210     2.0870 N.pl3 1 <1>   0.0330 
 24 C        7.4380     1.2550     1.5590 C.2   1 <1>  -0.3020 
 25 H       -1.9880    -0.4240     1.7230 H     1 <1>   0.0800 
 26 H       -2.5270     1.2120     2.0210 H     1 <1>   0.0800 
 27 H       -1.4240     0.4380     3.1380 H     1 <1>   0.0800 
 28 H        0.7290     3.9110     0.4740 H     1 <1>   0.1500 
 29 H        3.5430     2.6380    -0.1380 H     1 <1>   0.0800 
 30 H        2.5860     3.0100    -1.5710 H     1 <1>   0.0800 
 31 H        2.7390    -1.3650     1.2200 H     1 <1>   0.0800 
 32 H        3.7480     0.0430     1.1530 H     1 <1>   0.0800 
 33 H        1.2360    -0.9000    -2.1910 H     1 <1>   0.0800 
 34 H        1.2050    -1.9210    -0.7890 H     1 <1>   0.0800 
 35 H        2.7600     0.8740    -2.3930 H     1 <1>   0.0800 
 36 H        4.1980     0.7540    -1.4220 H     1 <1>   0.0800 
 37 H        3.5620    -1.6000    -2.6710 H     1 <1>   0.0800 
 38 H        2.5490    -3.0010    -2.5130 H     1 <1>   0.0800 
 39 H        3.3630    -3.4030    -0.2510 H     1 <1>   0.0800 
 40 H        4.7240    -3.2330    -1.3300 H     1 <1>   0.0800 
 41 H        7.3880    -4.1260     1.8720 H     1 <1>   0.1500 
 42 H        5.5840     1.2890     0.4000 H     1 <1>   0.1500 
 43 H        9.0380     0.2670     2.6160 H     1 <1>   0.2700 
 44 H        7.7450     2.2810     1.6660 H     1 <1>   0.1500 
@<TRIPOS>BOND
  1   1   2  ar  
  2   1   3  ar  
  3   2   4  ar  
  4   2   5  1   
  5   3   6  ar  
  6   3   7  1   
  7   4   8  ar  
  8   5  25  1   
  9   5  26  1   
 10   5  27  1   
 11   6   8  ar  
 12   6   9  1   
 13   7  10  1   
 14   7  11  1   
 15   7  12  1   
 16   8  28  1   
 17   9  12  1   
 18   9  29  1   
 19   9  30  1   
 20  10  13  1   
 21  10  31  1   
 22  10  32  1   
 23  11  14  1   
 24  11  33  1   
 25  11  34  1   
 26  12  35  1   
 27  12  36  1   
 28  13  15  1   
 29  13  16  1   
 30  14  16  1   
 31  14  37  1   
 32  14  38  1   
 33  15  17  ar  
 34  15  18  ar  
 35  16  39  1   
 36  16  40  1   
 37  17  19  ar  
 38  18  20  ar  
 39  18  21  1   
 40  19  22  ar  
 41  19  41  1   
 42  20  22  ar  
 43  20  23  1   
 44  21  24  2   
 45  21  42  1   
 46  23  24  1   
 47  23  43  1   
 48  24  44  1   
@<TRIPOS>SUBSTRUCTURE
  1 ****  10 GROUP 4 **** **** 0

# MOE 2024.06 (io_trps.svl 2023.06)
