@<TRIPOS>MOLECULE
NONAME
44 47 1 0 0 
SMALL
USER_CHARGES


@<TRIPOS>ATOM
  1 S       -1.4190     1.0520     0.5320 S.3   1 <1>  -0.0800 
  2 C       -0.5080     2.5000     0.1630 C.2   1 <1>  -0.1400 
  3 C       -0.0300     0.3680     1.3620 C.2   1 <1>  -0.1100 
  4 C        0.7440     2.4380     0.6320 C.2   1 <1>  -0.1810 
  5 C       -1.1050     3.6560    -0.5910 C.3   1 <1>   0.0200 
  6 C        1.0190     1.2120     1.3280 C.2   1 <1>  -0.1500 
  7 C        1.7250     3.5860     0.4020 C.3   1 <1>   0.4610 
  8 C       -0.2190     4.8790    -0.3090 C.3   1 <1>   0.1200 
  9 O        1.1540     4.5700    -0.4490 O.3   1 <1>  -0.5600 
 10 C        2.1410     4.2630     1.7170 C.3   1 <1>  -0.1600 
 11 C        2.9760     3.0800    -0.3210 C.3   1 <1>  -0.1600 
 12 C        3.3870     5.1480     1.5850 C.3   1 <1>   0.3430 
 13 C        3.9910     4.1900    -0.6160 C.3   1 <1>   0.3430 
 14 N        3.6760     5.4290     0.1520 N.4   1 <1>  -0.9590 
 15 C        4.6810     6.5020    -0.0920 C.3   1 <1>   0.3430 
 16 C        4.1790     7.8870     0.3480 C.3   1 <1>  -0.0800 
 17 C        2.9420     8.2930    -0.4410 C.3   1 <1>   0.1200 
 18 C        5.1600     8.9610    -0.1130 C.3   1 <1>  -0.1600 
 19 O        3.4620     8.6360    -1.6760 O.3   1 <1>  -0.5600 
 20 C        4.6410     9.3580    -1.4970 C.3   1 <1>   0.1200 
 21 H       -0.1510    -0.6100     1.7940 H     1 <1>   0.1500 
 22 H       -2.1080     3.8470    -0.2560 H     1 <1>   0.0800 
 23 H       -1.1270     3.4390    -1.6440 H     1 <1>   0.0800 
 24 H        1.9790     1.0100     1.7690 H     1 <1>   0.1500 
 25 H       -0.3900     5.2340     0.6920 H     1 <1>   0.0800 
 26 H       -0.4540     5.6700    -1.0000 H     1 <1>   0.0800 
 27 H        2.3570     3.5070     2.4490 H     1 <1>   0.0800 
 28 H        1.3220     4.8360     2.1110 H     1 <1>   0.0800 
 29 H        2.6890     2.5990    -1.2390 H     1 <1>   0.0800 
 30 H        3.4570     2.3310     0.2820 H     1 <1>   0.0800 
 31 H        4.2330     4.6460     2.0260 H     1 <1>   0.0800 
 32 H        3.2250     6.0670     2.1230 H     1 <1>   0.0800 
 33 H        3.9610     4.4160    -1.6710 H     1 <1>   0.0800 
 34 H        4.9830     3.8440    -0.3760 H     1 <1>   0.0800 
 35 H        2.7730     5.7330    -0.2620 H     1 <1>   0.4500 
 36 H        4.8950     6.5490    -1.1480 H     1 <1>   0.0800 
 37 H        5.5990     6.2690     0.4230 H     1 <1>   0.0800 
 38 H        4.0220     7.9320     1.4110 H     1 <1>   0.0800 
 39 H        2.4750     9.1690    -0.0200 H     1 <1>   0.0800 
 40 H        2.2100     7.5160    -0.5670 H     1 <1>   0.0800 
 41 H        6.1820     8.6240    -0.1530 H     1 <1>   0.0800 
 42 H        5.1110     9.8200     0.5340 H     1 <1>   0.0800 
 43 H        5.3250     9.0930    -2.2860 H     1 <1>   0.0800 
 44 H        4.4100    10.4090    -1.5490 H     1 <1>   0.0800 
@<TRIPOS>BOND
  1   1   2  1   
  2   1   3  1   
  3   2   4  2   
  4   2   5  1   
  5   3   6  2   
  6   3  21  1   
  7   4   6  1   
  8   4   7  1   
  9   5   8  1   
 10   5  22  1   
 11   5  23  1   
 12   6  24  1   
 13   7   9  1   
 14   7  10  1   
 15   7  11  1   
 16   8   9  1   
 17   8  25  1   
 18   8  26  1   
 19  10  12  1   
 20  10  27  1   
 21  10  28  1   
 22  11  13  1   
 23  11  29  1   
 24  11  30  1   
 25  12  14  1   
 26  12  31  1   
 27  12  32  1   
 28  13  14  1   
 29  13  33  1   
 30  13  34  1   
 31  14  15  1   
 32  14  35  1   
 33  15  16  1   
 34  15  36  1   
 35  15  37  1   
 36  16  17  1   
 37  16  18  1   
 38  16  38  1   
 39  17  19  1   
 40  17  39  1   
 41  17  40  1   
 42  18  20  1   
 43  18  41  1   
 44  18  42  1   
 45  19  20  1   
 46  20  43  1   
 47  20  44  1   
@<TRIPOS>SUBSTRUCTURE
  1 ****   9 GROUP 4 **** **** 0

# MOE 2024.06 (io_trps.svl 2023.06)
