@<TRIPOS>MOLECULE
NONAME
46 48 1 0 0 
SMALL
USER_CHARGES


@<TRIPOS>ATOM
  1 O        0.7510    -0.1250     1.4630 O.2   1 <1>  -0.5700 
  2 C        0.4340    -1.2810     1.2650 C.2   1 <1>   0.5440 
  3 N       -0.6560    -1.7020     1.9410 N.am  1 <1>  -0.8000 
  4 C        1.1920    -2.1330     0.3670 C.ar  1 <1>   0.0860 
  5 C        0.7330    -3.3820    -0.1140 C.ar  1 <1>   0.4100 
  6 C        2.4470    -1.7190    -0.0640 C.ar  1 <1>  -0.1500 
  7 N        1.4330    -4.1640    -0.9380 N.ar  1 <1>  -0.6200 
  8 N       -0.5120    -3.8940     0.2100 N.pl3 1 <1>  -0.8380 
  9 C        3.1630    -2.5300    -0.9130 C.ar  1 <1>  -0.1500 
 10 C        2.6160    -3.7340    -1.3170 C.ar  1 <1>   0.1670 
 11 C       -1.5820    -3.7430    -0.8190 C.3   1 <1>   0.2090 
 12 C       -0.5860    -5.2810     0.7450 C.3   1 <1>   0.2090 
 13 C        3.3850    -4.6440    -2.2520 C.3   1 <1>  -0.0970 
 14 C       -2.3570    -5.0680    -0.8510 C.3   1 <1>   0.2000 
 15 C       -1.3480    -6.0790    -0.3100 C.3   1 <1>  -0.0800 
 16 O       -3.4520    -5.0140     0.0230 O.3   1 <1>  -0.5600 
 17 C       -1.9590    -7.3860     0.2240 C.3   1 <1>   0.0200 
 18 C       -4.6150    -4.4700    -0.5180 C.3   1 <1>   0.0400 
 19 C       -0.9070    -8.4230     0.5830 C.2   1 <1>  -0.0400 
 20 O       -1.2830    -9.5260     1.1740 O.3   1 <1>  -0.0190 
 21 C        0.4240    -8.4820     0.4180 C.2   1 <1>  -0.1500 
 22 N       -0.2780   -10.3170     1.4150 N.2   1 <1>  -0.4100 
 23 C        0.7650    -9.7130     0.9710 C.2   1 <1>   0.1080 
 24 C        2.1680   -10.2730     1.0420 C.3   1 <1>  -0.0590 
 25 H       -1.1990    -1.0560     2.5110 H     1 <1>   0.3700 
 26 H       -1.0580    -2.6200     1.7100 H     1 <1>   0.3700 
 27 H        2.8520    -0.7770     0.2650 H     1 <1>   0.1500 
 28 H        4.1350    -2.2260    -1.2560 H     1 <1>   0.1500 
 29 H       -2.2240    -2.9140    -0.5780 H     1 <1>   0.0800 
 30 H       -1.1280    -3.5710    -1.7800 H     1 <1>   0.0800 
 31 H        0.3950    -5.6890     0.9250 H     1 <1>   0.0800 
 32 H       -1.1350    -5.2670     1.6710 H     1 <1>   0.0800 
 33 H        4.3350    -4.2170    -2.5160 H     1 <1>   0.0800 
 34 H        2.8140    -4.8020    -3.1480 H     1 <1>   0.0800 
 35 H        3.5500    -5.5920    -1.7750 H     1 <1>   0.0800 
 36 H       -2.6980    -5.3280    -1.8390 H     1 <1>   0.0800 
 37 H       -0.6610    -6.3110    -1.1050 H     1 <1>   0.0800 
 38 H       -2.6090    -7.8070    -0.5210 H     1 <1>   0.0800 
 39 H       -2.5540    -7.1810     1.0970 H     1 <1>   0.0800 
 40 H       -5.3720    -4.4760     0.2470 H     1 <1>   0.0800 
 41 H       -4.9370    -5.0730    -1.3490 H     1 <1>   0.0800 
 42 H       -4.4290    -3.4580    -0.8320 H     1 <1>   0.0800 
 43 H        1.1020    -7.7780    -0.0280 H     1 <1>   0.1500 
 44 H        2.8070    -9.5880     1.5670 H     1 <1>   0.0800 
 45 H        2.5490   -10.4280     0.0500 H     1 <1>   0.0800 
 46 H        2.1610   -11.2130     1.5640 H     1 <1>   0.0800 
@<TRIPOS>BOND
  1   1   2  2   
  2   2   3  am  
  3   2   4  1   
  4   3  25  1   
  5   3  26  1   
  6   4   5  ar  
  7   4   6  ar  
  8   5   7  ar  
  9   5   8  1   
 10   6   9  ar  
 11   6  27  1   
 12   7  10  ar  
 13   8  11  1   
 14   8  12  1   
 15   9  10  ar  
 16   9  28  1   
 17  10  13  1   
 18  11  14  1   
 19  11  29  1   
 20  11  30  1   
 21  12  15  1   
 22  12  31  1   
 23  12  32  1   
 24  13  33  1   
 25  13  34  1   
 26  13  35  1   
 27  14  15  1   
 28  14  16  1   
 29  14  36  1   
 30  15  17  1   
 31  15  37  1   
 32  16  18  1   
 33  17  19  1   
 34  17  38  1   
 35  17  39  1   
 36  18  40  1   
 37  18  41  1   
 38  18  42  1   
 39  19  20  1   
 40  19  21  2   
 41  20  22  1   
 42  21  23  1   
 43  21  43  1   
 44  22  23  2   
 45  23  24  1   
 46  24  44  1   
 47  24  45  1   
 48  24  46  1   
@<TRIPOS>SUBSTRUCTURE
  1 ****  12 GROUP 4 **** **** 0

# MOE 2024.06 (io_trps.svl 2023.06)
