@<TRIPOS>MOLECULE
NONAME
41 44 1 0 0 
SMALL
USER_CHARGES


@<TRIPOS>ATOM
  1 CL      -0.6520    -0.7740     1.4310 Cl    1 <1>  -0.1230 
  2 C       -1.9690     0.2220     0.8330 C.2   1 <1>   0.1230 
  3 C       -2.9730    -0.1650    -0.0600 C.2   1 <1>   0.2030 
  4 C       -2.2000     1.4990     1.1730 C.2   1 <1>  -0.3020 
  5 N       -3.7990     0.8600    -0.2420 N.2   1 <1>  -0.7070 
  6 C       -3.0500    -1.4850    -0.6720 C.2   1 <1>   0.7160 
  7 N       -3.3100     1.8620     0.5050 N.pl3 1 <1>   0.3140 
  8 O       -2.0280    -2.0180    -1.0750 O.2   1 <1>  -0.5700 
  9 N       -4.2410    -2.1820    -0.8210 N.am  1 <1>  -0.6600 
 10 C       -3.9520     3.1820     0.5490 C.3   1 <1>   0.0160 
 11 C       -5.5210    -1.7900    -0.1700 C.3   1 <1>   0.1400 
 12 C       -4.3520    -3.3880    -1.6890 C.3   1 <1>   0.1400 
 13 C       -6.0370    -2.9590     0.6710 C.3   1 <1>  -0.1600 
 14 C       -4.8560    -4.5680    -0.8580 C.3   1 <1>  -0.1600 
 15 C       -6.1800    -4.2420    -0.1590 C.3   1 <1>   0.4610 
 16 O       -7.1240    -4.0220    -1.1930 O.3   1 <1>  -0.5600 
 17 C       -6.6290    -5.4170     0.7130 C.2   1 <1>  -0.1810 
 18 C       -8.4950    -4.0950    -0.8810 C.3   1 <1>   0.1200 
 19 C       -7.8420    -5.9630     0.5620 C.2   1 <1>  -0.1400 
 20 C       -5.8560    -6.0490     1.7450 C.2   1 <1>  -0.1500 
 21 C       -8.8860    -5.5090    -0.4220 C.3   1 <1>   0.0200 
 22 S       -8.1000    -7.3000     1.6630 S.3   1 <1>  -0.0800 
 23 C       -6.4970    -7.0700     2.3470 C.2   1 <1>  -0.1100 
 24 H       -1.6540     2.1470     1.8330 H     1 <1>   0.1500 
 25 H       -3.2380     3.9320     0.2650 H     1 <1>   0.0800 
 26 H       -4.3060     3.3700     1.5450 H     1 <1>   0.0800 
 27 H       -4.7790     3.1950    -0.1370 H     1 <1>   0.0800 
 28 H       -6.2390    -1.5340    -0.9320 H     1 <1>   0.0800 
 29 H       -5.3910    -0.9350     0.4680 H     1 <1>   0.0800 
 30 H       -3.4020    -3.6370    -2.1310 H     1 <1>   0.0800 
 31 H       -5.0430    -3.1810    -2.4890 H     1 <1>   0.0800 
 32 H       -6.9760    -2.7030     1.1240 H     1 <1>   0.0800 
 33 H       -5.3410    -3.1340     1.4700 H     1 <1>   0.0800 
 34 H       -4.1060    -4.8130    -0.1290 H     1 <1>   0.0800 
 35 H       -4.9920    -5.4280    -1.4870 H     1 <1>   0.0800 
 36 H       -9.0480    -3.8260    -1.7640 H     1 <1>   0.0800 
 37 H       -8.7090    -3.3780    -0.1090 H     1 <1>   0.0800 
 38 H       -4.8640    -5.7120     1.9870 H     1 <1>   0.1500 
 39 H       -8.9160    -6.1800    -1.2620 H     1 <1>   0.0800 
 40 H       -9.8560    -5.4870     0.0410 H     1 <1>   0.0800 
 41 H       -6.2000    -7.7350     3.1380 H     1 <1>   0.1500 
@<TRIPOS>BOND
  1   1   2  1   
  2   2   3  1   
  3   2   4  2   
  4   3   5  2   
  5   3   6  1   
  6   4   7  1   
  7   4  24  1   
  8   5   7  1   
  9   6   8  2   
 10   6   9  am  
 11   7  10  1   
 12   9  11  1   
 13   9  12  1   
 14  10  25  1   
 15  10  26  1   
 16  10  27  1   
 17  11  13  1   
 18  11  28  1   
 19  11  29  1   
 20  12  14  1   
 21  12  30  1   
 22  12  31  1   
 23  13  15  1   
 24  13  32  1   
 25  13  33  1   
 26  14  15  1   
 27  14  34  1   
 28  14  35  1   
 29  15  16  1   
 30  15  17  1   
 31  16  18  1   
 32  17  19  2   
 33  17  20  1   
 34  18  21  1   
 35  18  36  1   
 36  18  37  1   
 37  19  21  1   
 38  19  22  1   
 39  20  23  2   
 40  20  38  1   
 41  21  39  1   
 42  21  40  1   
 43  22  23  1   
 44  23  41  1   
@<TRIPOS>SUBSTRUCTURE
  1 ****  11 GROUP 4 **** **** 0

# MOE 2024.06 (io_trps.svl 2023.06)
