@<TRIPOS>MOLECULE
NONAME
47 49 1 0 0 
SMALL
USER_CHARGES


@<TRIPOS>ATOM
  1 O       -0.5990     1.0950    -1.0020 O.2   1 <1>  -0.5700 
  2 C       -0.6160     2.2480    -0.6390 C.2   1 <1>   0.5690 
  3 N       -1.6850     2.8340    -0.0090 N.am  1 <1>  -0.6600 
  4 C        0.6300     3.0860    -0.9110 C.3   1 <1>   0.1810 
  5 C       -1.6370     4.2820     0.3920 C.3   1 <1>   0.3640 
  6 C       -2.9180     2.1120     0.4140 C.3   1 <1>   0.2200 
  7 O        0.8180     4.0710     0.0710 O.3   1 <1>  -0.5600 
  8 C       -2.7230     5.0500    -0.3650 C.ar  1 <1>  -0.1440 
  9 C       -0.2650     4.9820     0.1810 C.3   1 <1>   0.2610 
 10 C       -2.5760     1.0550     1.4630 C.3   1 <1>  -0.2400 
 11 C       -3.6540     1.5110    -0.7850 C.3   1 <1>  -0.2400 
 12 C       -2.8720     4.9140    -1.7400 C.ar  1 <1>  -0.1500 
 13 C       -3.5740     5.9050     0.3200 C.ar  1 <1>  -0.1500 
 14 C       -0.0020     5.9720     1.3230 C.2   1 <1>   0.5690 
 15 C       -3.8540     5.6180    -2.4150 C.ar  1 <1>  -0.1500 
 16 C       -4.5570     6.6090    -0.3530 C.ar  1 <1>  -0.1500 
 17 O       -0.8320     6.8060     1.6080 O.2   1 <1>  -0.5700 
 18 N        1.1790     5.9170     1.9900 N.am  1 <1>  -0.7300 
 19 C       -4.6970     6.4670    -1.7220 C.ar  1 <1>  -0.1500 
 20 C        1.6100     6.8370     3.0540 C.3   1 <1>   0.3200 
 21 C        2.0510     8.1310     2.4120 C.2   1 <1>  -0.3320 
 22 N        1.2020     8.8970     1.6980 N.pl3 1 <1>   0.3000 
 23 C        3.2470     8.7610     2.3990 C.2   1 <1>  -0.1500 
 24 N        1.8090    10.0010     1.2210 N.2   1 <1>  -0.7070 
 25 C        3.0320     9.9110     1.6460 C.2   1 <1>   0.1390 
 26 H        0.5510     3.5600    -1.8720 H     1 <1>   0.0800 
 27 H        1.4950     2.4480    -0.9050 H     1 <1>   0.0800 
 28 H       -1.8630     4.3240     1.4440 H     1 <1>   0.0800 
 29 H       -3.5900     2.8180     0.8750 H     1 <1>   0.0800 
 30 H       -0.2940     5.5480    -0.7330 H     1 <1>   0.0800 
 31 H       -1.9650     0.2790     1.0390 H     1 <1>   0.0800 
 32 H       -3.4790     0.6060     1.8340 H     1 <1>   0.0800 
 33 H       -2.0550     1.5050     2.2880 H     1 <1>   0.0800 
 34 H       -3.0760     0.7320    -1.2460 H     1 <1>   0.0800 
 35 H       -3.8680     2.2730    -1.5100 H     1 <1>   0.0800 
 36 H       -4.5850     1.0860    -0.4600 H     1 <1>   0.0800 
 37 H       -2.2290     4.2530    -2.2940 H     1 <1>   0.1500 
 38 H       -3.4750     6.0360     1.3850 H     1 <1>   0.1500 
 39 H       -3.9620     5.5050    -3.4800 H     1 <1>   0.1500 
 40 H       -5.2100     7.2720     0.1880 H     1 <1>   0.1500 
 41 H        1.8800     5.2520     1.6470 H     1 <1>   0.3700 
 42 H       -5.4610     7.0150    -2.2450 H     1 <1>   0.1500 
 43 H        0.7900     7.0220     3.7280 H     1 <1>   0.0800 
 44 H        2.4200     6.3960     3.6080 H     1 <1>   0.0800 
 45 H        0.2120     8.6640     1.5150 H     1 <1>   0.2700 
 46 H        4.1770     8.4710     2.8540 H     1 <1>   0.1500 
 47 H        3.7870    10.6490     1.4340 H     1 <1>   0.1500 
@<TRIPOS>BOND
  1   1   2  2   
  2   2   3  am  
  3   2   4  1   
  4   3   5  1   
  5   3   6  1   
  6   4   7  1   
  7   4  26  1   
  8   4  27  1   
  9   5   8  1   
 10   5   9  1   
 11   5  28  1   
 12   6  10  1   
 13   6  11  1   
 14   6  29  1   
 15   7   9  1   
 16   8  12  ar  
 17   8  13  ar  
 18   9  14  1   
 19   9  30  1   
 20  10  31  1   
 21  10  32  1   
 22  10  33  1   
 23  11  34  1   
 24  11  35  1   
 25  11  36  1   
 26  12  15  ar  
 27  12  37  1   
 28  13  16  ar  
 29  13  38  1   
 30  14  17  2   
 31  14  18  am  
 32  15  19  ar  
 33  15  39  1   
 34  16  19  ar  
 35  16  40  1   
 36  18  20  1   
 37  18  41  1   
 38  19  42  1   
 39  20  21  1   
 40  20  43  1   
 41  20  44  1   
 42  21  22  1   
 43  21  23  2   
 44  22  24  1   
 45  22  45  1   
 46  23  25  1   
 47  23  46  1   
 48  24  25  2   
 49  25  47  1   
@<TRIPOS>SUBSTRUCTURE
  1 ****   9 GROUP 4 **** **** 0

# MOE 2024.06 (io_trps.svl 2023.06)
