@<TRIPOS>MOLECULE
NONAME
43 45 1 0 0 
SMALL
USER_CHARGES


@<TRIPOS>ATOM
  1 O       -0.6900     0.2310     0.6890 O.2   1 <1>  -0.5700 
  2 C       -1.5360     0.9390     0.1750 C.2   1 <1>   0.7160 
  3 N       -2.6650     0.3500    -0.3480 N.am  1 <1>  -0.6600 
  4 C       -1.3370     2.3690     0.1440 C.2   1 <1>  -0.0860 
  5 C       -4.0150     0.9930    -0.3050 C.3   1 <1>   0.1400 
  6 C       -2.7270    -1.1160    -0.6400 C.3   1 <1>   0.1400 
  7 C       -0.6240     3.1320     1.0150 C.2   1 <1>  -0.0100 
  8 C       -1.8160     3.2980    -0.8050 C.2   1 <1>  -0.1500 
  9 C       -4.9960     0.1750     0.5590 C.3   1 <1>   0.2950 
 10 C       -3.7750    -1.8150     0.2510 C.3   1 <1>   0.2000 
 11 O       -0.6540     4.4000     0.6830 O.3   1 <1>  -0.2800 
 12 C       -1.3680     4.5090    -0.4170 C.2   1 <1>  -0.0100 
 13 O       -5.0050    -1.1610     0.1360 O.3   1 <1>  -0.5600 
 14 C       -6.4190     0.7560     0.4690 C.3   1 <1>  -0.1950 
 15 C       -4.0170    -3.2800    -0.1360 C.3   1 <1>  -0.1600 
 16 C       -7.6410    -0.0660     0.7390 C.3   1 <1>  -0.2000 
 17 C       -7.3530     0.4220    -0.6530 C.3   1 <1>  -0.2000 
 18 C       -2.7820    -4.1710     0.0770 C.3   1 <1>  -0.1600 
 19 C       -3.1030    -5.6380    -0.2320 C.3   1 <1>  -0.1600 
 20 C       -1.8740    -6.5270    -0.0230 C.3   1 <1>  -0.2400 
 21 H       -3.9500     1.9850     0.1040 H     1 <1>   0.0800 
 22 H       -4.4050     1.0660    -1.3040 H     1 <1>   0.0800 
 23 H       -2.9910    -1.2570    -1.6730 H     1 <1>   0.0800 
 24 H       -1.7630    -1.5680    -0.4860 H     1 <1>   0.0800 
 25 H       -0.0720     2.8290     1.8890 H     1 <1>   0.1500 
 26 H       -2.4130     3.0510    -1.6660 H     1 <1>   0.1500 
 27 H       -4.6770     0.1950     1.5870 H     1 <1>   0.0800 
 28 H       -3.4640    -1.7680     1.2820 H     1 <1>   0.0800 
 29 H       -1.5010     5.4830    -0.8540 H     1 <1>   0.1500 
 30 H       -6.4470     1.7680     0.8330 H     1 <1>   0.1000 
 31 H       -4.8230    -3.6560     0.4690 H     1 <1>   0.0800 
 32 H       -4.3220    -3.3270    -1.1670 H     1 <1>   0.0800 
 33 H       -7.5330    -1.1190     0.9420 H     1 <1>   0.1000 
 34 H       -8.4560     0.3760     1.2850 H     1 <1>   0.1000 
 35 H       -7.9730     1.1990    -1.0670 H     1 <1>   0.1000 
 36 H       -7.0530    -0.3040    -1.3900 H     1 <1>   0.1000 
 37 H       -1.9780    -3.8480    -0.5610 H     1 <1>   0.0800 
 38 H       -2.4520    -4.0880     1.0990 H     1 <1>   0.0800 
 39 H       -3.8990    -5.9780     0.4090 H     1 <1>   0.0800 
 40 H       -3.4360    -5.7290    -1.2530 H     1 <1>   0.0800 
 41 H       -1.5370    -6.4690     0.9970 H     1 <1>   0.0800 
 42 H       -1.0720    -6.2200    -0.6710 H     1 <1>   0.0800 
 43 H       -2.1190    -7.5510    -0.2440 H     1 <1>   0.0800 
@<TRIPOS>BOND
  1   1   2  2   
  2   2   3  am  
  3   2   4  1   
  4   3   5  1   
  5   3   6  1   
  6   4   7  2   
  7   4   8  1   
  8   5   9  1   
  9   5  21  1   
 10   5  22  1   
 11   6  10  1   
 12   6  23  1   
 13   6  24  1   
 14   7  11  1   
 15   7  25  1   
 16   8  12  2   
 17   8  26  1   
 18   9  13  1   
 19   9  14  1   
 20   9  27  1   
 21  10  13  1   
 22  10  15  1   
 23  10  28  1   
 24  11  12  1   
 25  12  29  1   
 26  14  16  1   
 27  14  17  1   
 28  14  30  1   
 29  15  18  1   
 30  15  31  1   
 31  15  32  1   
 32  16  17  1   
 33  16  33  1   
 34  16  34  1   
 35  17  35  1   
 36  17  36  1   
 37  18  19  1   
 38  18  37  1   
 39  18  38  1   
 40  19  20  1   
 41  19  39  1   
 42  19  40  1   
 43  20  41  1   
 44  20  42  1   
 45  20  43  1   
@<TRIPOS>SUBSTRUCTURE
  1 ****   3 GROUP 4 **** **** 0

# MOE 2024.06 (io_trps.svl 2023.06)
