@<TRIPOS>MOLECULE
NONAME
57 59 1 0 0 
SMALL
USER_CHARGES


@<TRIPOS>ATOM
  1 O       -1.3340    -1.0330    -1.5230 O.2   1 <1>  -0.5700 
  2 C       -1.7550    -0.2650    -0.6770 C.2   1 <1>   0.5440 
  3 N       -0.9230     0.7400    -0.2180 N.am  1 <1>  -0.6600 
  4 C       -3.1000    -0.4530    -0.1830 C.ar  1 <1>   0.0860 
  5 C       -1.0650     1.3920     1.1130 C.3   1 <1>   0.0600 
  6 C        0.3300     1.0920    -0.9420 C.3   1 <1>   0.0600 
  7 C       -3.5850    -1.7410     0.0310 C.ar  1 <1>   0.1600 
  8 C       -3.9770     0.5940     0.0830 C.ar  1 <1>  -0.1500 
  9 N       -4.7890    -2.0630     0.4790 N.ar  1 <1>  -0.6200 
 10 C       -5.2300     0.2840     0.5510 C.ar  1 <1>  -0.1500 
 11 C       -5.5990    -1.0450     0.7400 C.ar  1 <1>   0.4100 
 12 N       -6.8530    -1.3400     1.2060 N.pl3 1 <1>  -0.8690 
 13 C       -7.3300    -2.7020     1.6080 C.3   1 <1>   0.2090 
 14 C       -7.8820    -3.6280     0.4550 C.3   1 <1>   0.5030 
 15 N       -7.1950    -4.9790     0.4970 N.4   1 <1>  -0.9590 
 16 C       -7.8080    -3.0250    -0.9670 C.3   1 <1>  -0.1600 
 17 C       -9.4020    -3.8200     0.6290 C.3   1 <1>  -0.1600 
 18 C       -5.6980    -4.9060     0.3230 C.3   1 <1>   0.3430 
 19 C       -7.7320    -6.0860    -0.3640 C.3   1 <1>   0.3430 
 20 C       -8.9790    -3.5820    -1.7830 C.3   1 <1>  -0.1600 
 21 C      -10.0450    -3.9800    -0.7590 C.3   1 <1>  -0.1600 
 22 C       -5.0270    -6.2880     0.5050 C.3   1 <1>   0.1100 
 23 C       -7.1010    -7.4480     0.0170 C.3   1 <1>   0.1100 
 24 N       -5.9890    -7.3040     0.9840 N.3   1 <1>  -0.8100 
 25 C       -5.3290    -8.5920     1.2340 C.3   1 <1>   0.0300 
 26 H       -1.7880     0.8760     1.7200 H     1 <1>   0.0800 
 27 H       -1.3760     2.4150     0.9840 H     1 <1>   0.0800 
 28 H       -0.1200     1.3760     1.6280 H     1 <1>   0.0800 
 29 H        0.2880     0.7470    -1.9610 H     1 <1>   0.0800 
 30 H        1.1720     0.6310    -0.4560 H     1 <1>   0.0800 
 31 H        0.4620     2.1600    -0.9490 H     1 <1>   0.0800 
 32 H       -2.9130    -2.5530    -0.1910 H     1 <1>   0.1500 
 33 H       -3.6740     1.6130    -0.0840 H     1 <1>   0.1500 
 34 H       -5.9370     1.0620     0.7690 H     1 <1>   0.1500 
 35 H       -7.4240    -0.5530     1.5320 H     1 <1>   0.4000 
 36 H       -8.0980    -2.5650     2.3480 H     1 <1>   0.0800 
 37 H       -6.5250    -3.1930     2.1230 H     1 <1>   0.0800 
 38 H       -7.2890    -5.3660     1.4450 H     1 <1>   0.4500 
 39 H       -6.8590    -3.1720    -1.4470 H     1 <1>   0.0800 
 40 H       -7.9730    -1.9640    -0.9140 H     1 <1>   0.0800 
 41 H       -9.8210    -2.9230     1.0540 H     1 <1>   0.0800 
 42 H       -9.6440    -4.6340     1.2900 H     1 <1>   0.0800 
 43 H       -5.2770    -4.2450     1.0590 H     1 <1>   0.0800 
 44 H       -5.4470    -4.5080    -0.6460 H     1 <1>   0.0800 
 45 H       -7.5170    -5.8780    -1.3980 H     1 <1>   0.0800 
 46 H       -8.7990    -6.1650    -0.2550 H     1 <1>   0.0800 
 47 H       -8.6720    -4.4350    -2.3610 H     1 <1>   0.0800 
 48 H       -9.3570    -2.8390    -2.4660 H     1 <1>   0.0800 
 49 H      -10.9020    -3.3320    -0.8450 H     1 <1>   0.0800 
 50 H      -10.3770    -4.9890    -0.9290 H     1 <1>   0.0800 
 51 H       -4.2200    -6.1890     1.2120 H     1 <1>   0.0800 
 52 H       -4.5980    -6.6000    -0.4330 H     1 <1>   0.0800 
 53 H       -6.7530    -7.9340    -0.8790 H     1 <1>   0.0800 
 54 H       -7.8620    -8.0750     0.4500 H     1 <1>   0.0800 
 55 H       -4.5540    -8.4720     1.9730 H     1 <1>   0.0800 
 56 H       -4.8900    -8.9800     0.3290 H     1 <1>   0.0800 
 57 H       -6.0430    -9.3060     1.6100 H     1 <1>   0.0800 
@<TRIPOS>BOND
  1   1   2  2   
  2   2   3  am  
  3   2   4  1   
  4   3   5  1   
  5   3   6  1   
  6   4   7  ar  
  7   4   8  ar  
  8   5  26  1   
  9   5  27  1   
 10   5  28  1   
 11   6  29  1   
 12   6  30  1   
 13   6  31  1   
 14   7   9  ar  
 15   7  32  1   
 16   8  10  ar  
 17   8  33  1   
 18   9  11  ar  
 19  10  11  ar  
 20  10  34  1   
 21  11  12  1   
 22  12  13  1   
 23  12  35  1   
 24  13  14  1   
 25  13  36  1   
 26  13  37  1   
 27  14  15  1   
 28  14  16  1   
 29  14  17  1   
 30  15  18  1   
 31  15  19  1   
 32  15  38  1   
 33  16  20  1   
 34  16  39  1   
 35  16  40  1   
 36  17  21  1   
 37  17  41  1   
 38  17  42  1   
 39  18  22  1   
 40  18  43  1   
 41  18  44  1   
 42  19  23  1   
 43  19  45  1   
 44  19  46  1   
 45  20  21  1   
 46  20  47  1   
 47  20  48  1   
 48  21  49  1   
 49  21  50  1   
 50  22  24  1   
 51  22  51  1   
 52  22  52  1   
 53  23  24  1   
 54  23  53  1   
 55  23  54  1   
 56  24  25  1   
 57  25  55  1   
 58  25  56  1   
 59  25  57  1   
@<TRIPOS>SUBSTRUCTURE
  1 ****   9 GROUP 4 **** **** 0

# MOE 2024.06 (io_trps.svl 2023.06)
