@<TRIPOS>MOLECULE
NONAME
59 62 1 0 0 
SMALL
USER_CHARGES


@<TRIPOS>ATOM
  1 O        2.4260     2.5660     0.4970 O.co2 1 <1>  -0.9000 
  2 C        2.2590     1.3580     0.3190 C.2   1 <1>   0.9060 
  3 O        1.5840     0.6920     1.1080 O.co2 1 <1>  -0.9000 
  4 C        3.2100     0.6090    -0.6390 C.3   1 <1>  -0.1060 
  5 C        4.0150    -0.3350     0.2760 C.3   1 <1>   0.4230 
  6 C        4.2290     1.5740    -1.3320 C.3   1 <1>  -0.1600 
  7 C        2.4500    -0.1730    -1.7430 C.3   1 <1>  -0.1600 
  8 N        3.1200    -1.4320     0.8030 N.4   1 <1>  -0.9590 
  9 C        4.7200     0.5140     1.3940 C.3   1 <1>   0.3430 
 10 C        5.3530     2.1240    -0.4300 C.3   1 <1>   0.3430 
 11 C        1.6650    -1.3710    -1.1890 C.3   1 <1>  -0.1600 
 12 C        2.5210    -2.2550    -0.2820 C.3   1 <1>   0.3430 
 13 C        3.6660    -2.2840     1.8980 C.3   1 <1>   0.2630 
 14 N        4.9840     1.9480     1.0020 N.4   1 <1>  -0.9590 
 15 C        5.7950     2.7290     1.9690 C.3   1 <1>   0.4860 
 16 C        5.8670     4.1680     1.4980 C.ar  1 <1>  -0.1430 
 17 C        7.0750     4.6900     1.0670 C.ar  1 <1>  -0.1500 
 18 C        4.7270     4.9580     1.4550 C.ar  1 <1>  -0.1500 
 19 C        7.1620     5.9880     0.5760 C.ar  1 <1>  -0.0230 
 20 C        4.8010     6.2540     0.9750 C.ar  1 <1>  -0.1500 
 21 N        8.4120     6.4750     0.1030 N.pl3 1 <1>   0.5930 
 22 C        6.0080     6.7640     0.5330 C.ar  1 <1>  -0.1500 
 23 N        9.1500     5.7690    -0.7910 N.2   1 <1>  -0.7070 
 24 C        9.0870     7.5990     0.4770 C.2   1 <1>  -0.3320 
 25 C       10.2300     6.4560    -0.9700 C.2   1 <1>   0.1080 
 26 C       10.2510     7.6120    -0.2020 C.2   1 <1>  -0.1500 
 27 C        8.5930     8.6160     1.4950 C.3   1 <1>  -0.0600 
 28 C       11.3270     6.0170    -1.9120 C.3   1 <1>  -0.0590 
 29 H        4.7850    -0.7940    -0.3200 H     1 <1>   0.0800 
 30 H        3.6890     2.4120    -1.7410 H     1 <1>   0.0800 
 31 H        4.7040     1.0910    -2.1670 H     1 <1>   0.0800 
 32 H        1.7700     0.4930    -2.2500 H     1 <1>   0.0800 
 33 H        3.1450    -0.5430    -2.4770 H     1 <1>   0.0800 
 34 H        2.3010    -0.8760     1.1800 H     1 <1>   0.4500 
 35 H        5.6480     0.0370     1.6590 H     1 <1>   0.0800 
 36 H        4.0770     0.5230     2.2600 H     1 <1>   0.0800 
 37 H        5.4960     3.1700    -0.6560 H     1 <1>   0.0800 
 38 H        6.2780     1.6090    -0.6330 H     1 <1>   0.0800 
 39 H        1.2920    -1.9610    -2.0070 H     1 <1>   0.0800 
 40 H        0.8070    -1.0250    -0.6370 H     1 <1>   0.0800 
 41 H        3.2990    -2.7270    -0.8600 H     1 <1>   0.0800 
 42 H        1.8970    -3.0250     0.1430 H     1 <1>   0.0800 
 43 H        4.5240    -2.8390     1.5530 H     1 <1>   0.0800 
 44 H        2.9140    -2.9840     2.2270 H     1 <1>   0.0800 
 45 H        3.9500    -1.6790     2.7430 H     1 <1>   0.0800 
 46 H        4.0410     2.4280     1.0260 H     1 <1>   0.4500 
 47 H        5.3370     2.6980     2.9440 H     1 <1>   0.0800 
 48 H        6.7890     2.3200     2.0370 H     1 <1>   0.0800 
 49 H        7.9730     4.0950     1.0880 H     1 <1>   0.1500 
 50 H        3.7690     4.5750     1.7750 H     1 <1>   0.1500 
 51 H        3.9110     6.8590     0.9360 H     1 <1>   0.1500 
 52 H        6.0490     7.7650     0.1420 H     1 <1>   0.1500 
 53 H       11.0450     8.3380    -0.1740 H     1 <1>   0.1500 
 54 H        9.3650     9.3360     1.7030 H     1 <1>   0.0800 
 55 H        8.3280     8.1250     2.4150 H     1 <1>   0.0800 
 56 H        7.7340     9.1410     1.1170 H     1 <1>   0.0800 
 57 H       12.1040     6.7570    -1.9560 H     1 <1>   0.0800 
 58 H       10.9190     5.8760    -2.8960 H     1 <1>   0.0800 
 59 H       11.7430     5.0870    -1.5710 H     1 <1>   0.0800 
@<TRIPOS>BOND
  1   1   2  ar  
  2   2   3  ar  
  3   2   4  1   
  4   4   5  1   
  5   4   6  1   
  6   4   7  1   
  7   5   8  1   
  8   5   9  1   
  9   5  29  1   
 10   6  10  1   
 11   6  30  1   
 12   6  31  1   
 13   7  11  1   
 14   7  32  1   
 15   7  33  1   
 16   8  12  1   
 17   8  13  1   
 18   8  34  1   
 19   9  14  1   
 20   9  35  1   
 21   9  36  1   
 22  10  14  1   
 23  10  37  1   
 24  10  38  1   
 25  11  12  1   
 26  11  39  1   
 27  11  40  1   
 28  12  41  1   
 29  12  42  1   
 30  13  43  1   
 31  13  44  1   
 32  13  45  1   
 33  14  15  1   
 34  14  46  1   
 35  15  16  1   
 36  15  47  1   
 37  15  48  1   
 38  16  17  ar  
 39  16  18  ar  
 40  17  19  ar  
 41  17  49  1   
 42  18  20  ar  
 43  18  50  1   
 44  19  21  1   
 45  19  22  ar  
 46  20  22  ar  
 47  20  51  1   
 48  21  23  1   
 49  21  24  1   
 50  22  52  1   
 51  23  25  2   
 52  24  26  2   
 53  24  27  1   
 54  25  26  1   
 55  25  28  1   
 56  26  53  1   
 57  27  54  1   
 58  27  55  1   
 59  27  56  1   
 60  28  57  1   
 61  28  58  1   
 62  28  59  1   
@<TRIPOS>SUBSTRUCTURE
  1 ****  10 GROUP 4 **** **** 0

# MOE 2024.06 (io_trps.svl 2023.06)
