@<TRIPOS>MOLECULE
NONAME
52 54 1 0 0 
SMALL
USER_CHARGES


@<TRIPOS>ATOM
  1 CL       2.9990    -5.6550     3.4360 Cl    1 <1>  -0.1770 
  2 C        1.7640    -5.5260     2.2080 C.ar  1 <1>   0.1770 
  3 C        2.1090    -5.2830     0.8860 C.ar  1 <1>  -0.1440 
  4 C        0.4420    -5.6720     2.5880 C.ar  1 <1>  -0.1500 
  5 C        1.0950    -5.2030    -0.0540 C.ar  1 <1>  -0.1500 
  6 C        3.5590    -5.1120     0.4570 C.3   1 <1>  -0.0960 
  7 C       -0.5550    -5.5870     1.6340 C.ar  1 <1>  -0.1500 
  8 C       -0.2460    -5.3690     0.2900 C.ar  1 <1>   0.0860 
  9 C       -1.2690    -5.3280    -0.7370 C.2   1 <1>   0.5440 
 10 O       -1.4850    -4.2700    -1.2980 O.2   1 <1>  -0.5700 
 11 N       -1.9980    -6.4400    -1.1180 N.am  1 <1>  -0.6600 
 12 C       -1.7960    -7.8040    -0.4990 C.3   1 <1>   0.3640 
 13 C       -3.1210    -6.2730    -2.0900 C.3   1 <1>   0.1400 
 14 C       -0.3200    -8.2020    -0.6110 C.ar  1 <1>  -0.1430 
 15 C       -2.6650    -8.9660    -1.0840 C.3   1 <1>   0.2000 
 16 C       -3.4810    -7.5800    -2.7920 C.3   1 <1>   0.1200 
 17 C        0.3570    -8.6700     0.5040 C.ar  1 <1>  -0.1500 
 18 C        0.3710    -8.0870    -1.8090 C.ar  1 <1>  -0.1500 
 19 O       -3.7730    -8.5380    -1.8300 O.3   1 <1>  -0.5600 
 20 C       -3.2320    -9.8900     0.0070 C.3   1 <1>   0.1200 
 21 C        1.6970    -9.0110     0.4450 C.ar  1 <1>   0.0830 
 22 C        1.7100    -8.4270    -1.8870 C.ar  1 <1>  -0.1500 
 23 O       -2.2420   -10.3420     0.8730 O.3   1 <1>  -0.6800 
 24 O        2.2340    -9.4560     1.6140 O.3   1 <1>  -0.3630 
 25 C        2.3930    -8.8940    -0.7670 C.ar  1 <1>   0.0830 
 26 C        3.5100    -9.0120     2.0170 C.3   1 <1>   0.0400 
 27 O        3.7090    -9.2510    -0.8260 O.3   1 <1>  -0.3630 
 28 C        4.4120    -9.3150    -2.0480 C.3   1 <1>   0.0400 
 29 H        0.2050    -5.8510     3.6210 H     1 <1>   0.1500 
 30 H        1.3310    -5.0200    -1.0880 H     1 <1>   0.1500 
 31 H        3.6190    -4.7520    -0.5540 H     1 <1>   0.0800 
 32 H        4.0710    -6.0550     0.5140 H     1 <1>   0.0800 
 33 H        4.0560    -4.4050     1.0980 H     1 <1>   0.0800 
 34 H       -1.5860    -5.6950     1.9230 H     1 <1>   0.1500 
 35 H       -2.0420    -7.7140     0.5450 H     1 <1>   0.0800 
 36 H       -3.9850    -5.9040    -1.5660 H     1 <1>   0.0800 
 37 H       -2.8530    -5.5460    -2.8370 H     1 <1>   0.0800 
 38 H       -2.0620    -9.5580    -1.7480 H     1 <1>   0.0800 
 39 H       -2.6740    -7.9280    -3.4140 H     1 <1>   0.0800 
 40 H       -4.3580    -7.4440    -3.3990 H     1 <1>   0.0800 
 41 H       -0.1480    -8.7710     1.4480 H     1 <1>   0.1500 
 42 H       -0.1340    -7.7190    -2.6860 H     1 <1>   0.1500 
 43 H       -3.7050   -10.7480    -0.4390 H     1 <1>   0.0800 
 44 H       -3.9550    -9.3550     0.5980 H     1 <1>   0.0800 
 45 H        2.2010    -8.3150    -2.8340 H     1 <1>   0.1500 
 46 H       -1.5850   -10.8990     0.4070 H     1 <1>   0.4000 
 47 H        3.5760    -9.1090     3.0850 H     1 <1>   0.0800 
 48 H        3.6300    -7.9830     1.7330 H     1 <1>   0.0800 
 49 H        4.2560    -9.6270     1.5480 H     1 <1>   0.0800 
 50 H        5.4010    -9.6820    -1.8440 H     1 <1>   0.0800 
 51 H        4.4700    -8.3270    -2.4700 H     1 <1>   0.0800 
 52 H        3.9010    -9.9910    -2.7100 H     1 <1>   0.0800 
@<TRIPOS>BOND
  1   1   2  1   
  2   2   3  ar  
  3   2   4  ar  
  4   3   5  ar  
  5   3   6  1   
  6   4   7  ar  
  7   4  29  1   
  8   5   8  ar  
  9   5  30  1   
 10   6  31  1   
 11   6  32  1   
 12   6  33  1   
 13   7   8  ar  
 14   7  34  1   
 15   8   9  1   
 16   9  10  2   
 17   9  11  am  
 18  11  12  1   
 19  11  13  1   
 20  12  14  1   
 21  12  15  1   
 22  12  35  1   
 23  13  16  1   
 24  13  36  1   
 25  13  37  1   
 26  14  17  ar  
 27  14  18  ar  
 28  15  19  1   
 29  15  20  1   
 30  15  38  1   
 31  16  19  1   
 32  16  39  1   
 33  16  40  1   
 34  17  21  ar  
 35  17  41  1   
 36  18  22  ar  
 37  18  42  1   
 38  20  23  1   
 39  20  43  1   
 40  20  44  1   
 41  21  24  1   
 42  21  25  ar  
 43  22  25  ar  
 44  22  45  1   
 45  23  46  1   
 46  24  26  1   
 47  25  27  1   
 48  26  47  1   
 49  26  48  1   
 50  26  49  1   
 51  27  28  1   
 52  28  50  1   
 53  28  51  1   
 54  28  52  1   
@<TRIPOS>SUBSTRUCTURE
  1 ****  14 GROUP 4 **** **** 0

# MOE 2024.06 (io_trps.svl 2023.06)
