@<TRIPOS>MOLECULE
NONAME
42 43 1 0 0 
SMALL
USER_CHARGES


@<TRIPOS>ATOM
  1 F        0.9610     0.8360     1.4520 F     1 <1>  -0.1900 
  2 C        1.7840     1.3900     0.6030 C.ar  1 <1>   0.1900 
  3 C        2.5140     0.5900    -0.2590 C.ar  1 <1>   0.1600 
  4 C        1.9110     2.7580     0.5890 C.ar  1 <1>  -0.1500 
  5 N        3.3700     1.0740    -1.1520 N.ar  1 <1>  -0.6200 
  6 C        2.8070     3.2900    -0.3280 C.ar  1 <1>   0.0860 
  7 C        3.4820     2.3970    -1.1650 C.ar  1 <1>   0.1600 
  8 C        3.0330     4.7150    -0.4290 C.2   1 <1>   0.5440 
  9 O        2.0710     5.4510    -0.5300 O.2   1 <1>  -0.5700 
 10 N        4.2980     5.2640    -0.4060 N.am  1 <1>  -0.6600 
 11 C        5.4920     4.5660     0.1770 C.3   1 <1>   0.1400 
 12 C        4.5140     6.6720    -0.8520 C.3   1 <1>   0.1400 
 13 C        6.0690     5.3050     1.3930 C.3   1 <1>   0.1400 
 14 C        4.5020     7.6160     0.3570 C.3   1 <1>  -0.1600 
 15 N        6.7230     6.5830     0.9820 N.am  1 <1>  -0.6600 
 16 C        5.8620     7.8010     1.0460 C.3   1 <1>   0.1400 
 17 C        8.0200     6.5600     0.5310 C.2   1 <1>   0.5690 
 18 O        8.6210     5.5170     0.4130 O.2   1 <1>  -0.5700 
 19 C        8.7300     7.8510     0.1550 C.3   1 <1>  -0.0990 
 20 C       10.2060     7.6420    -0.1720 C.3   1 <1>   0.1200 
 21 O       10.7470     8.8810    -0.4990 O.3   1 <1>  -0.5600 
 22 C       12.0980     8.8330    -0.8250 C.3   1 <1>   0.0400 
 23 H        2.3860    -0.4770    -0.2120 H     1 <1>   0.1500 
 24 H        1.3430     3.3880     1.2510 H     1 <1>   0.1500 
 25 H        4.1590     2.8140    -1.8910 H     1 <1>   0.1500 
 26 H        6.2560     4.4670    -0.5760 H     1 <1>   0.0800 
 27 H        5.2230     3.5770     0.4980 H     1 <1>   0.0800 
 28 H        3.7210     6.9530    -1.5240 H     1 <1>   0.0800 
 29 H        5.4410     6.7510    -1.3940 H     1 <1>   0.0800 
 30 H        6.8030     4.6740     1.8640 H     1 <1>   0.0800 
 31 H        5.2930     5.4940     2.1140 H     1 <1>   0.0800 
 32 H        3.7710     7.2750     1.0680 H     1 <1>   0.0800 
 33 H        4.1730     8.5840     0.0260 H     1 <1>   0.0800 
 34 H        5.7070     8.0670     2.0770 H     1 <1>   0.0800 
 35 H        6.3590     8.6280     0.5740 H     1 <1>   0.0800 
 36 H        8.6570     8.5370     0.9770 H     1 <1>   0.0800 
 37 H        8.2440     8.2690    -0.7060 H     1 <1>   0.0800 
 38 H       10.3180     6.9780    -1.0130 H     1 <1>   0.0800 
 39 H       10.7310     7.2440     0.6810 H     1 <1>   0.0800 
 40 H       12.4210     9.8310    -1.0600 H     1 <1>   0.0800 
 41 H       12.2340     8.1950    -1.6810 H     1 <1>   0.0800 
 42 H       12.6540     8.4600     0.0180 H     1 <1>   0.0800 
@<TRIPOS>BOND
  1   1   2  1   
  2   2   3  ar  
  3   2   4  ar  
  4   3   5  ar  
  5   3  23  1   
  6   4   6  ar  
  7   4  24  1   
  8   5   7  ar  
  9   6   7  ar  
 10   6   8  1   
 11   7  25  1   
 12   8   9  2   
 13   8  10  am  
 14  10  11  1   
 15  10  12  1   
 16  11  13  1   
 17  11  26  1   
 18  11  27  1   
 19  12  14  1   
 20  12  28  1   
 21  12  29  1   
 22  13  15  1   
 23  13  30  1   
 24  13  31  1   
 25  14  16  1   
 26  14  32  1   
 27  14  33  1   
 28  15  16  1   
 29  15  17  am  
 30  16  34  1   
 31  16  35  1   
 32  17  18  2   
 33  17  19  1   
 34  19  20  1   
 35  19  36  1   
 36  19  37  1   
 37  20  21  1   
 38  20  38  1   
 39  20  39  1   
 40  21  22  1   
 41  22  40  1   
 42  22  41  1   
 43  22  42  1   
@<TRIPOS>SUBSTRUCTURE
  1 ****  11 GROUP 4 **** **** 0

# MOE 2024.06 (io_trps.svl 2023.06)
