@<TRIPOS>MOLECULE
NONAME
61 64 1 0 0 
SMALL
USER_CHARGES


@<TRIPOS>ATOM
  1 O       -2.7930     3.0870    -1.6590 O.2   1 <1>  -0.5700 
  2 C       -2.6220     2.3770    -0.6910 C.2   1 <1>   0.5690 
  3 N       -3.1470     1.0980    -0.6310 N.am  1 <1>  -0.6600 
  4 C       -1.8010     2.9320     0.4930 C.3   1 <1>   0.2680 
  5 C       -4.3340     0.6110    -1.4110 C.3   1 <1>   0.2200 
  6 C       -2.3960     0.0020     0.0540 C.3   1 <1>   0.0600 
  7 C       -2.3130     4.3010     0.9600 C.ar  1 <1>  -0.1440 
  8 C       -0.2810     2.9500     0.2750 C.ar  1 <1>  -0.1440 
  9 C       -5.1720     1.6810    -2.1070 C.3   1 <1>  -0.1600 
 10 C       -5.3480    -0.0500    -0.4760 C.3   1 <1>  -0.1600 
 11 C       -2.1170     5.4320     0.1800 C.ar  1 <1>  -0.1500 
 12 C       -2.9800     4.4290     2.1720 C.ar  1 <1>  -0.1500 
 13 C        0.5460     3.0720     1.3840 C.ar  1 <1>  -0.1500 
 14 C        0.3030     2.8460    -0.9820 C.ar  1 <1>  -0.1500 
 15 C       -6.5550     1.0580    -2.3080 C.3   1 <1>  -0.0800 
 16 C       -6.7100     0.0250    -1.1870 C.3   1 <1>  -0.0800 
 17 C       -2.5810     6.6670     0.5990 C.ar  1 <1>  -0.1500 
 18 C       -3.4420     5.6640     2.5940 C.ar  1 <1>  -0.1500 
 19 C        1.9230     3.0780     1.2450 C.ar  1 <1>  -0.1500 
 20 C        1.6800     2.8520    -1.1230 C.ar  1 <1>  -0.1500 
 21 C       -7.6820     2.0760    -2.1200 C.3   1 <1>  -0.1600 
 22 C       -7.8490     0.5380    -0.2910 C.3   1 <1>  -0.1600 
 23 C       -3.2440     6.7840     1.8060 C.ar  1 <1>  -0.1500 
 24 C        2.4920     2.9660    -0.0100 C.ar  1 <1>  -0.1500 
 25 C       -7.9840     2.0230    -0.6260 C.3   1 <1>   0.4230 
 26 N       -9.3410     2.5540    -0.3150 N.4   1 <1>  -0.9590 
 27 C       -9.4730     3.9900    -0.7160 C.3   1 <1>   0.2630 
 28 C       -9.6800     2.4020     1.1350 C.3   1 <1>   0.2630 
 29 H       -1.9680     2.2630     1.3140 H     1 <1>   0.0800 
 30 H       -4.0070    -0.1030    -2.1500 H     1 <1>   0.0800 
 31 H       -2.4240    -0.8940    -0.5430 H     1 <1>   0.0800 
 32 H       -2.8370    -0.2030     1.0140 H     1 <1>   0.0800 
 33 H       -1.3630     0.2730     0.1900 H     1 <1>   0.0800 
 34 H       -5.2490     2.5420    -1.4670 H     1 <1>   0.0800 
 35 H       -4.7320     1.9720    -3.0460 H     1 <1>   0.0800 
 36 H       -5.0790    -1.0710    -0.2710 H     1 <1>   0.0800 
 37 H       -5.3760     0.5020     0.4480 H     1 <1>   0.0800 
 38 H       -1.6010     5.3510    -0.7620 H     1 <1>   0.1500 
 39 H       -3.1430     3.5720     2.8000 H     1 <1>   0.1500 
 40 H        0.1200     3.1700     2.3680 H     1 <1>   0.1500 
 41 H       -0.2990     2.7640    -1.8710 H     1 <1>   0.1500 
 42 H       -6.6050     0.5850    -3.2760 H     1 <1>   0.0800 
 43 H       -6.9580    -0.9390    -1.6020 H     1 <1>   0.0800 
 44 H       -2.4220     7.5340    -0.0180 H     1 <1>   0.1500 
 45 H       -3.9530     5.7560     3.5360 H     1 <1>   0.1500 
 46 H        2.5520     3.1740     2.1130 H     1 <1>   0.1500 
 47 H        2.1180     2.7700    -2.1030 H     1 <1>   0.1500 
 48 H       -8.5380     1.7490    -2.6850 H     1 <1>   0.0800 
 49 H       -7.3840     3.0560    -2.4470 H     1 <1>   0.0800 
 50 H       -7.6440     0.3730     0.7520 H     1 <1>   0.0800 
 51 H       -8.7510     0.0180    -0.5620 H     1 <1>   0.0800 
 52 H       -3.6020     7.7450     2.1320 H     1 <1>   0.1500 
 53 H        3.5620     2.9710    -0.1210 H     1 <1>   0.1500 
 54 H       -7.2260     2.5760    -0.0930 H     1 <1>   0.0800 
 55 H      -10.0100     1.9990    -0.8670 H     1 <1>   0.4500 
 56 H       -8.7530     4.5950    -0.1880 H     1 <1>   0.0800 
 57 H      -10.4620     4.3530    -0.4880 H     1 <1>   0.0800 
 58 H       -9.3060     4.1030    -1.7750 H     1 <1>   0.0800 
 59 H       -8.9740     2.9440     1.7440 H     1 <1>   0.0800 
 60 H       -9.6560     1.3630     1.4220 H     1 <1>   0.0800 
 61 H      -10.6690     2.7860     1.3300 H     1 <1>   0.0800 
@<TRIPOS>BOND
  1   1   2  2   
  2   2   3  am  
  3   2   4  1   
  4   3   5  1   
  5   3   6  1   
  6   4   7  1   
  7   4   8  1   
  8   4  29  1   
  9   5   9  1   
 10   5  10  1   
 11   5  30  1   
 12   6  31  1   
 13   6  32  1   
 14   6  33  1   
 15   7  11  ar  
 16   7  12  ar  
 17   8  13  ar  
 18   8  14  ar  
 19   9  15  1   
 20   9  34  1   
 21   9  35  1   
 22  10  16  1   
 23  10  36  1   
 24  10  37  1   
 25  11  17  ar  
 26  11  38  1   
 27  12  18  ar  
 28  12  39  1   
 29  13  19  ar  
 30  13  40  1   
 31  14  20  ar  
 32  14  41  1   
 33  15  16  1   
 34  15  21  1   
 35  15  42  1   
 36  16  22  1   
 37  16  43  1   
 38  17  23  ar  
 39  17  44  1   
 40  18  23  ar  
 41  18  45  1   
 42  19  24  ar  
 43  19  46  1   
 44  20  24  ar  
 45  20  47  1   
 46  21  25  1   
 47  21  48  1   
 48  21  49  1   
 49  22  25  1   
 50  22  50  1   
 51  22  51  1   
 52  23  52  1   
 53  24  53  1   
 54  25  26  1   
 55  25  54  1   
 56  26  27  1   
 57  26  28  1   
 58  26  55  1   
 59  27  56  1   
 60  27  57  1   
 61  27  58  1   
 62  28  59  1   
 63  28  60  1   
 64  28  61  1   
@<TRIPOS>SUBSTRUCTURE
  1 ****   2 GROUP 4 **** **** 0

# MOE 2024.06 (io_trps.svl 2023.06)
