@<TRIPOS>MOLECULE
NONAME
53 54 1 0 0 
SMALL
USER_CHARGES


@<TRIPOS>ATOM
  1 O       -2.7430     3.0770    -1.0470 O.co2 1 <1>  -0.9000 
  2 C       -1.6070     3.5510    -1.0120 C.2   1 <1>   0.9060 
  3 O       -1.2870     4.5380    -1.6930 O.co2 1 <1>  -0.9000 
  4 C       -0.6090     2.9910     0.0060 C.3   1 <1>  -0.1060 
  5 C       -1.1990     3.1340     1.4260 C.3   1 <1>   0.2000 
  6 C        0.6580     3.8480    -0.0490 C.3   1 <1>   0.3430 
  7 C       -0.2660     1.5180    -0.3600 C.3   1 <1>  -0.1600 
  8 O       -2.3890     2.4510     1.5110 O.3   1 <1>  -0.6800 
  9 C       -1.4750     4.5930     1.8050 C.3   1 <1>  -0.1600 
 10 N        0.3270     5.2700     0.2650 N.4   1 <1>  -0.9590 
 11 C        0.7530     0.8220     0.5620 C.3   1 <1>  -0.1600 
 12 C       -0.2270     5.4560     1.6300 C.3   1 <1>   0.3430 
 13 C        1.3910     6.2420    -0.1000 C.3   1 <1>   0.3430 
 14 C        1.0410    -0.5980     0.0670 C.3   1 <1>  -0.2400 
 15 C        1.5860     6.3180    -1.6230 C.3   1 <1>   0.1200 
 16 O        2.4300     7.4120    -1.9190 O.3   1 <1>  -0.3630 
 17 C        2.0470     8.6610    -1.5510 C.ar  1 <1>   0.0830 
 18 C        2.9890     9.4980    -0.9630 C.ar  1 <1>  -0.1430 
 19 C        0.7400     9.1030    -1.7300 C.ar  1 <1>  -0.1500 
 20 C        2.6020    10.7570    -0.5320 C.ar  1 <1>  -0.1500 
 21 C        4.4330     9.0480    -0.7920 C.3   1 <1>  -0.0970 
 22 C        0.3690    10.3610    -1.2940 C.ar  1 <1>  -0.1500 
 23 C        1.2960    11.1910    -0.6880 C.ar  1 <1>  -0.1430 
 24 C        0.8930    12.5750    -0.2110 C.3   1 <1>  -0.0970 
 25 H       -0.5360     2.7050     2.1570 H     1 <1>   0.0800 
 26 H        1.0630     3.7820    -1.0460 H     1 <1>   0.0800 
 27 H        1.3890     3.4770     0.6480 H     1 <1>   0.0800 
 28 H       -1.1790     0.9450    -0.3560 H     1 <1>   0.0800 
 29 H        0.1030     1.4950    -1.3720 H     1 <1>   0.0800 
 30 H       -2.8530     2.5490     0.6280 H     1 <1>   0.4000 
 31 H       -2.2680     4.9930     1.1960 H     1 <1>   0.0800 
 32 H       -1.7920     4.6380     2.8310 H     1 <1>   0.0800 
 33 H       -0.4600     5.4350    -0.4180 H     1 <1>   0.4500 
 34 H        1.6790     1.3670     0.5940 H     1 <1>   0.0800 
 35 H        0.3580     0.7570     1.5610 H     1 <1>   0.0800 
 36 H        0.5120     5.1750     2.3620 H     1 <1>   0.0800 
 37 H       -0.4870     6.4910     1.7840 H     1 <1>   0.0800 
 38 H        1.0990     7.2190     0.2500 H     1 <1>   0.0800 
 39 H        2.3190     5.9700     0.3720 H     1 <1>   0.0800 
 40 H        1.4560    -0.5770    -0.9260 H     1 <1>   0.0800 
 41 H        0.1350    -1.1780     0.0500 H     1 <1>   0.0800 
 42 H        1.7430    -1.0830     0.7220 H     1 <1>   0.0800 
 43 H        0.6510     6.4440    -2.1390 H     1 <1>   0.0800 
 44 H        2.0710     5.4330    -1.9910 H     1 <1>   0.0800 
 45 H        0.0080     8.4850    -2.2150 H     1 <1>   0.1500 
 46 H        3.3230    11.4100    -0.0730 H     1 <1>   0.1500 
 47 H        5.0330     9.8270    -0.3570 H     1 <1>   0.0800 
 48 H        4.8490     8.7950    -1.7510 H     1 <1>   0.0800 
 49 H        4.4780     8.1840    -0.1560 H     1 <1>   0.0800 
 50 H       -0.6450    10.6950    -1.4370 H     1 <1>   0.1500 
 51 H       -0.1640    12.6160    -0.0150 H     1 <1>   0.0800 
 52 H        1.1340    13.3030    -0.9650 H     1 <1>   0.0800 
 53 H        1.4150    12.8260     0.6940 H     1 <1>   0.0800 
@<TRIPOS>BOND
  1   1   2  ar  
  2   2   3  ar  
  3   2   4  1   
  4   4   5  1   
  5   4   6  1   
  6   4   7  1   
  7   5   8  1   
  8   5   9  1   
  9   5  25  1   
 10   6  10  1   
 11   6  26  1   
 12   6  27  1   
 13   7  11  1   
 14   7  28  1   
 15   7  29  1   
 16   8  30  1   
 17   9  12  1   
 18   9  31  1   
 19   9  32  1   
 20  10  12  1   
 21  10  13  1   
 22  10  33  1   
 23  11  14  1   
 24  11  34  1   
 25  11  35  1   
 26  12  36  1   
 27  12  37  1   
 28  13  15  1   
 29  13  38  1   
 30  13  39  1   
 31  14  40  1   
 32  14  41  1   
 33  14  42  1   
 34  15  16  1   
 35  15  43  1   
 36  15  44  1   
 37  16  17  1   
 38  17  18  ar  
 39  17  19  ar  
 40  18  20  ar  
 41  18  21  1   
 42  19  22  ar  
 43  19  45  1   
 44  20  23  ar  
 45  20  46  1   
 46  21  47  1   
 47  21  48  1   
 48  21  49  1   
 49  22  23  ar  
 50  22  50  1   
 51  23  24  1   
 52  24  51  1   
 53  24  52  1   
 54  24  53  1   
@<TRIPOS>SUBSTRUCTURE
  1 ****  10 GROUP 4 **** **** 0

# MOE 2024.06 (io_trps.svl 2023.06)
