@<TRIPOS>MOLECULE
NONAME
35 36 1 0 0 
SMALL
USER_CHARGES


@<TRIPOS>ATOM
  1 O        0.2220     0.1070     0.4780 O.3   1 <1>  -0.5600 
  2 C        1.5000    -0.1610    -0.0180 C.3   1 <1>   0.1200 
  3 C       -0.5560    -1.0620     0.5110 C.3   1 <1>   0.1200 
  4 C        1.7100    -1.6610     0.1440 C.3   1 <1>   0.2000 
  5 C        0.3040    -2.2060    -0.0340 C.3   1 <1>   0.2890 
  6 O        2.5780    -2.1850    -0.8230 O.3   1 <1>  -0.5600 
  7 N        0.1090    -3.4900     0.6910 N.pl3 1 <1>  -0.8690 
  8 C        3.9310    -1.9950    -0.5550 C.3   1 <1>   0.0400 
  9 C       -0.9450    -4.2950     0.4370 C.ar  1 <1>   0.7200 
 10 N       -0.6830    -5.5750     0.5950 N.ar  1 <1>  -0.6200 
 11 N       -2.0810    -3.7330     0.0620 N.ar  1 <1>  -0.6200 
 12 C       -1.6840    -6.3850     0.3560 C.ar  1 <1>   0.3930 
 13 C       -3.0650    -4.5630    -0.1710 C.ar  1 <1>   0.3930 
 14 O       -1.4030    -7.6930     0.5220 O.3   1 <1>  -0.3630 
 15 C       -2.9220    -5.9270    -0.0360 C.ar  1 <1>  -0.1500 
 16 O       -4.2190    -3.9780    -0.5510 O.3   1 <1>  -0.3630 
 17 C       -2.3470    -8.7190     0.3070 C.3   1 <1>   0.0400 
 18 C       -5.3950    -4.7030    -0.8310 C.3   1 <1>   0.0400 
 19 H        1.5120     0.1160    -1.0580 H     1 <1>   0.0800 
 20 H        2.2160     0.4150     0.5400 H     1 <1>   0.0800 
 21 H       -0.8320    -1.2460     1.5340 H     1 <1>   0.0800 
 22 H       -1.4360    -0.9150    -0.0890 H     1 <1>   0.0800 
 23 H        2.0750    -1.8850     1.1320 H     1 <1>   0.0800 
 24 H        0.0900    -2.3340    -1.0820 H     1 <1>   0.0800 
 25 H        0.9580    -4.0530     0.7350 H     1 <1>   0.4000 
 26 H        4.4950    -2.4430    -1.3550 H     1 <1>   0.0800 
 27 H        4.1810    -2.4760     0.3750 H     1 <1>   0.0800 
 28 H        4.1450    -0.9410    -0.5090 H     1 <1>   0.0800 
 29 H       -3.7310    -6.5960    -0.2280 H     1 <1>   0.1500 
 30 H       -1.8650    -9.6600     0.5080 H     1 <1>   0.0800 
 31 H       -2.6710    -8.6880    -0.7180 H     1 <1>   0.0800 
 32 H       -3.1730    -8.5830     0.9820 H     1 <1>   0.0800 
 33 H       -6.1620    -3.9980    -1.1020 H     1 <1>   0.0800 
 34 H       -5.6930    -5.2430     0.0500 H     1 <1>   0.0800 
 35 H       -5.2080    -5.3710    -1.6530 H     1 <1>   0.0800 
@<TRIPOS>BOND
  1   1   2  1   
  2   1   3  1   
  3   2   4  1   
  4   2  19  1   
  5   2  20  1   
  6   3   5  1   
  7   3  21  1   
  8   3  22  1   
  9   4   5  1   
 10   4   6  1   
 11   4  23  1   
 12   5   7  1   
 13   5  24  1   
 14   6   8  1   
 15   7   9  1   
 16   7  25  1   
 17   8  26  1   
 18   8  27  1   
 19   8  28  1   
 20   9  10  ar  
 21   9  11  ar  
 22  10  12  ar  
 23  11  13  ar  
 24  12  14  1   
 25  12  15  ar  
 26  13  15  ar  
 27  13  16  1   
 28  14  17  1   
 29  15  29  1   
 30  16  18  1   
 31  17  30  1   
 32  17  31  1   
 33  17  32  1   
 34  18  33  1   
 35  18  34  1   
 36  18  35  1   
@<TRIPOS>SUBSTRUCTURE
  1 ****   9 GROUP 4 **** **** 0

# MOE 2024.06 (io_trps.svl 2023.06)
