@<TRIPOS>MOLECULE
NONAME
46 48 1 0 0 
SMALL
USER_CHARGES


@<TRIPOS>ATOM
  1 S        0.4140    -0.0870    -1.2190 S.3   1 <1>  -0.0800 
  2 C       -0.8740     0.7560    -0.3710 C.2   1 <1>  -0.1400 
  3 C        1.6310     0.9460    -0.4900 C.2   1 <1>  -0.1100 
  4 C       -0.3670     1.7410     0.3930 C.2   1 <1>  -0.1500 
  5 C       -2.2990     0.2920    -0.6100 C.3   1 <1>   0.0200 
  6 C        1.0590     1.8490     0.3270 C.2   1 <1>  -0.1500 
  7 C       -2.5570    -1.0760     0.0350 C.3   1 <1>  -0.1600 
  8 C       -4.0100    -1.5440    -0.1790 C.3   1 <1>  -0.0990 
  9 C       -4.3500    -2.8860     0.4680 C.2   1 <1>   0.5690 
 10 O       -3.4420    -3.5480     0.9140 O.2   1 <1>  -0.5700 
 11 N       -5.6540    -3.3230     0.5380 N.am  1 <1>  -0.6600 
 12 C       -6.7980    -2.6050    -0.1050 C.3   1 <1>   0.2200 
 13 C       -5.9570    -4.5830     1.2880 C.3   1 <1>   0.0600 
 14 C       -7.7850    -3.5080    -0.8440 C.3   1 <1>  -0.1600 
 15 C       -7.6550    -1.8570     0.9100 C.3   1 <1>  -0.1600 
 16 C       -9.0510    -2.6500    -0.9750 C.3   1 <1>  -0.0800 
 17 C       -9.0010    -1.6430     0.2030 C.3   1 <1>  -0.0800 
 18 C      -10.3380    -3.4940    -1.0880 C.3   1 <1>   0.1400 
 19 C      -10.2040    -1.7340     1.1610 C.3   1 <1>  -0.0990 
 20 N      -11.5070    -2.6870    -0.6800 N.am  1 <1>  -0.7300 
 21 C      -11.4940    -1.8520     0.3800 C.2   1 <1>   0.5690 
 22 O      -12.4710    -1.2280     0.7030 O.2   1 <1>  -0.5700 
 23 H        2.6570     0.7640    -0.7550 H     1 <1>   0.1500 
 24 H       -0.9390     2.4090     1.0130 H     1 <1>   0.1500 
 25 H       -2.9730     1.0180    -0.1930 H     1 <1>   0.0800 
 26 H       -2.4760     0.2400    -1.6700 H     1 <1>   0.0800 
 27 H        1.5820     2.5980     0.8950 H     1 <1>   0.1500 
 28 H       -1.8840    -1.8040    -0.3850 H     1 <1>   0.0800 
 29 H       -2.3530    -1.0140     1.0910 H     1 <1>   0.0800 
 30 H       -4.1930    -1.6300    -1.2340 H     1 <1>   0.0800 
 31 H       -4.6700    -0.8000     0.2260 H     1 <1>   0.0800 
 32 H       -6.4340    -1.8920    -0.8230 H     1 <1>   0.0800 
 33 H       -6.8910    -4.5000     1.8130 H     1 <1>   0.0800 
 34 H       -5.1860    -4.7890     2.0120 H     1 <1>   0.0800 
 35 H       -6.0060    -5.4090     0.6000 H     1 <1>   0.0800 
 36 H       -7.4030    -3.8040    -1.8040 H     1 <1>   0.0800 
 37 H       -8.0140    -4.3810    -0.2630 H     1 <1>   0.0800 
 38 H       -7.7900    -2.4580     1.7900 H     1 <1>   0.0800 
 39 H       -7.2040    -0.9210     1.1880 H     1 <1>   0.0800 
 40 H       -8.9640    -2.0790    -1.8840 H     1 <1>   0.0800 
 41 H       -9.0060    -0.6540    -0.2270 H     1 <1>   0.0800 
 42 H      -10.2820    -4.3520    -0.4400 H     1 <1>   0.0800 
 43 H      -10.4660    -3.8390    -2.1000 H     1 <1>   0.0800 
 44 H      -10.2450    -0.8640     1.7910 H     1 <1>   0.0800 
 45 H      -10.1240    -2.6030     1.7880 H     1 <1>   0.0800 
 46 H      -12.3890    -2.7960    -1.1860 H     1 <1>   0.3700 
@<TRIPOS>BOND
  1   1   2  1   
  2   1   3  1   
  3   2   4  2   
  4   2   5  1   
  5   3   6  2   
  6   3  23  1   
  7   4   6  1   
  8   4  24  1   
  9   5   7  1   
 10   5  25  1   
 11   5  26  1   
 12   6  27  1   
 13   7   8  1   
 14   7  28  1   
 15   7  29  1   
 16   8   9  1   
 17   8  30  1   
 18   8  31  1   
 19   9  10  2   
 20   9  11  am  
 21  11  12  1   
 22  11  13  1   
 23  12  14  1   
 24  12  15  1   
 25  12  32  1   
 26  13  33  1   
 27  13  34  1   
 28  13  35  1   
 29  14  16  1   
 30  14  36  1   
 31  14  37  1   
 32  15  17  1   
 33  15  38  1   
 34  15  39  1   
 35  16  17  1   
 36  16  18  1   
 37  16  40  1   
 38  17  19  1   
 39  17  41  1   
 40  18  20  1   
 41  18  42  1   
 42  18  43  1   
 43  19  21  1   
 44  19  44  1   
 45  19  45  1   
 46  20  21  am  
 47  20  46  1   
 48  21  22  2   
@<TRIPOS>SUBSTRUCTURE
  1 ****   8 GROUP 4 **** **** 0

# MOE 2024.06 (io_trps.svl 2023.06)
