@<TRIPOS>MOLECULE
NONAME
52 53 1 0 0 
SMALL
USER_CHARGES


@<TRIPOS>ATOM
  1 O       -0.6760     0.3560    -0.4760 O.2   1 <1>  -0.5700 
  2 C       -1.7230     0.9260    -0.2780 C.2   1 <1>   0.5690 
  3 N       -2.8550     0.2340     0.0670 N.am  1 <1>  -0.6600 
  4 C       -1.7650     2.4440    -0.4280 C.3   1 <1>  -0.0990 
  5 C       -2.8190    -1.2430     0.3230 C.3   1 <1>   0.1400 
  6 C       -4.2390     0.7930     0.1550 C.3   1 <1>   0.1400 
  7 C       -0.3770     3.1080    -0.5330 C.3   1 <1>  -0.1600 
  8 C       -3.8780    -1.9820    -0.5140 C.3   1 <1>   0.3440 
  9 C       -5.2270    -0.0500    -0.6870 C.3   1 <1>   0.2000 
 10 C       -0.4870     4.6260    -0.6680 C.3   1 <1>   0.1400 
 11 O       -5.1410    -1.3990    -0.3180 O.3   1 <1>  -0.5600 
 12 C       -3.9340    -3.4580    -0.1300 C.ar  1 <1>  -0.1440 
 13 C       -6.7060     0.3830    -0.5580 C.3   1 <1>  -0.0800 
 14 N        0.8710     5.2020    -0.7580 N.am  1 <1>  -0.7300 
 15 C       -4.7400    -3.9060     0.9080 C.ar  1 <1>  -0.1500 
 16 C       -3.1540    -4.3760    -0.8190 C.ar  1 <1>  -0.1500 
 17 C       -6.9390     1.8060    -1.0870 C.3   1 <1>  -0.2400 
 18 C       -7.2620     0.2660     0.8720 C.3   1 <1>  -0.2400 
 19 C        1.4530     6.1570     0.0020 C.2   1 <1>   0.5690 
 20 C       -4.7660    -5.2470     1.2510 C.ar  1 <1>  -0.1500 
 21 C       -3.1780    -5.7170    -0.4780 C.ar  1 <1>  -0.1500 
 22 O        2.5750     6.5170    -0.2380 O.2   1 <1>  -0.5700 
 23 C        0.7130     6.7870     1.1560 C.3   1 <1>  -0.1790 
 24 C       -3.9850    -6.1540     0.5580 C.ar  1 <1>  -0.1500 
 25 H       -2.3330     2.6730    -1.3110 H     1 <1>   0.0800 
 26 H       -2.2760     2.8510     0.4240 H     1 <1>   0.0800 
 27 H       -1.8500    -1.6490     0.0920 H     1 <1>   0.0800 
 28 H       -3.0080    -1.4260     1.3660 H     1 <1>   0.0800 
 29 H       -4.5480     0.7860     1.1850 H     1 <1>   0.0800 
 30 H       -4.2630     1.8070    -0.1930 H     1 <1>   0.0800 
 31 H        0.1400     2.7100    -1.3890 H     1 <1>   0.0800 
 32 H        0.1940     2.8690     0.3480 H     1 <1>   0.0800 
 33 H       -3.6340    -1.8970    -1.5580 H     1 <1>   0.0800 
 34 H       -4.9460     0.0190    -1.7240 H     1 <1>   0.0800 
 35 H       -1.0110     5.0330     0.1800 H     1 <1>   0.0800 
 36 H       -1.0330     4.8800    -1.5610 H     1 <1>   0.0800 
 37 H       -7.2750    -0.2850    -1.1840 H     1 <1>   0.0800 
 38 H        1.4660     4.8280    -1.5010 H     1 <1>   0.3700 
 39 H       -5.3550    -3.2080     1.4510 H     1 <1>   0.1500 
 40 H       -2.5200    -4.0520    -1.6270 H     1 <1>   0.1500 
 41 H       -6.4610     2.5390    -0.4620 H     1 <1>   0.0800 
 42 H       -7.9930     2.0210    -1.1080 H     1 <1>   0.0800 
 43 H       -6.5600     1.9010    -2.0890 H     1 <1>   0.0800 
 44 H       -6.7840     0.9620     1.5380 H     1 <1>   0.0800 
 45 H       -7.1140    -0.7310     1.2500 H     1 <1>   0.0800 
 46 H       -8.3180     0.4670     0.8740 H     1 <1>   0.0800 
 47 H       -5.3970    -5.5820     2.0560 H     1 <1>   0.1500 
 48 H       -2.5700    -6.4210    -1.0180 H     1 <1>   0.1500 
 49 H        0.4530     6.0330     1.8750 H     1 <1>   0.0800 
 50 H       -0.1740     7.2730     0.7980 H     1 <1>   0.0800 
 51 H        1.3420     7.5170     1.6320 H     1 <1>   0.0800 
 52 H       -4.0050    -7.1960     0.8240 H     1 <1>   0.1500 
@<TRIPOS>BOND
  1   1   2  2   
  2   2   3  am  
  3   2   4  1   
  4   3   5  1   
  5   3   6  1   
  6   4   7  1   
  7   4  25  1   
  8   4  26  1   
  9   5   8  1   
 10   5  27  1   
 11   5  28  1   
 12   6   9  1   
 13   6  29  1   
 14   6  30  1   
 15   7  10  1   
 16   7  31  1   
 17   7  32  1   
 18   8  11  1   
 19   8  12  1   
 20   8  33  1   
 21   9  11  1   
 22   9  13  1   
 23   9  34  1   
 24  10  14  1   
 25  10  35  1   
 26  10  36  1   
 27  12  15  ar  
 28  12  16  ar  
 29  13  17  1   
 30  13  18  1   
 31  13  37  1   
 32  14  19  am  
 33  14  38  1   
 34  15  20  ar  
 35  15  39  1   
 36  16  21  ar  
 37  16  40  1   
 38  17  41  1   
 39  17  42  1   
 40  17  43  1   
 41  18  44  1   
 42  18  45  1   
 43  18  46  1   
 44  19  22  2   
 45  19  23  1   
 46  20  24  ar  
 47  20  47  1   
 48  21  24  ar  
 49  21  48  1   
 50  23  49  1   
 51  23  50  1   
 52  23  51  1   
 53  24  52  1   
@<TRIPOS>SUBSTRUCTURE
  1 ****   3 GROUP 4 **** **** 0

# MOE 2024.06 (io_trps.svl 2023.06)
