@<TRIPOS>MOLECULE
NONAME
37 38 1 0 0 
SMALL
USER_CHARGES


@<TRIPOS>ATOM
  1 O        1.9280     1.6240     2.9870 O.2   1 <1>  -0.5700 
  2 C        2.3870     1.6380     1.8720 C.2   1 <1>   0.6900 
  3 N        2.8160     0.5040     1.2640 N.am  1 <1>  -0.4900 
  4 N        2.4890     2.8210     1.1930 N.am  1 <1>  -0.5390 
  5 C        3.3350     0.5000     0.0070 C.2   1 <1>   0.6160 
  6 C        3.0270     2.8990    -0.0910 C.2   1 <1>  -0.0290 
  7 O        3.7070    -0.5430    -0.4800 O.2   1 <1>  -0.5700 
  8 C        3.4370     1.7480    -0.6780 C.2   1 <1>  -0.1360 
  9 C        3.1410     4.2670    -0.7570 C.3   1 <1>   0.4810 
 10 N        4.1440     5.0890    -0.0130 N.4   1 <1>  -0.9590 
 11 C        4.0200     6.5280    -0.4270 C.3   1 <1>   0.3430 
 12 C        5.5210     4.5500    -0.1950 C.3   1 <1>   0.3430 
 13 C        4.8280     7.5040     0.4390 C.3   1 <1>   0.0960 
 14 C        6.1170     4.2930     1.1820 C.3   1 <1>  -0.2400 
 15 N        4.5790     8.8750    -0.0340 N.pl3 1 <1>   0.3140 
 16 N        3.8330     9.1230    -1.1270 N.2   1 <1>  -0.7070 
 17 C        5.0340    10.0140     0.5180 C.2   1 <1>  -0.3020 
 18 C        3.8330    10.4180    -1.2420 C.2   1 <1>   0.1390 
 19 C        4.5710    11.0320    -0.2370 C.2   1 <1>  -0.1500 
 20 H        2.7290    -0.3790     1.7600 H     1 <1>   0.3700 
 21 H        2.0330     3.5910     1.6900 H     1 <1>   0.3700 
 22 H        3.8570     1.6950    -1.6650 H     1 <1>   0.1500 
 23 H        2.1760     4.7480    -0.7400 H     1 <1>   0.0800 
 24 H        3.4440     4.1540    -1.7860 H     1 <1>   0.0800 
 25 H        3.9110     4.9920     0.9840 H     1 <1>   0.4500 
 26 H        2.9850     6.8270    -0.3760 H     1 <1>   0.0800 
 27 H        4.3380     6.6390    -1.4520 H     1 <1>   0.0800 
 28 H        6.1340     5.2500    -0.7410 H     1 <1>   0.0800 
 29 H        5.4970     3.6240    -0.7470 H     1 <1>   0.0800 
 30 H        5.8810     7.3130     0.3560 H     1 <1>   0.0800 
 31 H        4.5210     7.4450     1.4660 H     1 <1>   0.0800 
 32 H        6.1830     5.1970     1.7590 H     1 <1>   0.0800 
 33 H        7.1130     3.9020     1.0670 H     1 <1>   0.0800 
 34 H        5.5390     3.5600     1.7180 H     1 <1>   0.0800 
 35 H        5.6510    10.0490     1.3990 H     1 <1>   0.1500 
 36 H        3.3190    10.9490    -2.0270 H     1 <1>   0.1500 
 37 H        4.7200    12.0910    -0.1170 H     1 <1>   0.1500 
@<TRIPOS>BOND
  1   1   2  2   
  2   2   3  am  
  3   2   4  am  
  4   3   5  am  
  5   3  20  1   
  6   4   6  1   
  7   4  21  1   
  8   5   7  2   
  9   5   8  1   
 10   6   8  2   
 11   6   9  1   
 12   8  22  1   
 13   9  10  1   
 14   9  23  1   
 15   9  24  1   
 16  10  11  1   
 17  10  12  1   
 18  10  25  1   
 19  11  13  1   
 20  11  26  1   
 21  11  27  1   
 22  12  14  1   
 23  12  28  1   
 24  12  29  1   
 25  13  15  1   
 26  13  30  1   
 27  13  31  1   
 28  14  32  1   
 29  14  33  1   
 30  14  34  1   
 31  15  16  1   
 32  15  17  1   
 33  16  18  2   
 34  17  19  2   
 35  17  35  1   
 36  18  19  1   
 37  18  36  1   
 38  19  37  1   
@<TRIPOS>SUBSTRUCTURE
  1 ****  10 GROUP 4 **** **** 0

# MOE 2024.06 (io_trps.svl 2023.06)
