@<TRIPOS>MOLECULE
NONAME
55 58 1 0 0 
SMALL
USER_CHARGES


@<TRIPOS>ATOM
  1 O       -3.1620     0.9450    -1.9810 O.2   1 <1>  -0.5700 
  2 C       -2.7860     0.8980    -0.8350 C.2   1 <1>   0.5690 
  3 N       -2.4230    -0.2770    -0.2650 N.am  1 <1>  -0.7300 
  4 C       -2.7200     2.1640     0.0190 C.3   1 <1>  -0.0190 
  5 C       -2.3370    -1.5780    -0.9690 C.3   1 <1>   0.2200 
  6 C       -3.5060     3.3440    -0.5910 C.3   1 <1>  -0.1600 
  7 C       -1.2580     2.5830     0.2710 C.3   1 <1>  -0.1600 
  8 C       -3.4950    -2.4940    -0.5920 C.3   1 <1>  -0.0800 
  9 C       -1.1690    -2.3590    -0.3860 C.3   1 <1>   0.1200 
 10 C       -3.3930     4.6070     0.2660 C.3   1 <1>   0.1400 
 11 C       -1.1690     3.8550     1.1190 C.3   1 <1>   0.1400 
 12 C       -3.0250    -3.0900     0.7430 C.3   1 <1>   0.1200 
 13 C       -4.8790    -1.8140    -0.5450 C.3   1 <1>  -0.0170 
 14 O       -1.6470    -2.8600     0.8260 O.3   1 <1>  -0.5600 
 15 N       -1.9560     4.9390     0.4710 N.am  1 <1>  -0.6600 
 16 C       -6.0860    -2.7240    -0.2830 C.ar  1 <1>  -0.1440 
 17 C       -1.3530     6.1110     0.0880 C.2   1 <1>   0.5690 
 18 C       -7.3610    -2.1460    -0.0620 C.ar  1 <1>   0.0000 
 19 C       -6.0140    -4.0890    -0.2540 C.ar  1 <1>  -0.1500 
 20 O       -0.1850     6.3340     0.2980 O.2   1 <1>  -0.5700 
 21 C       -2.1390     7.1860    -0.6250 C.3   1 <1>  -0.1790 
 22 C       -8.4480    -3.0130     0.2060 C.ar  1 <1>   0.3100 
 23 C       -7.6230    -0.7550    -0.1000 C.ar  1 <1>  -0.1500 
 24 C       -7.1550    -4.8560     0.0110 C.ar  1 <1>   0.1600 
 25 N       -8.3290    -4.3630     0.2400 N.ar  1 <1>  -0.6200 
 26 C       -9.7180    -2.4620     0.4450 C.ar  1 <1>  -0.1500 
 27 C       -8.8740    -0.2500     0.1330 C.ar  1 <1>  -0.1500 
 28 C       -9.9360    -1.1120     0.4130 C.ar  1 <1>  -0.1500 
 29 H       -2.1330    -0.3230     0.7140 H     1 <1>   0.3700 
 30 H       -3.1690     1.9300     0.9670 H     1 <1>   0.0800 
 31 H       -2.2470    -1.4330    -2.0330 H     1 <1>   0.0800 
 32 H       -4.5410     3.0730    -0.6930 H     1 <1>   0.0800 
 33 H       -3.1280     3.5620    -1.5760 H     1 <1>   0.0800 
 34 H       -0.7650     2.7620    -0.6700 H     1 <1>   0.0800 
 35 H       -0.7280     1.7930     0.7710 H     1 <1>   0.0800 
 36 H       -3.5240    -3.2820    -1.3220 H     1 <1>   0.0800 
 37 H       -0.3010    -1.7480    -0.2130 H     1 <1>   0.0800 
 38 H       -0.9140    -3.1950    -1.0140 H     1 <1>   0.0800 
 39 H       -3.8510     4.4400     1.2260 H     1 <1>   0.0800 
 40 H       -3.9180     5.4120    -0.2140 H     1 <1>   0.0800 
 41 H       -0.1370     4.1420     1.2260 H     1 <1>   0.0800 
 42 H       -1.5660     3.6740     2.1040 H     1 <1>   0.0800 
 43 H       -3.2000    -4.1500     0.7990 H     1 <1>   0.0800 
 44 H       -3.4890    -2.6010     1.5820 H     1 <1>   0.0800 
 45 H       -5.0380    -1.3090    -1.4830 H     1 <1>   0.0800 
 46 H       -4.8600    -1.0660     0.2270 H     1 <1>   0.0800 
 47 H       -5.1050    -4.6290    -0.4300 H     1 <1>   0.1500 
 48 H       -2.5460     6.7960    -1.5380 H     1 <1>   0.0800 
 49 H       -1.4910     8.0100    -0.8620 H     1 <1>   0.0800 
 50 H       -2.9290     7.5420     0.0090 H     1 <1>   0.0800 
 51 H       -6.8260    -0.0710    -0.3230 H     1 <1>   0.1500 
 52 H       -7.0470    -5.9270     0.0260 H     1 <1>   0.1500 
 53 H      -10.5200    -3.1460     0.6550 H     1 <1>   0.1500 
 54 H       -9.0560     0.8100     0.1020 H     1 <1>   0.1500 
 55 H      -10.9150    -0.7040     0.5980 H     1 <1>   0.1500 
@<TRIPOS>BOND
  1   1   2  2   
  2   2   3  am  
  3   2   4  1   
  4   3   5  1   
  5   3  29  1   
  6   4   6  1   
  7   4   7  1   
  8   4  30  1   
  9   5   8  1   
 10   5   9  1   
 11   5  31  1   
 12   6  10  1   
 13   6  32  1   
 14   6  33  1   
 15   7  11  1   
 16   7  34  1   
 17   7  35  1   
 18   8  12  1   
 19   8  13  1   
 20   8  36  1   
 21   9  14  1   
 22   9  37  1   
 23   9  38  1   
 24  10  15  1   
 25  10  39  1   
 26  10  40  1   
 27  11  15  1   
 28  11  41  1   
 29  11  42  1   
 30  12  14  1   
 31  12  43  1   
 32  12  44  1   
 33  13  16  1   
 34  13  45  1   
 35  13  46  1   
 36  15  17  am  
 37  16  18  ar  
 38  16  19  ar  
 39  17  20  2   
 40  17  21  1   
 41  18  22  ar  
 42  18  23  ar  
 43  19  24  ar  
 44  19  47  1   
 45  21  48  1   
 46  21  49  1   
 47  21  50  1   
 48  22  25  ar  
 49  22  26  ar  
 50  23  27  ar  
 51  23  51  1   
 52  24  25  ar  
 53  24  52  1   
 54  26  28  ar  
 55  26  53  1   
 56  27  28  ar  
 57  27  54  1   
 58  28  55  1   
@<TRIPOS>SUBSTRUCTURE
  1 ****   2 GROUP 4 **** **** 0

# MOE 2024.06 (io_trps.svl 2023.06)
