@<TRIPOS>MOLECULE
NONAME
59 62 1 0 0 
SMALL
USER_CHARGES


@<TRIPOS>ATOM
  1 O        1.6400     0.2380    -0.6440 O.2   1 <1>  -0.5700 
  2 C        1.9490    -0.4780     0.2890 C.2   1 <1>   0.7160 
  3 N        2.7210     0.0720     1.2890 N.am  1 <1>  -0.6600 
  4 C        1.6110    -1.8780     0.2890 C.2   1 <1>  -0.0860 
  5 C        4.0420    -0.5310     1.6210 C.3   1 <1>   0.1400 
  6 C        2.5100     1.4870     1.6960 C.3   1 <1>   0.1400 
  7 C        1.5220    -2.7120     1.4060 C.2   1 <1>   0.1390 
  8 C        1.3010    -2.7130    -0.7410 C.2   1 <1>  -0.3020 
  9 C        5.0220    -0.3760     0.4400 C.3   1 <1>   0.3430 
 10 C        3.6480     2.4030     1.2300 C.3   1 <1>  -0.1600 
 11 N        1.2210    -3.9330     1.1040 N.2   1 <1>  -0.7070 
 12 N        1.0680    -3.9320    -0.2320 N.pl3 1 <1>   0.3140 
 13 N        5.4180     1.0430     0.1310 N.4   1 <1>  -0.9590 
 14 C        4.2760     1.9870    -0.1020 C.3   1 <1>   0.3430 
 15 C        0.6760    -5.1490    -0.9740 C.3   1 <1>   0.0960 
 16 C        6.3330     1.0700    -1.0360 C.3   1 <1>   0.4810 
 17 C       -0.8310    -5.1620    -1.2550 C.3   1 <1>  -0.2400 
 18 C        6.9950     2.4290    -1.0730 C.2   1 <1>  -0.2540 
 19 C        6.7990     3.3790    -1.9970 C.2   1 <1>  -0.2880 
 20 C        7.9780     2.7360     0.0640 C.3   1 <1>   0.1160 
 21 C        7.5640     4.7020    -1.8910 C.3   1 <1>  -0.0220 
 22 C        9.3210     3.3710    -0.4520 C.3   1 <1>   0.0000 
 23 C        7.6410     4.1640     0.6020 C.3   1 <1>   0.0000 
 24 C        8.4640     4.6800    -0.6250 C.3   1 <1>   0.0000 
 25 C       10.4480     3.4710     0.6050 C.3   1 <1>  -0.2400 
 26 C        9.9290     2.7590    -1.7330 C.3   1 <1>  -0.2400 
 27 H        4.4480    -0.0800     2.5090 H     1 <1>   0.0800 
 28 H        3.9130    -1.5800     1.8240 H     1 <1>   0.0800 
 29 H        1.5820     1.8370     1.2710 H     1 <1>   0.0800 
 30 H        2.4070     1.5410     2.7670 H     1 <1>   0.0800 
 31 H        1.6810    -2.3830     2.4200 H     1 <1>   0.1500 
 32 H        1.2290    -2.4860    -1.7890 H     1 <1>   0.1500 
 33 H        4.5680    -0.8190    -0.4320 H     1 <1>   0.0800 
 34 H        5.9100    -0.9440     0.6640 H     1 <1>   0.0800 
 35 H        4.3990     2.4860     1.9950 H     1 <1>   0.0800 
 36 H        3.2280     3.3860     1.1080 H     1 <1>   0.0800 
 37 H        5.9590     1.4240     0.9140 H     1 <1>   0.4500 
 38 H        4.6450     2.8780    -0.5840 H     1 <1>   0.0800 
 39 H        3.5360     1.5460    -0.7510 H     1 <1>   0.0800 
 40 H        1.2270    -5.1820    -1.8950 H     1 <1>   0.0800 
 41 H        0.9460    -6.0050    -0.3810 H     1 <1>   0.0800 
 42 H        7.0890     0.3070    -0.9470 H     1 <1>   0.0800 
 43 H        5.7790     0.9040    -1.9460 H     1 <1>   0.0800 
 44 H       -1.1090    -4.3150    -1.8570 H     1 <1>   0.0800 
 45 H       -1.3780    -5.1350    -0.3280 H     1 <1>   0.0800 
 46 H       -1.0970    -6.0600    -1.7820 H     1 <1>   0.0800 
 47 H        6.1420     3.3110    -2.8500 H     1 <1>   0.1500 
 48 H        8.0800     1.9820     0.8250 H     1 <1>   0.0000 
 49 H        6.8700     5.5200    -1.8210 H     1 <1>   0.0800 
 50 H        8.1720     4.8520    -2.7660 H     1 <1>   0.0800 
 51 H        6.5940     4.4130     0.5700 H     1 <1>   0.0000 
 52 H        8.0690     4.3940     1.5610 H     1 <1>   0.0000 
 53 H        9.0000     5.5950    -0.4420 H     1 <1>   0.0000 
 54 H       11.2450     4.0850     0.2260 H     1 <1>   0.0800 
 55 H       10.8480     2.4930     0.8090 H     1 <1>   0.0800 
 56 H       10.1320     3.8950     1.5390 H     1 <1>   0.0800 
 57 H       10.7140     3.3970    -2.1010 H     1 <1>   0.0800 
 58 H        9.2220     2.6270    -2.5280 H     1 <1>   0.0800 
 59 H       10.3570     1.7970    -1.5140 H     1 <1>   0.0800 
@<TRIPOS>BOND
  1   1   2  2   
  2   2   3  am  
  3   2   4  1   
  4   3   5  1   
  5   3   6  1   
  6   4   7  1   
  7   4   8  2   
  8   5   9  1   
  9   5  27  1   
 10   5  28  1   
 11   6  10  1   
 12   6  29  1   
 13   6  30  1   
 14   7  11  2   
 15   7  31  1   
 16   8  12  1   
 17   8  32  1   
 18   9  13  1   
 19   9  33  1   
 20   9  34  1   
 21  10  14  1   
 22  10  35  1   
 23  10  36  1   
 24  11  12  1   
 25  12  15  1   
 26  13  14  1   
 27  13  16  1   
 28  13  37  1   
 29  14  38  1   
 30  14  39  1   
 31  15  17  1   
 32  15  40  1   
 33  15  41  1   
 34  16  18  1   
 35  16  42  1   
 36  16  43  1   
 37  17  44  1   
 38  17  45  1   
 39  17  46  1   
 40  18  19  2   
 41  18  20  1   
 42  19  21  1   
 43  19  47  1   
 44  20  22  1   
 45  20  23  1   
 46  20  48  1   
 47  21  24  1   
 48  21  49  1   
 49  21  50  1   
 50  22  24  1   
 51  22  25  1   
 52  22  26  1   
 53  23  24  1   
 54  23  51  1   
 55  23  52  1   
 56  24  53  1   
 57  25  54  1   
 58  25  55  1   
 59  25  56  1   
 60  26  57  1   
 61  26  58  1   
 62  26  59  1   
@<TRIPOS>SUBSTRUCTURE
  1 ****  13 GROUP 4 **** **** 0

# MOE 2024.06 (io_trps.svl 2023.06)
