@<TRIPOS>MOLECULE
NONAME
47 49 1 0 0 
SMALL
USER_CHARGES


@<TRIPOS>ATOM
  1 O        0.5550     0.0470     2.3680 O.3   1 <1>  -0.6800 
  2 C        1.0050    -0.0650     1.0590 C.3   1 <1>   0.2000 
  3 C        1.8910    -1.3010     0.9680 C.3   1 <1>  -0.0800 
  4 C        1.9810     1.0890     0.7870 C.3   1 <1>   0.3430 
  5 C        3.1790    -0.8100     1.6360 C.3   1 <1>   0.3430 
  6 C        2.0920    -1.7410    -0.5020 C.3   1 <1>  -0.0170 
  7 N        3.3300     0.6330     1.2730 N.4   1 <1>  -0.9590 
  8 C        3.2740    -2.6790    -0.6800 C.ar  1 <1>   0.1670 
  9 C        4.4260     0.8120     0.2810 C.3   1 <1>   0.3430 
 10 N        4.4590    -2.1020    -0.8360 N.ar  1 <1>  -0.6200 
 11 C        3.0680    -4.0500    -0.6740 C.ar  1 <1>  -0.1500 
 12 C        4.7310     2.2950     0.0820 C.3   1 <1>  -0.1600 
 13 C        5.4770    -2.9360    -1.0090 C.ar  1 <1>   0.1600 
 14 C        4.1390    -4.9000    -0.8430 C.ar  1 <1>  -0.1500 
 15 C        5.8990     2.4840    -0.8950 C.3   1 <1>   0.0960 
 16 C        5.3740    -4.3160    -1.0180 C.ar  1 <1>  -0.1500 
 17 N        6.1380     3.9240    -1.1090 N.pl3 1 <1>   0.0480 
 18 C        6.9820     4.7610    -0.4560 C.2   1 <1>   0.0060 
 19 C        5.5020     4.7060    -2.0010 C.2   1 <1>  -0.3020 
 20 N        6.9150     5.9850    -0.8640 N.2   1 <1>  -0.5650 
 21 C        7.9220     4.3270     0.6500 C.3   1 <1>  -0.0600 
 22 C        5.9890     5.9540    -1.8380 C.2   1 <1>   0.0770 
 23 H       -0.1980    -0.5560     2.5440 H     1 <1>   0.4000 
 24 H        0.1560    -0.0650     0.3950 H     1 <1>   0.0800 
 25 H        1.4820    -2.1300     1.5190 H     1 <1>   0.0800 
 26 H        1.6570     1.9870     1.2880 H     1 <1>   0.0800 
 27 H        2.0220     1.2700    -0.2730 H     1 <1>   0.0800 
 28 H        4.0390    -1.3940     1.3530 H     1 <1>   0.0800 
 29 H        3.0540    -0.8890     2.7050 H     1 <1>   0.0800 
 30 H        2.2490    -0.8920    -1.1430 H     1 <1>   0.0800 
 31 H        1.1980    -2.2290    -0.8490 H     1 <1>   0.0800 
 32 H        3.5500     1.1450     2.1390 H     1 <1>   0.4500 
 33 H        5.3130     0.3100     0.6330 H     1 <1>   0.0800 
 34 H        4.1470     0.3630    -0.6600 H     1 <1>   0.0800 
 35 H        2.0820    -4.4600    -0.5420 H     1 <1>   0.1500 
 36 H        4.9930     2.7390     1.0270 H     1 <1>   0.0800 
 37 H        3.8670     2.7970    -0.3180 H     1 <1>   0.0800 
 38 H        6.4520    -2.5010    -1.1540 H     1 <1>   0.1500 
 39 H        4.0170    -5.9710    -0.8450 H     1 <1>   0.1500 
 40 H        5.6740     2.0340    -1.8470 H     1 <1>   0.0800 
 41 H        6.7970     2.0360    -0.5100 H     1 <1>   0.0800 
 42 H        6.2490    -4.9240    -1.1620 H     1 <1>   0.1500 
 43 H        4.7590     4.3510    -2.6910 H     1 <1>   0.1500 
 44 H        8.4770     5.1770     1.0060 H     1 <1>   0.0800 
 45 H        8.6190     3.5990     0.2790 H     1 <1>   0.0800 
 46 H        7.3680     3.9140     1.4720 H     1 <1>   0.0800 
 47 H        5.7190     6.8480    -2.3770 H     1 <1>   0.1500 
@<TRIPOS>BOND
  1   1   2  1   
  2   1  23  1   
  3   2   3  1   
  4   2   4  1   
  5   2  24  1   
  6   3   5  1   
  7   3   6  1   
  8   3  25  1   
  9   4   7  1   
 10   4  26  1   
 11   4  27  1   
 12   5   7  1   
 13   5  28  1   
 14   5  29  1   
 15   6   8  1   
 16   6  30  1   
 17   6  31  1   
 18   7   9  1   
 19   7  32  1   
 20   8  10  ar  
 21   8  11  ar  
 22   9  12  1   
 23   9  33  1   
 24   9  34  1   
 25  10  13  ar  
 26  11  14  ar  
 27  11  35  1   
 28  12  15  1   
 29  12  36  1   
 30  12  37  1   
 31  13  16  ar  
 32  13  38  1   
 33  14  16  ar  
 34  14  39  1   
 35  15  17  1   
 36  15  40  1   
 37  15  41  1   
 38  16  42  1   
 39  17  18  1   
 40  17  19  1   
 41  18  20  2   
 42  18  21  1   
 43  19  22  2   
 44  19  43  1   
 45  20  22  1   
 46  21  44  1   
 47  21  45  1   
 48  21  46  1   
 49  22  47  1   
@<TRIPOS>SUBSTRUCTURE
  1 ****   9 GROUP 4 **** **** 0

# MOE 2024.06 (io_trps.svl 2023.06)
