@<TRIPOS>MOLECULE
NONAME
49 51 1 0 0 
SMALL
USER_CHARGES


@<TRIPOS>ATOM
  1 O       -2.2840     1.0650    -2.1350 O.2   1 <1>  -0.5700 
  2 C       -2.2000     1.2580    -0.9480 C.2   1 <1>   0.5690 
  3 N       -2.3300     0.2560    -0.0470 N.am  1 <1>  -0.7300 
  4 C       -1.9330     2.6580    -0.4440 C.3   1 <1>  -0.0990 
  5 C       -2.5680    -1.1630    -0.3910 C.3   1 <1>   0.2200 
  6 C       -0.4360     2.9790    -0.4790 C.3   1 <1>  -0.0160 
  7 C       -3.9990    -1.5290    -0.0370 C.3   1 <1>  -0.0800 
  8 C       -1.7780    -2.0550     0.5590 C.3   1 <1>   0.1200 
  9 C       -0.1790     4.3750     0.0660 C.ar  1 <1>  -0.1440 
 10 C       -3.8920    -1.8770     1.4530 C.3   1 <1>   0.1200 
 11 C       -4.5030    -2.7160    -0.8810 C.3   1 <1>  -0.0160 
 12 O       -2.5440    -2.1420     1.7220 O.3   1 <1>  -0.5600 
 13 C       -0.2640     5.4770    -0.7700 C.ar  1 <1>  -0.1500 
 14 C        0.1400     4.5590     1.4030 C.ar  1 <1>  -0.1500 
 15 C       -5.9440    -3.0670    -0.5440 C.ar  1 <1>  -0.1440 
 16 C       -0.0350     6.7520    -0.2800 C.ar  1 <1>  -0.1500 
 17 C        0.3700     5.8320     1.8960 C.ar  1 <1>  -0.1500 
 18 C       -6.9990    -2.2850    -0.9700 C.ar  1 <1>  -0.1500 
 19 C       -6.2750    -4.1820     0.2000 C.ar  1 <1>  -0.1500 
 20 C        0.2850     6.9350     1.0630 C.ar  1 <1>   0.0820 
 21 C       -8.2950    -2.6420    -0.6370 C.ar  1 <1>   0.1600 
 22 C       -7.6050    -4.4490     0.4780 C.ar  1 <1>   0.1600 
 23 O        0.5260     8.1460     1.6250 O.3   1 <1>  -0.3630 
 24 N       -8.6230    -3.7050     0.0800 N.ar  1 <1>  -0.6200 
 25 C        0.4840     9.3300     0.8600 C.3   1 <1>   0.0400 
 26 H       -2.2670     0.4390     0.9570 H     1 <1>   0.3700 
 27 H       -2.4640     3.3540    -1.0680 H     1 <1>   0.0800 
 28 H       -2.3050     2.7600     0.5580 H     1 <1>   0.0800 
 29 H       -2.3230    -1.3460    -1.4240 H     1 <1>   0.0800 
 30 H       -0.0770     2.9140    -1.4920 H     1 <1>   0.0800 
 31 H        0.1060     2.2560     0.1040 H     1 <1>   0.0800 
 32 H       -4.6610    -0.6940    -0.1900 H     1 <1>   0.0800 
 33 H       -0.8060    -1.6570     0.7920 H     1 <1>   0.0800 
 34 H       -1.6780    -3.0480     0.1570 H     1 <1>   0.0800 
 35 H       -4.4750    -2.7380     1.7290 H     1 <1>   0.0800 
 36 H       -4.1850    -1.0400     2.0630 H     1 <1>   0.0800 
 37 H       -3.8770    -3.5770    -0.7270 H     1 <1>   0.0800 
 38 H       -4.4480    -2.4580    -1.9250 H     1 <1>   0.0800 
 39 H       -0.5110     5.3460    -1.8090 H     1 <1>   0.1500 
 40 H        0.2110     3.7160     2.0670 H     1 <1>   0.1500 
 41 H       -0.1090     7.5830    -0.9540 H     1 <1>   0.1500 
 42 H        0.6170     5.9780     2.9310 H     1 <1>   0.1500 
 43 H       -6.8250    -1.4020    -1.5590 H     1 <1>   0.1500 
 44 H       -5.5130    -4.8450     0.5670 H     1 <1>   0.1500 
 45 H       -9.1040    -2.0190    -0.9780 H     1 <1>   0.1500 
 46 H       -7.8440    -5.3230     1.0610 H     1 <1>   0.1500 
 47 H        0.7110    10.1550     1.5100 H     1 <1>   0.0800 
 48 H       -0.5050     9.4470     0.4530 H     1 <1>   0.0800 
 49 H        1.2200     9.2670     0.0780 H     1 <1>   0.0800 
@<TRIPOS>BOND
  1   1   2  2   
  2   2   3  am  
  3   2   4  1   
  4   3   5  1   
  5   3  26  1   
  6   4   6  1   
  7   4  27  1   
  8   4  28  1   
  9   5   7  1   
 10   5   8  1   
 11   5  29  1   
 12   6   9  1   
 13   6  30  1   
 14   6  31  1   
 15   7  10  1   
 16   7  11  1   
 17   7  32  1   
 18   8  12  1   
 19   8  33  1   
 20   8  34  1   
 21   9  13  ar  
 22   9  14  ar  
 23  10  12  1   
 24  10  35  1   
 25  10  36  1   
 26  11  15  1   
 27  11  37  1   
 28  11  38  1   
 29  13  16  ar  
 30  13  39  1   
 31  14  17  ar  
 32  14  40  1   
 33  15  18  ar  
 34  15  19  ar  
 35  16  20  ar  
 36  16  41  1   
 37  17  20  ar  
 38  17  42  1   
 39  18  21  ar  
 40  18  43  1   
 41  19  22  ar  
 42  19  44  1   
 43  20  23  1   
 44  21  24  ar  
 45  21  45  1   
 46  22  24  ar  
 47  22  46  1   
 48  23  25  1   
 49  25  47  1   
 50  25  48  1   
 51  25  49  1   
@<TRIPOS>SUBSTRUCTURE
  1 ****   3 GROUP 4 **** **** 0

# MOE 2024.06 (io_trps.svl 2023.06)
