@<TRIPOS>MOLECULE
NONAME
27 27 1 0 0 
SMALL
USER_CHARGES


@<TRIPOS>ATOM
  1 F       -0.7140     1.0290     0.4990 F     1 <1>  -0.3400 
  2 C       -0.0430     1.7480    -0.3930 C.3   1 <1>   1.1640 
  3 F       -0.5560     1.4480    -1.5780 F     1 <1>  -0.3400 
  4 F        1.1980     1.2780    -0.3910 F     1 <1>  -0.3400 
  5 C       -0.1130     3.2600    -0.1090 C.ar  1 <1>  -0.1440 
  6 C       -1.2710     3.8280     0.4090 C.ar  1 <1>  -0.1500 
  7 C        0.9700     4.0910    -0.3680 C.ar  1 <1>  -0.1500 
  8 C       -1.3600     5.1870     0.6690 C.ar  1 <1>  -0.1440 
  9 C        0.8940     5.4480    -0.1140 C.ar  1 <1>  -0.1500 
 10 C       -0.2680     6.0050     0.4000 C.ar  1 <1>  -0.1430 
 11 C       -2.6580     5.7310     1.2560 C.3   1 <1>  -0.0960 
 12 C       -0.3130     7.4980     0.6430 C.3   1 <1>   0.4870 
 13 N       -0.7440     8.1150    -0.6290 N.4   1 <1>  -0.9060 
 14 C       -0.8810     9.5990    -0.5630 C.3   1 <1>   0.2630 
 15 H       -2.1180     3.1930     0.6160 H     1 <1>   0.1500 
 16 H        1.8850     3.6830    -0.7700 H     1 <1>   0.1500 
 17 H        1.7590     6.0560    -0.3210 H     1 <1>   0.1500 
 18 H       -3.3780     4.9420     1.3910 H     1 <1>   0.0800 
 19 H       -3.0960     6.4650     0.6050 H     1 <1>   0.0800 
 20 H       -2.4760     6.1710     2.2210 H     1 <1>   0.0800 
 21 H        0.6650     7.8550     0.9260 H     1 <1>   0.0800 
 22 H       -1.0090     7.7270     1.4330 H     1 <1>   0.0800 
 23 H       -1.6300     7.6690    -0.8990 H     1 <1>   0.4500 
 24 H       -0.0700     7.8360    -1.3540 H     1 <1>   0.4500 
 25 H       -1.6120     9.8770     0.1800 H     1 <1>   0.0800 
 26 H       -1.1990     9.9870    -1.5180 H     1 <1>   0.0800 
 27 H        0.0630    10.0530    -0.3070 H     1 <1>   0.0800 
@<TRIPOS>BOND
  1   1   2  1   
  2   2   3  1   
  3   2   4  1   
  4   2   5  1   
  5   5   6  ar  
  6   5   7  ar  
  7   6   8  ar  
  8   6  15  1   
  9   7   9  ar  
 10   7  16  1   
 11   8  10  ar  
 12   8  11  1   
 13   9  10  ar  
 14   9  17  1   
 15  10  12  1   
 16  11  18  1   
 17  11  19  1   
 18  11  20  1   
 19  12  13  1   
 20  12  21  1   
 21  12  22  1   
 22  13  14  1   
 23  13  23  1   
 24  13  24  1   
 25  14  25  1   
 26  14  26  1   
 27  14  27  1   
@<TRIPOS>SUBSTRUCTURE
  1 ****   6 GROUP 4 **** **** 0

# MOE 2024.06 (io_trps.svl 2023.06)
