@<TRIPOS>MOLECULE
NONAME
46 48 1 0 0 
SMALL
USER_CHARGES


@<TRIPOS>ATOM
  1 O        2.3390    -1.0080     1.6020 O.2   1 <1>  -0.5700 
  2 C        2.2010    -0.7570     0.4260 C.2   1 <1>   0.5690 
  3 N        2.4300     0.4830    -0.0980 N.am  1 <1>  -0.4930 
  4 C        1.7570    -1.8620    -0.5530 C.3   1 <1>   0.2810 
  5 C        2.8190     1.6730     0.5630 C.2   1 <1>   0.0630 
  6 N        0.6100    -1.5010    -1.4580 N.am  1 <1>  -0.6600 
  7 C        1.4460    -3.2320     0.0760 C.3   1 <1>  -0.1600 
  8 C        3.1520     1.8820     1.9020 C.2   1 <1>   0.1390 
  9 C        2.9380     2.8880    -0.0070 C.2   1 <1>  -0.3020 
 10 C       -0.4340    -0.6510    -1.1830 C.2   1 <1>   0.5690 
 11 C        0.4950    -2.4380    -2.6070 C.3   1 <1>   0.1400 
 12 C        1.2250    -4.2990    -1.0130 C.3   1 <1>  -0.1600 
 13 N        3.4530     3.1230     2.1480 N.2   1 <1>  -0.7070 
 14 N        3.3180     3.7520     0.9640 N.pl3 1 <1>   0.3140 
 15 O       -1.1540    -0.2430    -2.0610 O.2   1 <1>  -0.5700 
 16 C       -0.7680    -0.2010     0.2230 C.3   1 <1>  -0.1790 
 17 C        0.1920    -3.8390    -2.0580 C.3   1 <1>  -0.1600 
 18 C        3.5930     5.2020     0.8340 C.3   1 <1>   0.2390 
 19 C        2.8520     5.8270    -0.3430 C.ar  1 <1>  -0.1430 
 20 C        1.4750     5.9860    -0.2920 C.ar  1 <1>  -0.1500 
 21 C        3.5430     6.2380    -1.4730 C.ar  1 <1>  -0.1500 
 22 C        0.7970     6.5490    -1.3590 C.ar  1 <1>  -0.1500 
 23 C        2.8650     6.8030    -2.5400 C.ar  1 <1>  -0.1500 
 24 C        1.4920     6.9580    -2.4830 C.ar  1 <1>  -0.1500 
 25 H        2.1960     0.5980    -1.0860 H     1 <1>   0.3700 
 26 H        2.6150    -2.0100    -1.1840 H     1 <1>   0.0800 
 27 H        0.5720    -3.1490     0.6980 H     1 <1>   0.0800 
 28 H        2.2660    -3.5330     0.7050 H     1 <1>   0.0800 
 29 H        3.1600     1.1070     2.6500 H     1 <1>   0.1500 
 30 H        2.7750     3.1890    -1.0250 H     1 <1>   0.1500 
 31 H        1.4170    -2.4440    -3.1630 H     1 <1>   0.0800 
 32 H       -0.2940    -2.1320    -3.2750 H     1 <1>   0.0800 
 33 H        0.8980    -5.2190    -0.5600 H     1 <1>   0.0800 
 34 H        2.1610    -4.4940    -1.5100 H     1 <1>   0.0800 
 35 H       -0.5070    -0.9530     0.9420 H     1 <1>   0.0800 
 36 H       -1.8250    -0.0240     0.2930 H     1 <1>   0.0800 
 37 H       -0.2580     0.7160     0.4490 H     1 <1>   0.0800 
 38 H        0.1630    -4.5410    -2.8720 H     1 <1>   0.0800 
 39 H       -0.7880    -3.8240    -1.6110 H     1 <1>   0.0800 
 40 H        4.6530     5.3290     0.7230 H     1 <1>   0.0800 
 41 H        3.2910     5.6810     1.7470 H     1 <1>   0.0800 
 42 H        0.9230     5.6680     0.5770 H     1 <1>   0.1500 
 43 H        4.6120     6.1220    -1.5330 H     1 <1>   0.1500 
 44 H       -0.2720     6.6670    -1.3150 H     1 <1>   0.1500 
 45 H        3.4050     7.1220    -3.4140 H     1 <1>   0.1500 
 46 H        0.9640     7.3970    -3.3120 H     1 <1>   0.1500 
@<TRIPOS>BOND
  1   1   2  2   
  2   2   3  am  
  3   2   4  1   
  4   3   5  1   
  5   3  25  1   
  6   4   6  1   
  7   4   7  1   
  8   4  26  1   
  9   5   8  1   
 10   5   9  2   
 11   6  10  am  
 12   6  11  1   
 13   7  12  1   
 14   7  27  1   
 15   7  28  1   
 16   8  13  2   
 17   8  29  1   
 18   9  14  1   
 19   9  30  1   
 20  10  15  2   
 21  10  16  1   
 22  11  17  1   
 23  11  31  1   
 24  11  32  1   
 25  12  17  1   
 26  12  33  1   
 27  12  34  1   
 28  13  14  1   
 29  14  18  1   
 30  16  35  1   
 31  16  36  1   
 32  16  37  1   
 33  17  38  1   
 34  17  39  1   
 35  18  19  1   
 36  18  40  1   
 37  18  41  1   
 38  19  20  ar  
 39  19  21  ar  
 40  20  22  ar  
 41  20  42  1   
 42  21  23  ar  
 43  21  43  1   
 44  22  24  ar  
 45  22  44  1   
 46  23  24  ar  
 47  23  45  1   
 48  24  46  1   
@<TRIPOS>SUBSTRUCTURE
  1 ****   3 GROUP 4 **** **** 0

# MOE 2024.06 (io_trps.svl 2023.06)
