@<TRIPOS>MOLECULE
NONAME
55 57 1 0 0 
SMALL
USER_CHARGES


@<TRIPOS>ATOM
  1 S       -0.3940     0.8140    -1.2240 S.o2  1 <1>   1.3330 
  2 O       -1.3910     1.8550    -1.0990 O.2   1 <1>  -0.6500 
  3 O        0.2770     0.6280    -2.4930 O.2   1 <1>  -0.6500 
  4 N       -1.1400    -0.6510    -0.8000 N.am  1 <1>  -0.8490 
  5 C        0.8720     1.0410     0.0620 C.3   1 <1>   0.0250 
  6 C       -2.1610    -0.4760     0.2380 C.3   1 <1>   0.1960 
  7 C       -1.7180    -1.3290    -1.9660 C.3   1 <1>   0.1960 
  8 C        1.6220     2.3820    -0.1130 C.3   1 <1>  -0.1600 
  9 C        1.8700    -0.1370     0.1370 C.3   1 <1>  -0.2400 
 10 C       -2.6350    -1.8430     0.7290 C.3   1 <1>  -0.1600 
 11 C       -2.1910    -2.7280    -1.5700 C.3   1 <1>  -0.1600 
 12 C        2.5360     2.7510     1.0650 C.3   1 <1>  -0.2400 
 13 C       -3.2070    -2.6790    -0.4240 C.3   1 <1>   0.4240 
 14 O       -4.3220    -1.9970    -0.9500 O.3   1 <1>  -0.5600 
 15 C       -3.5740    -4.1040     0.0410 C.ar  1 <1>  -0.1440 
 16 C       -5.5510    -2.1880    -0.3210 C.3   1 <1>   0.1200 
 17 C       -4.8840    -4.5620     0.0040 C.ar  1 <1>  -0.1440 
 18 C       -2.5910    -4.9620     0.5170 C.ar  1 <1>  -0.1500 
 19 C       -5.9770    -3.6420    -0.5010 C.3   1 <1>  -0.0170 
 20 C       -5.1950    -5.8450     0.4280 C.ar  1 <1>  -0.1500 
 21 C       -2.8820    -6.2480     0.9390 C.ar  1 <1>   0.0820 
 22 C       -4.2090    -6.7030     0.9070 C.ar  1 <1>   0.0820 
 23 O       -1.8030    -6.9640     1.3650 O.3   1 <1>  -0.3620 
 24 O       -4.5140    -7.9560     1.3570 O.3   1 <1>  -0.3620 
 25 C       -1.7370    -8.3610     1.1800 C.3   1 <1>   0.0400 
 26 C       -5.8450    -8.4010     1.5000 C.3   1 <1>   0.0400 
 27 H        0.3620     1.0860     1.0040 H     1 <1>   0.0800 
 28 H       -2.9950     0.0860    -0.1540 H     1 <1>   0.0800 
 29 H       -1.7500     0.0710     1.0680 H     1 <1>   0.0800 
 30 H       -0.9760    -1.4300    -2.7400 H     1 <1>   0.0800 
 31 H       -2.5370    -0.7500    -2.3610 H     1 <1>   0.0800 
 32 H        0.8920     3.1660    -0.2270 H     1 <1>   0.0800 
 33 H        2.2000     2.3530    -1.0230 H     1 <1>   0.0800 
 34 H        2.4570    -0.1840    -0.7640 H     1 <1>   0.0800 
 35 H        1.3370    -1.0660     0.2390 H     1 <1>   0.0800 
 36 H        2.5280    -0.0400     0.9800 H     1 <1>   0.0800 
 37 H       -3.3710    -1.7260     1.5020 H     1 <1>   0.0800 
 38 H       -1.7960    -2.3520     1.1650 H     1 <1>   0.0800 
 39 H       -1.3290    -3.3000    -1.2820 H     1 <1>   0.0800 
 40 H       -2.6360    -3.2180    -2.4160 H     1 <1>   0.0800 
 41 H        1.9880     2.7310     1.9910 H     1 <1>   0.0800 
 42 H        2.9250     3.7440     0.9230 H     1 <1>   0.0800 
 43 H        3.3710     2.0770     1.1360 H     1 <1>   0.0800 
 44 H       -6.2630    -1.5260    -0.7820 H     1 <1>   0.0800 
 45 H       -5.4600    -1.9370     0.7210 H     1 <1>   0.0800 
 46 H       -1.5660    -4.6450     0.5680 H     1 <1>   0.1500 
 47 H       -6.1610    -3.8340    -1.5430 H     1 <1>   0.0800 
 48 H       -6.8890    -3.8120     0.0420 H     1 <1>   0.0800 
 49 H       -6.2190    -6.1570     0.3770 H     1 <1>   0.1500 
 50 H       -0.7060    -8.6570     1.2360 H     1 <1>   0.0800 
 51 H       -2.1420    -8.6070     0.2150 H     1 <1>   0.0800 
 52 H       -2.2960    -8.8410     1.9630 H     1 <1>   0.0800 
 53 H       -5.8220    -9.3850     1.9330 H     1 <1>   0.0800 
 54 H       -6.3060    -8.4410     0.5300 H     1 <1>   0.0800 
 55 H       -6.3700    -7.7270     2.1540 H     1 <1>   0.0800 
@<TRIPOS>BOND
  1   1   2  2   
  2   1   3  2   
  3   1   4  am  
  4   1   5  1   
  5   4   6  1   
  6   4   7  1   
  7   5   8  1   
  8   5   9  1   
  9   5  27  1   
 10   6  10  1   
 11   6  28  1   
 12   6  29  1   
 13   7  11  1   
 14   7  30  1   
 15   7  31  1   
 16   8  12  1   
 17   8  32  1   
 18   8  33  1   
 19   9  34  1   
 20   9  35  1   
 21   9  36  1   
 22  10  13  1   
 23  10  37  1   
 24  10  38  1   
 25  11  13  1   
 26  11  39  1   
 27  11  40  1   
 28  12  41  1   
 29  12  42  1   
 30  12  43  1   
 31  13  14  1   
 32  13  15  1   
 33  14  16  1   
 34  15  17  ar  
 35  15  18  ar  
 36  16  19  1   
 37  16  44  1   
 38  16  45  1   
 39  17  19  1   
 40  17  20  ar  
 41  18  21  ar  
 42  18  46  1   
 43  19  47  1   
 44  19  48  1   
 45  20  22  ar  
 46  20  49  1   
 47  21  22  ar  
 48  21  23  1   
 49  22  24  1   
 50  23  25  1   
 51  24  26  1   
 52  25  50  1   
 53  25  51  1   
 54  25  52  1   
 55  26  53  1   
 56  26  54  1   
 57  26  55  1   
@<TRIPOS>SUBSTRUCTURE
  1 ****  13 GROUP 4 **** **** 0

# MOE 2024.06 (io_trps.svl 2023.06)
