@<TRIPOS>MOLECULE
NONAME
56 59 1 0 0 
SMALL
USER_CHARGES


@<TRIPOS>ATOM
  1 O        0.1560     0.7000    -0.9740 O.2   1 <1>  -0.5700 
  2 C       -0.5330     1.5250    -0.4120 C.2   1 <1>   0.5770 
  3 N       -1.9050     1.4700    -0.5950 N.am  1 <1>  -0.6600 
  4 C        0.2300     2.5620     0.4480 C.3   1 <1>   0.0530 
  5 C       -2.9280     2.4830    -0.1490 C.3   1 <1>   0.1400 
  6 C       -2.4600     0.3370    -1.4080 C.3   1 <1>   0.1400 
  7 C        0.0770     4.0340    -0.0400 C.3   1 <1>   0.0000 
  8 C       -0.4160     2.9560     1.8130 C.3   1 <1>   0.0000 
  9 C        1.7180     2.1590     0.6110 C.3   1 <1>   0.1200 
 10 C       -3.9930     2.7430    -1.2310 C.3   1 <1>   0.1440 
 11 C       -3.9700     0.1620    -1.2130 C.3   1 <1>  -0.1600 
 12 C       -0.3290     4.4520     1.4000 C.3   1 <1>   0.0000 
 13 O        2.4330     3.0860     1.3760 O.3   1 <1>  -0.5600 
 14 C       -4.8920     3.8620    -0.7320 C.ar  1 <1>   0.1670 
 15 C       -4.7720     1.4360    -1.5400 C.3   1 <1>  -0.1600 
 16 C       -3.3590     3.3770    -2.5050 C.3   1 <1>  -0.1600 
 17 C        3.7750     2.7630     1.5400 C.3   1 <1>   0.0400 
 18 N       -5.7880     3.7500     0.2170 N.ar  1 <1>  -0.6200 
 19 C       -4.6350     5.0380    -1.3690 C.ar  1 <1>  -0.1430 
 20 C       -3.5360     4.9010    -2.3910 C.3   1 <1>  -0.0170 
 21 C       -6.4540     4.8690     0.5120 C.ar  1 <1>   0.7200 
 22 C       -5.3680     6.1380    -1.0010 C.ar  1 <1>   0.1600 
 23 N       -6.2810     6.0640    -0.0620 N.ar  1 <1>  -0.6200 
 24 N       -7.4090     4.7830     1.5070 N.pl3 1 <1>  -0.8380 
 25 C       -7.9320     3.4760     1.9920 C.3   1 <1>   0.1290 
 26 C       -8.0100     5.9930     2.1320 C.3   1 <1>   0.1290 
 27 H       -2.4740     3.4160     0.1040 H     1 <1>   0.0800 
 28 H       -3.4190     2.1140     0.7360 H     1 <1>   0.0800 
 29 H       -1.9630    -0.5780    -1.1310 H     1 <1>   0.0800 
 30 H       -2.2490     0.5230    -2.4480 H     1 <1>   0.0800 
 31 H       -0.7070     4.1780    -0.7600 H     1 <1>   0.0000 
 32 H        0.9990     4.4870    -0.3610 H     1 <1>   0.0000 
 33 H        0.1940     2.7280     2.6680 H     1 <1>   0.0000 
 34 H       -1.4240     2.6190     1.9530 H     1 <1>   0.0000 
 35 H        2.1850     2.0930    -0.3570 H     1 <1>   0.0800 
 36 H        1.7810     1.2000     1.0970 H     1 <1>   0.0800 
 37 H       -4.1430    -0.1160    -0.1870 H     1 <1>   0.0800 
 38 H       -4.3200    -0.6510    -1.8240 H     1 <1>   0.0800 
 39 H       -1.2750     4.9610     1.4440 H     1 <1>   0.0000 
 40 H        0.4580     4.9750     1.9140 H     1 <1>   0.0000 
 41 H       -5.0760     1.4170    -2.5710 H     1 <1>   0.0800 
 42 H       -5.6760     1.4060    -0.9580 H     1 <1>   0.0800 
 43 H       -3.8910     3.0550    -3.3810 H     1 <1>   0.0800 
 44 H       -2.3240     3.1150    -2.6320 H     1 <1>   0.0800 
 45 H        4.2330     3.5310     2.1370 H     1 <1>   0.0800 
 46 H        4.2500     2.7210     0.5750 H     1 <1>   0.0800 
 47 H        3.8530     1.8150     2.0440 H     1 <1>   0.0800 
 48 H       -3.8120     5.3390    -3.3340 H     1 <1>   0.0800 
 49 H       -2.6380     5.3630    -2.0200 H     1 <1>   0.0800 
 50 H       -5.2020     7.0880    -1.4780 H     1 <1>   0.1500 
 51 H       -7.8610     2.7290     1.2190 H     1 <1>   0.0800 
 52 H       -8.9650     3.5720     2.2730 H     1 <1>   0.0800 
 53 H       -7.3590     3.1540     2.8430 H     1 <1>   0.0800 
 54 H       -7.3120     6.8120     2.1170 H     1 <1>   0.0800 
 55 H       -8.2710     5.7900     3.1550 H     1 <1>   0.0800 
 56 H       -8.8930     6.2770     1.5870 H     1 <1>   0.0800 
@<TRIPOS>BOND
  1   1   2  2   
  2   2   3  am  
  3   2   4  1   
  4   3   5  1   
  5   3   6  1   
  6   4   7  1   
  7   4   8  1   
  8   4   9  1   
  9   5  10  1   
 10   5  27  1   
 11   5  28  1   
 12   6  11  1   
 13   6  29  1   
 14   6  30  1   
 15   7  12  1   
 16   7  31  1   
 17   7  32  1   
 18   8  12  1   
 19   8  33  1   
 20   8  34  1   
 21   9  13  1   
 22   9  35  1   
 23   9  36  1   
 24  10  14  1   
 25  10  15  1   
 26  10  16  1   
 27  11  15  1   
 28  11  37  1   
 29  11  38  1   
 30  12  39  1   
 31  12  40  1   
 32  13  17  1   
 33  14  18  ar  
 34  14  19  ar  
 35  15  41  1   
 36  15  42  1   
 37  16  20  1   
 38  16  43  1   
 39  16  44  1   
 40  17  45  1   
 41  17  46  1   
 42  17  47  1   
 43  18  21  ar  
 44  19  20  1   
 45  19  22  ar  
 46  20  48  1   
 47  20  49  1   
 48  21  23  ar  
 49  21  24  1   
 50  22  23  ar  
 51  22  50  1   
 52  24  25  1   
 53  24  26  1   
 54  25  51  1   
 55  25  52  1   
 56  25  53  1   
 57  26  54  1   
 58  26  55  1   
 59  26  56  1   
@<TRIPOS>SUBSTRUCTURE
  1 ****   5 GROUP 4 **** **** 0

# MOE 2024.06 (io_trps.svl 2023.06)
