@<TRIPOS>MOLECULE
NONAME
43 45 1 0 0 
SMALL
USER_CHARGES


@<TRIPOS>ATOM
  1 F       -1.8560     0.2050    -1.6050 F     1 <1>  -0.1900 
  2 C       -2.3500    -0.6350    -0.7320 C.ar  1 <1>   0.1900 
  3 C       -2.6070    -0.2500     0.5870 C.ar  1 <1>   0.0820 
  4 C       -2.5990    -1.9150    -1.1930 C.ar  1 <1>  -0.1500 
  5 O       -2.3960     0.9810     1.1390 O.3   1 <1>  -0.3630 
  6 C       -3.1330    -1.2450     1.4040 C.ar  1 <1>   0.1900 
  7 C       -3.1220    -2.9010    -0.3530 C.ar  1 <1>   0.0860 
  8 C       -1.8880     2.0840     0.4220 C.3   1 <1>   0.0400 
  9 F       -3.4080    -0.9730     2.6540 F     1 <1>  -0.1900 
 10 C       -3.3910    -2.5300     0.9670 C.ar  1 <1>  -0.1500 
 11 C       -3.3730    -4.2430    -0.8470 C.2   1 <1>   0.5440 
 12 O       -3.5160    -4.4490    -2.0350 O.2   1 <1>  -0.5700 
 13 N       -3.4540    -5.3060     0.0050 N.am  1 <1>  -0.7300 
 14 C       -3.7090    -6.7080    -0.4000 C.3   1 <1>   0.2200 
 15 C       -5.1410    -7.0720    -0.0460 C.3   1 <1>  -0.0800 
 16 C       -2.9210    -7.6470     0.5040 C.3   1 <1>   0.1200 
 17 C       -5.0230    -7.4880     1.4270 C.3   1 <1>   0.1200 
 18 C       -5.6700    -8.2120    -0.9360 C.3   1 <1>  -0.0160 
 19 O       -3.6730    -7.7620     1.6740 O.3   1 <1>  -0.5600 
 20 C       -7.1150    -8.5520    -0.6010 C.ar  1 <1>  -0.1430 
 21 C       -8.1580    -7.7330    -0.9830 C.ar  1 <1>  -0.1500 
 22 C       -7.4590    -9.6920     0.0980 C.ar  1 <1>  -0.1500 
 23 C       -9.4570    -8.0790    -0.6510 C.ar  1 <1>   0.1600 
 24 C       -8.7910    -9.9460     0.3780 C.ar  1 <1>   0.1600 
 25 N       -9.7990    -9.1660     0.0220 N.ar  1 <1>  -0.6200 
 26 H       -2.3840    -2.1550    -2.2210 H     1 <1>   0.1500 
 27 H       -1.8340     2.9220     1.0930 H     1 <1>   0.0800 
 28 H       -2.5540     2.3120    -0.3910 H     1 <1>   0.0800 
 29 H       -0.9040     1.8450     0.0600 H     1 <1>   0.0800 
 30 H       -3.8090    -3.2360     1.6610 H     1 <1>   0.1500 
 31 H       -3.3000    -5.1920     1.0090 H     1 <1>   0.3700 
 32 H       -3.4750    -6.8510    -1.4420 H     1 <1>   0.0800 
 33 H       -5.7930    -6.2220    -0.1540 H     1 <1>   0.0800 
 34 H       -1.9390    -7.2740     0.7370 H     1 <1>   0.0800 
 35 H       -2.8440    -8.6260     0.0650 H     1 <1>   0.0800 
 36 H       -5.6030    -8.3620     1.6650 H     1 <1>   0.0800 
 37 H       -5.3140    -6.6810     2.0760 H     1 <1>   0.0800 
 38 H       -5.0570    -9.0890    -0.8250 H     1 <1>   0.0800 
 39 H       -5.6200    -7.9100    -1.9680 H     1 <1>   0.0800 
 40 H       -7.9730    -6.8300    -1.5350 H     1 <1>   0.1500 
 41 H       -6.7070   -10.3850     0.4280 H     1 <1>   0.1500 
 42 H      -10.2580    -7.4280    -0.9570 H     1 <1>   0.1500 
 43 H       -9.0410   -10.8390     0.9250 H     1 <1>   0.1500 
@<TRIPOS>BOND
  1   1   2  1   
  2   2   3  ar  
  3   2   4  ar  
  4   3   5  1   
  5   3   6  ar  
  6   4   7  ar  
  7   4  26  1   
  8   5   8  1   
  9   6   9  1   
 10   6  10  ar  
 11   7  10  ar  
 12   7  11  1   
 13   8  27  1   
 14   8  28  1   
 15   8  29  1   
 16  10  30  1   
 17  11  12  2   
 18  11  13  am  
 19  13  14  1   
 20  13  31  1   
 21  14  15  1   
 22  14  16  1   
 23  14  32  1   
 24  15  17  1   
 25  15  18  1   
 26  15  33  1   
 27  16  19  1   
 28  16  34  1   
 29  16  35  1   
 30  17  19  1   
 31  17  36  1   
 32  17  37  1   
 33  18  20  1   
 34  18  38  1   
 35  18  39  1   
 36  20  21  ar  
 37  20  22  ar  
 38  21  23  ar  
 39  21  40  1   
 40  22  24  ar  
 41  22  41  1   
 42  23  25  ar  
 43  23  42  1   
 44  24  25  ar  
 45  24  43  1   
@<TRIPOS>SUBSTRUCTURE
  1 ****  13 GROUP 4 **** **** 0

# MOE 2024.06 (io_trps.svl 2023.06)
