@<TRIPOS>MOLECULE
NONAME
44 46 1 0 0 
SMALL
USER_CHARGES


@<TRIPOS>ATOM
  1 F        0.4220     0.1320     0.5020 F     1 <1>  -0.1900 
  2 C        1.3550    -0.7320     0.1590 C.ar  1 <1>   0.1900 
  3 C        1.0960    -2.1030     0.1950 C.ar  1 <1>   0.4100 
  4 C        2.5940    -0.2830    -0.2330 C.ar  1 <1>   0.1660 
  5 N        2.0500    -2.9530    -0.1550 N.ar  1 <1>  -0.6200 
  6 N       -0.1310    -2.6400     0.5690 N.pl3 1 <1>  -0.8380 
  7 N        3.5410    -1.1410    -0.5790 N.ar  1 <1>  -0.6200 
  8 C        2.9530     1.1970    -0.2940 C.3   1 <1>  -0.0170 
  9 C        3.2050    -2.4190    -0.5130 C.ar  1 <1>   0.4700 
 10 C       -1.3790    -2.1680    -0.0930 C.3   1 <1>   0.2090 
 11 C       -0.3120    -4.0700     0.9300 C.3   1 <1>   0.2090 
 12 C        3.7390     1.6340     0.9490 C.3   1 <1>  -0.2400 
 13 C       -2.2880    -3.4000    -0.2500 C.3   1 <1>   0.2000 
 14 C       -1.3370    -4.5860    -0.0760 C.3   1 <1>  -0.0800 
 15 O       -3.2480    -3.4380     0.7720 O.3   1 <1>  -0.5600 
 16 C       -2.0080    -5.9040     0.3500 C.3   1 <1>   0.0200 
 17 C       -4.3870    -2.6680     0.5470 C.3   1 <1>   0.0400 
 18 C       -1.0510    -7.0850     0.3370 C.2   1 <1>  -0.0400 
 19 O       -1.4670    -8.2380     0.7890 O.3   1 <1>  -0.0190 
 20 C        0.2220    -7.2400    -0.0650 C.2   1 <1>  -0.1500 
 21 N       -0.5430    -9.1530     0.7140 N.2   1 <1>  -0.4100 
 22 C        0.4860    -8.5790     0.2040 C.2   1 <1>   0.1080 
 23 C        1.8020    -9.2730    -0.0650 C.3   1 <1>  -0.0590 
 24 H        3.5480     1.3740    -1.1730 H     1 <1>   0.0800 
 25 H        2.0640     1.7950    -0.3810 H     1 <1>   0.0800 
 26 H        3.9770    -3.1190    -0.7900 H     1 <1>   0.1500 
 27 H       -1.8490    -1.4050     0.5020 H     1 <1>   0.0800 
 28 H       -1.1360    -1.7700    -1.0630 H     1 <1>   0.0800 
 29 H        0.6060    -4.6290     0.8940 H     1 <1>   0.0800 
 30 H       -0.7110    -4.1230     1.9290 H     1 <1>   0.0800 
 31 H        4.6470     1.0630     1.0310 H     1 <1>   0.0800 
 32 H        3.1500     1.4760     1.8350 H     1 <1>   0.0800 
 33 H        3.9920     2.6770     0.8800 H     1 <1>   0.0800 
 34 H       -2.7870    -3.4260    -1.2030 H     1 <1>   0.0800 
 35 H       -0.8280    -4.7380    -1.0110 H     1 <1>   0.0800 
 36 H       -2.8230    -6.1210    -0.3160 H     1 <1>   0.0800 
 37 H       -2.4150    -5.8020     1.3410 H     1 <1>   0.0800 
 38 H       -5.0370    -2.7810     1.3970 H     1 <1>   0.0800 
 39 H       -4.8870    -3.0220    -0.3380 H     1 <1>   0.0800 
 40 H       -4.1120    -1.6340     0.4410 H     1 <1>   0.0800 
 41 H        0.9070    -6.5330    -0.4950 H     1 <1>   0.1500 
 42 H        2.0430    -9.2070    -1.1090 H     1 <1>   0.0800 
 43 H        1.7330   -10.3100     0.2120 H     1 <1>   0.0800 
 44 H        2.5820    -8.8100     0.5110 H     1 <1>   0.0800 
@<TRIPOS>BOND
  1   1   2  1   
  2   2   3  ar  
  3   2   4  ar  
  4   3   5  ar  
  5   3   6  1   
  6   4   7  ar  
  7   4   8  1   
  8   5   9  ar  
  9   6  10  1   
 10   6  11  1   
 11   7   9  ar  
 12   8  12  1   
 13   8  24  1   
 14   8  25  1   
 15   9  26  1   
 16  10  13  1   
 17  10  27  1   
 18  10  28  1   
 19  11  14  1   
 20  11  29  1   
 21  11  30  1   
 22  12  31  1   
 23  12  32  1   
 24  12  33  1   
 25  13  14  1   
 26  13  15  1   
 27  13  34  1   
 28  14  16  1   
 29  14  35  1   
 30  15  17  1   
 31  16  18  1   
 32  16  36  1   
 33  16  37  1   
 34  17  38  1   
 35  17  39  1   
 36  17  40  1   
 37  18  19  1   
 38  18  20  2   
 39  19  21  1   
 40  20  22  1   
 41  20  41  1   
 42  21  22  2   
 43  22  23  1   
 44  23  42  1   
 45  23  43  1   
 46  23  44  1   
@<TRIPOS>SUBSTRUCTURE
  1 ****  11 GROUP 4 **** **** 0

# MOE 2024.06 (io_trps.svl 2023.06)
