@<TRIPOS>MOLECULE
NONAME
50 51 1 0 0 
SMALL
USER_CHARGES


@<TRIPOS>ATOM
  1 O       -1.3100    -0.1140    -0.5910 O.2   1 <1>  -0.5700 
  2 C       -1.9620     0.5240     0.2040 C.2   1 <1>   0.5690 
  3 N       -2.9410    -0.0950     0.9440 N.am  1 <1>  -0.6600 
  4 C       -1.7030     2.0330     0.3270 C.3   1 <1>  -0.0190 
  5 C       -2.8830    -1.5760     1.1180 C.3   1 <1>   0.3200 
  6 C       -4.2240     0.5550     1.3540 C.3   1 <1>   0.1400 
  7 C       -2.4150     2.7970    -0.8110 C.3   1 <1>  -0.1600 
  8 C       -0.1880     2.3200     0.4000 C.3   1 <1>  -0.1600 
  9 C       -3.7080    -2.1980     0.0160 C.2   1 <1>  -0.3320 
 10 C       -5.2640     0.4510     0.2180 C.3   1 <1>   0.3430 
 11 C       -2.5900     4.2940    -0.5090 C.3   1 <1>  -0.1600 
 12 C        0.1910     3.8010     0.5620 C.3   1 <1>  -0.1600 
 13 N       -3.3520    -2.0930    -1.2770 N.pl3 1 <1>   0.0330 
 14 C       -4.8660    -2.8940     0.0430 C.2   1 <1>   0.0770 
 15 N       -6.5530     1.1610     0.5090 N.4   1 <1>  -0.9590 
 16 C       -1.4100     5.1780    -0.9390 C.3   1 <1>  -0.1600 
 17 C       -0.0010     4.6010    -0.7340 C.3   1 <1>  -0.1600 
 18 C       -4.3440    -2.6970    -1.9620 C.2   1 <1>   0.0360 
 19 N       -5.2810    -3.1740    -1.2050 N.2   1 <1>  -0.5650 
 20 C       -7.5830     0.7180    -0.4840 C.3   1 <1>   0.2630 
 21 C       -6.4060     2.6510     0.4790 C.3   1 <1>   0.2630 
 22 H       -2.1060     2.3550     1.2680 H     1 <1>   0.0800 
 23 H       -3.2680    -1.8510     2.0850 H     1 <1>   0.0800 
 24 H       -1.8630    -1.9210     1.0560 H     1 <1>   0.0800 
 25 H       -4.0500     1.5870     1.5940 H     1 <1>   0.0800 
 26 H       -4.5990     0.0660     2.2360 H     1 <1>   0.0800 
 27 H       -3.3930     2.3780    -0.9440 H     1 <1>   0.0800 
 28 H       -1.8880     2.6560    -1.7400 H     1 <1>   0.0800 
 29 H        0.2970     1.9280    -0.4780 H     1 <1>   0.0800 
 30 H        0.2120     1.7800     1.2400 H     1 <1>   0.0800 
 31 H       -5.4800    -0.5880     0.0500 H     1 <1>   0.0800 
 32 H       -4.8350     0.8430    -0.6890 H     1 <1>   0.0800 
 33 H       -2.7690     4.4360     0.5420 H     1 <1>   0.0800 
 34 H       -3.4630     4.6540    -1.0260 H     1 <1>   0.0800 
 35 H        1.2380     3.8380     0.8140 H     1 <1>   0.0800 
 36 H       -0.3460     4.2550     1.3770 H     1 <1>   0.0800 
 37 H       -2.5020    -1.6290    -1.6340 H     1 <1>   0.2700 
 38 H       -5.4420    -3.2020     0.9010 H     1 <1>   0.1500 
 39 H       -6.8820     0.8720     1.4440 H     1 <1>   0.4500 
 40 H       -1.4800     6.1090    -0.4030 H     1 <1>   0.0800 
 41 H       -1.5160     5.4150    -1.9840 H     1 <1>   0.0800 
 42 H        0.2600     3.9840    -1.5770 H     1 <1>   0.0800 
 43 H        0.6920     5.4250    -0.7340 H     1 <1>   0.0800 
 44 H       -4.3370    -2.7660    -3.0370 H     1 <1>   0.1500 
 45 H       -7.2880     0.9970    -1.4820 H     1 <1>   0.0800 
 46 H       -8.5360     1.1720    -0.2660 H     1 <1>   0.0800 
 47 H       -7.6980    -0.3550    -0.4510 H     1 <1>   0.0800 
 48 H       -6.0590     2.9740    -0.4890 H     1 <1>   0.0800 
 49 H       -5.7000     2.9780     1.2250 H     1 <1>   0.0800 
 50 H       -7.3550     3.1240     0.6780 H     1 <1>   0.0800 
@<TRIPOS>BOND
  1   1   2  2   
  2   2   3  am  
  3   2   4  1   
  4   3   5  1   
  5   3   6  1   
  6   4   7  1   
  7   4   8  1   
  8   4  22  1   
  9   5   9  1   
 10   5  23  1   
 11   5  24  1   
 12   6  10  1   
 13   6  25  1   
 14   6  26  1   
 15   7  11  1   
 16   7  27  1   
 17   7  28  1   
 18   8  12  1   
 19   8  29  1   
 20   8  30  1   
 21   9  13  1   
 22   9  14  2   
 23  10  15  1   
 24  10  31  1   
 25  10  32  1   
 26  11  16  1   
 27  11  33  1   
 28  11  34  1   
 29  12  17  1   
 30  12  35  1   
 31  12  36  1   
 32  13  18  1   
 33  13  37  1   
 34  14  19  1   
 35  14  38  1   
 36  15  20  1   
 37  15  21  1   
 38  15  39  1   
 39  16  17  1   
 40  16  40  1   
 41  16  41  1   
 42  17  42  1   
 43  17  43  1   
 44  18  19  2   
 45  18  44  1   
 46  20  45  1   
 47  20  46  1   
 48  20  47  1   
 49  21  48  1   
 50  21  49  1   
 51  21  50  1   
@<TRIPOS>SUBSTRUCTURE
  1 ****   2 GROUP 4 **** **** 0

# MOE 2024.06 (io_trps.svl 2023.06)
