@<TRIPOS>MOLECULE
NONAME
53 56 1 0 0 
SMALL
USER_CHARGES


@<TRIPOS>ATOM
  1 F       -1.2010    -0.8940    -1.1590 F     1 <1>  -0.1900 
  2 C       -2.3560    -1.2160    -0.6130 C.ar  1 <1>   0.1900 
  3 C       -3.2540    -0.2470    -0.1750 C.ar  1 <1>   0.4100 
  4 C       -2.6820    -2.5360    -0.4880 C.ar  1 <1>   0.1600 
  5 N       -4.4070    -0.6250     0.3430 N.ar  1 <1>  -0.6200 
  6 N       -3.0170     1.1210    -0.2540 N.pl3 1 <1>  -0.8380 
  7 N       -3.8310    -2.9190     0.0360 N.ar  1 <1>  -0.6200 
  8 C       -4.6370    -1.9290     0.4310 C.ar  1 <1>   0.7200 
  9 C       -1.8180     1.6980     0.4240 C.3   1 <1>   0.2090 
 10 C       -4.1730     2.0710    -0.2370 C.3   1 <1>   0.2090 
 11 N       -5.8480    -2.3020     0.9740 N.pl3 1 <1>  -0.8380 
 12 C       -1.5130     3.1090    -0.1120 C.3   1 <1>   0.1200 
 13 C       -3.7470     3.4660    -0.7290 C.3   1 <1>   0.1200 
 14 C       -6.0950    -3.7070     1.4110 C.3   1 <1>   0.2090 
 15 C       -7.0970    -1.6180     0.5330 C.3   1 <1>   0.2090 
 16 O       -2.6380     3.9390    -0.0130 O.3   1 <1>  -0.5600 
 17 C       -6.6300    -4.5170     0.2030 C.3   1 <1>   0.4230 
 18 C       -7.6900    -2.4000    -0.6500 C.3   1 <1>  -0.1600 
 19 N       -6.8080    -5.9900     0.4540 N.4   1 <1>  -0.9590 
 20 C       -7.9520    -3.8940    -0.3000 C.3   1 <1>  -0.1060 
 21 C       -7.1950    -6.7190    -0.7800 C.3   1 <1>   0.3430 
 22 C       -5.6870    -6.6450     1.1780 C.3   1 <1>   0.2630 
 23 C       -9.0100    -4.0140     0.8140 C.2   1 <1>   0.9060 
 24 C       -8.4180    -4.6320    -1.5780 C.3   1 <1>  -0.1600 
 25 C       -8.4940    -6.1500    -1.3540 C.3   1 <1>  -0.1600 
 26 O       -8.9510    -4.9770     1.5980 O.co2 1 <1>  -0.9000 
 27 O       -9.8920    -3.1620     0.9070 O.co2 1 <1>  -0.9000 
 28 H       -1.9920    -3.2890    -0.8250 H     1 <1>   0.1500 
 29 H       -2.0040     1.7580     1.4830 H     1 <1>   0.0800 
 30 H       -0.9590     1.0710     0.2730 H     1 <1>   0.0800 
 31 H       -4.9580     1.6940    -0.8700 H     1 <1>   0.0800 
 32 H       -4.5600     2.1460     0.7640 H     1 <1>   0.0800 
 33 H       -1.2120     3.0580    -1.1440 H     1 <1>   0.0800 
 34 H       -0.7220     3.5590     0.4590 H     1 <1>   0.0800 
 35 H       -4.5500     4.1680    -0.5920 H     1 <1>   0.0800 
 36 H       -3.4920     3.4310    -1.7740 H     1 <1>   0.0800 
 37 H       -5.1770    -4.1260     1.7780 H     1 <1>   0.0800 
 38 H       -6.8070    -3.7050     2.2180 H     1 <1>   0.0800 
 39 H       -7.8000    -1.5870     1.3500 H     1 <1>   0.0800 
 40 H       -6.8990    -0.6020     0.2360 H     1 <1>   0.0800 
 41 H       -5.8980    -4.4060    -0.5780 H     1 <1>   0.0800 
 42 H       -8.6140    -1.9290    -0.9400 H     1 <1>   0.0800 
 43 H       -7.0130    -2.3190    -1.4810 H     1 <1>   0.0800 
 44 H       -7.6640    -5.9770     1.0720 H     1 <1>   0.4500 
 45 H       -6.4090    -6.6290    -1.5120 H     1 <1>   0.0800 
 46 H       -7.3370    -7.7640    -0.5560 H     1 <1>   0.0800 
 47 H       -4.7750    -6.5550     0.6120 H     1 <1>   0.0800 
 48 H       -5.9070    -7.6890     1.3310 H     1 <1>   0.0800 
 49 H       -5.5490    -6.1840     2.1420 H     1 <1>   0.0800 
 50 H       -9.3890    -4.2630    -1.8670 H     1 <1>   0.0800 
 51 H       -7.7350    -4.4300    -2.3850 H     1 <1>   0.0800 
 52 H       -8.7120    -6.6380    -2.2870 H     1 <1>   0.0800 
 53 H       -9.3040    -6.3780    -0.6810 H     1 <1>   0.0800 
@<TRIPOS>BOND
  1   1   2  1   
  2   2   3  ar  
  3   2   4  ar  
  4   3   5  ar  
  5   3   6  1   
  6   4   7  ar  
  7   4  28  1   
  8   5   8  ar  
  9   6   9  1   
 10   6  10  1   
 11   7   8  ar  
 12   8  11  1   
 13   9  12  1   
 14   9  29  1   
 15   9  30  1   
 16  10  13  1   
 17  10  31  1   
 18  10  32  1   
 19  11  14  1   
 20  11  15  1   
 21  12  16  1   
 22  12  33  1   
 23  12  34  1   
 24  13  16  1   
 25  13  35  1   
 26  13  36  1   
 27  14  17  1   
 28  14  37  1   
 29  14  38  1   
 30  15  18  1   
 31  15  39  1   
 32  15  40  1   
 33  17  19  1   
 34  17  20  1   
 35  17  41  1   
 36  18  20  1   
 37  18  42  1   
 38  18  43  1   
 39  19  21  1   
 40  19  22  1   
 41  19  44  1   
 42  20  23  1   
 43  20  24  1   
 44  21  25  1   
 45  21  45  1   
 46  21  46  1   
 47  22  47  1   
 48  22  48  1   
 49  22  49  1   
 50  23  26  ar  
 51  23  27  ar  
 52  24  25  1   
 53  24  50  1   
 54  24  51  1   
 55  25  52  1   
 56  25  53  1   
@<TRIPOS>SUBSTRUCTURE
  1 ****   8 GROUP 4 **** **** 0

# MOE 2024.06 (io_trps.svl 2023.06)
