@<TRIPOS>MOLECULE
NONAME
44 45 1 0 0 
SMALL
USER_CHARGES


@<TRIPOS>ATOM
  1 S       -0.1410     0.1380    -0.5140 S.o2  1 <1>   1.3330 
  2 O       -0.6480    -0.2240     0.7900 O.2   1 <1>  -0.6500 
  3 O       -0.6550     1.3140    -1.1780 O.2   1 <1>  -0.6500 
  4 N       -0.3600    -1.1940    -1.5430 N.am  1 <1>  -0.8490 
  5 C        1.6460     0.2900    -0.4520 C.3   1 <1>  -0.0550 
  6 C       -0.2820    -2.4850    -0.8490 C.3   1 <1>   0.1160 
  7 C       -1.6120    -1.1120    -2.3020 C.3   1 <1>   0.1160 
  8 C        2.1400     1.4990     0.3700 C.3   1 <1>  -0.0800 
  9 C        3.6370     1.7010     0.1990 C.3   1 <1>   0.2200 
 10 C        2.0220     1.2550     1.8790 C.3   1 <1>   0.1200 
 11 N        3.9840     3.1010     0.5280 N.am  1 <1>  -0.7300 
 12 C        4.1980     0.7780     1.2740 C.3   1 <1>   0.1200 
 13 O        3.2640     0.7820     2.3130 O.3   1 <1>  -0.5600 
 14 C        4.6490     3.9730    -0.2800 C.2   1 <1>   0.7160 
 15 O        4.9290     3.6140    -1.4080 O.2   1 <1>  -0.5700 
 16 C        5.0070     5.2740     0.2350 C.2   1 <1>  -0.0860 
 17 C        5.7510     6.2810    -0.3980 C.2   1 <1>   0.1080 
 18 C        4.7160     5.8320     1.4460 C.2   1 <1>  -0.3020 
 19 N        5.9010     7.3340     0.3400 N.2   1 <1>  -0.7070 
 20 C        6.3440     6.2080    -1.7890 C.3   1 <1>  -0.0590 
 21 N        5.2590     7.0560     1.4800 N.pl3 1 <1>   0.3140 
 22 C        5.2080     8.0280     2.5760 C.3   1 <1>   0.0160 
 23 H        2.0670    -0.6120    -0.0540 H     1 <1>   0.0800 
 24 H        1.9980     0.3980    -1.4590 H     1 <1>   0.0800 
 25 H       -0.3330    -3.2910    -1.5620 H     1 <1>   0.0800 
 26 H       -1.0940    -2.5850    -0.1480 H     1 <1>   0.0800 
 27 H        0.6480    -2.5640    -0.3130 H     1 <1>   0.0800 
 28 H       -1.7110    -1.9630    -2.9530 H     1 <1>   0.0800 
 29 H       -1.6170    -0.2220    -2.9090 H     1 <1>   0.0800 
 30 H       -2.4550    -1.0770    -1.6310 H     1 <1>   0.0800 
 31 H        1.5930     2.3760     0.0650 H     1 <1>   0.0800 
 32 H        3.9930     1.4410    -0.7840 H     1 <1>   0.0800 
 33 H        1.2670     0.5350     2.1440 H     1 <1>   0.0800 
 34 H        1.8270     2.1770     2.3990 H     1 <1>   0.0800 
 35 H        3.8320     3.3660     1.5010 H     1 <1>   0.3700 
 36 H        5.1540     1.1040     1.6440 H     1 <1>   0.0800 
 37 H        4.2740    -0.2310     0.9090 H     1 <1>   0.0800 
 38 H        4.1570     5.4230     2.2650 H     1 <1>   0.1500 
 39 H        7.0170     5.3730    -1.8560 H     1 <1>   0.0800 
 40 H        6.8850     7.1100    -2.0070 H     1 <1>   0.0800 
 41 H        5.5600     6.0880    -2.5140 H     1 <1>   0.0800 
 42 H        4.6580     7.6170     3.4010 H     1 <1>   0.0800 
 43 H        4.7270     8.9220     2.2250 H     1 <1>   0.0800 
 44 H        6.2110     8.2580     2.8820 H     1 <1>   0.0800 
@<TRIPOS>BOND
  1   1   2  2   
  2   1   3  2   
  3   1   4  am  
  4   1   5  1   
  5   4   6  1   
  6   4   7  1   
  7   5   8  1   
  8   5  23  1   
  9   5  24  1   
 10   6  25  1   
 11   6  26  1   
 12   6  27  1   
 13   7  28  1   
 14   7  29  1   
 15   7  30  1   
 16   8   9  1   
 17   8  10  1   
 18   8  31  1   
 19   9  11  1   
 20   9  12  1   
 21   9  32  1   
 22  10  13  1   
 23  10  33  1   
 24  10  34  1   
 25  11  14  am  
 26  11  35  1   
 27  12  13  1   
 28  12  36  1   
 29  12  37  1   
 30  14  15  2   
 31  14  16  1   
 32  16  17  1   
 33  16  18  2   
 34  17  19  2   
 35  17  20  1   
 36  18  21  1   
 37  18  38  1   
 38  19  21  1   
 39  20  39  1   
 40  20  40  1   
 41  20  41  1   
 42  21  22  1   
 43  22  42  1   
 44  22  43  1   
 45  22  44  1   
@<TRIPOS>SUBSTRUCTURE
  1 ****  11 GROUP 4 **** **** 0

# MOE 2024.06 (io_trps.svl 2023.06)
