@<TRIPOS>MOLECULE
NONAME
40 42 1 0 0 
SMALL
USER_CHARGES


@<TRIPOS>ATOM
  1 F       -2.3430    -0.9900    -1.4440 F     1 <1>  -0.1900 
  2 C       -2.4300     0.0040    -0.6040 C.ar  1 <1>   0.1900 
  3 C       -2.8340    -0.2430     0.7110 C.ar  1 <1>   0.0860 
  4 C       -2.1060     1.2640    -1.0800 C.ar  1 <1>  -0.1500 
  5 C       -3.1750    -1.5620     1.1950 C.2   1 <1>   0.5440 
  6 C       -2.8850     0.8590     1.5660 C.ar  1 <1>  -0.1500 
  7 C       -2.1750     2.3450    -0.2170 C.ar  1 <1>  -0.1500 
  8 O       -2.5680    -2.0220     2.1420 O.2   1 <1>  -0.5700 
  9 N       -4.1980    -2.3000     0.6500 N.am  1 <1>  -0.6600 
 10 C       -2.5630     2.1150     1.0910 C.ar  1 <1>   0.1900 
 11 C       -5.2100    -1.8110    -0.3200 C.3   1 <1>   0.1400 
 12 C       -4.5540    -3.6610     1.1280 C.3   1 <1>   0.1400 
 13 F       -2.6260     3.1300     1.9100 F     1 <1>  -0.1900 
 14 C       -6.3950    -2.7620    -0.1490 C.3   1 <1>   0.2000 
 15 C       -5.7600    -4.0870     0.2800 C.3   1 <1>  -0.0800 
 16 O       -7.1780    -2.2960     0.8950 O.3   1 <1>  -0.6800 
 17 C       -5.3240    -4.9110    -0.9460 C.3   1 <1>   0.0210 
 18 C       -4.6980    -6.2300    -0.5360 C.2   1 <1>   0.1080 
 19 N       -5.3760    -7.1880     0.0140 N.2   1 <1>  -0.7070 
 20 C       -3.3550    -6.5570    -0.6900 C.2   1 <1>  -0.1500 
 21 N       -4.4740    -8.1630     0.2280 N.pl3 1 <1>   0.3000 
 22 C       -3.2410    -7.8040    -0.1890 C.2   1 <1>  -0.3320 
 23 C       -2.0120    -8.6870    -0.0800 C.3   1 <1>  -0.0600 
 24 H       -1.8030     1.3930    -2.1050 H     1 <1>   0.1500 
 25 H       -3.1730     0.7270     2.5950 H     1 <1>   0.1500 
 26 H       -1.9320     3.3420    -0.5430 H     1 <1>   0.1500 
 27 H       -5.4910    -0.7890    -0.1330 H     1 <1>   0.0800 
 28 H       -4.8130    -1.9010    -1.3160 H     1 <1>   0.0800 
 29 H       -3.7150    -4.3290     1.0290 H     1 <1>   0.0800 
 30 H       -4.8280    -3.6070     2.1680 H     1 <1>   0.0800 
 31 H       -7.0140    -2.8360    -1.0280 H     1 <1>   0.0800 
 32 H       -6.4480    -4.6820     0.8570 H     1 <1>   0.0800 
 33 H       -6.6160    -2.1950     1.6890 H     1 <1>   0.4000 
 34 H       -4.6190    -4.3590    -1.5420 H     1 <1>   0.0800 
 35 H       -6.1820    -5.1280    -1.5570 H     1 <1>   0.0800 
 36 H       -2.5930    -5.9280    -1.1160 H     1 <1>   0.1500 
 37 H       -4.7300    -9.0590     0.6610 H     1 <1>   0.2700 
 38 H       -1.1540    -8.1760    -0.4790 H     1 <1>   0.0800 
 39 H       -2.1570    -9.5980    -0.6340 H     1 <1>   0.0800 
 40 H       -1.8170    -8.9280     0.9500 H     1 <1>   0.0800 
@<TRIPOS>BOND
  1   1   2  1   
  2   2   3  ar  
  3   2   4  ar  
  4   3   5  1   
  5   3   6  ar  
  6   4   7  ar  
  7   4  24  1   
  8   5   8  2   
  9   5   9  am  
 10   6  10  ar  
 11   6  25  1   
 12   7  10  ar  
 13   7  26  1   
 14   9  11  1   
 15   9  12  1   
 16  10  13  1   
 17  11  14  1   
 18  11  27  1   
 19  11  28  1   
 20  12  15  1   
 21  12  29  1   
 22  12  30  1   
 23  14  15  1   
 24  14  16  1   
 25  14  31  1   
 26  15  17  1   
 27  15  32  1   
 28  16  33  1   
 29  17  18  1   
 30  17  34  1   
 31  17  35  1   
 32  18  19  2   
 33  18  20  1   
 34  19  21  1   
 35  20  22  2   
 36  20  36  1   
 37  21  22  1   
 38  21  37  1   
 39  22  23  1   
 40  23  38  1   
 41  23  39  1   
 42  23  40  1   
@<TRIPOS>SUBSTRUCTURE
  1 ****   9 GROUP 4 **** **** 0

# MOE 2024.06 (io_trps.svl 2023.06)
