@<TRIPOS>MOLECULE
NONAME
38 40 1 0 0 
SMALL
USER_CHARGES


@<TRIPOS>ATOM
  1 O       -1.5060     0.6190     2.8310 O.2   1 <1>  -0.5700 
  2 C       -1.7820     0.9450     1.6890 C.2   1 <1>   0.5440 
  3 N       -2.3410     0.0090     0.8450 N.am  1 <1>  -0.6600 
  4 C       -1.5600     2.3160     1.2830 C.ar  1 <1>   0.0860 
  5 C       -2.5410    -1.4150     1.2870 C.3   1 <1>   0.1400 
  6 C       -2.7930     0.3010    -0.5450 C.3   1 <1>   0.1400 
  7 C       -0.6050     2.6680     0.3260 C.ar  1 <1>   0.0820 
  8 C       -2.3210     3.3390     1.8530 C.ar  1 <1>  -0.1500 
  9 C       -3.6330    -2.1680     0.4980 C.3   1 <1>   0.2000 
 10 C       -4.2910    -0.0010    -0.7060 C.3   1 <1>  -0.1600 
 11 O        0.1530     1.7010    -0.2500 O.3   1 <1>  -0.3630 
 12 C       -0.4340     4.0050    -0.0450 C.ar  1 <1>   0.0820 
 13 C       -2.1570     4.6600     1.4800 C.ar  1 <1>  -0.1500 
 14 O       -3.1000    -2.7140    -0.6600 O.3   1 <1>  -0.6800 
 15 C       -4.7800    -1.2280     0.1070 C.3   1 <1>  -0.1860 
 16 C        0.8870     2.0260    -1.4120 C.3   1 <1>   0.1200 
 17 O        0.4950     4.3670    -0.9650 O.3   1 <1>  -0.3630 
 18 C       -1.2120     4.9950     0.5250 C.ar  1 <1>  -0.1500 
 19 C       -5.8780    -1.9980    -0.6020 C.2   1 <1>   0.9060 
 20 C        1.5030     3.4220    -1.2680 C.3   1 <1>   0.1200 
 21 O       -7.0320    -1.9150    -0.1770 O.co2 1 <1>  -0.9000 
 22 O       -5.5720    -2.6960    -1.5790 O.co2 1 <1>  -0.9000 
 23 H       -1.6100    -1.9480     1.2140 H     1 <1>   0.0800 
 24 H       -2.8340    -1.4040     2.3220 H     1 <1>   0.0800 
 25 H       -2.6050     1.3220    -0.8190 H     1 <1>   0.0800 
 26 H       -2.2300    -0.3250    -1.2160 H     1 <1>   0.0800 
 27 H       -3.0520     3.0770     2.5990 H     1 <1>   0.1500 
 28 H       -4.0110    -2.9880     1.0850 H     1 <1>   0.0800 
 29 H       -4.8660     0.8600    -0.4180 H     1 <1>   0.0800 
 30 H       -4.4790    -0.1700    -1.7530 H     1 <1>   0.0800 
 31 H       -2.7600     5.4290     1.9330 H     1 <1>   0.1500 
 32 H       -3.8900    -2.8900    -1.2540 H     1 <1>   0.4000 
 33 H       -5.2060    -0.8620     1.0220 H     1 <1>   0.0800 
 34 H        1.6500     1.2810    -1.5410 H     1 <1>   0.0800 
 35 H        0.2150     1.9950    -2.2510 H     1 <1>   0.0800 
 36 H       -1.0720     6.0180     0.2260 H     1 <1>   0.1500 
 37 H        1.9810     3.7270    -2.1810 H     1 <1>   0.0800 
 38 H        2.2230     3.4330    -0.4690 H     1 <1>   0.0800 
@<TRIPOS>BOND
  1   1   2  2   
  2   2   3  am  
  3   2   4  1   
  4   3   5  1   
  5   3   6  1   
  6   4   7  ar  
  7   4   8  ar  
  8   5   9  1   
  9   5  23  1   
 10   5  24  1   
 11   6  10  1   
 12   6  25  1   
 13   6  26  1   
 14   7  11  1   
 15   7  12  ar  
 16   8  13  ar  
 17   8  27  1   
 18   9  14  1   
 19   9  15  1   
 20   9  28  1   
 21  10  15  1   
 22  10  29  1   
 23  10  30  1   
 24  11  16  1   
 25  12  17  1   
 26  12  18  ar  
 27  13  18  ar  
 28  13  31  1   
 29  14  32  1   
 30  15  19  1   
 31  15  33  1   
 32  16  20  1   
 33  16  34  1   
 34  16  35  1   
 35  17  20  1   
 36  18  36  1   
 37  19  21  ar  
 38  19  22  ar  
 39  20  37  1   
 40  20  38  1   
@<TRIPOS>SUBSTRUCTURE
  1 ****   6 GROUP 4 **** **** 0

# MOE 2024.06 (io_trps.svl 2023.06)
