@<TRIPOS>MOLECULE
NONAME
46 48 1 0 0 
SMALL
USER_CHARGES


@<TRIPOS>ATOM
  1 O       -1.0680     0.4350     0.5120 O.2   1 <1>  -0.5700 
  2 C       -0.0800    -0.1020     0.9570 C.2   1 <1>   0.5690 
  3 N        1.1180     0.5330     1.1420 N.am  1 <1>  -0.4940 
  4 C       -0.1480    -1.5950     1.2810 C.3   1 <1>   0.2610 
  5 C        1.6100     1.8110     0.7830 C.2   1 <1>  -0.0880 
  6 O        0.9460    -1.9400     2.1230 O.3   1 <1>  -0.2170 
  7 C        0.0870    -2.4570     0.0410 C.3   1 <1>  -0.0990 
  8 N        0.9230     2.9790     0.6480 N.pl3 1 <1>   0.3140 
  9 C        2.9020     2.1030     0.5150 C.2   1 <1>  -0.1810 
 10 N        1.9000    -2.5560     1.4500 N.2   1 <1>  -0.5130 
 11 C        1.5030    -2.8780     0.3020 C.2   1 <1>   0.3280 
 12 N        1.7360     3.9930     0.2980 N.2   1 <1>  -0.7070 
 13 C       -0.4960     3.2500     0.9160 C.3   1 <1>   0.0160 
 14 C        2.9330     3.4730     0.2220 C.2   1 <1>   0.2350 
 15 C        4.0880     1.1500     0.5010 C.3   1 <1>  -0.0590 
 16 C        2.2860    -3.6050    -0.7940 C.3   1 <1>  -0.0190 
 17 C        4.1090     4.2370    -0.1330 C.ar  1 <1>   0.0540 
 18 C        1.7400    -5.0230    -1.0170 C.3   1 <1>  -0.2400 
 19 C        3.7900    -3.6760    -0.4850 C.3   1 <1>  -0.2400 
 20 C        5.2560     4.2310     0.6590 C.ar  1 <1>  -0.1500 
 21 C        4.1270     5.0120    -1.2890 C.ar  1 <1>  -0.1500 
 22 C        6.3810     4.9520     0.3010 C.ar  1 <1>  -0.1500 
 23 C        5.2470     5.7370    -1.6550 C.ar  1 <1>  -0.1500 
 24 C        6.3790     5.7050    -0.8600 C.ar  1 <1>  -0.1500 
 25 H        1.8330    -0.1040     1.5170 H     1 <1>   0.3700 
 26 H       -1.0650    -1.8370     1.7850 H     1 <1>   0.0800 
 27 H       -0.0140    -1.8950    -0.8700 H     1 <1>   0.0800 
 28 H       -0.5730    -3.3050     0.0330 H     1 <1>   0.0800 
 29 H       -0.8060     2.6980     1.7830 H     1 <1>   0.0800 
 30 H       -1.0750     2.9520     0.0640 H     1 <1>   0.0800 
 31 H       -0.6270     4.3010     1.0920 H     1 <1>   0.0800 
 32 H        3.7570     0.1290     0.4420 H     1 <1>   0.0800 
 33 H        4.6680     1.2730     1.3970 H     1 <1>   0.0800 
 34 H        4.7120     1.3540    -0.3500 H     1 <1>   0.0800 
 35 H        2.1680    -3.0460    -1.7070 H     1 <1>   0.0800 
 36 H        1.8200    -5.6000    -0.1120 H     1 <1>   0.0800 
 37 H        2.2970    -5.5210    -1.7910 H     1 <1>   0.0800 
 38 H        0.7070    -4.9910    -1.3150 H     1 <1>   0.0800 
 39 H        3.9620    -4.2360     0.4190 H     1 <1>   0.0800 
 40 H        4.1880    -2.6860    -0.3510 H     1 <1>   0.0800 
 41 H        4.3210    -4.1500    -1.2910 H     1 <1>   0.0800 
 42 H        5.2580     3.6590     1.5690 H     1 <1>   0.1500 
 43 H        3.2410     5.0400    -1.9000 H     1 <1>   0.1500 
 44 H        7.2570     4.9320     0.9260 H     1 <1>   0.1500 
 45 H        5.2360     6.3260    -2.5550 H     1 <1>   0.1500 
 46 H        7.2520     6.2670    -1.1420 H     1 <1>   0.1500 
@<TRIPOS>BOND
  1   1   2  2   
  2   2   3  am  
  3   2   4  1   
  4   3   5  1   
  5   3  25  1   
  6   4   6  1   
  7   4   7  1   
  8   4  26  1   
  9   5   8  1   
 10   5   9  2   
 11   6  10  1   
 12   7  11  1   
 13   7  27  1   
 14   7  28  1   
 15   8  12  1   
 16   8  13  1   
 17   9  14  1   
 18   9  15  1   
 19  10  11  2   
 20  11  16  1   
 21  12  14  2   
 22  13  29  1   
 23  13  30  1   
 24  13  31  1   
 25  14  17  1   
 26  15  32  1   
 27  15  33  1   
 28  15  34  1   
 29  16  18  1   
 30  16  19  1   
 31  16  35  1   
 32  17  20  ar  
 33  17  21  ar  
 34  18  36  1   
 35  18  37  1   
 36  18  38  1   
 37  19  39  1   
 38  19  40  1   
 39  19  41  1   
 40  20  22  ar  
 41  20  42  1   
 42  21  23  ar  
 43  21  43  1   
 44  22  24  ar  
 45  22  44  1   
 46  23  24  ar  
 47  23  45  1   
 48  24  46  1   
@<TRIPOS>SUBSTRUCTURE
  1 ****   9 GROUP 4 **** **** 0

# MOE 2024.06 (io_trps.svl 2023.06)
