@<TRIPOS>MOLECULE
NONAME
56 59 1 0 0 
SMALL
USER_CHARGES


@<TRIPOS>ATOM
  1 O       -2.2590     0.5630     2.7610 O.2   1 <1>  -0.5700 
  2 C       -2.4460     1.1880     1.7350 C.2   1 <1>   0.5440 
  3 N       -3.1250     0.5850     0.7040 N.am  1 <1>  -0.6600 
  4 C       -1.9350     2.5380     1.5970 C.ar  1 <1>   0.0860 
  5 C       -3.2340     1.1340    -0.6720 C.3   1 <1>   0.1400 
  6 C       -3.5460    -0.8390     0.7290 C.3   1 <1>   0.1400 
  7 C       -0.5680     2.8230     1.4830 C.ar  1 <1>  -0.1440 
  8 C       -2.8360     3.6030     1.5680 C.ar  1 <1>  -0.1500 
  9 C       -3.9970     0.0680    -1.4600 C.3   1 <1>   0.2000 
 10 C       -3.6700    -1.2450    -0.7450 C.3   1 <1>  -0.0800 
 11 C       -0.1470     4.1380     1.3400 C.ar  1 <1>  -0.1500 
 12 C        0.4840     1.7100     1.5280 C.3   1 <1>   0.1270 
 13 C       -2.4090     4.9080     1.4220 C.ar  1 <1>  -0.1500 
 14 O       -5.3540     0.3120    -1.3190 O.3   1 <1>  -0.6800 
 15 C       -2.3540    -1.8480    -1.2730 C.3   1 <1>   0.0210 
 16 C       -1.0590     5.1770     1.3060 C.ar  1 <1>  -0.1500 
 17 C        1.5510     1.8830     0.4530 C.ar  1 <1>  -0.1430 
 18 C       -2.0320    -3.1600    -0.5860 C.2   1 <1>   0.1080 
 19 C        2.8780     2.0880     0.7970 C.ar  1 <1>  -0.1500 
 20 C        1.2020     1.8370    -0.8880 C.ar  1 <1>  -0.1500 
 21 N       -2.7280    -4.2380    -0.7720 N.2   1 <1>  -0.7070 
 22 C       -0.9860    -3.3570     0.3090 C.2   1 <1>  -0.1500 
 23 C        3.8410     2.2460    -0.1850 C.ar  1 <1>  -0.1500 
 24 C        2.1640     1.9950    -1.8700 C.ar  1 <1>  -0.1500 
 25 N       -2.1360    -5.1630     0.0060 N.pl3 1 <1>   0.3000 
 26 C       -1.0790    -4.6530     0.6730 C.2   1 <1>  -0.3320 
 27 C        3.4890     2.2020    -1.5240 C.ar  1 <1>  -0.1430 
 28 C       -0.2110    -5.4450     1.6320 C.3   1 <1>  -0.0600 
 29 C        4.5470     2.3760    -2.5990 C.3   1 <1>  -0.0970 
 30 H       -3.7480     2.0800    -0.6860 H     1 <1>   0.0800 
 31 H       -2.2460     1.2570    -1.0800 H     1 <1>   0.0800 
 32 H       -2.8380    -1.4450     1.2690 H     1 <1>   0.0800 
 33 H       -4.5020    -0.9110     1.2180 H     1 <1>   0.0800 
 34 H       -3.8870     3.3950     1.6640 H     1 <1>   0.1500 
 35 H       -3.7630     0.0650    -2.5100 H     1 <1>   0.0800 
 36 H       -4.4520    -1.9710    -0.8830 H     1 <1>   0.0800 
 37 H        0.9030     4.3640     1.2530 H     1 <1>   0.1500 
 38 H        0.9380     1.7120     2.5030 H     1 <1>   0.0800 
 39 H        0.0420     0.7410     1.3900 H     1 <1>   0.0800 
 40 H       -3.1220     5.7150     1.4010 H     1 <1>   0.1500 
 41 H       -5.5690     0.3680    -0.3670 H     1 <1>   0.4000 
 42 H       -1.5370    -1.1640    -1.1260 H     1 <1>   0.0800 
 43 H       -2.4450    -2.0400    -2.3270 H     1 <1>   0.0800 
 44 H       -0.7160     6.1910     1.1930 H     1 <1>   0.1500 
 45 H        3.1720     2.1260     1.8310 H     1 <1>   0.1500 
 46 H        0.1770     1.6830    -1.1710 H     1 <1>   0.1500 
 47 H       -0.2740    -2.6160     0.6270 H     1 <1>   0.1500 
 48 H        4.8660     2.4030     0.0980 H     1 <1>   0.1500 
 49 H        1.8770     1.9570    -2.9060 H     1 <1>   0.1500 
 50 H       -2.4780    -6.1300     0.0610 H     1 <1>   0.2700 
 51 H        0.5620    -4.8160     2.0370 H     1 <1>   0.0800 
 52 H        0.2530    -6.2710     1.1210 H     1 <1>   0.0800 
 53 H       -0.8040    -5.8230     2.4460 H     1 <1>   0.0800 
 54 H        5.3260     3.0320    -2.2560 H     1 <1>   0.0800 
 55 H        4.1150     2.8000    -3.4880 H     1 <1>   0.0800 
 56 H        4.9770     1.4220    -2.8430 H     1 <1>   0.0800 
@<TRIPOS>BOND
  1   1   2  2   
  2   2   3  am  
  3   2   4  1   
  4   3   5  1   
  5   3   6  1   
  6   4   7  ar  
  7   4   8  ar  
  8   5   9  1   
  9   5  30  1   
 10   5  31  1   
 11   6  10  1   
 12   6  32  1   
 13   6  33  1   
 14   7  11  ar  
 15   7  12  1   
 16   8  13  ar  
 17   8  34  1   
 18   9  10  1   
 19   9  14  1   
 20   9  35  1   
 21  10  15  1   
 22  10  36  1   
 23  11  16  ar  
 24  11  37  1   
 25  12  17  1   
 26  12  38  1   
 27  12  39  1   
 28  13  16  ar  
 29  13  40  1   
 30  14  41  1   
 31  15  18  1   
 32  15  42  1   
 33  15  43  1   
 34  16  44  1   
 35  17  19  ar  
 36  17  20  ar  
 37  18  21  2   
 38  18  22  1   
 39  19  23  ar  
 40  19  45  1   
 41  20  24  ar  
 42  20  46  1   
 43  21  25  1   
 44  22  26  2   
 45  22  47  1   
 46  23  27  ar  
 47  23  48  1   
 48  24  27  ar  
 49  24  49  1   
 50  25  26  1   
 51  25  50  1   
 52  26  28  1   
 53  27  29  1   
 54  28  51  1   
 55  28  52  1   
 56  28  53  1   
 57  29  54  1   
 58  29  55  1   
 59  29  56  1   
@<TRIPOS>SUBSTRUCTURE
  1 ****   3 GROUP 4 **** **** 0

# MOE 2024.06 (io_trps.svl 2023.06)
