@<TRIPOS>MOLECULE
NONAME
55 59 1 0 0 
SMALL
USER_CHARGES


@<TRIPOS>ATOM
  1 F       -0.5870    -0.5930     0.6610 F     1 <1>  -0.3400 
  2 C        0.5840    -1.1710     0.8420 C.3   1 <1>   0.6800 
  3 F        1.2660    -0.3500     1.6250 F     1 <1>  -0.3400 
  4 C        1.3130    -1.2940    -0.4840 C.3   1 <1>  -0.1600 
  5 C        0.4040    -2.4940     1.5640 C.3   1 <1>  -0.1600 
  6 C        2.6610    -1.9590    -0.2390 C.3   1 <1>   0.3430 
  7 C        1.7720    -3.1320     1.7610 C.3   1 <1>   0.3430 
  8 N        2.4740    -3.2850     0.4400 N.4   1 <1>  -0.9590 
  9 C        3.8010    -3.9680     0.5860 C.3   1 <1>   0.3430 
 10 C        3.6610    -5.4700     0.8990 C.3   1 <1>  -0.0800 
 11 C        3.0850    -6.2390    -0.3020 C.3   1 <1>   0.2000 
 12 C        4.9990    -6.2380     1.0960 C.3   1 <1>  -0.0800 
 13 O        4.2480    -6.5750    -0.9570 O.3   1 <1>  -0.5600 
 14 C        2.5600    -7.6180     0.1180 C.3   1 <1>  -0.1600 
 15 C        4.8920    -7.3080     0.0200 C.3   1 <1>   0.2800 
 16 C        6.3190    -5.5540     0.7110 C.3   1 <1>   0.3430 
 17 C        3.8610    -8.3880     0.3490 C.3   1 <1>  -0.1600 
 18 C        6.3190    -7.7010    -0.3800 C.3   1 <1>   0.3430 
 19 N        7.2110    -6.6320     0.1840 N.4   1 <1>  -0.9590 
 20 C        8.2160    -6.1490    -0.8110 C.3   1 <1>   0.4860 
 21 C        8.9150    -4.9200    -0.2570 C.ar  1 <1>  -0.1440 
 22 C        8.7710    -3.6830    -0.8570 C.ar  1 <1>  -0.1500 
 23 C        9.7190    -4.9670     0.8680 C.ar  1 <1>  -0.1500 
 24 C        9.3950    -2.5780    -0.3020 C.ar  1 <1>   0.1600 
 25 C       10.2950    -3.8000     1.3430 C.ar  1 <1>   0.1600 
 26 N       10.1350    -2.6110     0.7910 N.ar  1 <1>  -0.6200 
 27 H        0.7330    -1.8820    -1.1720 H     1 <1>   0.0800 
 28 H        1.4560    -0.3150    -0.9070 H     1 <1>   0.0800 
 29 H       -0.0630    -2.3220     2.5170 H     1 <1>   0.0800 
 30 H       -0.2250    -3.1470     0.9870 H     1 <1>   0.0800 
 31 H        3.2660    -1.3130     0.3800 H     1 <1>   0.0800 
 32 H        3.1670    -2.0910    -1.1830 H     1 <1>   0.0800 
 33 H        1.6460    -4.0930     2.2350 H     1 <1>   0.0800 
 34 H        2.3610    -2.5090     2.4170 H     1 <1>   0.0800 
 35 H        1.8800    -3.8600    -0.1760 H     1 <1>   0.4500 
 36 H        4.3530    -3.8650    -0.3350 H     1 <1>   0.0800 
 37 H        4.3640    -3.4850     1.3690 H     1 <1>   0.0800 
 38 H        3.0400    -5.6060     1.7670 H     1 <1>   0.0800 
 39 H        2.4180    -5.6950    -0.9480 H     1 <1>   0.0800 
 40 H        5.0790    -6.6760     2.0760 H     1 <1>   0.0800 
 41 H        1.9400    -7.5750     0.9970 H     1 <1>   0.0800 
 42 H        1.9960    -8.0580    -0.6870 H     1 <1>   0.0800 
 43 H        6.7710    -5.0440     1.5480 H     1 <1>   0.0800 
 44 H        6.1370    -4.8430    -0.0780 H     1 <1>   0.0800 
 45 H        3.9410    -9.2140    -0.3380 H     1 <1>   0.0800 
 46 H        3.9560    -8.7520     1.3580 H     1 <1>   0.0800 
 47 H        6.3880    -7.7640    -1.4540 H     1 <1>   0.0800 
 48 H        6.5720    -8.6550     0.0520 H     1 <1>   0.0800 
 49 H        7.7350    -7.0250     0.9770 H     1 <1>   0.4500 
 50 H        8.9410    -6.9200    -1.0160 H     1 <1>   0.0800 
 51 H        7.7230    -5.8920    -1.7350 H     1 <1>   0.0800 
 52 H        8.1890    -3.5550    -1.7520 H     1 <1>   0.1500 
 53 H        9.9160    -5.8870     1.3870 H     1 <1>   0.1500 
 54 H        9.2820    -1.6180    -0.7790 H     1 <1>   0.1500 
 55 H       10.9190    -3.8440     2.2210 H     1 <1>   0.1500 
@<TRIPOS>BOND
  1   1   2  1   
  2   2   3  1   
  3   2   4  1   
  4   2   5  1   
  5   4   6  1   
  6   4  27  1   
  7   4  28  1   
  8   5   7  1   
  9   5  29  1   
 10   5  30  1   
 11   6   8  1   
 12   6  31  1   
 13   6  32  1   
 14   7   8  1   
 15   7  33  1   
 16   7  34  1   
 17   8   9  1   
 18   8  35  1   
 19   9  10  1   
 20   9  36  1   
 21   9  37  1   
 22  10  11  1   
 23  10  12  1   
 24  10  38  1   
 25  11  13  1   
 26  11  14  1   
 27  11  39  1   
 28  12  15  1   
 29  12  16  1   
 30  12  40  1   
 31  13  15  1   
 32  14  17  1   
 33  14  41  1   
 34  14  42  1   
 35  15  17  1   
 36  15  18  1   
 37  16  19  1   
 38  16  43  1   
 39  16  44  1   
 40  17  45  1   
 41  17  46  1   
 42  18  19  1   
 43  18  47  1   
 44  18  48  1   
 45  19  20  1   
 46  19  49  1   
 47  20  21  1   
 48  20  50  1   
 49  20  51  1   
 50  21  22  ar  
 51  21  23  ar  
 52  22  24  ar  
 53  22  52  1   
 54  23  25  ar  
 55  23  53  1   
 56  24  26  ar  
 57  24  54  1   
 58  25  26  ar  
 59  25  55  1   
@<TRIPOS>SUBSTRUCTURE
  1 ****   9 GROUP 4 **** **** 0

# MOE 2024.06 (io_trps.svl 2023.06)
