@<TRIPOS>MOLECULE
NONAME
57 58 1 0 0 
SMALL
USER_CHARGES


@<TRIPOS>ATOM
  1 O        0.5620     0.3320     0.7020 O.2   1 <1>  -0.5700 
  2 C        1.4060     0.2690    -0.1660 C.2   1 <1>   0.5690 
  3 N        1.9470     1.3860    -0.7430 N.am  1 <1>  -0.6600 
  4 C        1.8960    -1.1330    -0.5640 C.3   1 <1>   0.4040 
  5 C        2.9110     1.3480    -1.8840 C.3   1 <1>   0.1400 
  6 C        2.0380     2.6270     0.0630 C.3   1 <1>   0.1400 
  7 N        1.0830    -2.2540     0.0430 N.4   1 <1>  -0.9590 
  8 C        4.3250     0.8720    -1.4860 C.3   1 <1>   0.1100 
  9 C        3.1260     2.4650     1.1340 C.3   1 <1>  -0.1600 
 10 C        1.8620    -3.5180     0.1140 C.3   1 <1>   0.3430 
 11 C       -0.2490    -2.3450    -0.6170 C.3   1 <1>   0.3430 
 12 N        4.5620     0.7720    -0.0230 N.3   1 <1>  -0.8100 
 13 C        4.5270     2.1070     0.6170 C.3   1 <1>   0.1100 
 14 C        1.3780    -4.3600     1.2940 C.3   1 <1>  -0.1600 
 15 C       -1.2020    -3.2880     0.1190 C.3   1 <1>  -0.1600 
 16 C        5.8650     0.0840     0.2370 C.3   1 <1>   0.1710 
 17 C        0.1860    -5.2820     0.9900 C.3   1 <1>  -0.1600 
 18 C       -0.8310    -4.7700    -0.0400 C.3   1 <1>  -0.1600 
 19 C        7.1060     0.7110    -0.4160 C.2   1 <1>   0.5690 
 20 O        7.4160     0.3580    -1.5290 O.2   1 <1>  -0.5700 
 21 N        7.8210     1.6470     0.2600 N.am  1 <1>  -0.7300 
 22 C        9.0320     2.2980    -0.2500 C.3   1 <1>   0.2780 
 23 C        9.8970     2.6240     0.9470 C.2   1 <1>  -0.2880 
 24 C       10.2000     3.8540     1.3740 C.2   1 <1>  -0.3000 
 25 H        2.9160    -1.2070    -0.2260 H     1 <1>   0.0800 
 26 H        1.8920    -1.2140    -1.6360 H     1 <1>   0.0800 
 27 H        2.9900     2.3330    -2.3100 H     1 <1>   0.0800 
 28 H        2.5280     0.7140    -2.6640 H     1 <1>   0.0800 
 29 H        1.0900     2.8170     0.5390 H     1 <1>   0.0800 
 30 H        2.2620     3.4670    -0.5710 H     1 <1>   0.0800 
 31 H        0.8900    -1.9280     1.0040 H     1 <1>   0.4500 
 32 H        5.0460     1.5370    -1.9340 H     1 <1>   0.0800 
 33 H        4.4880    -0.0940    -1.9320 H     1 <1>   0.0800 
 34 H        2.8160     1.7240     1.8500 H     1 <1>   0.0800 
 35 H        3.1960     3.3950     1.6680 H     1 <1>   0.0800 
 36 H        2.9010    -3.2820     0.2780 H     1 <1>   0.0800 
 37 H        1.7820    -4.0730    -0.8070 H     1 <1>   0.0800 
 38 H       -0.1340    -2.6760    -1.6370 H     1 <1>   0.0800 
 39 H       -0.6980    -1.3630    -0.6350 H     1 <1>   0.0800 
 40 H        5.1850     2.1130     1.4690 H     1 <1>   0.0800 
 41 H        4.8790     2.8640    -0.0660 H     1 <1>   0.0800 
 42 H        1.1410    -3.7160     2.1230 H     1 <1>   0.0800 
 43 H        2.1940    -4.9840     1.6150 H     1 <1>   0.0800 
 44 H       -2.1750    -3.1500    -0.3190 H     1 <1>   0.0800 
 45 H       -1.2880    -3.0140     1.1570 H     1 <1>   0.0800 
 46 H        5.7940    -0.9270    -0.1220 H     1 <1>   0.0800 
 47 H        6.0270     0.0250     1.2980 H     1 <1>   0.0800 
 48 H       -0.3280    -5.4810     1.9170 H     1 <1>   0.0800 
 49 H        0.5580    -6.2310     0.6390 H     1 <1>   0.0800 
 50 H       -0.4640    -4.9480    -1.0370 H     1 <1>   0.0800 
 51 H       -1.7260    -5.3610     0.0670 H     1 <1>   0.0800 
 52 H        7.5510     1.9480     1.1960 H     1 <1>   0.3700 
 53 H        8.7600     3.1980    -0.7760 H     1 <1>   0.0800 
 54 H        9.5560     1.6440    -0.9290 H     1 <1>   0.0800 
 55 H       10.2580     1.7350     1.4380 H     1 <1>   0.1500 
 56 H       10.8210     4.0560     2.2300 H     1 <1>   0.1500 
 57 H        9.8580     4.7620     0.9060 H     1 <1>   0.1500 
@<TRIPOS>BOND
  1   1   2  2   
  2   2   3  am  
  3   2   4  1   
  4   3   5  1   
  5   3   6  1   
  6   4   7  1   
  7   4  25  1   
  8   4  26  1   
  9   5   8  1   
 10   5  27  1   
 11   5  28  1   
 12   6   9  1   
 13   6  29  1   
 14   6  30  1   
 15   7  10  1   
 16   7  11  1   
 17   7  31  1   
 18   8  12  1   
 19   8  32  1   
 20   8  33  1   
 21   9  13  1   
 22   9  34  1   
 23   9  35  1   
 24  10  14  1   
 25  10  36  1   
 26  10  37  1   
 27  11  15  1   
 28  11  38  1   
 29  11  39  1   
 30  12  13  1   
 31  12  16  1   
 32  13  40  1   
 33  13  41  1   
 34  14  17  1   
 35  14  42  1   
 36  14  43  1   
 37  15  18  1   
 38  15  44  1   
 39  15  45  1   
 40  16  19  1   
 41  16  46  1   
 42  16  47  1   
 43  17  18  1   
 44  17  48  1   
 45  17  49  1   
 46  18  50  1   
 47  18  51  1   
 48  19  20  2   
 49  19  21  am  
 50  21  22  1   
 51  21  52  1   
 52  22  23  1   
 53  22  53  1   
 54  22  54  1   
 55  23  24  2   
 56  23  55  1   
 57  24  56  1   
 58  24  57  1   
@<TRIPOS>SUBSTRUCTURE
  1 ****  12 GROUP 4 **** **** 0

# MOE 2024.06 (io_trps.svl 2023.06)
