@<TRIPOS>MOLECULE
NONAME
37 39 1 0 0 
SMALL
USER_CHARGES


@<TRIPOS>ATOM
  1 N       -0.8430     0.1760     0.2540 N.ar  1 <1>  -0.1790 
  2 C        0.4050     0.1170    -0.2940 C.ar  1 <1>   0.7710 
  3 C       -1.5910    -0.9140     0.4730 C.ar  1 <1>   0.4610 
  4 N        0.9720    -0.9880    -0.6770 N.ar  1 <1>  -0.5670 
  5 N        1.0660     1.2730    -0.4640 N.pl3 1 <1>  -0.8690 
  6 N       -2.8170    -0.8070     1.0130 N.pl3 1 <1>  -0.9000 
  7 C       -1.0060    -2.1300     0.0980 C.ar  1 <1>   0.0000 
  8 C        0.2480    -2.1160    -0.4670 C.ar  1 <1>   0.1050 
  9 C        1.7240     1.9860     0.6470 C.3   1 <1>   0.3900 
 10 C       -1.3520    -3.4890     0.1230 C.2   1 <1>   0.1390 
 11 N        0.5650    -3.4050    -0.7430 N.pl3 1 <1>   0.3140 
 12 C        3.2040     1.9540     0.3510 C.2   1 <1>  -0.1810 
 13 N       -0.4310    -4.2450    -0.3700 N.2   1 <1>  -0.7070 
 14 C        1.7950    -3.9160    -1.3670 C.3   1 <1>   0.0160 
 15 C        3.9280     2.9350    -0.3250 C.2   1 <1>   0.1080 
 16 C        4.1130     0.9980     0.6510 C.2   1 <1>  -0.3320 
 17 N        5.1780     2.6250    -0.4380 N.2   1 <1>  -0.7070 
 18 C        3.3820     4.2300    -0.8870 C.3   1 <1>  -0.0590 
 19 N        5.2970     1.4320     0.1670 N.pl3 1 <1>   0.3000 
 20 C        3.9580    -0.3310     1.3720 C.3   1 <1>  -0.0600 
 21 H       -1.1940     1.1060     0.4310 H     1 <1>   0.4570 
 22 H        1.7780     1.1910    -1.2030 H     1 <1>   0.4000 
 23 H       -3.4100    -1.6310     1.1840 H     1 <1>   0.4000 
 24 H       -3.2950     0.0550     1.3000 H     1 <1>   0.4000 
 25 H        1.5320     1.5000     1.5890 H     1 <1>   0.0800 
 26 H        1.3760     3.0040     0.6980 H     1 <1>   0.0800 
 27 H       -2.2840    -3.8720     0.5080 H     1 <1>   0.1500 
 28 H        2.4600    -3.1020    -1.5870 H     1 <1>   0.0800 
 29 H        1.5390    -4.4300    -2.2750 H     1 <1>   0.0800 
 30 H        2.2710    -4.6020    -0.6920 H     1 <1>   0.0800 
 31 H        2.4700     4.0510    -1.4240 H     1 <1>   0.0800 
 32 H        4.0990     4.6610    -1.5620 H     1 <1>   0.0800 
 33 H        3.2020     4.9250    -0.0890 H     1 <1>   0.0800 
 34 H        6.1980     0.9420     0.2290 H     1 <1>   0.2700 
 35 H        2.9400    -0.4880     1.6740 H     1 <1>   0.0800 
 36 H        4.5810    -0.3500     2.2490 H     1 <1>   0.0800 
 37 H        4.2480    -1.1390     0.7230 H     1 <1>   0.0800 
@<TRIPOS>BOND
  1   1   2  ar  
  2   1   3  ar  
  3   1  21  1   
  4   2   4  ar  
  5   2   5  1   
  6   3   6  1   
  7   3   7  ar  
  8   4   8  ar  
  9   5   9  1   
 10   5  22  1   
 11   6  23  1   
 12   6  24  1   
 13   7   8  ar  
 14   7  10  1   
 15   8  11  1   
 16   9  12  1   
 17   9  25  1   
 18   9  26  1   
 19  10  13  2   
 20  10  27  1   
 21  11  13  1   
 22  11  14  1   
 23  12  15  1   
 24  12  16  2   
 25  14  28  1   
 26  14  29  1   
 27  14  30  1   
 28  15  17  2   
 29  15  18  1   
 30  16  19  1   
 31  16  20  1   
 32  17  19  1   
 33  18  31  1   
 34  18  32  1   
 35  18  33  1   
 36  19  34  1   
 37  20  35  1   
 38  20  36  1   
 39  20  37  1   
@<TRIPOS>SUBSTRUCTURE
  1 ****   4 GROUP 4 **** **** 0

# MOE 2024.06 (io_trps.svl 2023.06)
