@<TRIPOS>MOLECULE
NONAME
34 35 1 0 0 
SMALL
USER_CHARGES


@<TRIPOS>ATOM
  1 O        0.1010    -0.0620     0.7490 O.2   1 <1>  -0.5700 
  2 C        1.1450    -0.6360     0.5090 C.2   1 <1>   0.5440 
  3 N        2.2630     0.0750     0.1570 N.am  1 <1>  -0.4930 
  4 C        1.2060    -2.0790     0.5740 C.ar  1 <1>   0.0860 
  5 C        2.4620     1.4780     0.1000 C.2   1 <1>   0.0630 
  6 C        2.3140    -2.7320     1.1110 C.ar  1 <1>   0.1600 
  7 C        0.1720    -2.8770     0.1030 C.ar  1 <1>  -0.1500 
  8 C        3.5810     2.1080    -0.3240 C.2   1 <1>  -0.3320 
  9 C        1.5910     2.5070     0.4600 C.2   1 <1>   0.1390 
 10 N        2.4830    -4.0410     1.1830 N.ar  1 <1>  -0.6200 
 11 C        0.3140    -4.2470     0.1750 C.ar  1 <1>  -0.1430 
 12 N        3.3430     3.4410    -0.2030 N.pl3 1 <1>   0.3140 
 13 C        4.8840     1.5190    -0.8470 C.3   1 <1>  -0.0600 
 14 N        2.1130     3.6830     0.2800 N.2   1 <1>  -0.7070 
 15 C        1.4810    -4.7680     0.7150 C.ar  1 <1>   0.1600 
 16 C       -0.7870    -5.1640    -0.3300 C.3   1 <1>  -0.0970 
 17 C        4.2550     4.5580    -0.5370 C.3   1 <1>   0.0960 
 18 C        5.1590     4.9110     0.6510 C.3   1 <1>  -0.2400 
 19 H        3.0590    -0.4640    -0.1740 H     1 <1>   0.3700 
 20 H        3.1110    -2.1300     1.5130 H     1 <1>   0.1500 
 21 H       -0.7140    -2.4210    -0.3060 H     1 <1>   0.1500 
 22 H        0.5970     2.3520     0.8430 H     1 <1>   0.1500 
 23 H        4.8460     0.4450    -0.8500 H     1 <1>   0.0800 
 24 H        5.7060     1.8270    -0.2260 H     1 <1>   0.0800 
 25 H        5.0630     1.8520    -1.8540 H     1 <1>   0.0800 
 26 H        1.5970    -5.8380     0.7660 H     1 <1>   0.1500 
 27 H       -1.7410    -4.6700    -0.2820 H     1 <1>   0.0800 
 28 H       -0.8390    -6.0560     0.2700 H     1 <1>   0.0800 
 29 H       -0.5920    -5.4420    -1.3500 H     1 <1>   0.0800 
 30 H        3.6530     5.4080    -0.8010 H     1 <1>   0.0800 
 31 H        4.8440     4.2820    -1.3900 H     1 <1>   0.0800 
 32 H        4.5560     5.2010     1.4940 H     1 <1>   0.0800 
 33 H        5.8000     5.7330     0.3910 H     1 <1>   0.0800 
 34 H        5.7700     4.0700     0.9250 H     1 <1>   0.0800 
@<TRIPOS>BOND
  1   1   2  2   
  2   2   3  am  
  3   2   4  1   
  4   3   5  1   
  5   3  19  1   
  6   4   6  ar  
  7   4   7  ar  
  8   5   8  2   
  9   5   9  1   
 10   6  10  ar  
 11   6  20  1   
 12   7  11  ar  
 13   7  21  1   
 14   8  12  1   
 15   8  13  1   
 16   9  14  2   
 17   9  22  1   
 18  10  15  ar  
 19  11  15  ar  
 20  11  16  1   
 21  12  14  1   
 22  12  17  1   
 23  13  23  1   
 24  13  24  1   
 25  13  25  1   
 26  15  26  1   
 27  16  27  1   
 28  16  28  1   
 29  16  29  1   
 30  17  18  1   
 31  17  30  1   
 32  17  31  1   
 33  18  32  1   
 34  18  33  1   
 35  18  34  1   
@<TRIPOS>SUBSTRUCTURE
  1 ****   3 GROUP 4 **** **** 0

# MOE 2024.06 (io_trps.svl 2023.06)
