@<TRIPOS>MOLECULE
NONAME
48 51 1 0 0 
SMALL
USER_CHARGES


@<TRIPOS>ATOM
  1 S        0.1250     0.1540     0.3250 S.3   1 <1>  -0.0800 
  2 C        0.9160    -1.4190     0.2910 C.2   1 <1>  -0.0130 
  3 C        1.6320     1.0230     0.5980 C.2   1 <1>  -0.0450 
  4 C        0.0970    -2.5810     0.0600 C.ar  1 <1>   0.0530 
  5 C        2.2470    -1.2400     0.4980 C.2   1 <1>  -0.1810 
  6 C        1.6010     2.4590     0.7080 C.2   1 <1>   0.7150 
  7 C        2.6380     0.1150     0.6660 C.2   1 <1>  -0.1500 
  8 C        0.4670    -3.5510    -0.8700 C.ar  1 <1>  -0.1500 
  9 C       -1.0950    -2.7760     0.7560 C.ar  1 <1>  -0.1500 
 10 C        3.2920    -2.3380     0.5870 C.3   1 <1>  -0.0590 
 11 O        0.7390     2.9980     1.3800 O.2   1 <1>  -0.5700 
 12 N        2.5300     3.2590     0.0690 N.am  1 <1>  -0.6600 
 13 C       -0.3120    -4.6720    -1.0910 C.ar  1 <1>  -0.1500 
 14 C       -1.8800    -3.8940     0.5390 C.ar  1 <1>  -0.1500 
 15 C        2.8040     4.6390     0.5890 C.3   1 <1>   0.1400 
 16 C        3.1780     2.8410    -1.2160 C.3   1 <1>   0.1400 
 17 C       -1.4890    -4.8460    -0.3850 C.ar  1 <1>  -0.1500 
 18 C        4.2930     5.0010     0.7930 C.3   1 <1>   0.2200 
 19 C        4.7090     3.0010    -1.2850 C.3   1 <1>  -0.0190 
 20 N        4.9370     5.3580    -0.5030 N.am  1 <1>  -0.6600 
 21 C        5.1290     3.9650     1.5860 C.3   1 <1>   0.1200 
 22 C        5.1000     4.4440    -1.5030 C.2   1 <1>   0.5690 
 23 C        5.5440     2.3740    -0.1530 C.3   1 <1>   0.1200 
 24 C        5.3300     6.7870    -0.6690 C.3   1 <1>   0.0600 
 25 O        5.0450     2.6450     1.1200 O.3   1 <1>  -0.5600 
 26 O        5.5600     4.7440    -2.5790 O.2   1 <1>  -0.5700 
 27 H        3.6640     0.3810     0.8490 H     1 <1>   0.1500 
 28 H        1.3750    -3.4180    -1.4290 H     1 <1>   0.1500 
 29 H       -1.4040    -2.0420     1.4790 H     1 <1>   0.1500 
 30 H        3.8760    -2.2140     1.4810 H     1 <1>   0.0800 
 31 H        3.9460    -2.2930    -0.2650 H     1 <1>   0.0800 
 32 H        2.8290    -3.3080     0.6210 H     1 <1>   0.0800 
 33 H       -0.0070    -5.4090    -1.8140 H     1 <1>   0.1500 
 34 H       -2.7960    -4.0230     1.0900 H     1 <1>   0.1500 
 35 H        2.3520     5.3570    -0.0720 H     1 <1>   0.0800 
 36 H        2.3240     4.7500     1.5460 H     1 <1>   0.0800 
 37 H        2.9420     1.8120    -1.4200 H     1 <1>   0.0800 
 38 H        2.7410     3.4190    -2.0120 H     1 <1>   0.0800 
 39 H       -2.0990    -5.7170    -0.5550 H     1 <1>   0.1500 
 40 H        4.2950     5.8940     1.3920 H     1 <1>   0.0800 
 41 H        5.0140     2.4900    -2.1800 H     1 <1>   0.0800 
 42 H        4.7740     3.9460     2.6000 H     1 <1>   0.0800 
 43 H        6.1650     4.2570     1.6020 H     1 <1>   0.0800 
 44 H        6.5660     2.7090    -0.2010 H     1 <1>   0.0800 
 45 H        5.5380     1.3040    -0.2640 H     1 <1>   0.0800 
 46 H        6.0300     7.0650     0.0990 H     1 <1>   0.0800 
 47 H        4.4590     7.4150    -0.6030 H     1 <1>   0.0800 
 48 H        5.7950     6.9480    -1.6270 H     1 <1>   0.0800 
@<TRIPOS>BOND
  1   1   2  1   
  2   1   3  1   
  3   2   4  1   
  4   2   5  2   
  5   3   6  1   
  6   3   7  2   
  7   4   8  ar  
  8   4   9  ar  
  9   5   7  1   
 10   5  10  1   
 11   6  11  2   
 12   6  12  am  
 13   7  27  1   
 14   8  13  ar  
 15   8  28  1   
 16   9  14  ar  
 17   9  29  1   
 18  10  30  1   
 19  10  31  1   
 20  10  32  1   
 21  12  15  1   
 22  12  16  1   
 23  13  17  ar  
 24  13  33  1   
 25  14  17  ar  
 26  14  34  1   
 27  15  18  1   
 28  15  35  1   
 29  15  36  1   
 30  16  19  1   
 31  16  37  1   
 32  16  38  1   
 33  17  39  1   
 34  18  20  1   
 35  18  21  1   
 36  18  40  1   
 37  19  22  1   
 38  19  23  1   
 39  19  41  1   
 40  20  22  am  
 41  20  24  1   
 42  21  25  1   
 43  21  42  1   
 44  21  43  1   
 45  22  26  2   
 46  23  25  1   
 47  23  44  1   
 48  23  45  1   
 49  24  46  1   
 50  24  47  1   
 51  24  48  1   
@<TRIPOS>SUBSTRUCTURE
  1 ****   3 GROUP 4 **** **** 0

# MOE 2024.06 (io_trps.svl 2023.06)
