@<TRIPOS>MOLECULE
NONAME
48 49 1 0 0 
SMALL
USER_CHARGES


@<TRIPOS>ATOM
  1 S       -0.8690     0.7500    -1.4590 S.o2  1 <1>   1.3330 
  2 O       -0.1820     1.4490    -2.5210 O.2   1 <1>  -0.6500 
  3 O       -2.1860     0.2070    -1.7160 O.2   1 <1>  -0.6500 
  4 N       -1.0250     1.8170    -0.1480 N.am  1 <1>  -0.8490 
  5 C        0.2090    -0.5520    -0.8440 C.3   1 <1>  -0.0550 
  6 C       -1.4770     3.1580    -0.5440 C.3   1 <1>   0.1960 
  7 C       -1.7350     1.2510     1.0180 C.3   1 <1>   0.1960 
  8 C        1.5890    -0.0600    -0.3720 C.3   1 <1>  -0.1600 
  9 C       -2.9910     3.1570    -0.7550 C.3   1 <1>  -0.1600 
 10 C       -2.8070     2.1840     1.5940 C.3   1 <1>  -0.1600 
 11 C        2.4510    -1.2220     0.1350 C.3   1 <1>  -0.1600 
 12 C       -3.7650     2.7330     0.5160 C.3   1 <1>   0.2800 
 13 C        3.8190    -0.7220     0.6060 C.3   1 <1>  -0.2400 
 14 O       -4.2660     3.9330     1.0660 O.3   1 <1>  -0.5600 
 15 C       -4.9280     1.7280     0.2350 C.3   1 <1>   0.2000 
 16 C       -5.6430     4.2070     1.0290 C.3   1 <1>   0.1200 
 17 O       -4.5070     0.4790    -0.2490 O.3   1 <1>  -0.6800 
 18 C       -6.0790     2.3380    -0.6180 C.3   1 <1>   0.2800 
 19 C       -6.2260     3.8430    -0.3390 C.3   1 <1>  -0.1600 
 20 O       -7.2430     1.7300    -0.1950 O.3   1 <1>  -0.6800 
 21 C       -6.0230     2.0730    -2.1290 C.3   1 <1>  -0.2400 
 22 H       -0.2780    -1.0530    -0.0310 H     1 <1>   0.0800 
 23 H        0.3510    -1.2720    -1.6260 H     1 <1>   0.0800 
 24 H       -1.2200     3.8640     0.2270 H     1 <1>   0.0800 
 25 H       -0.9760     3.4760    -1.4430 H     1 <1>   0.0800 
 26 H       -2.1990     0.3150     0.7590 H     1 <1>   0.0800 
 27 H       -1.0100     1.0370     1.7860 H     1 <1>   0.0800 
 28 H        2.0870     0.4300    -1.1930 H     1 <1>   0.0800 
 29 H        1.4610     0.6650     0.4140 H     1 <1>   0.0800 
 30 H       -3.2060     2.4990    -1.5710 H     1 <1>   0.0800 
 31 H       -3.2940     4.1410    -1.0640 H     1 <1>   0.0800 
 32 H       -2.3070     3.0000     2.0850 H     1 <1>   0.0800 
 33 H       -3.3630     1.6550     2.3460 H     1 <1>   0.0800 
 34 H        1.9550    -1.7140     0.9540 H     1 <1>   0.0800 
 35 H        2.5910    -1.9420    -0.6530 H     1 <1>   0.0800 
 36 H        3.7070    -0.0150     1.4090 H     1 <1>   0.0800 
 37 H        4.3450    -0.2460    -0.2040 H     1 <1>   0.0800 
 38 H        4.4120    -1.5480     0.9580 H     1 <1>   0.0800 
 39 H       -5.3500     1.5110     1.2010 H     1 <1>   0.0800 
 40 H       -6.1260     3.6480     1.8130 H     1 <1>   0.0800 
 41 H       -5.7710     5.2570     1.2270 H     1 <1>   0.0800 
 42 H       -3.8080     0.5610    -0.9480 H     1 <1>   0.4000 
 43 H       -5.7000     4.4150    -1.0810 H     1 <1>   0.0800 
 44 H       -7.2610     4.1310    -0.3900 H     1 <1>   0.0800 
 45 H       -7.1300     0.7640    -0.2990 H     1 <1>   0.4000 
 46 H       -5.1750     2.5550    -2.5750 H     1 <1>   0.0800 
 47 H       -6.9060     2.4620    -2.6030 H     1 <1>   0.0800 
 48 H       -5.9560     1.0190    -2.3350 H     1 <1>   0.0800 
@<TRIPOS>BOND
  1   1   2  2   
  2   1   3  2   
  3   1   4  am  
  4   1   5  1   
  5   4   6  1   
  6   4   7  1   
  7   5   8  1   
  8   5  22  1   
  9   5  23  1   
 10   6   9  1   
 11   6  24  1   
 12   6  25  1   
 13   7  10  1   
 14   7  26  1   
 15   7  27  1   
 16   8  11  1   
 17   8  28  1   
 18   8  29  1   
 19   9  12  1   
 20   9  30  1   
 21   9  31  1   
 22  10  12  1   
 23  10  32  1   
 24  10  33  1   
 25  11  13  1   
 26  11  34  1   
 27  11  35  1   
 28  12  14  1   
 29  12  15  1   
 30  13  36  1   
 31  13  37  1   
 32  13  38  1   
 33  14  16  1   
 34  15  17  1   
 35  15  18  1   
 36  15  39  1   
 37  16  19  1   
 38  16  40  1   
 39  16  41  1   
 40  17  42  1   
 41  18  19  1   
 42  18  20  1   
 43  18  21  1   
 44  19  43  1   
 45  19  44  1   
 46  20  45  1   
 47  21  46  1   
 48  21  47  1   
 49  21  48  1   
@<TRIPOS>SUBSTRUCTURE
  1 ****   4 GROUP 4 **** **** 0

# MOE 2024.06 (io_trps.svl 2023.06)
