@<TRIPOS>MOLECULE
NONAME
50 53 1 0 0 
SMALL
USER_CHARGES


@<TRIPOS>ATOM
  1 O        2.5530    -1.6240    -3.3510 O.2   1 <1>  -0.5700 
  2 C        2.8460    -1.9070    -2.2020 C.2   1 <1>   0.5440 
  3 N        3.8690    -1.2200    -1.6010 N.am  1 <1>  -0.5100 
  4 C        2.1540    -2.9500    -1.4820 C.ar  1 <1>   0.0860 
  5 C        3.8840    -0.7580    -0.1720 C.3   1 <1>   0.2250 
  6 C        4.4030     0.1160    -2.0340 C.3   1 <1>   0.2250 
  7 C        0.7440    -2.9280    -1.2770 C.ar  1 <1>   0.0000 
  8 C        2.8840    -3.9980    -0.9560 C.ar  1 <1>  -0.1500 
  9 C        3.8870     0.7030    -0.6940 C.3   1 <1>   0.2100 
 10 C        0.1270    -3.9760    -0.5490 C.ar  1 <1>   0.0000 
 11 C       -0.0810    -1.8890    -1.7690 C.ar  1 <1>  -0.1500 
 12 C        2.2820    -5.0150    -0.2310 C.ar  1 <1>  -0.1500 
 13 N        4.8380     1.6020    -0.0020 N.3   1 <1>  -0.7500 
 14 C        0.9250    -5.0230    -0.0060 C.ar  1 <1>   0.1000 
 15 C       -1.2770    -3.9490    -0.3960 C.ar  1 <1>  -0.1500 
 16 C       -1.4360    -1.8850    -1.5840 C.ar  1 <1>  -0.1500 
 17 C        4.9930     2.8700    -0.7420 C.3   1 <1>   0.1100 
 18 C        4.3830     1.8910     1.3720 C.3   1 <1>   0.1100 
 19 N        0.3720    -6.0410     0.7590 N.pl3 1 <1>  -0.8380 
 20 C       -2.0440    -2.9320    -0.8920 C.ar  1 <1>  -0.1500 
 21 C        5.9120     3.8450     0.0160 C.3   1 <1>   0.1200 
 22 C        5.3210     2.8940     2.0670 C.3   1 <1>   0.1200 
 23 C        0.6140    -7.4660     0.4200 C.3   1 <1>   0.1290 
 24 C       -0.0690    -5.7590     2.1490 C.3   1 <1>   0.1290 
 25 O        5.4290     4.0650     1.3100 O.3   1 <1>  -0.5600 
 26 H        4.7950    -1.0570     0.3170 H     1 <1>   0.0000 
 27 H        2.9850    -1.0280     0.3530 H     1 <1>   0.0000 
 28 H        3.8940     0.5050    -2.8980 H     1 <1>   0.0000 
 29 H        5.4750     0.0910    -2.1220 H     1 <1>   0.0000 
 30 H        3.9490    -4.0320    -1.1080 H     1 <1>   0.1500 
 31 H        2.9000     1.1240    -0.7710 H     1 <1>   0.0000 
 32 H        0.3620    -1.0760    -2.3150 H     1 <1>   0.1500 
 33 H        2.8880    -5.8050     0.1710 H     1 <1>   0.1500 
 34 H       -1.7480    -4.7610     0.1250 H     1 <1>   0.1500 
 35 H       -2.0440    -1.0870    -1.9710 H     1 <1>   0.1500 
 36 H        4.0320     3.3360    -0.8830 H     1 <1>   0.0800 
 37 H        5.4190     2.6750    -1.7110 H     1 <1>   0.0800 
 38 H        4.3620     0.9810     1.9450 H     1 <1>   0.0800 
 39 H        3.3870     2.3010     1.3530 H     1 <1>   0.0800 
 40 H       -3.1120    -2.9290    -0.7610 H     1 <1>   0.1500 
 41 H        5.9460     4.7950    -0.4880 H     1 <1>   0.0800 
 42 H        6.9110     3.4500     0.0820 H     1 <1>   0.0800 
 43 H        6.3030     2.4710     2.1910 H     1 <1>   0.0800 
 44 H        4.9320     3.1620     3.0330 H     1 <1>   0.0800 
 45 H        0.9550    -7.5490    -0.5980 H     1 <1>   0.0800 
 46 H       -0.3010    -8.0240     0.5230 H     1 <1>   0.0800 
 47 H        1.3600    -7.8800     1.0760 H     1 <1>   0.0800 
 48 H       -0.0950    -4.6960     2.3190 H     1 <1>   0.0800 
 49 H        0.6140    -6.2060     2.8490 H     1 <1>   0.0800 
 50 H       -1.0550    -6.1610     2.3060 H     1 <1>   0.0800 
@<TRIPOS>BOND
  1   1   2  2   
  2   2   3  am  
  3   2   4  1   
  4   3   5  1   
  5   3   6  1   
  6   4   7  ar  
  7   4   8  ar  
  8   5   9  1   
  9   5  26  1   
 10   5  27  1   
 11   6   9  1   
 12   6  28  1   
 13   6  29  1   
 14   7  10  ar  
 15   7  11  ar  
 16   8  12  ar  
 17   8  30  1   
 18   9  13  1   
 19   9  31  1   
 20  10  14  ar  
 21  10  15  ar  
 22  11  16  ar  
 23  11  32  1   
 24  12  14  ar  
 25  12  33  1   
 26  13  17  1   
 27  13  18  1   
 28  14  19  1   
 29  15  20  ar  
 30  15  34  1   
 31  16  20  ar  
 32  16  35  1   
 33  17  21  1   
 34  17  36  1   
 35  17  37  1   
 36  18  22  1   
 37  18  38  1   
 38  18  39  1   
 39  19  23  1   
 40  19  24  1   
 41  20  40  1   
 42  21  25  1   
 43  21  41  1   
 44  21  42  1   
 45  22  25  1   
 46  22  43  1   
 47  22  44  1   
 48  23  45  1   
 49  23  46  1   
 50  23  47  1   
 51  24  48  1   
 52  24  49  1   
 53  24  50  1   
@<TRIPOS>SUBSTRUCTURE
  1 ****   4 GROUP 4 **** **** 0

# MOE 2024.06 (io_trps.svl 2023.06)
