@<TRIPOS>MOLECULE
NONAME
41 43 1 0 0 
SMALL
USER_CHARGES


@<TRIPOS>ATOM
  1 O       -0.0050    -0.4410     0.4850 O.3   1 <1>  -0.5600 
  2 C        0.7170     0.7380     0.5890 C.3   1 <1>   0.1200 
  3 C       -1.3720    -0.1800     0.5830 C.3   1 <1>   0.1200 
  4 C       -0.1570     1.7670    -0.1140 C.3   1 <1>   0.2890 
  5 C       -1.5580     1.3120     0.2730 C.3   1 <1>  -0.0800 
  6 N        0.1090     3.1560     0.3390 N.pl3 1 <1>  -0.8690 
  7 C       -2.6080     1.5900    -0.8150 C.3   1 <1>  -0.0170 
  8 C        0.7000     4.2080    -0.2350 C.ar  1 <1>   0.7710 
  9 C       -3.9810     1.0950    -0.3900 C.ar  1 <1>  -0.1440 
 10 N        0.7320     5.3090     0.4860 N.ar  1 <1>  -0.6200 
 11 N        1.2280     4.1220    -1.4720 N.ar  1 <1>  -0.1790 
 12 C       -4.5280    -0.0700    -0.8910 C.ar  1 <1>  -0.1500 
 13 C       -4.7530     1.7870     0.5220 C.ar  1 <1>  -0.1500 
 14 C        1.3130     6.3640    -0.0400 C.ar  1 <1>   0.4100 
 15 C        1.8270     5.1960    -2.0460 C.ar  1 <1>   0.2110 
 16 C       -5.7810    -0.4780    -0.4630 C.ar  1 <1>   0.1600 
 17 C       -5.9960     1.2920     0.8830 C.ar  1 <1>   0.1600 
 18 N        1.3200     7.4530     0.7420 N.pl3 1 <1>  -0.8690 
 19 C        1.8760     6.3450    -1.3300 C.ar  1 <1>  -0.1500 
 20 N       -6.5260     0.1750     0.4140 N.ar  1 <1>  -0.6200 
 21 C        1.9350     8.7910     0.5280 C.3   1 <1>   0.1290 
 22 H        0.8350     0.9620     1.6350 H     1 <1>   0.0800 
 23 H        1.6740     0.6030     0.1160 H     1 <1>   0.0800 
 24 H       -1.8810    -0.8190    -0.1170 H     1 <1>   0.0800 
 25 H       -1.6940    -0.4160     1.5840 H     1 <1>   0.0800 
 26 H       -0.0160     1.6650    -1.1750 H     1 <1>   0.0800 
 27 H       -1.8610     1.7910     1.1870 H     1 <1>   0.0800 
 28 H       -0.2200     3.3480     1.2930 H     1 <1>   0.4000 
 29 H       -2.3240     1.1110    -1.7350 H     1 <1>   0.0800 
 30 H       -2.6650     2.6490    -1.0000 H     1 <1>   0.0800 
 31 H        1.1600     3.2250    -1.9370 H     1 <1>   0.4570 
 32 H       -3.9990    -0.6690    -1.6090 H     1 <1>   0.1500 
 33 H       -4.4060     2.7060     0.9560 H     1 <1>   0.1500 
 34 H        2.2390     5.1060    -3.0390 H     1 <1>   0.1500 
 35 H       -6.1930    -1.3890    -0.8630 H     1 <1>   0.1500 
 36 H       -6.5850     1.8440     1.5950 H     1 <1>   0.1500 
 37 H        0.8350     7.3540     1.6420 H     1 <1>   0.4000 
 38 H        2.3290     7.2350    -1.7220 H     1 <1>   0.1500 
 39 H        2.7460     8.7370    -0.1760 H     1 <1>   0.0800 
 40 H        2.3240     9.1620     1.4620 H     1 <1>   0.0800 
 41 H        1.1920     9.4800     0.1640 H     1 <1>   0.0800 
@<TRIPOS>BOND
  1   1   2  1   
  2   1   3  1   
  3   2   4  1   
  4   2  22  1   
  5   2  23  1   
  6   3   5  1   
  7   3  24  1   
  8   3  25  1   
  9   4   5  1   
 10   4   6  1   
 11   4  26  1   
 12   5   7  1   
 13   5  27  1   
 14   6   8  1   
 15   6  28  1   
 16   7   9  1   
 17   7  29  1   
 18   7  30  1   
 19   8  10  ar  
 20   8  11  ar  
 21   9  12  ar  
 22   9  13  ar  
 23  10  14  ar  
 24  11  15  ar  
 25  11  31  1   
 26  12  16  ar  
 27  12  32  1   
 28  13  17  ar  
 29  13  33  1   
 30  14  18  1   
 31  14  19  ar  
 32  15  19  ar  
 33  15  34  1   
 34  16  20  ar  
 35  16  35  1   
 36  17  20  ar  
 37  17  36  1   
 38  18  21  1   
 39  18  37  1   
 40  19  38  1   
 41  21  39  1   
 42  21  40  1   
 43  21  41  1   
@<TRIPOS>SUBSTRUCTURE
  1 ****   6 GROUP 4 **** **** 0

# MOE 2024.06 (io_trps.svl 2023.06)
