@<TRIPOS>MOLECULE
NONAME
47 50 1 0 0 
SMALL
USER_CHARGES


@<TRIPOS>ATOM
  1 S        1.0390     0.4200     1.1260 S.3   1 <1>  -0.0800 
  2 C        1.6050     1.1950    -0.3480 C.2   1 <1>  -0.1400 
  3 C        1.2510    -1.1740     0.4260 C.2   1 <1>  -0.1100 
  4 C        1.9190     0.2650    -1.2720 C.2   1 <1>  -0.1500 
  5 C        1.6520     2.7140    -0.3420 C.3   1 <1>   0.3800 
  6 C        1.7170    -1.0820    -0.8320 C.2   1 <1>  -0.1500 
  7 O        1.8570     3.1430    -1.6400 O.3   1 <1>  -0.6800 
  8 C        2.7860     3.2650     0.5550 C.3   1 <1>  -0.0800 
  9 C        2.7930     4.8070     0.5850 C.3   1 <1>  -0.1600 
 10 C        4.1770     2.7340     0.1430 C.3   1 <1>  -0.1600 
 11 C        3.9530     5.3650     1.4070 C.3   1 <1>   0.3430 
 12 C        5.2970     3.3450     0.9790 C.3   1 <1>   0.3430 
 13 N        5.2420     4.8290     0.8750 N.4   1 <1>  -0.9590 
 14 C        6.4340     5.4600     1.5180 C.3   1 <1>   0.5230 
 15 C        6.5510     6.9190     1.1190 C.2   1 <1>  -0.0400 
 16 O        5.7450     7.7920     1.6500 O.3   1 <1>  -0.0190 
 17 C        7.3670     7.5790     0.2830 C.2   1 <1>  -0.1500 
 18 N        5.9610     8.9890     1.2120 N.2   1 <1>  -0.4100 
 19 C        6.9500     8.9150     0.3730 C.2   1 <1>   0.2350 
 20 C        7.5150    10.0440    -0.3400 C.ar  1 <1>   0.0540 
 21 C        8.3920     9.9170    -1.4100 C.ar  1 <1>  -0.1500 
 22 C        7.2110    11.3550     0.0020 C.ar  1 <1>  -0.1500 
 23 C        8.8960    11.0400    -2.0410 C.ar  1 <1>   0.1600 
 24 C        7.7680    12.4120    -0.6920 C.ar  1 <1>   0.1600 
 25 N        8.6060    12.2850    -1.7070 N.ar  1 <1>  -0.6200 
 26 H        0.9990    -2.0230     1.0390 H     1 <1>   0.1500 
 27 H        2.2940     0.4630    -2.2620 H     1 <1>   0.1500 
 28 H        0.6990     3.0990    -0.0200 H     1 <1>   0.0800 
 29 H        1.9310    -1.9140    -1.4810 H     1 <1>   0.1500 
 30 H        1.2050     2.7020    -2.2190 H     1 <1>   0.4000 
 31 H        2.5880     2.9230     1.5560 H     1 <1>   0.0800 
 32 H        1.8680     5.1620     1.0050 H     1 <1>   0.0800 
 33 H        2.8590     5.2020    -0.4150 H     1 <1>   0.0800 
 34 H        4.3620     2.9400    -0.8970 H     1 <1>   0.0800 
 35 H        4.2060     1.6650     0.2650 H     1 <1>   0.0800 
 36 H        3.8340     5.0840     2.4420 H     1 <1>   0.0800 
 37 H        3.9350     6.4410     1.3430 H     1 <1>   0.0800 
 38 H        6.2460     2.9800     0.6190 H     1 <1>   0.0800 
 39 H        5.1840     3.0430     2.0080 H     1 <1>   0.0800 
 40 H        5.2660     5.0730    -0.1240 H     1 <1>   0.4500 
 41 H        7.3270     4.9480     1.1980 H     1 <1>   0.0800 
 42 H        6.3670     5.3840     2.5910 H     1 <1>   0.0800 
 43 H        8.1710     7.2130    -0.3280 H     1 <1>   0.1500 
 44 H        8.6890     8.9500    -1.7650 H     1 <1>   0.1500 
 45 H        6.5380    11.5550     0.8160 H     1 <1>   0.1500 
 46 H        9.5740    10.9090    -2.8670 H     1 <1>   0.1500 
 47 H        7.5110    13.4160    -0.3990 H     1 <1>   0.1500 
@<TRIPOS>BOND
  1   1   2  1   
  2   1   3  1   
  3   2   4  2   
  4   2   5  1   
  5   3   6  2   
  6   3  26  1   
  7   4   6  1   
  8   4  27  1   
  9   5   7  1   
 10   5   8  1   
 11   5  28  1   
 12   6  29  1   
 13   7  30  1   
 14   8   9  1   
 15   8  10  1   
 16   8  31  1   
 17   9  11  1   
 18   9  32  1   
 19   9  33  1   
 20  10  12  1   
 21  10  34  1   
 22  10  35  1   
 23  11  13  1   
 24  11  36  1   
 25  11  37  1   
 26  12  13  1   
 27  12  38  1   
 28  12  39  1   
 29  13  14  1   
 30  13  40  1   
 31  14  15  1   
 32  14  41  1   
 33  14  42  1   
 34  15  16  1   
 35  15  17  2   
 36  16  18  1   
 37  17  19  1   
 38  17  43  1   
 39  18  19  2   
 40  19  20  1   
 41  20  21  ar  
 42  20  22  ar  
 43  21  23  ar  
 44  21  44  1   
 45  22  24  ar  
 46  22  45  1   
 47  23  25  ar  
 48  23  46  1   
 49  24  25  ar  
 50  24  47  1   
@<TRIPOS>SUBSTRUCTURE
  1 ****  13 GROUP 4 **** **** 0

# MOE 2024.06 (io_trps.svl 2023.06)
