@<TRIPOS>MOLECULE
NONAME
59 63 1 0 0 
SMALL
USER_CHARGES


@<TRIPOS>ATOM
  1 O       -2.0610    -0.2140    -0.3710 O.2   1 <1>  -0.5700 
  2 C       -1.1880     0.5900    -0.1320 C.2   1 <1>   0.5690 
  3 N       -1.4900     1.6740     0.6540 N.am  1 <1>  -0.6600 
  4 C        0.1850     0.3890    -0.8060 C.3   1 <1>   0.1710 
  5 C       -2.5770     1.5790     1.6840 C.3   1 <1>   0.1400 
  6 C       -1.0460     3.0460     0.2890 C.3   1 <1>   0.1400 
  7 N        1.3180     1.1600    -0.2260 N.3   1 <1>  -0.8100 
  8 C       -3.9780     1.9590     1.1390 C.3   1 <1>   0.4230 
  9 C       -2.2370     3.9560    -0.0750 C.3   1 <1>  -0.0800 
 10 C        2.4930     1.1420    -1.1180 C.3   1 <1>   0.2540 
 11 C        1.6970     0.6660     1.1070 C.3   1 <1>   0.1100 
 12 N       -3.9550     2.0420    -0.3710 N.4   1 <1>  -0.9590 
 13 C       -4.5760     3.2100     1.8300 C.3   1 <1>   0.1200 
 14 C       -2.8350     4.6800     1.1480 C.3   1 <1>   0.1200 
 15 C       -3.3150     3.2750    -0.9530 C.3   1 <1>   0.3430 
 16 C        3.6820     1.8800    -0.5100 C.ar  1 <1>  -0.1440 
 17 C        2.6360     1.6720     1.7800 C.3   1 <1>  -0.0170 
 18 C       -5.2980     1.8010    -0.9700 C.3   1 <1>   0.5240 
 19 O       -4.2020     4.4270     1.2410 O.3   1 <1>  -0.5600 
 20 C        3.7610     2.1170     0.8580 C.ar  1 <1>  -0.1440 
 21 C        4.7100     2.3090    -1.3360 C.ar  1 <1>  -0.1500 
 22 C       -5.8570     0.4500    -0.5380 C.2   1 <1>   0.0460 
 23 C        4.8620     2.7750     1.3820 C.ar  1 <1>  -0.1500 
 24 C        5.8070     2.9670    -0.8090 C.ar  1 <1>  -0.1500 
 25 N       -6.5550     0.3200     0.6100 N.2   1 <1>  -0.5650 
 26 C       -5.7510    -0.7400    -1.1710 C.2   1 <1>  -0.3020 
 27 C        5.8840     3.2000     0.5520 C.ar  1 <1>  -0.1500 
 28 C       -6.8600    -0.9380     0.6470 C.2   1 <1>   0.0360 
 29 N       -6.3980    -1.6400    -0.4080 N.pl3 1 <1>   0.0330 
 30 H        0.0690     0.6670    -1.8370 H     1 <1>   0.0800 
 31 H        0.4210    -0.6610    -0.7800 H     1 <1>   0.0800 
 32 H       -2.6280     0.5620     2.0350 H     1 <1>   0.0800 
 33 H       -2.3210     2.1810     2.5380 H     1 <1>   0.0800 
 34 H       -0.4710     3.4660     1.0980 H     1 <1>   0.0800 
 35 H       -0.3930     2.9950    -0.5650 H     1 <1>   0.0800 
 36 H       -4.6040     1.1360     1.4330 H     1 <1>   0.0800 
 37 H       -1.8140     4.7410    -0.6770 H     1 <1>   0.0800 
 38 H        2.7850     0.1240    -1.3160 H     1 <1>   0.0800 
 39 H        2.2340     1.6080    -2.0520 H     1 <1>   0.0800 
 40 H        0.8250     0.5390     1.7250 H     1 <1>   0.0800 
 41 H        2.1920    -0.2870     1.0170 H     1 <1>   0.0800 
 42 H       -3.3620     1.2260    -0.6180 H     1 <1>   0.4500 
 43 H       -4.3100     3.2380     2.8720 H     1 <1>   0.0800 
 44 H       -5.6490     3.1540     1.7750 H     1 <1>   0.0800 
 45 H       -2.7270     5.7450     1.0250 H     1 <1>   0.0800 
 46 H       -2.3570     4.4070     2.0740 H     1 <1>   0.0800 
 47 H       -2.8790     3.0230    -1.9050 H     1 <1>   0.0800 
 48 H       -4.0840     4.0090    -1.1340 H     1 <1>   0.0800 
 49 H        2.0670     2.5360     2.0710 H     1 <1>   0.0800 
 50 H        3.0460     1.2300     2.6690 H     1 <1>   0.0800 
 51 H       -5.9830     2.5770    -0.6710 H     1 <1>   0.0800 
 52 H       -5.2200     1.8110    -2.0440 H     1 <1>   0.0800 
 53 H        4.6630     2.1320    -2.3960 H     1 <1>   0.1500 
 54 H        4.9270     2.9630     2.4390 H     1 <1>   0.1500 
 55 H        6.6000     3.2980    -1.4560 H     1 <1>   0.1500 
 56 H       -5.2640    -1.0000    -2.0950 H     1 <1>   0.1500 
 57 H        6.7350     3.7110     0.9640 H     1 <1>   0.1500 
 58 H       -7.4290    -1.4030     1.4350 H     1 <1>   0.1500 
 59 H       -6.5170    -2.6440    -0.5830 H     1 <1>   0.2700 
@<TRIPOS>BOND
  1   1   2  2   
  2   2   3  am  
  3   2   4  1   
  4   3   5  1   
  5   3   6  1   
  6   4   7  1   
  7   4  30  1   
  8   4  31  1   
  9   5   8  1   
 10   5  32  1   
 11   5  33  1   
 12   6   9  1   
 13   6  34  1   
 14   6  35  1   
 15   7  10  1   
 16   7  11  1   
 17   8  12  1   
 18   8  13  1   
 19   8  36  1   
 20   9  14  1   
 21   9  15  1   
 22   9  37  1   
 23  10  16  1   
 24  10  38  1   
 25  10  39  1   
 26  11  17  1   
 27  11  40  1   
 28  11  41  1   
 29  12  15  1   
 30  12  18  1   
 31  12  42  1   
 32  13  19  1   
 33  13  43  1   
 34  13  44  1   
 35  14  19  1   
 36  14  45  1   
 37  14  46  1   
 38  15  47  1   
 39  15  48  1   
 40  16  20  ar  
 41  16  21  ar  
 42  17  20  1   
 43  17  49  1   
 44  17  50  1   
 45  18  22  1   
 46  18  51  1   
 47  18  52  1   
 48  20  23  ar  
 49  21  24  ar  
 50  21  53  1   
 51  22  25  1   
 52  22  26  2   
 53  23  27  ar  
 54  23  54  1   
 55  24  27  ar  
 56  24  55  1   
 57  25  28  2   
 58  26  29  1   
 59  26  56  1   
 60  27  57  1   
 61  28  29  1   
 62  28  58  1   
 63  29  59  1   
@<TRIPOS>SUBSTRUCTURE
  1 ****   3 GROUP 4 **** **** 0

# MOE 2024.06 (io_trps.svl 2023.06)
