@<TRIPOS>MOLECULE
NONAME
53 56 1 0 0 
SMALL
USER_CHARGES


@<TRIPOS>ATOM
  1 S       -1.8460    -0.4020    -1.1000 S.3   1 <1>  -0.3320 
  2 C       -1.2670    -2.0780    -0.8240 C.ar  1 <1>   0.1020 
  3 C       -0.4440     0.5450    -1.8460 C.3   1 <1>  -0.0100 
  4 C       -2.1580    -2.9600    -0.2700 C.ar  1 <1>  -0.1500 
  5 C        0.0260    -2.4810    -1.1520 C.ar  1 <1>  -0.1500 
  6 C       -1.7760    -4.2800    -0.0260 C.ar  1 <1>   0.3610 
  7 C        0.4100    -3.7790    -0.9170 C.ar  1 <1>  -0.1500 
  8 N       -2.6640    -5.1810     0.5290 N.ar  1 <1>  -0.1790 
  9 C       -0.4760    -4.7140    -0.3500 C.ar  1 <1>   0.0000 
 10 C       -2.3930    -6.4620     0.7840 C.ar  1 <1>   0.4610 
 11 C       -0.1450    -6.0770    -0.0800 C.ar  1 <1>  -0.1430 
 12 N       -3.3620    -7.2550     1.2940 N.pl3 1 <1>  -0.8380 
 13 C       -1.0810    -6.9020     0.4690 C.ar  1 <1>  -0.1500 
 14 C        1.2500    -6.6040    -0.3950 C.3   1 <1>  -0.0970 
 15 C       -4.5920    -6.7760     2.0000 C.3   1 <1>   0.2090 
 16 C       -3.3920    -8.7410     1.1230 C.3   1 <1>   0.2090 
 17 C       -5.8020    -7.0610     1.1160 C.3   1 <1>  -0.1600 
 18 C       -4.5860    -9.1040     0.2350 C.3   1 <1>  -0.1600 
 19 C       -5.9170    -8.5610     0.7850 C.3   1 <1>   0.1000 
 20 C       -7.0340    -8.8120    -0.2250 C.2   1 <1>   0.0060 
 21 N       -7.3030    -8.0200    -1.2080 N.2   1 <1>  -0.3380 
 22 N       -7.8530    -9.8730    -0.2180 N.pl3 1 <1>   0.0480 
 23 N       -8.3250    -8.5480    -1.8740 N.2   1 <1>  -0.3380 
 24 C       -8.6400    -9.6450    -1.2770 C.2   1 <1>   0.0060 
 25 C       -7.8980   -11.0080     0.7310 C.3   1 <1>   0.0160 
 26 C       -9.7690   -10.5530    -1.7300 C.3   1 <1>   0.3000 
 27 O      -10.7250   -10.6200    -0.7280 O.3   1 <1>  -0.6800 
 28 H       -0.7860     1.5510    -2.0140 H     1 <1>   0.0800 
 29 H       -0.1790     0.0750    -2.7760 H     1 <1>   0.0800 
 30 H        0.3750     0.5350    -1.1500 H     1 <1>   0.0800 
 31 H       -3.1480    -2.6160    -0.0300 H     1 <1>   0.1500 
 32 H        0.7230    -1.7880    -1.5860 H     1 <1>   0.1500 
 33 H        1.4110    -4.0780    -1.1750 H     1 <1>   0.1500 
 34 H       -3.6180    -4.8810     0.6900 H     1 <1>   0.4570 
 35 H       -0.8240    -7.9200     0.6920 H     1 <1>   0.1500 
 36 H        1.9910    -6.0530     0.1570 H     1 <1>   0.0800 
 37 H        1.4560    -6.5090    -1.4470 H     1 <1>   0.0800 
 38 H        1.3440    -7.6430    -0.1310 H     1 <1>   0.0800 
 39 H       -4.5360    -5.7270     2.2310 H     1 <1>   0.0800 
 40 H       -4.6930    -7.3040     2.9350 H     1 <1>   0.0800 
 41 H       -3.4860    -9.2160     2.0860 H     1 <1>   0.0800 
 42 H       -2.4990    -9.1120     0.6560 H     1 <1>   0.0800 
 43 H       -5.7110    -6.4900     0.2090 H     1 <1>   0.0800 
 44 H       -6.7000    -6.7400     1.6130 H     1 <1>   0.0800 
 45 H       -4.6470   -10.1730     0.1380 H     1 <1>   0.0800 
 46 H       -4.4190    -8.7010    -0.7500 H     1 <1>   0.0800 
 47 H       -6.1460    -9.0800     1.6990 H     1 <1>   0.0800 
 48 H       -6.9000   -11.3500     0.9330 H     1 <1>   0.0800 
 49 H       -8.4670   -11.8160     0.3110 H     1 <1>   0.0800 
 50 H       -8.3650   -10.6870     1.6440 H     1 <1>   0.0800 
 51 H       -9.4090   -11.5480    -1.9270 H     1 <1>   0.0800 
 52 H      -10.2350   -10.1610    -2.6180 H     1 <1>   0.0800 
 53 H      -11.0320    -9.7120    -0.5340 H     1 <1>   0.4000 
@<TRIPOS>BOND
  1   1   2  1   
  2   1   3  1   
  3   2   4  ar  
  4   2   5  ar  
  5   3  28  1   
  6   3  29  1   
  7   3  30  1   
  8   4   6  ar  
  9   4  31  1   
 10   5   7  ar  
 11   5  32  1   
 12   6   8  ar  
 13   6   9  ar  
 14   7   9  ar  
 15   7  33  1   
 16   8  10  ar  
 17   8  34  1   
 18   9  11  ar  
 19  10  12  1   
 20  10  13  ar  
 21  11  13  ar  
 22  11  14  1   
 23  12  15  1   
 24  12  16  1   
 25  13  35  1   
 26  14  36  1   
 27  14  37  1   
 28  14  38  1   
 29  15  17  1   
 30  15  39  1   
 31  15  40  1   
 32  16  18  1   
 33  16  41  1   
 34  16  42  1   
 35  17  19  1   
 36  17  43  1   
 37  17  44  1   
 38  18  19  1   
 39  18  45  1   
 40  18  46  1   
 41  19  20  1   
 42  19  47  1   
 43  20  21  2   
 44  20  22  1   
 45  21  23  1   
 46  22  24  1   
 47  22  25  1   
 48  23  24  2   
 49  24  26  1   
 50  25  48  1   
 51  25  49  1   
 52  25  50  1   
 53  26  27  1   
 54  26  51  1   
 55  26  52  1   
 56  27  53  1   
@<TRIPOS>SUBSTRUCTURE
  1 ****  12 GROUP 4 **** **** 0

# MOE 2024.06 (io_trps.svl 2023.06)
