@<TRIPOS>MOLECULE
NONAME
44 45 1 0 0 
SMALL
USER_CHARGES


@<TRIPOS>ATOM
  1 O       -1.0870     0.0650    -0.9750 O.2   1 <1>  -0.5700 
  2 C       -1.6370     0.7300    -0.1140 C.2   1 <1>   0.6900 
  3 N       -2.6220     0.1560     0.6450 N.am  1 <1>  -0.6600 
  4 N       -1.2880     2.0480     0.0710 N.am  1 <1>  -0.6600 
  5 C       -2.6740    -1.3300     0.7850 C.3   1 <1>   0.1400 
  6 C       -3.9780     0.7750     0.6740 C.3   1 <1>   0.1400 
  7 C       -0.4480     2.7630    -0.9260 C.3   1 <1>   0.0600 
  8 C       -1.4320     2.7430     1.3790 C.3   1 <1>   0.0600 
  9 C       -3.6770    -1.9370    -0.2100 C.3   1 <1>   0.3440 
 10 C       -4.9340     0.0580    -0.3080 C.3   1 <1>   0.2000 
 11 O       -4.9300    -1.3210    -0.0510 O.3   1 <1>  -0.5600 
 12 C       -3.8120    -3.4420     0.0070 C.ar  1 <1>  -0.1440 
 13 C       -6.3950     0.5610    -0.2150 C.3   1 <1>  -0.0800 
 14 C       -4.7450    -3.9710     0.8890 C.ar  1 <1>  -0.1500 
 15 C       -2.9730    -4.3070    -0.6820 C.ar  1 <1>  -0.1500 
 16 C       -7.3160    -0.2030    -1.1820 C.3   1 <1>  -0.2400 
 17 C       -6.5130     2.0660    -0.5100 C.3   1 <1>  -0.2400 
 18 C       -4.8380    -5.3390     1.0790 C.ar  1 <1>  -0.1500 
 19 C       -3.0640    -5.6750    -0.4930 C.ar  1 <1>  -0.1500 
 20 C       -3.9970    -6.1930     0.3870 C.ar  1 <1>  -0.1500 
 21 H       -1.7000    -1.7530     0.6110 H     1 <1>   0.0800 
 22 H       -2.9690    -1.5860     1.7870 H     1 <1>   0.0800 
 23 H       -4.3750     0.7170     1.6710 H     1 <1>   0.0800 
 24 H       -3.9040     1.8130     0.4020 H     1 <1>   0.0800 
 25 H       -0.7740     3.7830    -1.0170 H     1 <1>   0.0800 
 26 H       -0.5260     2.2890    -1.8900 H     1 <1>   0.0800 
 27 H        0.5810     2.7420    -0.6130 H     1 <1>   0.0800 
 28 H       -2.1300     3.5560     1.2810 H     1 <1>   0.0800 
 29 H       -0.4790     3.1310     1.6920 H     1 <1>   0.0800 
 30 H       -1.7860     2.0640     2.1350 H     1 <1>   0.0800 
 31 H       -3.3410    -1.7520    -1.2160 H     1 <1>   0.0800 
 32 H       -4.5800     0.2070    -1.3150 H     1 <1>   0.0800 
 33 H       -6.7430     0.3880     0.7900 H     1 <1>   0.0800 
 34 H       -5.4060    -3.3150     1.4290 H     1 <1>   0.1500 
 35 H       -2.2420    -3.9160    -1.3690 H     1 <1>   0.1500 
 36 H       -6.9860    -0.0760    -2.1980 H     1 <1>   0.0800 
 37 H       -8.3280     0.1510    -1.1000 H     1 <1>   0.0800 
 38 H       -7.3130    -1.2540    -0.9530 H     1 <1>   0.0800 
 39 H       -6.1090     2.2940    -1.4810 H     1 <1>   0.0800 
 40 H       -5.9940     2.6490     0.2290 H     1 <1>   0.0800 
 41 H       -7.5460     2.3670    -0.4930 H     1 <1>   0.0800 
 42 H       -5.5660    -5.7370     1.7630 H     1 <1>   0.1500 
 43 H       -2.4090    -6.3360    -1.0330 H     1 <1>   0.1500 
 44 H       -4.0690    -7.2560     0.5340 H     1 <1>   0.1500 
@<TRIPOS>BOND
  1   1   2  2   
  2   2   3  am  
  3   2   4  am  
  4   3   5  1   
  5   3   6  1   
  6   4   7  1   
  7   4   8  1   
  8   5   9  1   
  9   5  21  1   
 10   5  22  1   
 11   6  10  1   
 12   6  23  1   
 13   6  24  1   
 14   7  25  1   
 15   7  26  1   
 16   7  27  1   
 17   8  28  1   
 18   8  29  1   
 19   8  30  1   
 20   9  11  1   
 21   9  12  1   
 22   9  31  1   
 23  10  11  1   
 24  10  13  1   
 25  10  32  1   
 26  12  14  ar  
 27  12  15  ar  
 28  13  16  1   
 29  13  17  1   
 30  13  33  1   
 31  14  18  ar  
 32  14  34  1   
 33  15  19  ar  
 34  15  35  1   
 35  16  36  1   
 36  16  37  1   
 37  16  38  1   
 38  17  39  1   
 39  17  40  1   
 40  17  41  1   
 41  18  20  ar  
 42  18  42  1   
 43  19  20  ar  
 44  19  43  1   
 45  20  44  1   
@<TRIPOS>SUBSTRUCTURE
  1 ****   9 GROUP 4 **** **** 0

# MOE 2024.06 (io_trps.svl 2023.06)
