@<TRIPOS>MOLECULE
NONAME
62 64 1 0 0 
SMALL
USER_CHARGES


@<TRIPOS>ATOM
  1 F        1.2260     1.0790     2.6030 F     1 <1>  -0.1900 
  2 C        2.1120     1.6890     1.8620 C.ar  1 <1>   0.1900 
  3 C        1.6780     2.4500     0.7940 C.ar  1 <1>  -0.1500 
  4 C        3.4510     1.5510     2.1740 C.ar  1 <1>  -0.1500 
  5 C        2.6230     3.0940     0.0120 C.ar  1 <1>  -0.1500 
  6 C        4.3850     2.2000     1.3840 C.ar  1 <1>  -0.1500 
  7 C        3.9760     2.9700     0.3030 C.ar  1 <1>  -0.1430 
  8 C        5.0070     3.6800    -0.5600 C.3   1 <1>  -0.0160 
  9 C        5.2800     5.0900    -0.0220 C.3   1 <1>  -0.1600 
 10 C        6.3360     5.8290    -0.8660 C.3   1 <1>  -0.0990 
 11 C        6.6610     7.2390    -0.3800 C.2   1 <1>   0.5690 
 12 O        6.0020     7.7110     0.5170 O.2   1 <1>  -0.5700 
 13 N        7.6900     7.9430    -0.9510 N.am  1 <1>  -0.6600 
 14 C        8.5930     7.4460    -2.0390 C.3   1 <1>   0.1400 
 15 C        8.0170     9.3180    -0.4850 C.3   1 <1>   0.1400 
 16 C        9.9640     7.0080    -1.4980 C.3   1 <1>   0.1400 
 17 C        8.9490     9.2870     0.7330 C.3   1 <1>  -0.1600 
 18 N       10.6230     8.0830    -0.6900 N.am  1 <1>  -0.6600 
 19 C       10.0680     8.2360     0.6840 C.3   1 <1>   0.1400 
 20 C       11.5880     8.8890    -1.2470 C.2   1 <1>   0.5690 
 21 O       11.8980     8.7710    -2.4150 O.2   1 <1>  -0.5700 
 22 C       12.3100     9.9750    -0.4160 C.3   1 <1>   0.2610 
 23 O       12.6750    11.0500    -1.2310 O.3   1 <1>  -0.6800 
 24 C       13.5600     9.4290     0.3180 C.3   1 <1>  -0.0800 
 25 C       14.1400    10.4730     1.2940 C.3   1 <1>  -0.1600 
 26 C       14.6610     8.9180    -0.6360 C.3   1 <1>  -0.1600 
 27 C       15.3420     9.9160     2.0680 C.3   1 <1>  -0.1600 
 28 C       15.8640     8.3630     0.1400 C.3   1 <1>  -0.1600 
 29 C       16.4270     9.4070     1.1120 C.3   1 <1>  -0.1600 
 30 H        0.6280     2.5350     0.5840 H     1 <1>   0.1500 
 31 H        3.7500     0.9510     3.0140 H     1 <1>   0.1500 
 32 H        2.3010     3.6940    -0.8210 H     1 <1>   0.1500 
 33 H        5.4320     2.1050     1.6160 H     1 <1>   0.1500 
 34 H        5.9190     3.1090    -0.5690 H     1 <1>   0.0800 
 35 H        4.6480     3.7390    -1.5720 H     1 <1>   0.0800 
 36 H        5.6200     5.0230     0.9980 H     1 <1>   0.0800 
 37 H        4.3630     5.6540    -0.0230 H     1 <1>   0.0800 
 38 H        5.9850     5.9030    -1.8780 H     1 <1>   0.0800 
 39 H        7.2430     5.2540    -0.8580 H     1 <1>   0.0800 
 40 H        8.1410     6.6220    -2.5590 H     1 <1>   0.0800 
 41 H        8.7430     8.2280    -2.7630 H     1 <1>   0.0800 
 42 H        8.4900     9.8630    -1.2840 H     1 <1>   0.0800 
 43 H        7.1090     9.8410    -0.2310 H     1 <1>   0.0800 
 44 H       10.5930     6.7370    -2.3280 H     1 <1>   0.0800 
 45 H        9.8440     6.1270    -0.8920 H     1 <1>   0.0800 
 46 H        8.3530     9.1030     1.6100 H     1 <1>   0.0800 
 47 H        9.3780    10.2640     0.8550 H     1 <1>   0.0800 
 48 H        9.6640     7.2900     1.0040 H     1 <1>   0.0800 
 49 H       10.8470     8.4950     1.3790 H     1 <1>   0.0800 
 50 H       11.6280    10.3730     0.3100 H     1 <1>   0.0800 
 51 H       12.8860    10.6810    -2.1160 H     1 <1>   0.4000 
 52 H       13.2330     8.5890     0.9070 H     1 <1>   0.0800 
 53 H       14.4520    11.3450     0.7430 H     1 <1>   0.0800 
 54 H       13.3820    10.7830     1.9920 H     1 <1>   0.0800 
 55 H       14.2720     8.1430    -1.2730 H     1 <1>   0.0800 
 56 H       14.9960     9.7240    -1.2660 H     1 <1>   0.0800 
 57 H       15.7520    10.6870     2.6980 H     1 <1>   0.0800 
 58 H       15.0180     9.1090     2.7030 H     1 <1>   0.0800 
 59 H       15.5620     7.4880     0.6900 H     1 <1>   0.0800 
 60 H       16.6320     8.0670    -0.5540 H     1 <1>   0.0800 
 61 H       17.2340     8.9740     1.6790 H     1 <1>   0.0800 
 62 H       16.8250    10.2360     0.5520 H     1 <1>   0.0800 
@<TRIPOS>BOND
  1   1   2  1   
  2   2   3  ar  
  3   2   4  ar  
  4   3   5  ar  
  5   3  30  1   
  6   4   6  ar  
  7   4  31  1   
  8   5   7  ar  
  9   5  32  1   
 10   6   7  ar  
 11   6  33  1   
 12   7   8  1   
 13   8   9  1   
 14   8  34  1   
 15   8  35  1   
 16   9  10  1   
 17   9  36  1   
 18   9  37  1   
 19  10  11  1   
 20  10  38  1   
 21  10  39  1   
 22  11  12  2   
 23  11  13  am  
 24  13  14  1   
 25  13  15  1   
 26  14  16  1   
 27  14  40  1   
 28  14  41  1   
 29  15  17  1   
 30  15  42  1   
 31  15  43  1   
 32  16  18  1   
 33  16  44  1   
 34  16  45  1   
 35  17  19  1   
 36  17  46  1   
 37  17  47  1   
 38  18  19  1   
 39  18  20  am  
 40  19  48  1   
 41  19  49  1   
 42  20  21  2   
 43  20  22  1   
 44  22  23  1   
 45  22  24  1   
 46  22  50  1   
 47  23  51  1   
 48  24  25  1   
 49  24  26  1   
 50  24  52  1   
 51  25  27  1   
 52  25  53  1   
 53  25  54  1   
 54  26  28  1   
 55  26  55  1   
 56  26  56  1   
 57  27  29  1   
 58  27  57  1   
 59  27  58  1   
 60  28  29  1   
 61  28  59  1   
 62  28  60  1   
 63  29  61  1   
 64  29  62  1   
@<TRIPOS>SUBSTRUCTURE
  1 ****  13 GROUP 4 **** **** 0

# MOE 2024.06 (io_trps.svl 2023.06)
