@<TRIPOS>MOLECULE
NONAME
60 64 1 0 0 
SMALL
USER_CHARGES


@<TRIPOS>ATOM
  1 O       -1.1630    -1.8860     2.7950 O.2   1 <1>  -0.5700 
  2 C       -1.7060    -2.5970     1.9670 C.2   1 <1>   0.6900 
  3 N       -2.6480    -2.2100     1.0540 N.am  1 <1>  -0.4770 
  4 N       -1.4470    -3.9150     1.8220 N.am  1 <1>  -0.5470 
  5 C       -2.9820    -3.3400     0.3070 C.ar  1 <1>   0.1170 
  6 C       -3.1400    -0.8190     0.9400 C.3   1 <1>   0.2200 
  7 C       -2.2310    -4.4000     0.7910 C.ar  1 <1>   0.1170 
  8 C       -3.8600    -3.5560    -0.7470 C.ar  1 <1>  -0.1500 
  9 C       -4.6490    -0.7490     1.2260 C.3   1 <1>  -0.1600 
 10 C       -2.7810    -0.2240    -0.4300 C.3   1 <1>  -0.1600 
 11 C       -2.3320    -5.6700     0.2530 C.ar  1 <1>  -0.1500 
 12 C       -3.9640    -4.8260    -1.2850 C.ar  1 <1>  -0.1500 
 13 C       -5.1740     0.6890     1.0820 C.3   1 <1>  -0.1600 
 14 C       -3.3130     1.2120    -0.5680 C.3   1 <1>  -0.1600 
 15 C       -3.2150    -5.9120    -0.8020 C.ar  1 <1>   0.0860 
 16 C       -4.8190     1.2670    -0.2910 C.3   1 <1>   0.2000 
 17 C       -3.3630    -7.2300    -1.3890 C.2   1 <1>   0.5440 
 18 O       -5.2170     2.5830    -0.3230 O.3   1 <1>  -0.6800 
 19 O       -3.7840    -7.3690    -2.5210 O.2   1 <1>  -0.5700 
 20 N       -3.0590    -8.3550    -0.6780 N.am  1 <1>  -0.7300 
 21 C       -3.1170    -9.7430    -1.1940 C.3   1 <1>   0.2200 
 22 C       -4.3580   -10.4690    -0.6920 C.3   1 <1>  -0.0800 
 23 C       -2.0280   -10.5560    -0.5090 C.3   1 <1>   0.1200 
 24 C       -3.9300   -10.9720     0.6920 C.3   1 <1>   0.1200 
 25 C       -5.6650    -9.6540    -0.6970 C.3   1 <1>  -0.0170 
 26 O       -2.5390   -10.8350     0.7590 O.3   1 <1>  -0.5600 
 27 C       -6.8430   -10.5150    -0.2710 C.ar  1 <1>  -0.1430 
 28 C       -7.4740   -11.3670    -1.1560 C.ar  1 <1>  -0.1500 
 29 C       -7.3440   -10.4940     1.0150 C.ar  1 <1>  -0.1500 
 30 C       -8.5390   -12.1380    -0.7230 C.ar  1 <1>   0.1600 
 31 C       -8.4160   -11.3060     1.3460 C.ar  1 <1>   0.1600 
 32 N       -9.0240   -12.1300     0.5090 N.ar  1 <1>  -0.6200 
 33 H       -0.7570    -4.3960     2.3930 H     1 <1>   0.3700 
 34 H       -2.6420    -0.2260     1.6900 H     1 <1>   0.0800 
 35 H       -4.4500    -2.7500    -1.1420 H     1 <1>   0.1500 
 36 H       -5.1850    -1.3820     0.5440 H     1 <1>   0.0800 
 37 H       -4.8360    -1.0970     2.2270 H     1 <1>   0.0800 
 38 H       -1.7110    -0.2190    -0.5450 H     1 <1>   0.0800 
 39 H       -3.2010    -0.8240    -1.2160 H     1 <1>   0.0800 
 40 H       -1.7200    -6.4570     0.6520 H     1 <1>   0.1500 
 41 H       -4.6420    -4.9970    -2.1050 H     1 <1>   0.1500 
 42 H       -4.7370     1.2970     1.8560 H     1 <1>   0.0800 
 43 H       -6.2430     0.6930     1.2060 H     1 <1>   0.0800 
 44 H       -3.1200     1.5700    -1.5640 H     1 <1>   0.0800 
 45 H       -2.7920     1.8440     0.1310 H     1 <1>   0.0800 
 46 H       -5.3580     0.7440    -1.0650 H     1 <1>   0.0800 
 47 H       -4.7490     3.0900     0.3650 H     1 <1>   0.4000 
 48 H       -2.8280    -8.3020     0.3160 H     1 <1>   0.3700 
 49 H       -3.0280    -9.7570    -2.2680 H     1 <1>   0.0800 
 50 H       -4.5040   -11.3340    -1.3150 H     1 <1>   0.0800 
 51 H       -1.0990   -10.0210    -0.4200 H     1 <1>   0.0800 
 52 H       -1.8680   -11.4910    -1.0170 H     1 <1>   0.0800 
 53 H       -4.1870   -12.0080     0.8360 H     1 <1>   0.0800 
 54 H       -4.3540   -10.3790     1.4830 H     1 <1>   0.0800 
 55 H       -5.8420    -9.2720    -1.6880 H     1 <1>   0.0800 
 56 H       -5.5850    -8.8090    -0.0360 H     1 <1>   0.0800 
 57 H       -7.1470   -11.4370    -2.1770 H     1 <1>   0.1500 
 58 H       -6.9130    -9.8540     1.7630 H     1 <1>   0.1500 
 59 H       -9.0190   -12.7970    -1.4270 H     1 <1>   0.1500 
 60 H       -8.7930   -11.2770     2.3540 H     1 <1>   0.1500 
@<TRIPOS>BOND
  1   1   2  2   
  2   2   3  am  
  3   2   4  am  
  4   3   5  1   
  5   3   6  1   
  6   4   7  1   
  7   4  33  1   
  8   5   7  ar  
  9   5   8  ar  
 10   6   9  1   
 11   6  10  1   
 12   6  34  1   
 13   7  11  ar  
 14   8  12  ar  
 15   8  35  1   
 16   9  13  1   
 17   9  36  1   
 18   9  37  1   
 19  10  14  1   
 20  10  38  1   
 21  10  39  1   
 22  11  15  ar  
 23  11  40  1   
 24  12  15  ar  
 25  12  41  1   
 26  13  16  1   
 27  13  42  1   
 28  13  43  1   
 29  14  16  1   
 30  14  44  1   
 31  14  45  1   
 32  15  17  1   
 33  16  18  1   
 34  16  46  1   
 35  17  19  2   
 36  17  20  am  
 37  18  47  1   
 38  20  21  1   
 39  20  48  1   
 40  21  22  1   
 41  21  23  1   
 42  21  49  1   
 43  22  24  1   
 44  22  25  1   
 45  22  50  1   
 46  23  26  1   
 47  23  51  1   
 48  23  52  1   
 49  24  26  1   
 50  24  53  1   
 51  24  54  1   
 52  25  27  1   
 53  25  55  1   
 54  25  56  1   
 55  27  28  ar  
 56  27  29  ar  
 57  28  30  ar  
 58  28  57  1   
 59  29  31  ar  
 60  29  58  1   
 61  30  32  ar  
 62  30  59  1   
 63  31  32  ar  
 64  31  60  1   
@<TRIPOS>SUBSTRUCTURE
  1 ****  15 GROUP 4 **** **** 0

# MOE 2024.06 (io_trps.svl 2023.06)
