@<TRIPOS>MOLECULE
NONAME
47 48 1 0 0 
SMALL
USER_CHARGES


@<TRIPOS>ATOM
  1 O        1.2950    -0.0960     1.9360 O.2   1 <1>  -0.5700 
  2 C        2.1840    -0.7440     1.4120 C.2   1 <1>   0.5440 
  3 N        3.4460    -0.1940     1.3240 N.am  1 <1>  -0.6600 
  4 C        1.8930    -2.0650     0.9060 C.ar  1 <1>   0.0860 
  5 C        3.7640     1.1250     1.9550 C.3   1 <1>   0.3200 
  6 C        4.5940    -0.8680     0.6570 C.3   1 <1>   0.1400 
  7 C        1.1760    -2.2630    -0.2760 C.ar  1 <1>   0.0830 
  8 C        2.3260    -3.2000     1.5890 C.ar  1 <1>  -0.1500 
  9 C        4.1350     2.1740     0.9160 C.2   1 <1>   0.0060 
 10 C        4.5140    -0.6920    -0.8580 C.3   1 <1>  -0.2400 
 11 O        0.7280    -1.2090    -0.9880 O.3   1 <1>  -0.3630 
 12 C        0.9250    -3.5350    -0.7610 C.ar  1 <1>  -0.1500 
 13 C        2.0880    -4.4780     1.1210 C.ar  1 <1>   0.0830 
 14 N        5.3090     2.7230     0.8430 N.2   1 <1>  -0.5650 
 15 N        3.2660     2.6230    -0.0230 N.pl3 1 <1>   0.0480 
 16 C       -0.5900    -0.7900    -0.7130 C.3   1 <1>   0.0400 
 17 C        1.3670    -4.6600    -0.0730 C.ar  1 <1>   0.0830 
 18 O        2.5970    -5.4730     1.9050 O.3   1 <1>  -0.3630 
 19 C        5.2020     3.5700    -0.1960 C.2   1 <1>   0.0770 
 20 C        3.9660     3.5220    -0.7360 C.2   1 <1>  -0.3020 
 21 C        1.8690     2.2150    -0.2610 C.3   1 <1>   0.0160 
 22 O        1.0990    -5.9150    -0.5260 O.3   1 <1>  -0.3630 
 23 C        3.0310    -6.6960     1.3490 C.3   1 <1>   0.0400 
 24 C        0.2990    -6.1600    -1.6630 C.3   1 <1>   0.0400 
 25 H        4.5910     0.9970     2.6310 H     1 <1>   0.0800 
 26 H        2.9340     1.4880     2.5340 H     1 <1>   0.0800 
 27 H        4.5960    -1.9160     0.9010 H     1 <1>   0.0800 
 28 H        5.5200    -0.4480     1.0160 H     1 <1>   0.0800 
 29 H        2.8650    -3.0770     2.5110 H     1 <1>   0.1500 
 30 H        3.5910    -1.0820    -1.2440 H     1 <1>   0.0800 
 31 H        5.3260    -1.2200    -1.3230 H     1 <1>   0.0800 
 32 H        4.6010     0.3470    -1.1210 H     1 <1>   0.0800 
 33 H        0.3810    -3.6130    -1.6810 H     1 <1>   0.1500 
 34 H       -0.8110     0.0590    -1.3340 H     1 <1>   0.0800 
 35 H       -0.6630    -0.5160     0.3250 H     1 <1>   0.0800 
 36 H       -1.2670    -1.5960    -0.9340 H     1 <1>   0.0800 
 37 H        6.0350     4.1800    -0.5060 H     1 <1>   0.1500 
 38 H        3.5600     4.0660    -1.5690 H     1 <1>   0.1500 
 39 H        1.3340     2.2070     0.6710 H     1 <1>   0.0800 
 40 H        1.8590     1.2290    -0.6870 H     1 <1>   0.0800 
 41 H        1.4000     2.9040    -0.9380 H     1 <1>   0.0800 
 42 H        3.6930    -7.1670     2.0520 H     1 <1>   0.0800 
 43 H        3.5490    -6.5010     0.4270 H     1 <1>   0.0800 
 44 H        2.1750    -7.3240     1.1810 H     1 <1>   0.0800 
 45 H        0.2110    -7.2250    -1.7850 H     1 <1>   0.0800 
 46 H        0.7780    -5.7340    -2.5270 H     1 <1>   0.0800 
 47 H       -0.6730    -5.7290    -1.5060 H     1 <1>   0.0800 
@<TRIPOS>BOND
  1   1   2  2   
  2   2   3  am  
  3   2   4  1   
  4   3   5  1   
  5   3   6  1   
  6   4   7  ar  
  7   4   8  ar  
  8   5   9  1   
  9   5  25  1   
 10   5  26  1   
 11   6  10  1   
 12   6  27  1   
 13   6  28  1   
 14   7  11  1   
 15   7  12  ar  
 16   8  13  ar  
 17   8  29  1   
 18   9  14  2   
 19   9  15  1   
 20  10  30  1   
 21  10  31  1   
 22  10  32  1   
 23  11  16  1   
 24  12  17  ar  
 25  12  33  1   
 26  13  17  ar  
 27  13  18  1   
 28  14  19  1   
 29  15  20  1   
 30  15  21  1   
 31  16  34  1   
 32  16  35  1   
 33  16  36  1   
 34  17  22  1   
 35  18  23  1   
 36  19  20  2   
 37  19  37  1   
 38  20  38  1   
 39  21  39  1   
 40  21  40  1   
 41  21  41  1   
 42  22  24  1   
 43  23  42  1   
 44  23  43  1   
 45  23  44  1   
 46  24  45  1   
 47  24  46  1   
 48  24  47  1   
@<TRIPOS>SUBSTRUCTURE
  1 ****   4 GROUP 4 **** **** 0

# MOE 2024.06 (io_trps.svl 2023.06)
