@<TRIPOS>MOLECULE
NONAME
56 58 1 0 0 
SMALL
USER_CHARGES


@<TRIPOS>ATOM
  1 N       -1.7380    -1.3380     0.6220 N.2   1 <1>  -0.7070 
  2 N       -2.2740    -0.4200    -0.2290 N.pl3 1 <1>   0.5930 
  3 C       -1.5640    -2.4240    -0.0480 C.2   1 <1>   0.1080 
  4 C       -2.7250     0.8710     0.1880 C.ar  1 <1>  -0.0230 
  5 C       -2.5330    -1.0390    -1.4100 C.2   1 <1>  -0.3020 
  6 C       -2.1070    -2.3180    -1.3220 C.2   1 <1>  -0.1810 
  7 C       -0.8730    -3.6300     0.5610 C.3   1 <1>  -0.0590 
  8 C       -3.1640     1.8220    -0.7340 C.ar  1 <1>  -0.1500 
  9 C       -2.7530     1.2100     1.5410 C.ar  1 <1>  -0.1500 
 10 C       -2.2500    -3.4480    -2.3110 C.3   1 <1>   0.5240 
 11 C       -3.6390     3.0520    -0.3150 C.ar  1 <1>  -0.1500 
 12 C       -3.2280     2.4390     1.9600 C.ar  1 <1>  -0.1500 
 13 N       -3.3250    -4.2970    -1.7410 N.4   1 <1>  -0.9590 
 14 C       -3.6760     3.3600     1.0320 C.ar  1 <1>  -0.1500 
 15 C       -3.3430    -5.6820    -2.2810 C.3   1 <1>   0.5240 
 16 C       -4.6910    -3.6570    -1.6950 C.3   1 <1>   0.3430 
 17 C       -3.7900    -6.5700    -1.1260 C.2   1 <1>   0.0460 
 18 C       -5.3160    -3.6100    -0.2680 C.3   1 <1>   0.3430 
 19 N       -3.5070    -6.2270     0.1550 N.2   1 <1>  -0.5650 
 20 C       -4.4700    -7.7360    -1.1710 C.2   1 <1>  -0.3020 
 21 N       -4.5710    -2.7520     0.7310 N.4   1 <1>  -0.9590 
 22 C       -3.9900    -7.2080     0.8500 C.2   1 <1>   0.0060 
 23 N       -4.5970    -8.1550     0.1010 N.pl3 1 <1>   0.0330 
 24 C       -4.3880    -3.4760     2.0280 C.3   1 <1>   0.2630 
 25 C       -5.2720    -1.4530     0.9930 C.3   1 <1>   0.2630 
 26 C       -3.8860    -7.3270     2.3580 C.3   1 <1>  -0.0600 
 27 H       -3.0130    -0.5330    -2.2280 H     1 <1>   0.1500 
 28 H       -0.1500    -3.2970     1.2860 H     1 <1>   0.0800 
 29 H       -0.3500    -4.1940    -0.1890 H     1 <1>   0.0800 
 30 H       -1.5790    -4.2670     1.0590 H     1 <1>   0.0800 
 31 H       -3.1350     1.6260    -1.7900 H     1 <1>   0.1500 
 32 H       -2.3950     0.5150     2.2830 H     1 <1>   0.1500 
 33 H       -1.3210    -3.9930    -2.3830 H     1 <1>   0.0800 
 34 H       -2.5240    -3.0760    -3.2850 H     1 <1>   0.0800 
 35 H       -3.9760     3.7770    -1.0370 H     1 <1>   0.1500 
 36 H       -3.2420     2.6860     3.0080 H     1 <1>   0.1500 
 37 H       -3.0540    -4.4960    -0.7600 H     1 <1>   0.4500 
 38 H       -4.0430     4.3200     1.3570 H     1 <1>   0.1500 
 39 H       -2.3510    -5.9820    -2.5750 H     1 <1>   0.0800 
 40 H       -4.0070    -5.7760    -3.1250 H     1 <1>   0.0800 
 41 H       -5.3600    -4.2050    -2.3380 H     1 <1>   0.0800 
 42 H       -4.6390    -2.6500    -2.0770 H     1 <1>   0.0800 
 43 H       -5.3770    -4.6210     0.1010 H     1 <1>   0.0800 
 44 H       -6.3290    -3.2500    -0.3500 H     1 <1>   0.0800 
 45 H       -4.8530    -8.2980    -2.0070 H     1 <1>   0.1500 
 46 H       -3.6150    -2.5050     0.4010 H     1 <1>   0.4500 
 47 H       -5.0340    -9.0230     0.4350 H     1 <1>   0.2700 
 48 H       -5.3430    -3.6910     2.4800 H     1 <1>   0.0800 
 49 H       -3.8120    -2.8720     2.7120 H     1 <1>   0.0800 
 50 H       -3.8640    -4.4050     1.8710 H     1 <1>   0.0800 
 51 H       -6.2530    -1.6270     1.4050 H     1 <1>   0.0800 
 52 H       -5.3740    -0.8850     0.0820 H     1 <1>   0.0800 
 53 H       -4.7050    -0.8610     1.6950 H     1 <1>   0.0800 
 54 H       -3.2720    -6.5390     2.7550 H     1 <1>   0.0800 
 55 H       -3.4380    -8.2680     2.6210 H     1 <1>   0.0800 
 56 H       -4.8620    -7.2690     2.8060 H     1 <1>   0.0800 
@<TRIPOS>BOND
  1   1   2  1   
  2   1   3  2   
  3   2   4  1   
  4   2   5  1   
  5   3   6  1   
  6   3   7  1   
  7   4   8  ar  
  8   4   9  ar  
  9   5   6  2   
 10   5  27  1   
 11   6  10  1   
 12   7  28  1   
 13   7  29  1   
 14   7  30  1   
 15   8  11  ar  
 16   8  31  1   
 17   9  12  ar  
 18   9  32  1   
 19  10  13  1   
 20  10  33  1   
 21  10  34  1   
 22  11  14  ar  
 23  11  35  1   
 24  12  14  ar  
 25  12  36  1   
 26  13  15  1   
 27  13  16  1   
 28  13  37  1   
 29  14  38  1   
 30  15  17  1   
 31  15  39  1   
 32  15  40  1   
 33  16  18  1   
 34  16  41  1   
 35  16  42  1   
 36  17  19  1   
 37  17  20  2   
 38  18  21  1   
 39  18  43  1   
 40  18  44  1   
 41  19  22  2   
 42  20  23  1   
 43  20  45  1   
 44  21  24  1   
 45  21  25  1   
 46  21  46  1   
 47  22  23  1   
 48  22  26  1   
 49  23  47  1   
 50  24  48  1   
 51  24  49  1   
 52  24  50  1   
 53  25  51  1   
 54  25  52  1   
 55  25  53  1   
 56  26  54  1   
 57  26  55  1   
 58  26  56  1   
@<TRIPOS>SUBSTRUCTURE
  1 ****  21 GROUP 4 **** **** 0

# MOE 2024.06 (io_trps.svl 2023.06)
