@<TRIPOS>MOLECULE
NONAME
55 57 1 0 0 
SMALL
USER_CHARGES


@<TRIPOS>ATOM
  1 O       -1.1290    -0.2440    -1.2550 O.2   1 <1>  -0.5700 
  2 C       -1.7660     0.5620    -0.6240 C.2   1 <1>   0.5690 
  3 N       -1.3200     1.8160    -0.4000 N.am  1 <1>  -0.7300 
  4 C       -3.1100     0.1500    -0.0750 C.3   1 <1>  -0.0990 
  5 C       -0.0520     2.3490    -0.9240 C.3   1 <1>   0.2840 
  6 C       -3.1240    -1.3670     0.1050 C.3   1 <1>   0.3430 
  7 C       -0.0510     3.8470    -0.6880 C.ar  1 <1>  -0.1440 
  8 N       -4.4480    -1.8520     0.5910 N.4   1 <1>  -0.9590 
  9 C       -0.6380     4.6990    -1.6120 C.ar  1 <1>  -0.1500 
 10 C        0.5280     4.3790     0.4550 C.ar  1 <1>  -0.1500 
 11 C       -5.5780    -1.7150    -0.3730 C.3   1 <1>   0.3430 
 12 C       -4.4280    -3.2900     0.9960 C.3   1 <1>   0.3430 
 13 C       -0.6450     6.0650    -1.3940 C.ar  1 <1>  -0.1500 
 14 C        0.5220     5.7460     0.6750 C.ar  1 <1>  -0.1500 
 15 C       -6.6270    -2.6900     0.1590 C.3   1 <1>   0.2000 
 16 C       -5.7900    -3.8890     0.6000 C.3   1 <1>  -0.0800 
 17 C       -0.0680     6.5990    -0.2540 C.ar  1 <1>   0.0820 
 18 O       -7.1940    -2.1190     1.2930 O.3   1 <1>  -0.6800 
 19 C       -5.6470    -4.9330    -0.5260 C.3   1 <1>   0.0200 
 20 O       -0.1190     7.9480    -0.1170 O.3   1 <1>  -0.3620 
 21 C       -4.5600    -5.9390    -0.2010 C.2   1 <1>  -0.0400 
 22 C        0.4560     8.5950     0.9960 C.3   1 <1>   0.0400 
 23 O       -4.5240    -6.4960     0.9790 O.3   1 <1>  -0.0190 
 24 C       -3.5220    -6.4050    -0.9110 C.2   1 <1>  -0.1500 
 25 N       -3.5080    -7.2950     1.1050 N.2   1 <1>  -0.4100 
 26 C       -2.8890    -7.2700    -0.0210 C.2   1 <1>   0.1080 
 27 C       -1.6440    -8.0730    -0.3260 C.3   1 <1>  -0.0590 
 28 H       -1.8740     2.5180     0.0970 H     1 <1>   0.3700 
 29 H       -3.2710     0.6360     0.8700 H     1 <1>   0.0800 
 30 H       -3.8600     0.4600    -0.7770 H     1 <1>   0.0800 
 31 H        0.7750     1.8840    -0.4150 H     1 <1>   0.0800 
 32 H        0.0300     2.1310    -1.9760 H     1 <1>   0.0800 
 33 H       -2.3550    -1.6380     0.8110 H     1 <1>   0.0800 
 34 H       -2.8840    -1.8390    -0.8350 H     1 <1>   0.0800 
 35 H       -4.7410    -1.3280     1.4300 H     1 <1>   0.4500 
 36 H       -1.0910     4.3040    -2.5050 H     1 <1>   0.1500 
 37 H        0.9870     3.7310     1.1810 H     1 <1>   0.1500 
 38 H       -5.9630    -0.7090    -0.4080 H     1 <1>   0.0800 
 39 H       -5.2630    -2.0200    -1.3570 H     1 <1>   0.0800 
 40 H       -3.6280    -3.8130     0.4970 H     1 <1>   0.0800 
 41 H       -4.2800    -3.3750     2.0610 H     1 <1>   0.0800 
 42 H       -1.0980     6.7290    -2.1090 H     1 <1>   0.1500 
 43 H        0.9780     6.1270     1.5680 H     1 <1>   0.1500 
 44 H       -7.4050    -2.9140    -0.5520 H     1 <1>   0.0800 
 45 H       -6.2300    -4.3790     1.4520 H     1 <1>   0.0800 
 46 H       -7.9570    -2.6450     1.6160 H     1 <1>   0.4000 
 47 H       -5.4070    -4.4620    -1.4630 H     1 <1>   0.0800 
 48 H       -6.5790    -5.4600    -0.6480 H     1 <1>   0.0800 
 49 H        0.2990     9.6530     0.8840 H     1 <1>   0.0800 
 50 H        1.5110     8.3820     1.0170 H     1 <1>   0.0800 
 51 H       -0.0270     8.2460     1.8910 H     1 <1>   0.0800 
 52 H       -3.2100    -6.1930    -1.9170 H     1 <1>   0.1500 
 53 H       -0.8410    -7.4160    -0.6050 H     1 <1>   0.0800 
 54 H       -1.8390    -8.7570    -1.1310 H     1 <1>   0.0800 
 55 H       -1.3470    -8.6340     0.5420 H     1 <1>   0.0800 
@<TRIPOS>BOND
  1   1   2  2   
  2   2   3  am  
  3   2   4  1   
  4   3   5  1   
  5   3  28  1   
  6   4   6  1   
  7   4  29  1   
  8   4  30  1   
  9   5   7  1   
 10   5  31  1   
 11   5  32  1   
 12   6   8  1   
 13   6  33  1   
 14   6  34  1   
 15   7   9  ar  
 16   7  10  ar  
 17   8  11  1   
 18   8  12  1   
 19   8  35  1   
 20   9  13  ar  
 21   9  36  1   
 22  10  14  ar  
 23  10  37  1   
 24  11  15  1   
 25  11  38  1   
 26  11  39  1   
 27  12  16  1   
 28  12  40  1   
 29  12  41  1   
 30  13  17  ar  
 31  13  42  1   
 32  14  17  ar  
 33  14  43  1   
 34  15  16  1   
 35  15  18  1   
 36  15  44  1   
 37  16  19  1   
 38  16  45  1   
 39  17  20  1   
 40  18  46  1   
 41  19  21  1   
 42  19  47  1   
 43  19  48  1   
 44  20  22  1   
 45  21  23  1   
 46  21  24  2   
 47  22  49  1   
 48  22  50  1   
 49  22  51  1   
 50  23  25  1   
 51  24  26  1   
 52  24  52  1   
 53  25  26  2   
 54  26  27  1   
 55  27  53  1   
 56  27  54  1   
 57  27  55  1   
@<TRIPOS>SUBSTRUCTURE
  1 ****   4 GROUP 4 **** **** 0

# MOE 2024.06 (io_trps.svl 2023.06)
