@<TRIPOS>MOLECULE
NONAME
50 51 1 0 0 
SMALL
USER_CHARGES


@<TRIPOS>ATOM
  1 F       -1.0380    -1.2600    -2.1400 F     1 <1>  -0.1900 
  2 C       -2.0020    -1.6710    -1.3630 C.ar  1 <1>   0.1900 
  3 C       -1.8200    -2.8270    -0.6290 C.ar  1 <1>  -0.1500 
  4 C       -3.1700    -0.9350    -1.3030 C.ar  1 <1>  -0.1500 
  5 C       -2.8480    -3.2580     0.1930 C.ar  1 <1>  -0.1500 
  6 C       -4.1910    -1.3770    -0.4790 C.ar  1 <1>  -0.1500 
  7 C       -4.0360    -2.5400     0.2680 C.ar  1 <1>  -0.1430 
  8 C       -5.1580    -3.0340     1.1670 C.3   1 <1>   0.2540 
  9 N       -5.7300    -4.2960     0.6580 N.3   1 <1>  -0.8100 
 10 C       -6.6400    -4.8970     1.6800 C.3   1 <1>   0.1710 
 11 C       -6.4250    -4.1140    -0.6500 C.3   1 <1>   0.1100 
 12 C       -7.0690    -6.3500     1.4380 C.2   1 <1>   0.5690 
 13 C       -5.5090    -4.4670    -1.8330 C.3   1 <1>   0.1200 
 14 O       -7.9950    -6.7690     2.0940 O.2   1 <1>  -0.5700 
 15 N       -6.4030    -7.0920     0.5070 N.am  1 <1>  -0.4930 
 16 O       -4.7020    -5.5300    -1.4670 O.3   1 <1>  -0.6800 
 17 C       -6.5960    -8.4490     0.1360 C.2   1 <1>   0.0630 
 18 C       -6.6420    -8.9470    -1.1680 C.2   1 <1>   0.1080 
 19 C       -6.7580    -9.5380     0.9220 C.2   1 <1>  -0.3320 
 20 N       -6.8310   -10.2290    -1.2030 N.2   1 <1>  -0.7070 
 21 C       -6.4940    -8.1260    -2.4280 C.3   1 <1>  -0.0590 
 22 N       -6.9150   -10.5970     0.0880 N.pl3 1 <1>   0.3140 
 23 C       -6.7690    -9.6390     2.4420 C.3   1 <1>  -0.0600 
 24 C       -7.1500   -12.0100     0.4540 C.3   1 <1>   0.0960 
 25 C       -8.6400   -12.2790     0.7000 C.3   1 <1>  -0.2400 
 26 H       -0.8970    -3.3730    -0.7010 H     1 <1>   0.1500 
 27 H       -3.2700    -0.0390    -1.8890 H     1 <1>   0.1500 
 28 H       -2.7240    -4.1560     0.7730 H     1 <1>   0.1500 
 29 H       -5.1050    -0.8110    -0.4230 H     1 <1>   0.1500 
 30 H       -5.9300    -2.2870     1.2520 H     1 <1>   0.0800 
 31 H       -4.7480    -3.1970     2.1500 H     1 <1>   0.0800 
 32 H       -7.5290    -4.2970     1.7670 H     1 <1>   0.0800 
 33 H       -6.1500    -4.8850     2.6370 H     1 <1>   0.0800 
 34 H       -6.7900    -3.1070    -0.7570 H     1 <1>   0.0800 
 35 H       -7.2830    -4.7630    -0.7090 H     1 <1>   0.0800 
 36 H       -4.8730    -3.6360    -2.0850 H     1 <1>   0.0800 
 37 H       -6.0800    -4.7460    -2.7020 H     1 <1>   0.0800 
 38 H       -5.7580    -6.5620    -0.0930 H     1 <1>   0.3700 
 39 H       -4.2870    -5.2670    -0.6130 H     1 <1>   0.4000 
 40 H       -7.0120    -7.1920    -2.3220 H     1 <1>   0.0800 
 41 H       -6.9080    -8.6630    -3.2620 H     1 <1>   0.0800 
 42 H       -5.4530    -7.9390    -2.6150 H     1 <1>   0.0800 
 43 H       -6.4330    -8.7190     2.8820 H     1 <1>   0.0800 
 44 H       -6.1140   -10.4240     2.7740 H     1 <1>   0.0800 
 45 H       -7.7670    -9.8360     2.7890 H     1 <1>   0.0800 
 46 H       -6.5760   -12.2410     1.3310 H     1 <1>   0.0800 
 47 H       -6.7970   -12.6240    -0.3540 H     1 <1>   0.0800 
 48 H       -9.0030   -11.6740     1.5110 H     1 <1>   0.0800 
 49 H       -8.7900   -13.3150     0.9460 H     1 <1>   0.0800 
 50 H       -9.2020   -12.0520    -0.1890 H     1 <1>   0.0800 
@<TRIPOS>BOND
  1   1   2  1   
  2   2   3  ar  
  3   2   4  ar  
  4   3   5  ar  
  5   3  26  1   
  6   4   6  ar  
  7   4  27  1   
  8   5   7  ar  
  9   5  28  1   
 10   6   7  ar  
 11   6  29  1   
 12   7   8  1   
 13   8   9  1   
 14   8  30  1   
 15   8  31  1   
 16   9  10  1   
 17   9  11  1   
 18  10  12  1   
 19  10  32  1   
 20  10  33  1   
 21  11  13  1   
 22  11  34  1   
 23  11  35  1   
 24  12  14  2   
 25  12  15  am  
 26  13  16  1   
 27  13  36  1   
 28  13  37  1   
 29  15  17  1   
 30  15  38  1   
 31  16  39  1   
 32  17  18  1   
 33  17  19  2   
 34  18  20  2   
 35  18  21  1   
 36  19  22  1   
 37  19  23  1   
 38  20  22  1   
 39  21  40  1   
 40  21  41  1   
 41  21  42  1   
 42  22  24  1   
 43  23  43  1   
 44  23  44  1   
 45  23  45  1   
 46  24  25  1   
 47  24  46  1   
 48  24  47  1   
 49  25  48  1   
 50  25  49  1   
 51  25  50  1   
@<TRIPOS>SUBSTRUCTURE
  1 ****  15 GROUP 4 **** **** 0

# MOE 2024.06 (io_trps.svl 2023.06)
