@<TRIPOS>MOLECULE
NONAME
53 54 1 0 0 
SMALL
USER_CHARGES


@<TRIPOS>ATOM
  1 S        0.7190     0.1990    -0.4210 S.o2  1 <1>   1.3330 
  2 O       -0.0380    -0.0630    -1.6210 O.2   1 <1>  -0.6500 
  3 O        2.0820     0.6720    -0.5340 O.2   1 <1>  -0.6500 
  4 N        0.6690    -1.1500     0.6000 N.am  1 <1>  -0.8490 
  5 C       -0.1440     1.4710     0.4980 C.3   1 <1>  -0.0550 
  6 C       -0.5750    -1.9210     0.4860 C.3   1 <1>   0.1160 
  7 C        1.8210    -2.0380     0.4100 C.3   1 <1>   0.1160 
  8 C       -0.2360     2.7970    -0.2920 C.3   1 <1>  -0.0800 
  9 C       -0.8750     3.9610     0.4590 C.3   1 <1>   0.2000 
 10 C        1.1170     3.3580    -0.7400 C.3   1 <1>   0.3430 
 11 O       -0.4000     4.0050     1.7650 O.3   1 <1>  -0.6800 
 12 C       -0.3900     5.2000    -0.3010 C.3   1 <1>   0.3430 
 13 N        0.9230     4.8280    -0.9410 N.4   1 <1>  -0.9590 
 14 C        2.0960     5.6040    -0.4150 C.3   1 <1>   0.3430 
 15 C        2.0440     7.0850    -0.7980 C.3   1 <1>   0.1200 
 16 O        3.1620     7.7000    -0.2110 O.3   1 <1>  -0.3630 
 17 C        3.4280     9.0250    -0.3750 C.ar  1 <1>   0.0820 
 18 C        4.5690     9.5460     0.2370 C.ar  1 <1>  -0.1430 
 19 C        2.6040     9.8550    -1.1320 C.ar  1 <1>  -0.1500 
 20 C        4.8830    10.8930     0.0690 C.ar  1 <1>  -0.1430 
 21 C        5.4750     8.6450     1.0800 C.3   1 <1>  -0.0970 
 22 C        2.9170    11.1910    -1.2850 C.ar  1 <1>  -0.1500 
 23 C        4.0520    11.7040    -0.6880 C.ar  1 <1>  -0.1500 
 24 C        6.1250    11.5210     0.6890 C.3   1 <1>  -0.0970 
 25 H       -1.1360     1.1320     0.7280 H     1 <1>   0.0800 
 26 H        0.3690     1.6230     1.4280 H     1 <1>   0.0800 
 27 H       -0.5840    -2.7170     1.2120 H     1 <1>   0.0800 
 28 H       -0.6650    -2.3470    -0.5000 H     1 <1>   0.0800 
 29 H       -1.4260    -1.2880     0.6680 H     1 <1>   0.0800 
 30 H        1.7690    -2.8690     1.0940 H     1 <1>   0.0800 
 31 H        2.7360    -1.5040     0.6020 H     1 <1>   0.0800 
 32 H        1.8430    -2.4130    -0.6000 H     1 <1>   0.0800 
 33 H       -0.8150     2.6120    -1.1820 H     1 <1>   0.0800 
 34 H       -1.9510     3.9010     0.4990 H     1 <1>   0.0800 
 35 H        1.4610     2.8750    -1.6430 H     1 <1>   0.0800 
 36 H        1.8460     3.1850     0.0350 H     1 <1>   0.0800 
 37 H        0.5740     4.0250     1.8250 H     1 <1>   0.4000 
 38 H       -0.2980     6.0400     0.3680 H     1 <1>   0.0800 
 39 H       -1.1060     5.4400    -1.0700 H     1 <1>   0.0800 
 40 H        0.8530     4.9930    -1.9560 H     1 <1>   0.4500 
 41 H        2.1290     5.5270     0.6590 H     1 <1>   0.0800 
 42 H        3.0080     5.1870    -0.8130 H     1 <1>   0.0800 
 43 H        1.1640     7.5630    -0.4070 H     1 <1>   0.0800 
 44 H        2.1160     7.2090    -1.8640 H     1 <1>   0.0800 
 45 H        1.7180     9.4940    -1.6140 H     1 <1>   0.1500 
 46 H        5.8600     9.1750     1.9310 H     1 <1>   0.0800 
 47 H        6.2980     8.3010     0.4810 H     1 <1>   0.0800 
 48 H        4.9450     7.7910     1.4580 H     1 <1>   0.0800 
 49 H        2.2830    11.8350    -1.8680 H     1 <1>   0.1500 
 50 H        4.2840    12.7470    -0.8190 H     1 <1>   0.1500 
 51 H        6.2900    12.5120     0.3060 H     1 <1>   0.0800 
 52 H        6.9940    10.9290     0.4620 H     1 <1>   0.0800 
 53 H        6.0100    11.5840     1.7550 H     1 <1>   0.0800 
@<TRIPOS>BOND
  1   1   2  2   
  2   1   3  2   
  3   1   4  am  
  4   1   5  1   
  5   4   6  1   
  6   4   7  1   
  7   5   8  1   
  8   5  25  1   
  9   5  26  1   
 10   6  27  1   
 11   6  28  1   
 12   6  29  1   
 13   7  30  1   
 14   7  31  1   
 15   7  32  1   
 16   8   9  1   
 17   8  10  1   
 18   8  33  1   
 19   9  11  1   
 20   9  12  1   
 21   9  34  1   
 22  10  13  1   
 23  10  35  1   
 24  10  36  1   
 25  11  37  1   
 26  12  13  1   
 27  12  38  1   
 28  12  39  1   
 29  13  14  1   
 30  13  40  1   
 31  14  15  1   
 32  14  41  1   
 33  14  42  1   
 34  15  16  1   
 35  15  43  1   
 36  15  44  1   
 37  16  17  1   
 38  17  18  ar  
 39  17  19  ar  
 40  18  20  ar  
 41  18  21  1   
 42  19  22  ar  
 43  19  45  1   
 44  20  23  ar  
 45  20  24  1   
 46  21  46  1   
 47  21  47  1   
 48  21  48  1   
 49  22  23  ar  
 50  22  49  1   
 51  23  50  1   
 52  24  51  1   
 53  24  52  1   
 54  24  53  1   
@<TRIPOS>SUBSTRUCTURE
  1 ****  14 GROUP 4 **** **** 0

# MOE 2024.06 (io_trps.svl 2023.06)
