@<TRIPOS>MOLECULE
NONAME
56 60 1 0 0 
SMALL
USER_CHARGES


@<TRIPOS>ATOM
  1 O        0.4060     0.7190    -1.1790 O.2   1 <1>  -0.5700 
  2 C        1.2280    -0.1660    -1.0260 C.2   1 <1>   0.4690 
  3 C        2.4180     0.0070    -0.2400 C.ar  1 <1>   0.0860 
  4 C        1.0360    -1.4370    -1.6210 C.2   1 <1>  -0.1360 
  5 C        3.2900    -1.0790    -0.1060 C.ar  1 <1>   0.0820 
  6 C        2.7560     1.2000     0.4020 C.ar  1 <1>  -0.1500 
  7 C        1.9130    -2.4600    -1.4500 C.2   1 <1>   0.0910 
  8 O        3.0150    -2.2600    -0.7020 O.3   1 <1>  -0.1590 
  9 C        4.4540    -0.9690     0.6410 C.ar  1 <1>  -0.1500 
 10 C        3.9140     1.3050     1.1460 C.ar  1 <1>  -0.1500 
 11 C        1.7720    -3.7840    -2.0190 C.2   1 <1>   0.6160 
 12 C        4.7720     0.2200     1.2700 C.ar  1 <1>  -0.1440 
 13 O        2.7080    -4.2710    -2.6270 O.2   1 <1>  -0.5700 
 14 N        0.5960    -4.5000    -1.9090 N.am  1 <1>  -0.6600 
 15 C        6.0420     0.3550     2.0910 C.3   1 <1>  -0.0970 
 16 C       -0.4490    -4.2410    -0.8780 C.3   1 <1>   0.1400 
 17 C        0.3500    -5.7330    -2.7120 C.3   1 <1>   0.1400 
 18 C       -0.5340    -5.4370     0.0730 C.3   1 <1>  -0.1600 
 19 C        0.2650    -6.9460    -1.7830 C.3   1 <1>  -0.1600 
 20 C       -0.7900    -6.7580    -0.6790 C.3   1 <1>   0.4240 
 21 O       -1.9980    -6.5890    -1.3910 O.3   1 <1>  -0.5600 
 22 C       -0.8520    -7.9890     0.2720 C.ar  1 <1>  -0.1430 
 23 C       -3.1900    -6.8330    -0.7200 C.3   1 <1>   0.1200 
 24 C        0.2470    -8.3940     1.0420 C.ar  1 <1>   0.0830 
 25 C       -2.0310    -8.7270     0.3760 C.ar  1 <1>  -0.1430 
 26 C       -3.2600    -8.3200    -0.4110 C.3   1 <1>  -0.0170 
 27 O        1.3990    -7.6770     0.9750 O.3   1 <1>  -0.3620 
 28 C        0.1520    -9.5120     1.8680 C.ar  1 <1>  -0.1500 
 29 C       -2.1120    -9.8390     1.1980 C.ar  1 <1>  -0.1500 
 30 C        2.6180    -8.1400     1.5120 C.3   1 <1>   0.0400 
 31 C       -1.0210   -10.2330     1.9430 C.ar  1 <1>  -0.1500 
 32 H        0.1520    -1.5480    -2.2210 H     1 <1>   0.1500 
 33 H        2.0960     2.0460     0.3100 H     1 <1>   0.1500 
 34 H        5.1030    -1.8230     0.7200 H     1 <1>   0.1500 
 35 H        4.1540     2.2350     1.6330 H     1 <1>   0.1500 
 36 H        6.5920    -0.5680     2.1040 H     1 <1>   0.0800 
 37 H        5.7980     0.6230     3.1030 H     1 <1>   0.0800 
 38 H        6.6700     1.1210     1.6710 H     1 <1>   0.0800 
 39 H       -1.3970    -4.0910    -1.3680 H     1 <1>   0.0800 
 40 H       -0.2220    -3.3600    -0.3060 H     1 <1>   0.0800 
 41 H        1.1360    -5.8850    -3.4320 H     1 <1>   0.0800 
 42 H       -0.5730    -5.6200    -3.2550 H     1 <1>   0.0800 
 43 H       -1.3040    -5.2760     0.8030 H     1 <1>   0.0800 
 44 H        0.3930    -5.4910     0.6090 H     1 <1>   0.0800 
 45 H        1.2390    -7.0990    -1.3640 H     1 <1>   0.0800 
 46 H        0.0230    -7.8250    -2.3520 H     1 <1>   0.0800 
 47 H       -4.0000    -6.5430    -1.3660 H     1 <1>   0.0800 
 48 H       -3.2230    -6.2450     0.1800 H     1 <1>   0.0800 
 49 H       -3.3060    -8.8770    -1.3300 H     1 <1>   0.0800 
 50 H       -4.1510    -8.5220     0.1550 H     1 <1>   0.0800 
 51 H        0.9800    -9.8370     2.4670 H     1 <1>   0.1500 
 52 H       -3.0270   -10.4020     1.2610 H     1 <1>   0.1500 
 53 H        3.3900    -7.4470     1.2300 H     1 <1>   0.0800 
 54 H        2.8330    -9.1120     1.1050 H     1 <1>   0.0800 
 55 H        2.5360    -8.1780     2.5840 H     1 <1>   0.0800 
 56 H       -1.0880   -11.0970     2.5820 H     1 <1>   0.1500 
@<TRIPOS>BOND
  1   1   2  2   
  2   2   3  1   
  3   2   4  1   
  4   3   5  ar  
  5   3   6  ar  
  6   4   7  2   
  7   4  32  1   
  8   5   8  1   
  9   5   9  ar  
 10   6  10  ar  
 11   6  33  1   
 12   7   8  1   
 13   7  11  1   
 14   9  12  ar  
 15   9  34  1   
 16  10  12  ar  
 17  10  35  1   
 18  11  13  2   
 19  11  14  am  
 20  12  15  1   
 21  14  16  1   
 22  14  17  1   
 23  15  36  1   
 24  15  37  1   
 25  15  38  1   
 26  16  18  1   
 27  16  39  1   
 28  16  40  1   
 29  17  19  1   
 30  17  41  1   
 31  17  42  1   
 32  18  20  1   
 33  18  43  1   
 34  18  44  1   
 35  19  20  1   
 36  19  45  1   
 37  19  46  1   
 38  20  21  1   
 39  20  22  1   
 40  21  23  1   
 41  22  24  ar  
 42  22  25  ar  
 43  23  26  1   
 44  23  47  1   
 45  23  48  1   
 46  24  27  1   
 47  24  28  ar  
 48  25  26  1   
 49  25  29  ar  
 50  26  49  1   
 51  26  50  1   
 52  27  30  1   
 53  28  31  ar  
 54  28  51  1   
 55  29  31  ar  
 56  29  52  1   
 57  30  53  1   
 58  30  54  1   
 59  30  55  1   
 60  31  56  1   
@<TRIPOS>SUBSTRUCTURE
  1 ****  16 GROUP 4 **** **** 0

# MOE 2024.06 (io_trps.svl 2023.06)
