@<TRIPOS>MOLECULE
NONAME
53 55 1 0 0 
SMALL
USER_CHARGES


@<TRIPOS>ATOM
  1 O       -0.9030    -0.8240    -0.2640 O.2   1 <1>  -0.5700 
  2 C       -1.9260    -0.1970    -0.0620 C.2   1 <1>   0.5440 
  3 N       -1.8810     0.8770     0.8020 N.am  1 <1>  -0.6600 
  4 C       -3.1400    -0.6060    -0.7250 C.ar  1 <1>   0.0860 
  5 C       -0.5840     1.4320     1.2940 C.3   1 <1>   0.1400 
  6 C       -3.0630     1.4610     1.5030 C.3   1 <1>   0.1400 
  7 C       -3.5450    -1.9360    -0.6940 C.ar  1 <1>   0.1600 
  8 C       -3.9480     0.2770    -1.4340 C.ar  1 <1>  -0.1500 
  9 C       -0.6330     2.9690     1.3350 C.3   1 <1>   0.1200 
 10 C       -2.9750     2.9970     1.5200 C.3   1 <1>   0.1200 
 11 N       -4.6400    -2.4290    -1.2470 N.ar  1 <1>  -0.6200 
 12 C       -5.0850    -0.2190    -2.0220 C.ar  1 <1>  -0.1500 
 13 O       -1.7510     3.4150     2.0530 O.3   1 <1>  -0.5600 
 14 C       -5.4130    -1.5710    -1.9060 C.ar  1 <1>   0.4100 
 15 N       -6.5590    -2.0710    -2.4880 N.pl3 1 <1>  -0.8380 
 16 C       -6.6660    -3.5190    -2.8750 C.3   1 <1>   0.3900 
 17 C       -7.8420    -1.3130    -2.5280 C.3   1 <1>   0.1290 
 18 C       -7.6210    -4.2940    -1.9710 C.2   1 <1>   0.1080 
 19 N       -8.7040    -4.8810    -2.3910 N.2   1 <1>  -0.7070 
 20 C       -7.4420    -4.4560    -0.6010 C.2   1 <1>  -0.1500 
 21 N       -9.2380    -5.4350    -1.2860 N.pl3 1 <1>   0.3000 
 22 C       -8.4960    -5.1950    -0.1840 C.2   1 <1>  -0.3320 
 23 C       -8.8710    -5.7050     1.2020 C.3   1 <1>   0.1800 
 24 C      -10.2400    -5.1410     1.5990 C.3   1 <1>  -0.2400 
 25 C       -8.9250    -7.2360     1.1840 C.3   1 <1>  -0.2400 
 26 C       -7.8290    -5.2550     2.2330 C.3   1 <1>  -0.2400 
 27 H        0.2240     1.1230     0.6530 H     1 <1>   0.0800 
 28 H       -0.3880     1.0540     2.2820 H     1 <1>   0.0800 
 29 H       -3.0780     1.1040     2.5180 H     1 <1>   0.0800 
 30 H       -3.9820     1.1570     1.0370 H     1 <1>   0.0800 
 31 H       -2.9120    -2.6330    -0.1710 H     1 <1>   0.1500 
 32 H       -3.6750     1.3140    -1.5210 H     1 <1>   0.1500 
 33 H       -0.6810     3.3700     0.3380 H     1 <1>   0.0800 
 34 H        0.2450     3.3540     1.8210 H     1 <1>   0.0800 
 35 H       -3.7560     3.4070     2.1350 H     1 <1>   0.0800 
 36 H       -3.0720     3.3950     0.5250 H     1 <1>   0.0800 
 37 H       -5.7270     0.4250    -2.5900 H     1 <1>   0.1500 
 38 H       -5.7000    -3.9920    -2.8500 H     1 <1>   0.0800 
 39 H       -7.0260    -3.5800    -3.8860 H     1 <1>   0.0800 
 40 H       -7.7680    -0.4090    -1.9520 H     1 <1>   0.0800 
 41 H       -8.6400    -1.9060    -2.1150 H     1 <1>   0.0800 
 42 H       -8.0840    -1.0670    -3.5470 H     1 <1>   0.0800 
 43 H       -6.6160    -4.0500    -0.0430 H     1 <1>   0.1500 
 44 H      -10.1110    -5.9740    -1.3110 H     1 <1>   0.2700 
 45 H      -11.0050    -5.4760     0.9230 H     1 <1>   0.0800 
 46 H      -10.2140    -4.0660     1.5770 H     1 <1>   0.0800 
 47 H      -10.5040    -5.4560     2.5930 H     1 <1>   0.0800 
 48 H       -9.6780    -7.5870     0.5030 H     1 <1>   0.0800 
 49 H       -9.1490    -7.6170     2.1640 H     1 <1>   0.0800 
 50 H       -7.9740    -7.6320     0.8720 H     1 <1>   0.0800 
 51 H       -7.7740    -4.1810     2.2620 H     1 <1>   0.0800 
 52 H       -6.8590    -5.6390     1.9740 H     1 <1>   0.0800 
 53 H       -8.0870    -5.6100     3.2140 H     1 <1>   0.0800 
@<TRIPOS>BOND
  1   1   2  2   
  2   2   3  am  
  3   2   4  1   
  4   3   5  1   
  5   3   6  1   
  6   4   7  ar  
  7   4   8  ar  
  8   5   9  1   
  9   5  27  1   
 10   5  28  1   
 11   6  10  1   
 12   6  29  1   
 13   6  30  1   
 14   7  11  ar  
 15   7  31  1   
 16   8  12  ar  
 17   8  32  1   
 18   9  13  1   
 19   9  33  1   
 20   9  34  1   
 21  10  13  1   
 22  10  35  1   
 23  10  36  1   
 24  11  14  ar  
 25  12  14  ar  
 26  12  37  1   
 27  14  15  1   
 28  15  16  1   
 29  15  17  1   
 30  16  18  1   
 31  16  38  1   
 32  16  39  1   
 33  17  40  1   
 34  17  41  1   
 35  17  42  1   
 36  18  19  2   
 37  18  20  1   
 38  19  21  1   
 39  20  22  2   
 40  20  43  1   
 41  21  22  1   
 42  21  44  1   
 43  22  23  1   
 44  23  24  1   
 45  23  25  1   
 46  23  26  1   
 47  24  45  1   
 48  24  46  1   
 49  24  47  1   
 50  25  48  1   
 51  25  49  1   
 52  25  50  1   
 53  26  51  1   
 54  26  52  1   
 55  26  53  1   
@<TRIPOS>SUBSTRUCTURE
  1 ****  11 GROUP 4 **** **** 0

# MOE 2024.06 (io_trps.svl 2023.06)
