@<TRIPOS>MOLECULE
NONAME
44 47 1 0 0 
SMALL
USER_CHARGES


@<TRIPOS>ATOM
  1 S        1.6990    -0.5890    -1.8280 S.3   1 <1>  -0.0800 
  2 C        3.2110    -1.1430    -1.1470 C.2   1 <1>   0.2280 
  3 C        1.7000     0.7230    -0.6870 C.2   1 <1>  -0.1100 
  4 N        3.6560    -0.4280    -0.1910 N.2   1 <1>  -0.5650 
  5 C        2.7990     0.6360     0.0790 C.2   1 <1>   0.0460 
  6 C        3.1640     1.5990     1.2010 C.3   1 <1>   0.3210 
  7 N        4.1310     2.6280     0.7210 N.am  1 <1>  -0.6600 
  8 C        3.7350     3.9000     0.4480 C.2   1 <1>   0.5690 
  9 C        5.4890     2.1900     0.3010 C.3   1 <1>   0.2200 
 10 O        2.6770     4.3490     0.8140 O.2   1 <1>  -0.5700 
 11 C        4.7090     4.7660    -0.3170 C.3   1 <1>  -0.0190 
 12 C        6.5440     2.8240     1.2430 C.3   1 <1>   0.3430 
 13 C        5.6940     2.5520    -1.1840 C.3   1 <1>  -0.1600 
 14 C        5.7610     5.2380     0.6960 C.3   1 <1>   0.3430 
 15 C        5.2450     3.9880    -1.5400 C.3   1 <1>  -0.1600 
 16 N        6.8890     4.2800     1.0370 N.4   1 <1>  -0.9590 
 17 C        8.0440     4.4440     0.1130 C.3   1 <1>   0.5240 
 18 C        8.7400     5.7310     0.5030 C.2   1 <1>  -0.1810 
 19 C        8.5680     6.9150    -0.2240 C.2   1 <1>   0.0560 
 20 C        9.5800     6.0280     1.5170 C.2   1 <1>  -0.3020 
 21 N        9.2640     7.8900     0.3400 N.2   1 <1>  -0.7070 
 22 C        7.6980     6.9110    -1.4060 C.2   1 <1>   1.0330 
 23 N        9.8830     7.3350     1.3890 N.pl3 1 <1>   0.3000 
 24 O        7.9510     6.1220    -2.3380 O.co2 1 <1>  -0.9000 
 25 O        6.5580     7.4100    -1.3680 O.co2 1 <1>  -0.9000 
 26 H        3.6430    -2.0290    -1.5790 H     1 <1>   0.1500 
 27 H        0.8810     1.4200    -0.7120 H     1 <1>   0.1500 
 28 H        3.5880     1.0510     2.0230 H     1 <1>   0.0800 
 29 H        2.2660     2.0780     1.5530 H     1 <1>   0.0800 
 30 H        5.5670     1.1220     0.4100 H     1 <1>   0.0800 
 31 H        4.1860     5.6380    -0.6680 H     1 <1>   0.0800 
 32 H        7.4480     2.2460     1.1580 H     1 <1>   0.0800 
 33 H        6.1830     2.6920     2.2490 H     1 <1>   0.0800 
 34 H        6.7220     2.4060    -1.4650 H     1 <1>   0.0800 
 35 H        5.1170     1.8590    -1.7740 H     1 <1>   0.0800 
 36 H        5.2320     5.4830     1.6030 H     1 <1>   0.0800 
 37 H        6.1770     6.1640     0.3460 H     1 <1>   0.0800 
 38 H        4.4440     3.9180    -2.2570 H     1 <1>   0.0800 
 39 H        6.0290     4.5380    -2.0270 H     1 <1>   0.0800 
 40 H        7.2750     4.6450     1.9160 H     1 <1>   0.4500 
 41 H        8.7370     3.6300     0.2320 H     1 <1>   0.0800 
 42 H        7.7230     4.4650    -0.9140 H     1 <1>   0.0800 
 43 H        9.9830     5.4170     2.3040 H     1 <1>   0.1500 
 44 H       10.5070     7.8810     1.9970 H     1 <1>   0.2700 
@<TRIPOS>BOND
  1   1   2  1   
  2   1   3  1   
  3   2   4  2   
  4   2  26  1   
  5   3   5  2   
  6   3  27  1   
  7   4   5  1   
  8   5   6  1   
  9   6   7  1   
 10   6  28  1   
 11   6  29  1   
 12   7   8  am  
 13   7   9  1   
 14   8  10  2   
 15   8  11  1   
 16   9  12  1   
 17   9  13  1   
 18   9  30  1   
 19  11  14  1   
 20  11  15  1   
 21  11  31  1   
 22  12  16  1   
 23  12  32  1   
 24  12  33  1   
 25  13  15  1   
 26  13  34  1   
 27  13  35  1   
 28  14  16  1   
 29  14  36  1   
 30  14  37  1   
 31  15  38  1   
 32  15  39  1   
 33  16  17  1   
 34  16  40  1   
 35  17  18  1   
 36  17  41  1   
 37  17  42  1   
 38  18  19  1   
 39  18  20  2   
 40  19  21  2   
 41  19  22  1   
 42  20  23  1   
 43  20  43  1   
 44  21  23  1   
 45  22  24  ar  
 46  22  25  ar  
 47  23  44  1   
@<TRIPOS>SUBSTRUCTURE
  1 ****  11 GROUP 4 **** **** 0

# MOE 2024.06 (io_trps.svl 2023.06)
