@<TRIPOS>MOLECULE
NONAME
53 55 1 0 0 
SMALL
USER_CHARGES


@<TRIPOS>ATOM
  1 O       -0.3620     0.6700     0.1840 O.2   1 <1>  -0.5700 
  2 C       -0.3940     1.8790     0.1660 C.2   1 <1>   0.5690 
  3 N       -1.5250     2.6110     0.4380 N.am  1 <1>  -0.6600 
  4 C        0.9070     2.5960    -0.2000 C.3   1 <1>   0.1810 
  5 C       -1.4840     4.1140     0.4050 C.3   1 <1>   0.3640 
  6 C       -2.7740     2.0360     1.0180 C.3   1 <1>   0.2200 
  7 O        0.9580     3.9210     0.2650 O.3   1 <1>  -0.5600 
  8 C       -2.6310     4.6530    -0.4550 C.ar  1 <1>  -0.1440 
  9 C       -0.1520     4.7010    -0.1310 C.3   1 <1>   0.2610 
 10 C       -2.4870     1.4230     2.3890 C.3   1 <1>  -0.2400 
 11 C       -3.4210     1.0290     0.0670 C.3   1 <1>  -0.2400 
 12 C       -2.8990     4.1240    -1.7110 C.ar  1 <1>  -0.1500 
 13 C       -3.4150     5.6970     0.0150 C.ar  1 <1>  -0.1500 
 14 C        0.0340     6.1730     0.2850 C.2   1 <1>   0.5690 
 15 C       -3.9330     4.6270    -2.4810 C.ar  1 <1>  -0.1500 
 16 C       -4.4490     6.2020    -0.7540 C.ar  1 <1>  -0.1500 
 17 O       -0.5650     6.5870     1.2550 O.2   1 <1>  -0.5700 
 18 N        0.8580     7.0040    -0.4430 N.am  1 <1>  -0.6600 
 19 C       -4.7090     5.6660    -2.0020 C.ar  1 <1>  -0.1500 
 20 C        1.0190     8.4430    -0.0780 C.3   1 <1>   0.1400 
 21 C        1.6920     6.5360    -1.5860 C.3   1 <1>   0.0600 
 22 C        2.3450     8.6790     0.6570 C.3   1 <1>   0.0000 
 23 C        2.4540     8.0450     2.0700 C.3   1 <1>   0.0000 
 24 C        2.4530    10.0610     1.3550 C.3   1 <1>   0.0000 
 25 C        3.2020     9.3320     2.5020 C.3   1 <1>   0.0000 
 26 H        1.0260     2.6020    -1.2670 H     1 <1>   0.0800 
 27 H        1.7340     2.0680     0.2380 H     1 <1>   0.0800 
 28 H       -1.6210     4.4490     1.4190 H     1 <1>   0.0800 
 29 H       -3.4850     2.8310     1.1680 H     1 <1>   0.0800 
 30 H       -0.1900     4.6730    -1.2030 H     1 <1>   0.0800 
 31 H       -1.8430     0.5670     2.3010 H     1 <1>   0.0800 
 32 H       -3.4070     1.1050     2.8440 H     1 <1>   0.0800 
 33 H       -2.0240     2.1510     3.0310 H     1 <1>   0.0800 
 34 H       -2.8060     0.1570    -0.0560 H     1 <1>   0.0800 
 35 H       -3.5940     1.4800    -0.8920 H     1 <1>   0.0800 
 36 H       -4.3680     0.7140     0.4650 H     1 <1>   0.0800 
 37 H       -2.3060     3.3100    -2.0930 H     1 <1>   0.1500 
 38 H       -3.2200     6.1300     0.9830 H     1 <1>   0.1500 
 39 H       -4.1350     4.2080    -3.4520 H     1 <1>   0.1500 
 40 H       -5.0500     7.0120    -0.3800 H     1 <1>   0.1500 
 41 H       -5.5140     6.0590    -2.6000 H     1 <1>   0.1500 
 42 H        0.9880     9.0430    -0.9710 H     1 <1>   0.0800 
 43 H        0.2010     8.7560     0.5490 H     1 <1>   0.0800 
 44 H        2.4390     7.2690    -1.8350 H     1 <1>   0.0800 
 45 H        1.0680     6.3740    -2.4480 H     1 <1>   0.0800 
 46 H        2.1920     5.6190    -1.3260 H     1 <1>   0.0800 
 47 H        3.2130     8.4820     0.0510 H     1 <1>   0.0000 
 48 H        1.5040     7.9390     2.5660 H     1 <1>   0.0000 
 49 H        3.0590     7.1560     2.1030 H     1 <1>   0.0000 
 50 H        3.0600    10.7720     0.8220 H     1 <1>   0.0000 
 51 H        1.5030    10.4560     1.6710 H     1 <1>   0.0000 
 52 H        4.2640     9.2730     2.3330 H     1 <1>   0.0000 
 53 H        2.9390     9.6810     3.4840 H     1 <1>   0.0000 
@<TRIPOS>BOND
  1   1   2  2   
  2   2   3  am  
  3   2   4  1   
  4   3   5  1   
  5   3   6  1   
  6   4   7  1   
  7   4  26  1   
  8   4  27  1   
  9   5   8  1   
 10   5   9  1   
 11   5  28  1   
 12   6  10  1   
 13   6  11  1   
 14   6  29  1   
 15   7   9  1   
 16   8  12  ar  
 17   8  13  ar  
 18   9  14  1   
 19   9  30  1   
 20  10  31  1   
 21  10  32  1   
 22  10  33  1   
 23  11  34  1   
 24  11  35  1   
 25  11  36  1   
 26  12  15  ar  
 27  12  37  1   
 28  13  16  ar  
 29  13  38  1   
 30  14  17  2   
 31  14  18  am  
 32  15  19  ar  
 33  15  39  1   
 34  16  19  ar  
 35  16  40  1   
 36  18  20  1   
 37  18  21  1   
 38  19  41  1   
 39  20  22  1   
 40  20  42  1   
 41  20  43  1   
 42  21  44  1   
 43  21  45  1   
 44  21  46  1   
 45  22  23  1   
 46  22  24  1   
 47  22  47  1   
 48  23  25  1   
 49  23  48  1   
 50  23  49  1   
 51  24  25  1   
 52  24  50  1   
 53  24  51  1   
 54  25  52  1   
 55  25  53  1   
@<TRIPOS>SUBSTRUCTURE
  1 ****   9 GROUP 4 **** **** 0

# MOE 2024.06 (io_trps.svl 2023.06)
