@<TRIPOS>MOLECULE
NONAME
44 46 1 0 0 
SMALL
USER_CHARGES


@<TRIPOS>ATOM
  1 S       -0.5620     0.8710    -1.6470 S.3   1 <1>  -0.0800 
  2 C       -1.2510     1.2730    -0.0670 C.2   1 <1>  -0.0450 
  3 C       -1.1390    -0.7770    -1.5630 C.2   1 <1>  -0.1100 
  4 C       -1.8780     0.1710     0.4260 C.2   1 <1>  -0.1810 
  5 C       -1.0940     2.6200     0.4290 C.2   1 <1>   0.7150 
  6 C       -1.8090    -0.9800    -0.4150 C.2   1 <1>  -0.1500 
  7 C       -2.6180     0.0930     1.7500 C.3   1 <1>  -0.0590 
  8 O       -2.0750     3.2180     0.8360 O.2   1 <1>  -0.5700 
  9 N        0.1340     3.2550     0.4700 N.am  1 <1>  -0.6600 
 10 C        1.4300     2.5100     0.4660 C.3   1 <1>   0.1400 
 11 C        0.2400     4.7330     0.6010 C.3   1 <1>   0.1400 
 12 C        2.3130     2.9020    -0.7250 C.3   1 <1>   0.1400 
 13 C        0.6340     5.3360    -0.7520 C.3   1 <1>  -0.1600 
 14 N        2.9280     4.2510    -0.5190 N.am  1 <1>  -0.6600 
 15 C        2.1480     5.4380    -0.9840 C.3   1 <1>   0.1400 
 16 C        4.1690     4.3580     0.1030 C.2   1 <1>   0.6300 
 17 O        4.5130     3.4010     0.7850 O.2   1 <1>  -0.5700 
 18 C        5.0550     5.5110    -0.0080 C.2   1 <1>   0.3890 
 19 N        4.9760     6.4190    -0.9310 N.2   1 <1>  -0.5120 
 20 C        6.1870     5.5860     1.0390 C.3   1 <1>  -0.0990 
 21 N        5.8560     7.4810    -0.9340 N.am  1 <1>  -0.3680 
 22 C        6.6750     7.0180     1.3270 C.3   1 <1>  -0.0990 
 23 C        6.7320     7.8300     0.0550 C.2   1 <1>   0.5690 
 24 O        7.4970     8.7510    -0.0590 O.2   1 <1>  -0.5700 
 25 H       -0.9170    -1.4270    -2.3900 H     1 <1>   0.1500 
 26 H       -2.2660    -1.9100    -0.1240 H     1 <1>   0.1500 
 27 H       -2.5590     1.0260     2.2810 H     1 <1>   0.0800 
 28 H       -2.1920    -0.6780     2.3650 H     1 <1>   0.0800 
 29 H       -3.6550    -0.1320     1.5750 H     1 <1>   0.0800 
 30 H        1.2480     1.4510     0.4310 H     1 <1>   0.0800 
 31 H        1.9590     2.7070     1.3820 H     1 <1>   0.0800 
 32 H        0.9610     4.9860     1.3600 H     1 <1>   0.0800 
 33 H       -0.7080     5.1450     0.9040 H     1 <1>   0.0800 
 34 H        1.7420     2.8840    -1.6370 H     1 <1>   0.0800 
 35 H        3.0980     2.1720    -0.8240 H     1 <1>   0.0800 
 36 H        0.2360     6.3330    -0.8030 H     1 <1>   0.0800 
 37 H        0.1700     4.7810    -1.5480 H     1 <1>   0.0800 
 38 H        2.4910     6.3090    -0.4520 H     1 <1>   0.0800 
 39 H        2.3420     5.5990    -2.0310 H     1 <1>   0.0800 
 40 H        7.0100     5.0040     0.6640 H     1 <1>   0.0800 
 41 H        5.8710     5.1420     1.9670 H     1 <1>   0.0800 
 42 H        5.8680     8.1100    -1.7430 H     1 <1>   0.3700 
 43 H        7.6460     6.9970     1.7880 H     1 <1>   0.0800 
 44 H        5.9920     7.5070     1.9970 H     1 <1>   0.0800 
@<TRIPOS>BOND
  1   1   2  1   
  2   1   3  1   
  3   2   4  2   
  4   2   5  1   
  5   3   6  2   
  6   3  25  1   
  7   4   6  1   
  8   4   7  1   
  9   5   8  2   
 10   5   9  am  
 11   6  26  1   
 12   7  27  1   
 13   7  28  1   
 14   7  29  1   
 15   9  10  1   
 16   9  11  1   
 17  10  12  1   
 18  10  30  1   
 19  10  31  1   
 20  11  13  1   
 21  11  32  1   
 22  11  33  1   
 23  12  14  1   
 24  12  34  1   
 25  12  35  1   
 26  13  15  1   
 27  13  36  1   
 28  13  37  1   
 29  14  15  1   
 30  14  16  am  
 31  15  38  1   
 32  15  39  1   
 33  16  17  2   
 34  16  18  1   
 35  18  19  2   
 36  18  20  1   
 37  19  21  1   
 38  20  22  1   
 39  20  40  1   
 40  20  41  1   
 41  21  23  am  
 42  21  42  1   
 43  22  23  1   
 44  22  43  1   
 45  22  44  1   
 46  23  24  2   
@<TRIPOS>SUBSTRUCTURE
  1 ****  14 GROUP 4 **** **** 0

# MOE 2024.06 (io_trps.svl 2023.06)
