@<TRIPOS>MOLECULE
NONAME
55 57 1 0 0 
SMALL
USER_CHARGES


@<TRIPOS>ATOM
  1 S        0.3070     0.1190     1.9950 S.o2  1 <1>   1.2040 
  2 O        1.7130     0.3050     2.2750 O.2   1 <1>  -0.6500 
  3 O       -0.6660     0.2630     3.0560 O.2   1 <1>  -0.6500 
  4 C       -0.1670     1.1630     0.5940 C.ar  1 <1>  -0.0090 
  5 C        0.1130    -1.5270     1.3130 C.3   1 <1>  -0.0550 
  6 C       -1.4110     1.7800     0.5450 C.ar  1 <1>  -0.1500 
  7 C        0.6920     1.3440    -0.4830 C.ar  1 <1>  -0.1500 
  8 C       -1.3400    -1.8700     0.9310 C.3   1 <1>  -0.0990 
  9 C       -1.7920     2.5440    -0.5450 C.ar  1 <1>  -0.1500 
 10 C        0.3200     2.1050    -1.5780 C.ar  1 <1>  -0.1500 
 11 C       -1.4860    -3.2550     0.3240 C.2   1 <1>   0.5690 
 12 C       -0.9250     2.7050    -1.6100 C.ar  1 <1>  -0.1500 
 13 O       -0.5290    -3.9920     0.3340 O.2   1 <1>  -0.5700 
 14 N       -2.6800    -3.6640    -0.2120 N.am  1 <1>  -0.6600 
 15 C       -2.7900    -4.9870    -0.8900 C.3   1 <1>   0.1400 
 16 C       -3.9900    -2.9800    -0.0130 C.3   1 <1>   0.1400 
 17 C       -3.6810    -5.9250    -0.0460 C.3   1 <1>   0.4230 
 18 C       -4.8800    -3.8920     0.8410 C.3   1 <1>  -0.1600 
 19 N       -3.7210    -7.3600    -0.5560 N.4   1 <1>  -0.9590 
 20 C       -5.0860    -5.3100     0.2300 C.3   1 <1>   0.0000 
 21 C       -4.8700    -8.1650    -0.0260 C.3   1 <1>   0.3430 
 22 C       -3.6290    -7.5220    -2.0450 C.3   1 <1>   0.2630 
 23 C       -5.8380    -6.1950     1.2670 C.3   1 <1>  -0.1600 
 24 C       -5.9010    -5.2150    -1.0930 C.3   1 <1>   0.1200 
 25 C       -5.3220    -7.6460     1.3380 C.3   1 <1>  -0.1600 
 26 O       -7.0600    -4.4760    -0.9290 O.3   1 <1>  -0.6800 
 27 H        0.7390    -1.6300     0.4470 H     1 <1>   0.0800 
 28 H        0.4540    -2.2420     2.0380 H     1 <1>   0.0800 
 29 H       -2.0930     1.6670     1.3720 H     1 <1>   0.1500 
 30 H        1.6690     0.8890    -0.4660 H     1 <1>   0.1500 
 31 H       -1.9540    -1.8150     1.8120 H     1 <1>   0.0800 
 32 H       -1.6990    -1.1520     0.2160 H     1 <1>   0.0800 
 33 H       -2.7600     3.0150    -0.5640 H     1 <1>   0.1500 
 34 H        1.0000     2.2340    -2.4030 H     1 <1>   0.1500 
 35 H       -1.2170     3.2990    -2.4600 H     1 <1>   0.1500 
 36 H       -3.2010    -4.8310    -1.8700 H     1 <1>   0.0800 
 37 H       -1.8160    -5.4290    -1.0040 H     1 <1>   0.0800 
 38 H       -3.8680    -2.0340     0.4830 H     1 <1>   0.0800 
 39 H       -4.4490    -2.7890    -0.9690 H     1 <1>   0.0800 
 40 H       -3.2000    -5.9650     0.9180 H     1 <1>   0.0800 
 41 H       -4.4190    -3.9740     1.8110 H     1 <1>   0.0800 
 42 H       -5.8270    -3.4030     0.9950 H     1 <1>   0.0800 
 43 H       -2.8720    -7.7940    -0.1620 H     1 <1>   0.4500 
 44 H       -5.7030    -8.1040    -0.7070 H     1 <1>   0.0800 
 45 H       -4.5850    -9.2020     0.0540 H     1 <1>   0.0800 
 46 H       -4.4680    -7.0500    -2.5300 H     1 <1>   0.0800 
 47 H       -3.6280    -8.5680    -2.3060 H     1 <1>   0.0800 
 48 H       -2.7190    -7.0810    -2.4190 H     1 <1>   0.0800 
 49 H       -5.7520    -5.7780     2.2570 H     1 <1>   0.0800 
 50 H       -6.8910    -6.2100     1.0450 H     1 <1>   0.0800 
 51 H       -6.1890    -6.1870    -1.4520 H     1 <1>   0.0800 
 52 H       -5.3400    -4.7230    -1.8660 H     1 <1>   0.0800 
 53 H       -6.1060    -8.2800     1.7160 H     1 <1>   0.0800 
 54 H       -4.5010    -7.7150     2.0310 H     1 <1>   0.0800 
 55 H       -7.6870    -4.8990    -0.3080 H     1 <1>   0.4000 
@<TRIPOS>BOND
  1   1   2  2   
  2   1   3  2   
  3   1   4  1   
  4   1   5  1   
  5   4   6  ar  
  6   4   7  ar  
  7   5   8  1   
  8   5  27  1   
  9   5  28  1   
 10   6   9  ar  
 11   6  29  1   
 12   7  10  ar  
 13   7  30  1   
 14   8  11  1   
 15   8  31  1   
 16   8  32  1   
 17   9  12  ar  
 18   9  33  1   
 19  10  12  ar  
 20  10  34  1   
 21  11  13  2   
 22  11  14  am  
 23  12  35  1   
 24  14  15  1   
 25  14  16  1   
 26  15  17  1   
 27  15  36  1   
 28  15  37  1   
 29  16  18  1   
 30  16  38  1   
 31  16  39  1   
 32  17  19  1   
 33  17  20  1   
 34  17  40  1   
 35  18  20  1   
 36  18  41  1   
 37  18  42  1   
 38  19  21  1   
 39  19  22  1   
 40  19  43  1   
 41  20  23  1   
 42  20  24  1   
 43  21  25  1   
 44  21  44  1   
 45  21  45  1   
 46  22  46  1   
 47  22  47  1   
 48  22  48  1   
 49  23  25  1   
 50  23  49  1   
 51  23  50  1   
 52  24  26  1   
 53  24  51  1   
 54  24  52  1   
 55  25  53  1   
 56  25  54  1   
 57  26  55  1   
@<TRIPOS>SUBSTRUCTURE
  1 ****  14 GROUP 4 **** **** 0

# MOE 2024.06 (io_trps.svl 2023.06)
