@<TRIPOS>MOLECULE
NONAME
55 58 1 0 0 
SMALL
USER_CHARGES


@<TRIPOS>ATOM
  1 F        2.1170     0.0830     3.2480 F     1 <1>  -0.1900 
  2 C        2.4050     0.9980     2.3440 C.ar  1 <1>   0.1900 
  3 C        3.0990     0.6790     1.1790 C.ar  1 <1>   0.4100 
  4 C        2.0190     2.2910     2.5590 C.ar  1 <1>   0.1600 
  5 N        3.3730     1.6290     0.3030 N.ar  1 <1>  -0.6200 
  6 N        3.5220    -0.6100     0.8710 N.pl3 1 <1>  -0.8380 
  7 N        2.2860     3.2430     1.6860 N.ar  1 <1>  -0.6200 
  8 C        2.9460     2.8450     0.6020 C.ar  1 <1>   0.7200 
  9 C        2.5050    -1.6960     0.7380 C.3   1 <1>   0.2090 
 10 C        4.7060    -0.8330    -0.0170 C.3   1 <1>   0.2090 
 11 N        3.2430     3.7720    -0.3390 N.pl3 1 <1>  -0.8690 
 12 C        2.1890    -1.9760    -0.7430 C.3   1 <1>   0.1200 
 13 C        4.2610    -1.1530    -1.4550 C.3   1 <1>   0.1200 
 14 C        3.2780     5.2230    -0.1100 C.3   1 <1>   0.2890 
 15 O        3.3580    -2.2250    -1.4730 O.3   1 <1>  -0.5600 
 16 C        2.9930     5.9350    -1.4310 C.3   1 <1>  -0.1600 
 17 C        4.6510     5.6130     0.4360 C.3   1 <1>  -0.1600 
 18 C        3.1020     7.4500    -1.2580 C.3   1 <1>   0.1400 
 19 C        4.7610     7.1310     0.5970 C.3   1 <1>   0.1400 
 20 N        4.4410     7.7960    -0.6980 N.am  1 <1>  -0.6600 
 21 C        5.3440     8.5690    -1.4040 C.2   1 <1>   0.5440 
 22 O        5.1100     8.8380    -2.5670 O.2   1 <1>  -0.5700 
 23 C        6.5700     9.0560    -0.8020 C.ar  1 <1>   0.0860 
 24 C        6.5540     9.8610     0.3370 C.ar  1 <1>  -0.1500 
 25 C        7.8110     8.7340    -1.3450 C.ar  1 <1>  -0.1500 
 26 C        7.7260    10.3070     0.9200 C.ar  1 <1>  -0.1500 
 27 C        8.9870     9.1780    -0.7670 C.ar  1 <1>  -0.1500 
 28 C        8.9510     9.9640     0.3730 C.ar  1 <1>  -0.1430 
 29 C       10.2410    10.4530     1.0070 C.3   1 <1>  -0.0970 
 30 H        1.4860     2.5500     3.4560 H     1 <1>   0.1500 
 31 H        1.5970    -1.4230     1.2450 H     1 <1>   0.0800 
 32 H        2.8830    -2.5930     1.1970 H     1 <1>   0.0800 
 33 H        5.2820    -1.6570     0.3650 H     1 <1>   0.0800 
 34 H        5.3410     0.0360    -0.0180 H     1 <1>   0.0800 
 35 H        3.8860     3.4180    -1.0430 H     1 <1>   0.4000 
 36 H        1.6840    -1.1330    -1.1820 H     1 <1>   0.0800 
 37 H        1.5570    -2.8420    -0.8300 H     1 <1>   0.0800 
 38 H        5.1110    -1.4270    -2.0540 H     1 <1>   0.0800 
 39 H        3.7870    -0.2930    -1.8970 H     1 <1>   0.0800 
 40 H        2.5180     5.5000     0.6030 H     1 <1>   0.0800 
 41 H        2.0010     5.6880    -1.7640 H     1 <1>   0.0800 
 42 H        3.6950     5.6230    -2.1830 H     1 <1>   0.0800 
 43 H        5.4240     5.2780    -0.2320 H     1 <1>   0.0800 
 44 H        4.8000     5.1460     1.3930 H     1 <1>   0.0800 
 45 H        2.3410     7.7990    -0.5820 H     1 <1>   0.0800 
 46 H        2.9460     7.9340    -2.2080 H     1 <1>   0.0800 
 47 H        5.7560     7.3740     0.9250 H     1 <1>   0.0800 
 48 H        4.0670     7.4710     1.3470 H     1 <1>   0.0800 
 49 H        5.6060    10.1370     0.7640 H     1 <1>   0.1500 
 50 H        7.8440     8.1290    -2.2340 H     1 <1>   0.1500 
 51 H        7.6820    10.9260     1.7990 H     1 <1>   0.1500 
 52 H        9.9300     8.9110    -1.2100 H     1 <1>   0.1500 
 53 H       10.1120    10.5910     2.0660 H     1 <1>   0.0800 
 54 H       10.5290    11.3910     0.5680 H     1 <1>   0.0800 
 55 H       11.0310     9.7400     0.8520 H     1 <1>   0.0800 
@<TRIPOS>BOND
  1   1   2  1   
  2   2   3  ar  
  3   2   4  ar  
  4   3   5  ar  
  5   3   6  1   
  6   4   7  ar  
  7   4  30  1   
  8   5   8  ar  
  9   6   9  1   
 10   6  10  1   
 11   7   8  ar  
 12   8  11  1   
 13   9  12  1   
 14   9  31  1   
 15   9  32  1   
 16  10  13  1   
 17  10  33  1   
 18  10  34  1   
 19  11  14  1   
 20  11  35  1   
 21  12  15  1   
 22  12  36  1   
 23  12  37  1   
 24  13  15  1   
 25  13  38  1   
 26  13  39  1   
 27  14  16  1   
 28  14  17  1   
 29  14  40  1   
 30  16  18  1   
 31  16  41  1   
 32  16  42  1   
 33  17  19  1   
 34  17  43  1   
 35  17  44  1   
 36  18  20  1   
 37  18  45  1   
 38  18  46  1   
 39  19  20  1   
 40  19  47  1   
 41  19  48  1   
 42  20  21  am  
 43  21  22  2   
 44  21  23  1   
 45  23  24  ar  
 46  23  25  ar  
 47  24  26  ar  
 48  24  49  1   
 49  25  27  ar  
 50  25  50  1   
 51  26  28  ar  
 52  26  51  1   
 53  27  28  ar  
 54  27  52  1   
 55  28  29  1   
 56  29  53  1   
 57  29  54  1   
 58  29  55  1   
@<TRIPOS>SUBSTRUCTURE
  1 ****  17 GROUP 4 **** **** 0

# MOE 2024.06 (io_trps.svl 2023.06)
