@<TRIPOS>MOLECULE
NONAME
39 40 1 0 0 
SMALL
USER_CHARGES


@<TRIPOS>ATOM
  1 O        0.0150    -0.2280    -0.2870 O.2   1 <1>  -0.5700 
  2 C        1.0820    -0.7390    -0.0200 C.2   1 <1>   0.5440 
  3 N        2.1820     0.0410     0.2550 N.am  1 <1>  -0.4940 
  4 C        1.1900    -2.1760     0.0220 C.ar  1 <1>   0.0860 
  5 C        2.3960     1.4360     0.1280 C.2   1 <1>  -0.0880 
  6 C        2.3370    -2.8600    -0.3350 C.ar  1 <1>   0.1600 
  7 C        0.1350    -2.9730     0.4250 C.ar  1 <1>   0.1600 
  8 N        1.5220     2.4490     0.3970 N.pl3 1 <1>   0.3140 
  9 C        3.5510     2.0280    -0.2620 C.2   1 <1>  -0.1810 
 10 N        2.4490    -4.1670    -0.2710 N.ar  1 <1>  -0.6200 
 11 N        0.2100    -4.2850     0.4990 N.ar  1 <1>  -0.6200 
 12 N        2.0910     3.6560     0.1910 N.2   1 <1>  -0.7070 
 13 C        0.1630     2.3810     0.9490 C.3   1 <1>   0.0160 
 14 C        3.2960     3.3960    -0.2050 C.2   1 <1>   0.1080 
 15 C        4.8590     1.3800    -0.6840 C.3   1 <1>  -0.0590 
 16 C        1.3710    -4.8150     0.1450 C.ar  1 <1>   0.4770 
 17 C        4.2790     4.5010    -0.5490 C.3   1 <1>   0.0210 
 18 C        1.4750    -6.3300     0.2190 C.3   1 <1>  -0.0170 
 19 C        5.1150     4.8990     0.6720 C.3   1 <1>  -0.2400 
 20 C        1.0700    -7.0040    -1.1000 C.3   1 <1>  -0.2400 
 21 H        3.0240    -0.4650     0.5280 H     1 <1>   0.3700 
 22 H        3.1920    -2.3130    -0.6930 H     1 <1>   0.1500 
 23 H       -0.7980    -2.5070     0.6970 H     1 <1>   0.1500 
 24 H        0.0960     1.5590     1.6360 H     1 <1>   0.0800 
 25 H       -0.5330     2.2440     0.1440 H     1 <1>   0.0800 
 26 H       -0.0550     3.2990     1.4610 H     1 <1>   0.0800 
 27 H        4.7810     0.3090    -0.6650 H     1 <1>   0.0800 
 28 H        5.6470     1.6830    -0.0200 H     1 <1>   0.0800 
 29 H        5.1080     1.6850    -1.6840 H     1 <1>   0.0800 
 30 H        3.7260     5.3550    -0.8970 H     1 <1>   0.0800 
 31 H        4.9220     4.1780    -1.3460 H     1 <1>   0.0800 
 32 H        0.8420    -6.6850     1.0120 H     1 <1>   0.0800 
 33 H        2.4870    -6.5990     0.4630 H     1 <1>   0.0800 
 34 H        4.4650     5.2370     1.4600 H     1 <1>   0.0800 
 35 H        5.7930     5.6930     0.4150 H     1 <1>   0.0800 
 36 H        5.6790     4.0570     1.0290 H     1 <1>   0.0800 
 37 H        0.0520    -6.7540    -1.3440 H     1 <1>   0.0800 
 38 H        1.1540    -8.0720    -1.0130 H     1 <1>   0.0800 
 39 H        1.7080    -6.6670    -1.8980 H     1 <1>   0.0800 
@<TRIPOS>BOND
  1   1   2  2   
  2   2   3  am  
  3   2   4  1   
  4   3   5  1   
  5   3  21  1   
  6   4   6  ar  
  7   4   7  ar  
  8   5   8  1   
  9   5   9  2   
 10   6  10  ar  
 11   6  22  1   
 12   7  11  ar  
 13   7  23  1   
 14   8  12  1   
 15   8  13  1   
 16   9  14  1   
 17   9  15  1   
 18  10  16  ar  
 19  11  16  ar  
 20  12  14  2   
 21  13  24  1   
 22  13  25  1   
 23  13  26  1   
 24  14  17  1   
 25  15  27  1   
 26  15  28  1   
 27  15  29  1   
 28  16  18  1   
 29  17  19  1   
 30  17  30  1   
 31  17  31  1   
 32  18  20  1   
 33  18  32  1   
 34  18  33  1   
 35  19  34  1   
 36  19  35  1   
 37  19  36  1   
 38  20  37  1   
 39  20  38  1   
 40  20  39  1   
@<TRIPOS>SUBSTRUCTURE
  1 ****   3 GROUP 4 **** **** 0

# MOE 2024.06 (io_trps.svl 2023.06)
