@<TRIPOS>MOLECULE
NONAME
53 54 1 0 0 
SMALL
USER_CHARGES


@<TRIPOS>ATOM
  1 S        0.7150     1.0460    -1.2280 S.o2  1 <1>   1.3330 
  2 O        1.1410    -0.2780    -1.6180 O.2   1 <1>  -0.6500 
  3 O        0.2930     1.9720    -2.2550 O.2   1 <1>  -0.6500 
  4 N        2.0100     1.7490    -0.3860 N.am  1 <1>  -0.8490 
  5 C       -0.6200     0.8680    -0.0290 C.3   1 <1>  -0.0550 
  6 C        2.7160     0.8120     0.4950 C.3   1 <1>   0.1160 
  7 C        2.9750     2.3780    -1.2910 C.3   1 <1>   0.1160 
  8 C       -1.2000     2.1180     0.6790 C.3   1 <1>  -0.0800 
  9 C       -1.6180     3.2600    -0.2590 C.3   1 <1>   0.2000 
 10 C       -0.2460     2.7640     1.6940 C.3   1 <1>   0.1400 
 11 O       -2.7330     3.8650     0.2980 O.3   1 <1>  -0.6800 
 12 C       -0.4670     4.2670    -0.2140 C.3   1 <1>   0.1400 
 13 N        0.1550     4.0650     1.1160 N.am  1 <1>  -0.6600 
 14 C        0.9030     4.9870     1.8090 C.2   1 <1>   0.5440 
 15 O        1.1310     4.7750     2.9860 O.2   1 <1>  -0.5700 
 16 C        1.4010     6.1950     1.1790 C.ar  1 <1>   0.0860 
 17 C        2.0920     6.1610    -0.0320 C.ar  1 <1>  -0.1500 
 18 C        1.2060     7.4420     1.7700 C.ar  1 <1>  -0.1500 
 19 C        2.5470     7.3180    -0.6360 C.ar  1 <1>  -0.1500 
 20 C        1.6600     8.6030     1.1710 C.ar  1 <1>  -0.1500 
 21 C        2.3310     8.5490    -0.0400 C.ar  1 <1>  -0.1430 
 22 C        2.8290     9.8250    -0.7010 C.3   1 <1>  -0.0170 
 23 C        4.2530    10.1500    -0.2370 C.3   1 <1>  -0.1600 
 24 C        4.7790    11.4360    -0.8880 C.3   1 <1>  -0.1600 
 25 C        6.2010    11.7490    -0.4160 C.3   1 <1>  -0.2400 
 26 H       -1.4360     0.3950    -0.5410 H     1 <1>   0.0800 
 27 H       -0.3030     0.1780     0.7270 H     1 <1>   0.0800 
 28 H        3.4620     1.3370     1.0680 H     1 <1>   0.0800 
 29 H        3.1960     0.0390    -0.0820 H     1 <1>   0.0800 
 30 H        2.0270     0.3520     1.1820 H     1 <1>   0.0800 
 31 H        3.7630     2.8470    -0.7280 H     1 <1>   0.0800 
 32 H        2.4880     3.1350    -1.8830 H     1 <1>   0.0800 
 33 H        3.4000     1.6430    -1.9550 H     1 <1>   0.0800 
 34 H       -2.0650     1.7680     1.2160 H     1 <1>   0.0800 
 35 H       -1.8710     2.9450    -1.2570 H     1 <1>   0.0800 
 36 H        0.6230     2.1620     1.8870 H     1 <1>   0.0800 
 37 H       -0.7560     2.9420     2.6270 H     1 <1>   0.0800 
 38 H       -2.4680     4.3010     1.1340 H     1 <1>   0.4000 
 39 H       -0.8170     5.2770    -0.3450 H     1 <1>   0.0800 
 40 H        0.2560     4.0450    -0.9760 H     1 <1>   0.0800 
 41 H        2.2750     5.2100    -0.4970 H     1 <1>   0.1500 
 42 H        0.6920     7.4910     2.7150 H     1 <1>   0.1500 
 43 H        3.0760     7.2590    -1.5720 H     1 <1>   0.1500 
 44 H        1.4930     9.5500     1.6540 H     1 <1>   0.1500 
 45 H        2.8120     9.7060    -1.7700 H     1 <1>   0.0800 
 46 H        2.1710    10.6390    -0.4520 H     1 <1>   0.0800 
 47 H        4.2580    10.2600     0.8340 H     1 <1>   0.0800 
 48 H        4.9020     9.3280    -0.4880 H     1 <1>   0.0800 
 49 H        4.7780    11.3280    -1.9590 H     1 <1>   0.0800 
 50 H        4.1340    12.2600    -0.6350 H     1 <1>   0.0800 
 51 H        6.8700    10.9480    -0.6780 H     1 <1>   0.0800 
 52 H        6.2230    11.8830     0.6520 H     1 <1>   0.0800 
 53 H        6.5520    12.6530    -0.8800 H     1 <1>   0.0800 
@<TRIPOS>BOND
  1   1   2  2   
  2   1   3  2   
  3   1   4  am  
  4   1   5  1   
  5   4   6  1   
  6   4   7  1   
  7   5   8  1   
  8   5  26  1   
  9   5  27  1   
 10   6  28  1   
 11   6  29  1   
 12   6  30  1   
 13   7  31  1   
 14   7  32  1   
 15   7  33  1   
 16   8   9  1   
 17   8  10  1   
 18   8  34  1   
 19   9  11  1   
 20   9  12  1   
 21   9  35  1   
 22  10  13  1   
 23  10  36  1   
 24  10  37  1   
 25  11  38  1   
 26  12  13  1   
 27  12  39  1   
 28  12  40  1   
 29  13  14  am  
 30  14  15  2   
 31  14  16  1   
 32  16  17  ar  
 33  16  18  ar  
 34  17  19  ar  
 35  17  41  1   
 36  18  20  ar  
 37  18  42  1   
 38  19  21  ar  
 39  19  43  1   
 40  20  21  ar  
 41  20  44  1   
 42  21  22  1   
 43  22  23  1   
 44  22  45  1   
 45  22  46  1   
 46  23  24  1   
 47  23  47  1   
 48  23  48  1   
 49  24  25  1   
 50  24  49  1   
 51  24  50  1   
 52  25  51  1   
 53  25  52  1   
 54  25  53  1   
@<TRIPOS>SUBSTRUCTURE
  1 ****  17 GROUP 4 **** **** 0

# MOE 2024.06 (io_trps.svl 2023.06)
