@<TRIPOS>MOLECULE
NONAME
55 58 1 0 0 
SMALL
USER_CHARGES


@<TRIPOS>ATOM
  1 O       -0.1120     1.2160     1.0820 O.2   1 <1>  -0.5700 
  2 C       -0.0490     2.4120     0.8690 C.2   1 <1>   0.5440 
  3 N       -1.2150     3.1490     0.8140 N.am  1 <1>  -0.6600 
  4 C        1.2530     3.0150     0.6670 C.ar  1 <1>   0.0860 
  5 C       -2.5380     2.5530     1.1710 C.3   1 <1>   0.1400 
  6 C       -1.3110     4.5270     0.2550 C.3   1 <1>   0.1400 
  7 C        1.7050     4.0730     1.4550 C.ar  1 <1>  -0.1500 
  8 C        2.1080     2.5480    -0.3290 C.ar  1 <1>  -0.1500 
  9 C       -3.4800     2.4980    -0.0580 C.3   1 <1>   0.0000 
 10 C       -2.2360     4.5330    -0.9680 C.3   1 <1>  -0.1600 
 11 C        2.9480     4.6410     1.2510 C.ar  1 <1>  -0.1500 
 12 C        3.3510     3.1150    -0.5330 C.ar  1 <1>  -0.1500 
 13 C       -4.8610     1.9040     0.2910 C.3   1 <1>   0.2000 
 14 C       -3.6100     3.9150    -0.6570 C.3   1 <1>  -0.1600 
 15 C       -2.9610     1.4790    -1.0880 C.3   1 <1>  -0.1600 
 16 C        3.8040     4.1710     0.2570 C.ar  1 <1>   0.0860 
 17 O       -5.3070     2.2660     1.5510 O.3   1 <1>  -0.6800 
 18 C       -4.7280     0.3820     0.1990 C.3   1 <1>  -0.1600 
 19 C       -3.4360     0.1150    -0.5850 C.3   1 <1>  -0.1600 
 20 C        5.1110     4.7620     0.0560 C.2   1 <1>   0.5440 
 21 O        5.1900     5.9410    -0.2300 O.2   1 <1>  -0.5700 
 22 N        6.2700     4.0260     0.1850 N.am  1 <1>  -0.6600 
 23 C        7.6030     4.5710    -0.2060 C.3   1 <1>   0.1400 
 24 C        6.3550     2.6720     0.8090 C.3   1 <1>   0.1400 
 25 C        8.3980     3.5270    -1.0080 C.3   1 <1>   0.1200 
 26 C        7.2070     1.7340    -0.0620 C.3   1 <1>   0.1200 
 27 O        8.4580     2.3060    -0.3220 O.3   1 <1>  -0.5600 
 28 H       -2.4100     1.5670     1.5840 H     1 <1>   0.0800 
 29 H       -2.9800     3.1670     1.9360 H     1 <1>   0.0800 
 30 H       -1.7070     5.1820     1.0130 H     1 <1>   0.0800 
 31 H       -0.3440     4.8970    -0.0360 H     1 <1>   0.0800 
 32 H        1.0660     4.4470     2.2370 H     1 <1>   0.1500 
 33 H        1.7810     1.7270    -0.9440 H     1 <1>   0.1500 
 34 H       -2.3670     5.5460    -1.3040 H     1 <1>   0.0800 
 35 H       -1.7600     3.9870    -1.7640 H     1 <1>   0.0800 
 36 H        3.2750     5.4630     1.8650 H     1 <1>   0.1500 
 37 H        3.9890     2.7420    -1.3160 H     1 <1>   0.1500 
 38 H       -5.5910     2.2420    -0.4250 H     1 <1>   0.0800 
 39 H       -4.2030     3.8870    -1.5550 H     1 <1>   0.0800 
 40 H       -4.1240     4.5430     0.0500 H     1 <1>   0.0800 
 41 H       -3.4120     1.6690    -2.0470 H     1 <1>   0.0800 
 42 H       -1.8910     1.5040    -1.2040 H     1 <1>   0.0800 
 43 H       -4.7870     1.7990     2.2310 H     1 <1>   0.4000 
 44 H       -4.6640    -0.0760     1.1710 H     1 <1>   0.0800 
 45 H       -5.5740    -0.0220    -0.3290 H     1 <1>   0.0800 
 46 H       -2.6910    -0.2990     0.0750 H     1 <1>   0.0800 
 47 H       -3.5940    -0.5710    -1.3990 H     1 <1>   0.0800 
 48 H        7.4890     5.4600    -0.8010 H     1 <1>   0.0800 
 49 H        8.1530     4.8340     0.6810 H     1 <1>   0.0800 
 50 H        6.8160     2.7610     1.7770 H     1 <1>   0.0800 
 51 H        5.3800     2.2430     0.9490 H     1 <1>   0.0800 
 52 H        9.4070     3.8670    -1.1610 H     1 <1>   0.0800 
 53 H        7.9410     3.3620    -1.9680 H     1 <1>   0.0800 
 54 H        6.7170     1.5350    -0.9990 H     1 <1>   0.0800 
 55 H        7.3730     0.8020     0.4470 H     1 <1>   0.0800 
@<TRIPOS>BOND
  1   1   2  2   
  2   2   3  am  
  3   2   4  1   
  4   3   5  1   
  5   3   6  1   
  6   4   7  ar  
  7   4   8  ar  
  8   5   9  1   
  9   5  28  1   
 10   5  29  1   
 11   6  10  1   
 12   6  30  1   
 13   6  31  1   
 14   7  11  ar  
 15   7  32  1   
 16   8  12  ar  
 17   8  33  1   
 18   9  13  1   
 19   9  14  1   
 20   9  15  1   
 21  10  14  1   
 22  10  34  1   
 23  10  35  1   
 24  11  16  ar  
 25  11  36  1   
 26  12  16  ar  
 27  12  37  1   
 28  13  17  1   
 29  13  18  1   
 30  13  38  1   
 31  14  39  1   
 32  14  40  1   
 33  15  19  1   
 34  15  41  1   
 35  15  42  1   
 36  16  20  1   
 37  17  43  1   
 38  18  19  1   
 39  18  44  1   
 40  18  45  1   
 41  19  46  1   
 42  19  47  1   
 43  20  21  2   
 44  20  22  am  
 45  22  23  1   
 46  22  24  1   
 47  23  25  1   
 48  23  48  1   
 49  23  49  1   
 50  24  26  1   
 51  24  50  1   
 52  24  51  1   
 53  25  27  1   
 54  25  52  1   
 55  25  53  1   
 56  26  27  1   
 57  26  54  1   
 58  26  55  1   
@<TRIPOS>SUBSTRUCTURE
  1 ****   4 GROUP 4 **** **** 0

# MOE 2024.06 (io_trps.svl 2023.06)
