@<TRIPOS>MOLECULE
NONAME
60 62 1 0 0 
SMALL
USER_CHARGES


@<TRIPOS>ATOM
  1 O       -0.4790     0.2240     0.8000 O.2   1 <1>  -0.5700 
  2 C       -1.5700     0.7240     0.6460 C.2   1 <1>   0.5690 
  3 N       -2.7080     0.0990     1.1130 N.am  1 <1>  -0.6600 
  4 C       -1.5760     2.0830    -0.0720 C.3   1 <1>  -0.0190 
  5 C       -4.1110     0.5810     0.9800 C.3   1 <1>   0.1400 
  6 C       -2.6110    -1.1950     1.8460 C.3   1 <1>   0.1400 
  7 C       -2.0020     3.2520     0.8430 C.3   1 <1>  -0.1600 
  8 C       -2.3020     2.0640    -1.4410 C.3   1 <1>  -0.1600 
  9 C       -4.9510    -0.4690     0.2450 C.3   1 <1>  -0.1600 
 10 C       -3.4290    -2.2680     1.1220 C.3   1 <1>  -0.1600 
 11 C       -1.8330     4.6260     0.1630 C.3   1 <1>   0.2000 
 12 C       -2.8930     3.4290    -1.8360 C.3   1 <1>  -0.1600 
 13 C       -4.8970    -1.8430     0.9340 C.3   1 <1>  -0.0800 
 14 O       -2.8110     5.4910     0.6900 O.3   1 <1>  -0.5600 
 15 C       -1.9780     4.5680    -1.3820 C.3   1 <1>   0.2000 
 16 C       -5.7010    -2.8670     0.1100 C.3   1 <1>  -0.1600 
 17 C       -2.4930     6.0640     1.9210 C.3   1 <1>   0.0400 
 18 O       -2.5200     5.7540    -1.8330 O.3   1 <1>  -0.6800 
 19 C       -5.8310    -4.2420     0.7910 C.3   1 <1>  -0.0990 
 20 C       -6.7060    -5.1850    -0.0130 C.2   1 <1>   0.5690 
 21 O       -6.1680    -6.0130    -0.7040 O.2   1 <1>  -0.5700 
 22 N       -8.0610    -5.0410     0.1030 N.am  1 <1>  -0.5470 
 23 C       -9.1230    -5.7190    -0.5160 C.ar  1 <1>   0.1170 
 24 C       -8.9780    -6.4580    -1.6870 C.ar  1 <1>  -0.1500 
 25 C      -10.3870    -5.6370     0.0570 C.ar  1 <1>  -0.1500 
 26 C      -10.0610    -7.0970    -2.2630 C.ar  1 <1>  -0.1500 
 27 C      -11.4740    -6.2740    -0.5150 C.ar  1 <1>  -0.1500 
 28 C      -11.3120    -7.0070    -1.6780 C.ar  1 <1>  -0.1500 
 29 H       -0.5430     2.2810    -0.3030 H     1 <1>   0.0800 
 30 H       -4.5160     0.7490     1.9630 H     1 <1>   0.0800 
 31 H       -4.1640     1.5050     0.4390 H     1 <1>   0.0800 
 32 H       -1.5870    -1.5220     1.9230 H     1 <1>   0.0800 
 33 H       -2.9860    -1.0590     2.8460 H     1 <1>   0.0800 
 34 H       -1.4050     3.2270     1.7380 H     1 <1>   0.0800 
 35 H       -3.0290     3.1350     1.1310 H     1 <1>   0.0800 
 36 H       -1.5880     1.7630    -2.1890 H     1 <1>   0.0800 
 37 H       -3.0840     1.3280    -1.4610 H     1 <1>   0.0800 
 38 H       -5.9690    -0.1250     0.1970 H     1 <1>   0.0800 
 39 H       -4.5870    -0.5530    -0.7650 H     1 <1>   0.0800 
 40 H       -2.9730    -2.4570     0.1650 H     1 <1>   0.0800 
 41 H       -3.3720    -3.1740     1.6970 H     1 <1>   0.0800 
 42 H       -0.8580     5.0290     0.3830 H     1 <1>   0.0800 
 43 H       -3.8560     3.5510    -1.3700 H     1 <1>   0.0800 
 44 H       -3.0250     3.4690    -2.9040 H     1 <1>   0.0800 
 45 H       -5.3520    -1.7480     1.9060 H     1 <1>   0.0800 
 46 H       -1.0120     4.4510    -1.8420 H     1 <1>   0.0800 
 47 H       -6.6880    -2.4740    -0.0640 H     1 <1>   0.0800 
 48 H       -5.2350    -2.9990    -0.8530 H     1 <1>   0.0800 
 49 H       -3.3080     6.7040     2.2110 H     1 <1>   0.0800 
 50 H       -1.5940     6.6470     1.8200 H     1 <1>   0.0800 
 51 H       -2.3630     5.2900     2.6570 H     1 <1>   0.0800 
 52 H       -3.0480     6.1060    -1.0800 H     1 <1>   0.4000 
 53 H       -6.2440    -4.1330     1.7760 H     1 <1>   0.0800 
 54 H       -4.8630    -4.6980     0.8880 H     1 <1>   0.0800 
 55 H       -8.3550    -4.3350     0.7720 H     1 <1>   0.3700 
 56 H       -8.0170    -6.5360    -2.1610 H     1 <1>   0.1500 
 57 H      -10.5280    -5.0740     0.9610 H     1 <1>   0.1500 
 58 H       -9.9290    -7.6660    -3.1670 H     1 <1>   0.1500 
 59 H      -12.4460    -6.2030    -0.0580 H     1 <1>   0.1500 
 60 H      -12.1540    -7.5050    -2.1260 H     1 <1>   0.1500 
@<TRIPOS>BOND
  1   1   2  2   
  2   2   3  am  
  3   2   4  1   
  4   3   5  1   
  5   3   6  1   
  6   4   7  1   
  7   4   8  1   
  8   4  29  1   
  9   5   9  1   
 10   5  30  1   
 11   5  31  1   
 12   6  10  1   
 13   6  32  1   
 14   6  33  1   
 15   7  11  1   
 16   7  34  1   
 17   7  35  1   
 18   8  12  1   
 19   8  36  1   
 20   8  37  1   
 21   9  13  1   
 22   9  38  1   
 23   9  39  1   
 24  10  13  1   
 25  10  40  1   
 26  10  41  1   
 27  11  14  1   
 28  11  15  1   
 29  11  42  1   
 30  12  15  1   
 31  12  43  1   
 32  12  44  1   
 33  13  16  1   
 34  13  45  1   
 35  14  17  1   
 36  15  18  1   
 37  15  46  1   
 38  16  19  1   
 39  16  47  1   
 40  16  48  1   
 41  17  49  1   
 42  17  50  1   
 43  17  51  1   
 44  18  52  1   
 45  19  20  1   
 46  19  53  1   
 47  19  54  1   
 48  20  21  2   
 49  20  22  am  
 50  22  23  1   
 51  22  55  1   
 52  23  24  ar  
 53  23  25  ar  
 54  24  26  ar  
 55  24  56  1   
 56  25  27  ar  
 57  25  57  1   
 58  26  28  ar  
 59  26  58  1   
 60  27  28  ar  
 61  27  59  1   
 62  28  60  1   
@<TRIPOS>SUBSTRUCTURE
  1 ****   9 GROUP 4 **** **** 0

# MOE 2024.06 (io_trps.svl 2023.06)
