@<TRIPOS>MOLECULE
NONAME
53 57 1 0 0 
SMALL
USER_CHARGES


@<TRIPOS>ATOM
  1 O       -0.8310     0.7540     1.5840 O.2   1 <1>  -0.5700 
  2 C       -1.7790     1.0910     0.9140 C.2   1 <1>   0.5690 
  3 N       -3.0000     0.4760     1.0340 N.am  1 <1>  -0.6600 
  4 C       -1.5820     2.2220    -0.0920 C.3   1 <1>  -0.0990 
  5 C       -4.1790     0.6960     0.1510 C.3   1 <1>   0.1400 
  6 C       -3.2530    -0.5290     2.1070 C.3   1 <1>   0.1400 
  7 C       -0.2580     2.9960     0.0810 C.3   1 <1>  -0.1600 
  8 C       -4.5540    -0.6290    -0.5170 C.3   1 <1>  -0.1600 
  9 C       -3.6290    -1.8670     1.4710 C.3   1 <1>  -0.1600 
 10 C       -0.1130     4.1080    -0.9680 C.3   1 <1>   0.0960 
 11 C       -4.8230    -1.7250     0.5230 C.3   1 <1>   0.4600 
 12 N        1.1050     4.9100    -0.7410 N.pl3 1 <1>   0.3140 
 13 O       -5.9210    -1.3410     1.3220 O.3   1 <1>  -0.5600 
 14 C       -5.1290    -3.0600    -0.1470 C.2   1 <1>  -0.3320 
 15 N        1.0660     6.2150    -0.5110 N.2   1 <1>  -0.7070 
 16 C        2.3830     4.5180    -0.7490 C.2   1 <1>   0.0360 
 17 C       -7.2190    -1.5660     0.8230 C.3   1 <1>   0.1200 
 18 N       -4.2590    -3.8220    -0.8780 N.pl3 1 <1>   0.0330 
 19 C       -6.3260    -3.6760    -0.1000 C.2   1 <1>  -0.1810 
 20 C        2.3180     6.5140    -0.3940 C.2   1 <1>   0.3660 
 21 N        3.1820     5.5000    -0.5340 N.2   1 <1>  -0.5650 
 22 C       -7.4930    -3.0680     0.6380 C.3   1 <1>   0.0210 
 23 C       -4.9280    -4.9470    -1.2960 C.ar  1 <1>  -0.1520 
 24 C       -6.2350    -4.8850    -0.8190 C.ar  1 <1>   0.0000 
 25 C       -4.4960    -6.0320    -2.0610 C.ar  1 <1>  -0.1500 
 26 C       -7.1270    -5.9230    -1.1080 C.ar  1 <1>  -0.1500 
 27 C       -5.3840    -7.0460    -2.3390 C.ar  1 <1>  -0.1500 
 28 C       -6.7000    -6.9910    -1.8620 C.ar  1 <1>  -0.1500 
 29 H       -2.3960     2.9150     0.0180 H     1 <1>   0.0800 
 30 H       -1.6210     1.7980    -1.0780 H     1 <1>   0.0800 
 31 H       -3.9750     1.4290    -0.6060 H     1 <1>   0.0800 
 32 H       -5.0030     1.0510     0.7480 H     1 <1>   0.0800 
 33 H       -4.0580    -0.1820     2.7330 H     1 <1>   0.0800 
 34 H       -2.3830    -0.6560     2.7300 H     1 <1>   0.0800 
 35 H        0.5660     2.3080    -0.0050 H     1 <1>   0.0800 
 36 H       -0.2350     3.4290     1.0680 H     1 <1>   0.0800 
 37 H       -3.7430    -0.9340    -1.1510 H     1 <1>   0.0800 
 38 H       -5.4150    -0.4990    -1.1440 H     1 <1>   0.0800 
 39 H       -3.8700    -2.5820     2.2360 H     1 <1>   0.0800 
 40 H       -2.7760    -2.2390     0.9350 H     1 <1>   0.0800 
 41 H       -0.9590     4.7700    -0.9190 H     1 <1>   0.0800 
 42 H       -0.0640     3.6890    -1.9560 H     1 <1>   0.0800 
 43 H        2.6830     3.5000    -0.9170 H     1 <1>   0.1500 
 44 H       -7.3200    -1.0520    -0.1160 H     1 <1>   0.0800 
 45 H       -7.9170    -1.1460     1.5240 H     1 <1>   0.0800 
 46 H       -3.2740    -3.6180    -1.0700 H     1 <1>   0.2700 
 47 H        2.6720     7.5130    -0.1960 H     1 <1>   0.1500 
 48 H       -8.3990    -3.2060     0.0780 H     1 <1>   0.0800 
 49 H       -7.6030    -3.5420     1.5970 H     1 <1>   0.0800 
 50 H       -3.4840    -6.0670    -2.4230 H     1 <1>   0.1500 
 51 H       -8.1320    -5.8680    -0.7340 H     1 <1>   0.1500 
 52 H       -5.0760    -7.8930    -2.9270 H     1 <1>   0.1500 
 53 H       -7.3740    -7.7970    -2.0930 H     1 <1>   0.1500 
@<TRIPOS>BOND
  1   1   2  2   
  2   2   3  am  
  3   2   4  1   
  4   3   5  1   
  5   3   6  1   
  6   4   7  1   
  7   4  29  1   
  8   4  30  1   
  9   5   8  1   
 10   5  31  1   
 11   5  32  1   
 12   6   9  1   
 13   6  33  1   
 14   6  34  1   
 15   7  10  1   
 16   7  35  1   
 17   7  36  1   
 18   8  11  1   
 19   8  37  1   
 20   8  38  1   
 21   9  11  1   
 22   9  39  1   
 23   9  40  1   
 24  10  12  1   
 25  10  41  1   
 26  10  42  1   
 27  11  13  1   
 28  11  14  1   
 29  12  15  1   
 30  12  16  1   
 31  13  17  1   
 32  14  18  1   
 33  14  19  2   
 34  15  20  2   
 35  16  21  2   
 36  16  43  1   
 37  17  22  1   
 38  17  44  1   
 39  17  45  1   
 40  18  23  1   
 41  18  46  1   
 42  19  22  1   
 43  19  24  1   
 44  20  21  1   
 45  20  47  1   
 46  22  48  1   
 47  22  49  1   
 48  23  24  ar  
 49  23  25  ar  
 50  24  26  ar  
 51  25  27  ar  
 52  25  50  1   
 53  26  28  ar  
 54  26  51  1   
 55  27  28  ar  
 56  27  52  1   
 57  28  53  1   
@<TRIPOS>SUBSTRUCTURE
  1 ****   8 GROUP 4 **** **** 0

# MOE 2024.06 (io_trps.svl 2023.06)
