@<TRIPOS>MOLECULE
Untitled Document
49 51 1 0 0 
SMALL
USER_CHARGES


@<TRIPOS>ATOM
  1 S        0.3950     0.9070     0.7630 S.o2  1 <1>   1.3330 
  2 O        0.8360     2.2730     0.8860 O.2   1 <1>  -0.6500 
  3 O        0.2430     0.0620     1.9240 O.2   1 <1>  -0.6500 
  4 N        1.5380     0.2100    -0.2400 N.am  1 <1>  -0.9140 
  5 C       -1.0870     0.8340    -0.2170 C.3   1 <1>  -0.1350 
  6 C        2.6180    -0.4130     0.4990 C.3   1 <1>   0.1960 
  7 C        3.6670    -0.9110    -0.4950 C.3   1 <1>  -0.1600 
  8 C        4.8130    -1.6350     0.2250 C.3   1 <1>  -0.1600 
  9 C        5.8520    -2.1620    -0.7750 C.3   1 <1>   0.0960 
 10 N        6.8970    -2.9500    -0.0740 N.pl3 1 <1>   0.0480 
 11 C        6.8800    -4.2520     0.3080 C.ar  1 <1>  -0.1520 
 12 C        8.1180    -2.4700     0.3070 C.2   1 <1>   0.0060 
 13 C        5.9200    -5.3240     0.2350 C.ar  1 <1>   0.0000 
 14 C        8.1080    -4.4790     0.8840 C.ar  1 <1>   0.2270 
 15 N        8.8610    -3.3550     0.8760 N.2   1 <1>  -0.5650 
 16 C        8.5530    -1.0230     0.0740 C.3   1 <1>   0.0200 
 17 C        6.3160    -6.5810     0.7450 C.ar  1 <1>   0.3610 
 18 C        4.6250    -5.2230    -0.2930 C.ar  1 <1>  -0.1500 
 19 C        8.4830    -5.7480     1.3970 C.ar  1 <1>   0.4610 
 20 C        9.8960    -0.6720     0.7300 C.3   1 <1>  -0.2400 
 21 N        7.5860    -6.7330     1.3020 N.ar  1 <1>  -0.1790 
 22 C        5.4430    -7.6690     0.7000 C.ar  1 <1>  -0.1500 
 23 C        3.7750    -6.3050    -0.3280 C.ar  1 <1>  -0.1500 
 24 N        9.6810    -5.9720     1.9550 N.pl3 1 <1>  -0.9000 
 25 C        4.1820    -7.5350     0.1680 C.ar  1 <1>  -0.1500 
 26 H        1.9370     1.0150    -0.7220 H     1 <1>   0.4200 
 27 H       -1.9030     1.2800     0.3170 H     1 <1>   0.0800 
 28 H       -1.3350    -0.1870    -0.4330 H     1 <1>   0.0800 
 29 H       -0.9500     1.3610    -1.1400 H     1 <1>   0.0800 
 30 H        2.2320    -1.2430     1.0690 H     1 <1>   0.0800 
 31 H        3.0560     0.2980     1.1830 H     1 <1>   0.0800 
 32 H        4.0600    -0.0740    -1.0460 H     1 <1>   0.0800 
 33 H        3.1930    -1.5870    -1.1860 H     1 <1>   0.0800 
 34 H        4.4090    -2.4540     0.7970 H     1 <1>   0.0800 
 35 H        5.2920    -0.9540     0.9080 H     1 <1>   0.0800 
 36 H        6.3110    -1.3360    -1.2860 H     1 <1>   0.0800 
 37 H        5.3950    -2.7770    -1.5270 H     1 <1>   0.0800 
 38 H        7.8020    -0.3610     0.4680 H     1 <1>   0.0800 
 39 H        8.6340    -0.8480    -0.9840 H     1 <1>   0.0800 
 40 H        4.2580    -4.2960    -0.6820 H     1 <1>   0.1500 
 41 H        9.8410    -0.8290     1.7930 H     1 <1>   0.0800 
 42 H       10.1440     0.3580     0.5440 H     1 <1>   0.0800 
 43 H       10.6780    -1.2930     0.3300 H     1 <1>   0.0800 
 44 H        7.8460    -7.6460     1.6620 H     1 <1>   0.4570 
 45 H        5.7440    -8.6290     1.0820 H     1 <1>   0.1500 
 46 H        2.7830    -6.2040    -0.7400 H     1 <1>   0.1500 
 47 H       10.0670    -6.8310     2.3580 H     1 <1>   0.4000 
 48 H       10.3440    -5.1820     2.0070 H     1 <1>   0.4000 
 49 H        3.5020    -8.3720     0.1300 H     1 <1>   0.1500 
@<TRIPOS>BOND
  1   1   2  2   
  2   1   3  2   
  3   1   4  am  
  4   1   5  1   
  5   4   6  1   
  6   4  26  1   
  7   5  27  1   
  8   5  28  1   
  9   5  29  1   
 10   6   7  1   
 11   6  30  1   
 12   6  31  1   
 13   7   8  1   
 14   7  32  1   
 15   7  33  1   
 16   8   9  1   
 17   8  34  1   
 18   8  35  1   
 19   9  10  1   
 20   9  36  1   
 21   9  37  1   
 22  10  11  1   
 23  10  12  1   
 24  11  13  ar  
 25  11  14  ar  
 26  12  15  2   
 27  12  16  1   
 28  13  17  ar  
 29  13  18  ar  
 30  14  15  1   
 31  14  19  ar  
 32  16  20  1   
 33  16  38  1   
 34  16  39  1   
 35  17  21  ar  
 36  17  22  ar  
 37  18  23  ar  
 38  18  40  1   
 39  19  21  ar  
 40  19  24  1   
 41  20  41  1   
 42  20  42  1   
 43  20  43  1   
 44  21  44  1   
 45  22  25  ar  
 46  22  45  1   
 47  23  25  ar  
 48  23  46  1   
 49  24  47  1   
 50  24  48  1   
 51  25  49  1   
@<TRIPOS>SUBSTRUCTURE
  1 ****   8 GROUP 4 **** **** 0

# MOE 2024.06 (io_trps.svl 2023.06)
