@<TRIPOS>MOLECULE
NONAME
47 49 1 0 0 
SMALL
USER_CHARGES


@<TRIPOS>ATOM
  1 O        0.1640    -1.3910     1.7620 O.3   1 <1>  -0.5600 
  2 C        0.1920    -1.9130     0.4660 C.3   1 <1>   0.2000 
  3 C       -1.0660    -1.4880     2.4080 C.3   1 <1>   0.0400 
  4 C        1.4450    -1.4550    -0.3020 C.3   1 <1>   0.0000 
  5 C        0.2390    -3.4440     0.4830 C.3   1 <1>  -0.1600 
  6 C        2.6990    -1.4850     0.6100 C.3   1 <1>   0.2090 
  7 C        1.2490    -0.0360    -0.9000 C.3   1 <1>  -0.1600 
  8 C        1.5400    -2.5470    -1.3870 C.3   1 <1>  -0.1600 
  9 C        1.1280    -3.8510    -0.6980 C.3   1 <1>  -0.1600 
 10 N        3.9500    -1.0620    -0.1120 N.pl3 1 <1>  -0.8380 
 11 C        2.5580     0.7670    -1.0380 C.3   1 <1>  -0.1600 
 12 C        5.0730    -1.9040    -0.1560 C.ar  1 <1>   0.4100 
 13 C        3.7890    -0.1160    -1.2480 C.3   1 <1>   0.2090 
 14 N        4.7940    -3.1910    -0.3030 N.ar  1 <1>  -0.6200 
 15 C        6.4270    -1.4030    -0.0790 C.ar  1 <1>   0.4100 
 16 C        5.8760    -3.9480    -0.3910 C.ar  1 <1>   0.1600 
 17 N        7.4860    -2.1930    -0.1840 N.ar  1 <1>  -0.6200 
 18 N        6.7300    -0.0420     0.1330 N.pl3 1 <1>  -0.8380 
 19 C        7.1680    -3.4690    -0.3380 C.ar  1 <1>   0.1600 
 20 C        6.1230     0.6180     1.3200 C.3   1 <1>   0.1290 
 21 C        8.0570     0.5000    -0.2680 C.3   1 <1>   0.1290 
 22 H       -0.6850    -1.5810    -0.0660 H     1 <1>   0.0800 
 23 H       -0.9670    -1.0390     3.3810 H     1 <1>   0.0800 
 24 H       -1.3360    -2.5240     2.5150 H     1 <1>   0.0800 
 25 H       -1.8090    -0.9570     1.8390 H     1 <1>   0.0800 
 26 H        0.6810    -3.7940     1.4000 H     1 <1>   0.0800 
 27 H       -0.7490    -3.8530     0.3770 H     1 <1>   0.0800 
 28 H        2.8260    -2.4630     1.0380 H     1 <1>   0.0800 
 29 H        2.5500    -0.8030     1.4290 H     1 <1>   0.0800 
 30 H        0.7710    -0.1080    -1.8610 H     1 <1>   0.0800 
 31 H        0.5910     0.5290    -0.2620 H     1 <1>   0.0800 
 32 H        0.8400    -2.3440    -2.1780 H     1 <1>   0.0800 
 33 H        2.5230    -2.6290    -1.8160 H     1 <1>   0.0800 
 34 H        2.0080    -4.3540    -0.3320 H     1 <1>   0.0800 
 35 H        0.6140    -4.5050    -1.3810 H     1 <1>   0.0800 
 36 H        2.7190     1.3410    -0.1420 H     1 <1>   0.0800 
 37 H        2.4710     1.4620    -1.8530 H     1 <1>   0.0800 
 38 H        4.6660     0.5020    -1.3290 H     1 <1>   0.0800 
 39 H        3.6910    -0.6740    -2.1630 H     1 <1>   0.0800 
 40 H        5.7170    -5.0040    -0.5130 H     1 <1>   0.1500 
 41 H        7.9840    -4.1630    -0.4240 H     1 <1>   0.1500 
 42 H        5.5580     1.4760     1.0040 H     1 <1>   0.0800 
 43 H        6.8910     0.9280     2.0070 H     1 <1>   0.0800 
 44 H        5.4620    -0.0590     1.8330 H     1 <1>   0.0800 
 45 H        8.0040     1.5690    -0.3630 H     1 <1>   0.0800 
 46 H        8.3510     0.0810    -1.2150 H     1 <1>   0.0800 
 47 H        8.7940     0.2390     0.4720 H     1 <1>   0.0800 
@<TRIPOS>BOND
  1   1   2  1   
  2   1   3  1   
  3   2   4  1   
  4   2   5  1   
  5   2  22  1   
  6   3  23  1   
  7   3  24  1   
  8   3  25  1   
  9   4   6  1   
 10   4   7  1   
 11   4   8  1   
 12   5   9  1   
 13   5  26  1   
 14   5  27  1   
 15   6  10  1   
 16   6  28  1   
 17   6  29  1   
 18   7  11  1   
 19   7  30  1   
 20   7  31  1   
 21   8   9  1   
 22   8  32  1   
 23   8  33  1   
 24   9  34  1   
 25   9  35  1   
 26  10  12  1   
 27  10  13  1   
 28  11  13  1   
 29  11  36  1   
 30  11  37  1   
 31  12  14  ar  
 32  12  15  ar  
 33  13  38  1   
 34  13  39  1   
 35  14  16  ar  
 36  15  17  ar  
 37  15  18  1   
 38  16  19  ar  
 39  16  40  1   
 40  17  19  ar  
 41  18  20  1   
 42  18  21  1   
 43  19  41  1   
 44  20  42  1   
 45  20  43  1   
 46  20  44  1   
 47  21  45  1   
 48  21  46  1   
 49  21  47  1   
@<TRIPOS>SUBSTRUCTURE
  1 ****  10 GROUP 4 **** **** 0

# MOE 2024.06 (io_trps.svl 2023.06)
