@<TRIPOS>MOLECULE
NONAME
42 44 1 0 0 
SMALL
USER_CHARGES


@<TRIPOS>ATOM
  1 CL      -0.9330    -0.3260     0.0900 Cl    1 <1>  -0.1770 
  2 C       -1.7170     1.1980    -0.2540 C.ar  1 <1>   0.1770 
  3 C       -2.8790     1.2400    -1.0090 C.ar  1 <1>   0.1770 
  4 C       -1.1530     2.3590     0.2400 C.ar  1 <1>  -0.1500 
  5 CL      -3.5950    -0.2270    -1.6360 Cl    1 <1>  -0.1770 
  6 C       -3.4920     2.4510    -1.2780 C.ar  1 <1>  -0.1500 
  7 C       -1.7660     3.5810    -0.0290 C.ar  1 <1>   0.0830 
  8 C       -2.9300     3.6180    -0.7860 C.ar  1 <1>  -0.1500 
  9 O       -1.2910     4.7720     0.4100 O.3   1 <1>  -0.3630 
 10 C       -0.1320     4.8510     1.2280 C.3   1 <1>   0.1810 
 11 C        0.1640     6.2900     1.6470 C.2   1 <1>   0.5690 
 12 O        0.2350     6.5020     2.8350 O.2   1 <1>  -0.5700 
 13 N        0.3890     7.2970     0.7320 N.am  1 <1>  -0.6600 
 14 C        0.5400     8.7170     1.1890 C.3   1 <1>   0.1400 
 15 C        0.4970     7.0960    -0.7440 C.3   1 <1>   0.1400 
 16 C        1.9420     9.3080     0.9410 C.3   1 <1>   0.2200 
 17 C        1.8970     7.4170    -1.2900 C.3   1 <1>  -0.0190 
 18 N        2.0670     9.7820    -0.4730 N.am  1 <1>  -0.6600 
 19 C        3.0820     8.3460     1.3650 C.3   1 <1>   0.1200 
 20 C        2.0550     8.9090    -1.5290 C.2   1 <1>   0.5690 
 21 C        3.0490     6.8000    -0.4680 C.3   1 <1>   0.1200 
 22 C        2.3140    11.2390    -0.6570 C.3   1 <1>   0.0600 
 23 O        3.7510     7.7380     0.2920 O.3   1 <1>  -0.5600 
 24 O        2.1250     9.2860    -2.6760 O.2   1 <1>  -0.5700 
 25 H       -0.2540     2.2810     0.8210 H     1 <1>   0.1500 
 26 H       -4.3950     2.4750    -1.8630 H     1 <1>   0.1500 
 27 H       -3.3960     4.5680    -0.9840 H     1 <1>   0.1500 
 28 H       -0.3050     4.2590     2.1090 H     1 <1>   0.0800 
 29 H        0.7030     4.4550     0.6810 H     1 <1>   0.0800 
 30 H       -0.1960     9.3300     0.6980 H     1 <1>   0.0800 
 31 H        0.3390     8.7790     2.2440 H     1 <1>   0.0800 
 32 H        0.2650     6.0800    -1.0000 H     1 <1>   0.0800 
 33 H       -0.2320     7.7180    -1.2380 H     1 <1>   0.0800 
 34 H        2.0090    10.1690     1.5820 H     1 <1>   0.0800 
 35 H        1.9370     6.9540    -2.2590 H     1 <1>   0.0800 
 36 H        2.7250     7.5820     2.0330 H     1 <1>   0.0800 
 37 H        3.8230     8.9150     1.8960 H     1 <1>   0.0800 
 38 H        3.7670     6.3750    -1.1470 H     1 <1>   0.0800 
 39 H        2.7040     6.0170     0.1840 H     1 <1>   0.0800 
 40 H        1.4990    11.8030    -0.2430 H     1 <1>   0.0800 
 41 H        2.4040    11.4820    -1.7020 H     1 <1>   0.0800 
 42 H        3.2300    11.5150    -0.1640 H     1 <1>   0.0800 
@<TRIPOS>BOND
  1   1   2  1   
  2   2   3  ar  
  3   2   4  ar  
  4   3   5  1   
  5   3   6  ar  
  6   4   7  ar  
  7   4  25  1   
  8   6   8  ar  
  9   6  26  1   
 10   7   8  ar  
 11   7   9  1   
 12   8  27  1   
 13   9  10  1   
 14  10  11  1   
 15  10  28  1   
 16  10  29  1   
 17  11  12  2   
 18  11  13  am  
 19  13  14  1   
 20  13  15  1   
 21  14  16  1   
 22  14  30  1   
 23  14  31  1   
 24  15  17  1   
 25  15  32  1   
 26  15  33  1   
 27  16  18  1   
 28  16  19  1   
 29  16  34  1   
 30  17  20  1   
 31  17  21  1   
 32  17  35  1   
 33  18  20  am  
 34  18  22  1   
 35  19  23  1   
 36  19  36  1   
 37  19  37  1   
 38  20  24  2   
 39  21  23  1   
 40  21  38  1   
 41  21  39  1   
 42  22  40  1   
 43  22  41  1   
 44  22  42  1   
@<TRIPOS>SUBSTRUCTURE
  1 ****  15 GROUP 4 **** **** 0

# MOE 2024.06 (io_trps.svl 2023.06)
