@<TRIPOS>MOLECULE
NONAME
50 53 1 0 0 
SMALL
USER_CHARGES


@<TRIPOS>ATOM
  1 O       -1.8770     0.3610    -2.5330 O.2   1 <1>  -0.5700 
  2 C       -1.7470     0.5730    -1.3440 C.2   1 <1>   0.5440 
  3 N       -1.7270    -0.5020    -0.5010 N.am  1 <1>  -0.7300 
  4 C       -1.6310     1.9230    -0.8540 C.ar  1 <1>   0.0860 
  5 C       -1.8720    -1.9190    -0.9170 C.3   1 <1>   0.2200 
  6 C       -1.3110     2.9790    -1.6880 C.ar  1 <1>   0.1600 
  7 C       -1.8370     2.2770     0.4670 C.ar  1 <1>   0.1600 
  8 C       -3.2540    -2.4550    -0.5630 C.3   1 <1>  -0.0800 
  9 C       -1.0030    -2.7800    -0.0120 C.3   1 <1>   0.1200 
 10 N       -1.1970     4.2170    -1.2750 N.ar  1 <1>  -0.6200 
 11 N       -1.7330     3.5030     0.9130 N.ar  1 <1>  -0.6200 
 12 C       -3.0980    -2.8710     0.9050 C.3   1 <1>   0.1200 
 13 C       -4.4350    -1.5040    -0.8340 C.3   1 <1>  -0.0170 
 14 O       -1.7260    -2.8870     1.1760 O.3   1 <1>  -0.5600 
 15 C       -1.4120     4.4410     0.0210 C.ar  1 <1>   0.7200 
 16 C       -5.7590    -2.1650    -0.4850 C.ar  1 <1>  -0.1430 
 17 N       -1.2930     5.7320     0.4720 N.pl3 1 <1>  -0.8380 
 18 C       -6.4220    -1.8980     0.6960 C.ar  1 <1>  -0.1500 
 19 C       -6.3650    -3.0700    -1.3330 C.ar  1 <1>  -0.1500 
 20 C       -1.4630     6.1330     1.9040 C.3   1 <1>   0.2090 
 21 C       -0.9270     6.8860    -0.4100 C.3   1 <1>   0.2090 
 22 C       -7.6220    -2.5340     0.9660 C.ar  1 <1>   0.1600 
 23 C       -7.5670    -3.6510    -0.9670 C.ar  1 <1>   0.1600 
 24 C       -2.3590     7.3780     2.0220 C.3   1 <1>   0.1200 
 25 C       -1.8540     8.0870    -0.1530 C.3   1 <1>   0.1200 
 26 N       -8.2090    -3.4070     0.1640 N.ar  1 <1>  -0.6200 
 27 O       -1.8900     8.4180     1.2080 O.3   1 <1>  -0.5600 
 28 H       -1.5500    -0.4020     0.5010 H     1 <1>   0.3700 
 29 H       -1.6290    -2.0430    -1.9590 H     1 <1>   0.0800 
 30 H       -1.1440     2.7810    -2.7340 H     1 <1>   0.1500 
 31 H       -2.1040     1.5190     1.1810 H     1 <1>   0.1500 
 32 H       -3.4120    -3.3530    -1.1340 H     1 <1>   0.0800 
 33 H       -0.0390    -2.3450     0.1830 H     1 <1>   0.0800 
 34 H       -0.8860    -3.7690    -0.4200 H     1 <1>   0.0800 
 35 H       -3.5030    -3.8520     1.0850 H     1 <1>   0.0800 
 36 H       -3.5540    -2.1610     1.5730 H     1 <1>   0.0800 
 37 H       -4.4380    -1.2250    -1.8740 H     1 <1>   0.0800 
 38 H       -4.3330    -0.6000    -0.2600 H     1 <1>   0.0800 
 39 H       -6.0200    -1.2010     1.4080 H     1 <1>   0.1500 
 40 H       -5.9140    -3.3270    -2.2740 H     1 <1>   0.1500 
 41 H       -1.9010     5.3410     2.4850 H     1 <1>   0.0800 
 42 H       -0.4970     6.3520     2.3240 H     1 <1>   0.0800 
 43 H        0.0890     7.1750    -0.2070 H     1 <1>   0.0800 
 44 H       -0.9910     6.6230    -1.4500 H     1 <1>   0.0800 
 45 H       -8.1250    -2.3130     1.8920 H     1 <1>   0.1500 
 46 H       -8.0260    -4.3550    -1.6410 H     1 <1>   0.1500 
 47 H       -2.3660     7.7340     3.0370 H     1 <1>   0.0800 
 48 H       -3.3670     7.1410     1.7310 H     1 <1>   0.0800 
 49 H       -2.8540     7.8610    -0.4790 H     1 <1>   0.0800 
 50 H       -1.5010     8.9480    -0.6920 H     1 <1>   0.0800 
@<TRIPOS>BOND
  1   1   2  2   
  2   2   3  am  
  3   2   4  1   
  4   3   5  1   
  5   3  28  1   
  6   4   6  ar  
  7   4   7  ar  
  8   5   8  1   
  9   5   9  1   
 10   5  29  1   
 11   6  10  ar  
 12   6  30  1   
 13   7  11  ar  
 14   7  31  1   
 15   8  12  1   
 16   8  13  1   
 17   8  32  1   
 18   9  14  1   
 19   9  33  1   
 20   9  34  1   
 21  10  15  ar  
 22  11  15  ar  
 23  12  14  1   
 24  12  35  1   
 25  12  36  1   
 26  13  16  1   
 27  13  37  1   
 28  13  38  1   
 29  15  17  1   
 30  16  18  ar  
 31  16  19  ar  
 32  17  20  1   
 33  17  21  1   
 34  18  22  ar  
 35  18  39  1   
 36  19  23  ar  
 37  19  40  1   
 38  20  24  1   
 39  20  41  1   
 40  20  42  1   
 41  21  25  1   
 42  21  43  1   
 43  21  44  1   
 44  22  26  ar  
 45  22  45  1   
 46  23  26  ar  
 47  23  46  1   
 48  24  27  1   
 49  24  47  1   
 50  24  48  1   
 51  25  27  1   
 52  25  49  1   
 53  25  50  1   
@<TRIPOS>SUBSTRUCTURE
  1 ****   7 GROUP 4 **** **** 0

# MOE 2024.06 (io_trps.svl 2023.06)
