@<TRIPOS>MOLECULE
NONAME
37 39 1 0 0 
SMALL
USER_CHARGES


@<TRIPOS>ATOM
  1 F       -0.5210    -0.1790    -0.8780 F     1 <1>  -0.1900 
  2 C       -1.5450    -0.9490    -0.5710 C.ar  1 <1>   0.1900 
  3 C       -2.8110    -0.4210    -0.3140 C.ar  1 <1>   0.4100 
  4 C       -1.3610    -2.3020    -0.5150 C.ar  1 <1>   0.1600 
  5 N       -3.8060    -1.2400    -0.0250 N.ar  1 <1>  -0.6200 
  6 N       -3.1050     0.9410    -0.3430 N.pl3 1 <1>  -0.8380 
  7 N       -2.3520    -3.1230    -0.2250 N.ar  1 <1>  -0.6200 
  8 C       -3.5200    -2.5300     0.0080 C.ar  1 <1>   0.7200 
  9 C       -4.5020     1.3990    -0.5880 C.3   1 <1>   0.1290 
 10 C       -2.2390     1.9190     0.3680 C.3   1 <1>   0.1290 
 11 N       -4.5640    -3.3230     0.3150 N.pl3 1 <1>  -0.8690 
 12 C       -4.7290    -4.6310    -0.3430 C.3   1 <1>   0.3900 
 13 C       -6.2120    -4.9740    -0.4320 C.2   1 <1>   0.1080 
 14 N       -7.1370    -4.1440    -0.8390 N.2   1 <1>  -0.7070 
 15 C       -6.7600    -6.2060    -0.0870 C.2   1 <1>  -0.1810 
 16 N       -8.2940    -4.8400    -0.7570 N.pl3 1 <1>   0.3000 
 17 C       -8.0640    -6.0850    -0.3040 C.2   1 <1>  -0.3320 
 18 C       -6.3960    -7.5680     0.4360 C.3   1 <1>   0.0210 
 19 C       -8.8620    -7.3160     0.0140 C.3   1 <1>   0.0200 
 20 C       -7.7490    -8.3250     0.3920 C.3   1 <1>  -0.1600 
 21 H       -0.3910    -2.7200    -0.7130 H     1 <1>   0.1500 
 22 H       -4.9940     0.7330    -1.2760 H     1 <1>   0.0800 
 23 H       -4.4980     2.3880    -1.0110 H     1 <1>   0.0800 
 24 H       -5.0490     1.4070     0.3390 H     1 <1>   0.0800 
 25 H       -1.4660     1.4100     0.9180 H     1 <1>   0.0800 
 26 H       -2.8250     2.4950     1.0630 H     1 <1>   0.0800 
 27 H       -1.7820     2.5820    -0.3460 H     1 <1>   0.0800 
 28 H       -5.4480    -2.8100     0.2550 H     1 <1>   0.4000 
 29 H       -4.2090    -5.3820     0.2240 H     1 <1>   0.0800 
 30 H       -4.3190    -4.5970    -1.3380 H     1 <1>   0.0800 
 31 H       -9.2030    -4.4360    -1.0120 H     1 <1>   0.2700 
 32 H       -6.0290    -7.4870     1.4450 H     1 <1>   0.0800 
 33 H       -5.6600    -8.0390    -0.1910 H     1 <1>   0.0800 
 34 H       -9.4230    -7.6510    -0.8410 H     1 <1>   0.0800 
 35 H       -9.5200    -7.1330     0.8450 H     1 <1>   0.0800 
 36 H       -7.9580    -8.7830     1.3420 H     1 <1>   0.0800 
 37 H       -7.6990    -9.0940    -0.3590 H     1 <1>   0.0800 
@<TRIPOS>BOND
  1   1   2  1   
  2   2   3  ar  
  3   2   4  ar  
  4   3   5  ar  
  5   3   6  1   
  6   4   7  ar  
  7   4  21  1   
  8   5   8  ar  
  9   6   9  1   
 10   6  10  1   
 11   7   8  ar  
 12   8  11  1   
 13   9  22  1   
 14   9  23  1   
 15   9  24  1   
 16  10  25  1   
 17  10  26  1   
 18  10  27  1   
 19  11  12  1   
 20  11  28  1   
 21  12  13  1   
 22  12  29  1   
 23  12  30  1   
 24  13  14  2   
 25  13  15  1   
 26  14  16  1   
 27  15  17  2   
 28  15  18  1   
 29  16  17  1   
 30  16  31  1   
 31  17  19  1   
 32  18  20  1   
 33  18  32  1   
 34  18  33  1   
 35  19  20  1   
 36  19  34  1   
 37  19  35  1   
 38  20  36  1   
 39  20  37  1   
@<TRIPOS>SUBSTRUCTURE
  1 ****  11 GROUP 4 **** **** 0

# MOE 2024.06 (io_trps.svl 2023.06)
