@<TRIPOS>MOLECULE
NONAME
40 41 1 0 0 
SMALL
USER_CHARGES


@<TRIPOS>ATOM
  1 S        2.6530    -0.9200     0.7850 S.3   1 <1>  -0.4670 
  2 C        1.1510    -1.9320     0.9650 C.3   1 <1>   0.2050 
  3 C        2.4930     0.3490     2.1030 C.3   1 <1>   0.1220 
  4 C       -0.0190    -1.0720     0.5260 C.ar  1 <1>  -0.1530 
  5 C        1.6800     1.5550     1.6370 C.2   1 <1>   0.8490 
  6 C       -0.7750    -0.3810     1.4600 C.ar  1 <1>  -0.1590 
  7 C       -0.3380    -0.9700    -0.8190 C.ar  1 <1>  -0.1590 
  8 O        1.2940     2.3660     2.4390 O.2   1 <1>  -0.5760 
  9 N        1.4100     1.6850     0.3160 N.pl3 1 <1>  -0.7340 
 10 C       -1.8190     0.4330     1.0550 C.ar  1 <1>  -0.1530 
 11 C       -1.3940    -0.1760    -1.2320 C.ar  1 <1>  -0.1530 
 12 C        0.6050     2.5640    -0.2690 C.cat 1 <1>   1.0690 
 13 C       -2.1260     0.5280    -0.2910 C.ar  1 <1>  -0.1590 
 14 C       -2.6330     1.1940     2.0870 C.3   1 <1>  -0.1060 
 15 C       -1.7810    -0.0980    -2.6980 C.3   1 <1>  -0.1060 
 16 N       -0.1270     3.4730     0.3450 N.pl3 1 <1>  -0.7050 
 17 N        0.4450     2.6760    -1.5880 N.pl3 1 <1>  -0.7680 
 18 C       -0.8160     4.1930    -0.5990 C.2   1 <1>   0.1910 
 19 C       -0.4620     3.7000    -1.8000 C.2   1 <1>   0.1910 
 20 C        1.0890     1.8920    -2.6730 C.3   1 <1>   0.2660 
 21 H        1.0740    -2.2370     1.9940 H     1 <1>   0.0700 
 22 H        1.2660    -2.7960     0.3340 H     1 <1>   0.0700 
 23 H        3.4890     0.6580     2.3640 H     1 <1>   0.0700 
 24 H        2.0270    -0.1180     2.9520 H     1 <1>   0.0700 
 25 H       -0.5590    -0.4750     2.5110 H     1 <1>   0.1410 
 26 H        0.2300    -1.5280    -1.5450 H     1 <1>   0.1410 
 27 H        1.6320     0.8580    -0.2290 H     1 <1>   0.4430 
 28 H       -2.9540     1.1380    -0.6080 H     1 <1>   0.1410 
 29 H       -2.0020     1.5400     2.8850 H     1 <1>   0.0700 
 30 H       -3.3860     0.5460     2.4990 H     1 <1>   0.0700 
 31 H       -3.1170     2.0430     1.6400 H     1 <1>   0.0700 
 32 H       -0.9970    -0.4810    -3.3260 H     1 <1>   0.0700 
 33 H       -1.9860     0.9190    -2.9790 H     1 <1>   0.0700 
 34 H       -2.6670    -0.6850    -2.8660 H     1 <1>   0.0700 
 35 H       -0.1260     3.5530     1.3680 H     1 <1>   0.4430 
 36 H       -1.4990     4.9920    -0.3530 H     1 <1>   0.1410 
 37 H       -0.7890     4.0050    -2.7820 H     1 <1>   0.1410 
 38 H        1.3260     0.8990    -2.3350 H     1 <1>   0.0700 
 39 H        1.9940     2.3830    -2.9900 H     1 <1>   0.0700 
 40 H        0.4230     1.8150    -3.5150 H     1 <1>   0.0700 
@<TRIPOS>BOND
  1   1   2  1   
  2   1   3  1   
  3   2   4  1   
  4   2  21  1   
  5   2  22  1   
  6   3   5  1   
  7   3  23  1   
  8   3  24  1   
  9   4   6  ar  
 10   4   7  ar  
 11   5   8  2   
 12   5   9  1   
 13   6  10  ar  
 14   6  25  1   
 15   7  11  ar  
 16   7  26  1   
 17   9  12  ar  
 18   9  27  1   
 19  10  13  ar  
 20  10  14  1   
 21  11  13  ar  
 22  11  15  1   
 23  12  16  ar  
 24  12  17  ar  
 25  13  28  1   
 26  14  29  1   
 27  14  30  1   
 28  14  31  1   
 29  15  32  1   
 30  15  33  1   
 31  15  34  1   
 32  16  18  1   
 33  16  35  1   
 34  17  19  1   
 35  17  20  1   
 36  18  19  2   
 37  18  36  1   
 38  19  37  1   
 39  20  38  1   
 40  20  39  1   
 41  20  40  1   
@<TRIPOS>SUBSTRUCTURE
  1 ****   9 GROUP 4 **** **** 0

# MOE 2024.06 (io_trps.svl 2023.06)
