@<TRIPOS>MOLECULE
NONAME
53 55 1 0 0 
SMALL
USER_CHARGES


@<TRIPOS>ATOM
  1 O       -2.7220     1.5080    -2.4400 O.2   1 <1>  -0.5700 
  2 C       -2.4500     1.2030    -1.3000 C.2   1 <1>   0.5690 
  3 N       -2.7290    -0.0510    -0.8140 N.am  1 <1>  -0.5090 
  4 C       -1.8180     2.2920    -0.4180 C.3   1 <1>  -0.0190 
  5 C       -2.3180    -0.5690     0.5130 C.3   1 <1>   0.0490 
  6 C       -3.6990    -0.9210    -1.5370 C.3   1 <1>   0.3210 
  7 C       -2.7450     3.5170    -0.2940 C.3   1 <1>  -0.1600 
  8 C       -0.4210     2.7140    -0.9360 C.3   1 <1>  -0.1600 
  9 C       -0.8640    -0.6070     0.8730 C.3   1 <1>  -0.2000 
 10 C       -1.5910    -1.8770     0.5850 C.3   1 <1>  -0.2000 
 11 C       -5.0470    -0.8890    -0.8300 C.2   1 <1>  -0.1810 
 12 C       -2.2020     4.5580     0.7090 C.3   1 <1>   0.2000 
 13 C        0.0240     4.1110    -0.4600 C.3   1 <1>  -0.1600 
 14 C       -6.0110     0.1070    -0.9610 C.2   1 <1>   0.1080 
 15 C       -5.5860    -1.7740     0.0420 C.2   1 <1>  -0.3320 
 16 O       -2.5830     5.8400     0.2710 O.3   1 <1>  -0.5600 
 17 C       -0.6580     4.5050     0.8530 C.3   1 <1>   0.2000 
 18 N       -7.0520    -0.1210    -0.2270 N.2   1 <1>  -0.7070 
 19 C       -5.9220     1.3330    -1.8430 C.3   1 <1>  -0.0590 
 20 N       -6.7950    -1.2820     0.3920 N.pl3 1 <1>   0.3140 
 21 C       -5.0220    -3.0820     0.5760 C.3   1 <1>  -0.0600 
 22 C       -3.9110     6.1820     0.5220 C.3   1 <1>   0.0400 
 23 O       -0.1930     5.7500     1.2220 O.3   1 <1>  -0.6800 
 24 C       -7.7700    -1.8770     1.3140 C.3   1 <1>   0.0160 
 25 H       -1.6970     1.9120     0.5770 H     1 <1>   0.0800 
 26 H       -3.0500    -0.3630     1.2790 H     1 <1>   0.1000 
 27 H       -3.8190    -0.5990    -2.5550 H     1 <1>   0.0800 
 28 H       -3.3240    -1.9270    -1.5660 H     1 <1>   0.0800 
 29 H       -3.7180     3.1960     0.0290 H     1 <1>   0.0800 
 30 H       -2.8410     3.9690    -1.2670 H     1 <1>   0.0800 
 31 H        0.3000     1.9820    -0.6170 H     1 <1>   0.0800 
 32 H       -0.4170     2.7130    -2.0140 H     1 <1>   0.0800 
 33 H       -0.1280    -0.2820     0.1590 H     1 <1>   0.1000 
 34 H       -0.5720    -0.4100     1.8900 H     1 <1>   0.1000 
 35 H       -1.7900    -2.5390     1.4080 H     1 <1>   0.1000 
 36 H       -1.3450    -2.4020    -0.3210 H     1 <1>   0.1000 
 37 H       -2.6260     4.3870     1.6840 H     1 <1>   0.0800 
 38 H       -0.2450     4.8350    -1.2110 H     1 <1>   0.0800 
 39 H        1.0930     4.1300    -0.3390 H     1 <1>   0.0800 
 40 H       -0.3780     3.8070     1.6230 H     1 <1>   0.0800 
 41 H       -5.4450     1.0950    -2.7750 H     1 <1>   0.0800 
 42 H       -5.3620     2.0990    -1.3440 H     1 <1>   0.0800 
 43 H       -6.9100     1.7030    -2.0480 H     1 <1>   0.0800 
 44 H       -4.0800    -3.3100     0.1130 H     1 <1>   0.0800 
 45 H       -5.7020    -3.8890     0.3700 H     1 <1>   0.0800 
 46 H       -4.8720    -3.0120     1.6390 H     1 <1>   0.0800 
 47 H       -4.0680     7.1870     0.1720 H     1 <1>   0.0800 
 48 H       -4.0980     6.1350     1.5810 H     1 <1>   0.0800 
 49 H       -4.5640     5.5110    -0.0090 H     1 <1>   0.0800 
 50 H       -0.8180     6.3950     0.8200 H     1 <1>   0.4000 
 51 H       -7.3090    -2.0170     2.2730 H     1 <1>   0.0800 
 52 H       -8.0970    -2.8190     0.9180 H     1 <1>   0.0800 
 53 H       -8.6110    -1.2150     1.4110 H     1 <1>   0.0800 
@<TRIPOS>BOND
  1   1   2  2   
  2   2   3  am  
  3   2   4  1   
  4   3   5  1   
  5   3   6  1   
  6   4   7  1   
  7   4   8  1   
  8   4  25  1   
  9   5   9  1   
 10   5  10  1   
 11   5  26  1   
 12   6  11  1   
 13   6  27  1   
 14   6  28  1   
 15   7  12  1   
 16   7  29  1   
 17   7  30  1   
 18   8  13  1   
 19   8  31  1   
 20   8  32  1   
 21   9  10  1   
 22   9  33  1   
 23   9  34  1   
 24  10  35  1   
 25  10  36  1   
 26  11  14  1   
 27  11  15  2   
 28  12  16  1   
 29  12  17  1   
 30  12  37  1   
 31  13  17  1   
 32  13  38  1   
 33  13  39  1   
 34  14  18  2   
 35  14  19  1   
 36  15  20  1   
 37  15  21  1   
 38  16  22  1   
 39  17  23  1   
 40  17  40  1   
 41  18  20  1   
 42  19  41  1   
 43  19  42  1   
 44  19  43  1   
 45  20  24  1   
 46  21  44  1   
 47  21  45  1   
 48  21  46  1   
 49  22  47  1   
 50  22  48  1   
 51  22  49  1   
 52  23  50  1   
 53  24  51  1   
 54  24  52  1   
 55  24  53  1   
@<TRIPOS>SUBSTRUCTURE
  1 ****   2 GROUP 4 **** **** 0

# MOE 2024.06 (io_trps.svl 2023.06)
