@<TRIPOS>MOLECULE
NONAME
37 39 1 0 0 
SMALL
USER_CHARGES


@<TRIPOS>ATOM
  1 S        0.1380    -0.1130    -0.2630 S.3   1 <1>  -0.0800 
  2 C       -0.5760     1.4640     0.0880 C.2   1 <1>   0.0410 
  3 C       -1.3420    -0.9660     0.1340 C.2   1 <1>  -0.1400 
  4 C        0.2290     2.6500    -0.0670 C.2   1 <1>   0.2880 
  5 C       -1.8610     1.2760     0.4760 C.2   1 <1>  -0.1500 
  6 C       -2.2930    -0.0840     0.5040 C.2   1 <1>  -0.1500 
  7 C       -1.2780    -2.4770    -0.0010 C.3   1 <1>   0.5230 
  8 N        1.4840     2.6620    -0.4480 N.2   1 <1>  -0.7070 
  9 C       -0.2220     3.9540     0.1700 C.2   1 <1>  -0.1500 
 10 N       -2.6190    -3.0580     0.2850 N.4   1 <1>  -0.9590 
 11 N        1.8420     3.9560    -0.4580 N.pl3 1 <1>   0.3000 
 12 C        0.8270     4.7580    -0.0880 C.2   1 <1>  -0.3020 
 13 C       -2.4740    -4.5560     0.5700 C.3   1 <1>   0.3170 
 14 C       -3.5150    -2.8650    -0.8820 C.3   1 <1>   0.3430 
 15 C       -1.4180    -5.2800    -0.3020 C.2   1 <1>   0.9060 
 16 C       -3.8470    -5.2660     0.4860 C.3   1 <1>  -0.1600 
 17 C       -4.9530    -3.2100    -0.4680 C.3   1 <1>  -0.1600 
 18 O       -0.5220    -5.9050     0.2650 O.co2 1 <1>  -0.9000 
 19 O       -1.4350    -5.0800    -1.5240 O.co2 1 <1>  -0.9000 
 20 C       -5.0380    -4.3040     0.6140 C.3   1 <1>  -0.1600 
 21 H       -2.5330     2.0700     0.7510 H     1 <1>   0.1500 
 22 H       -3.2990    -0.3180     0.8040 H     1 <1>   0.1500 
 23 H       -0.5520    -2.8630     0.6970 H     1 <1>   0.0800 
 24 H       -0.9600    -2.7530    -0.9950 H     1 <1>   0.0800 
 25 H       -1.2100     4.2260     0.4910 H     1 <1>   0.1500 
 26 H       -3.0090    -2.5970     1.1070 H     1 <1>   0.4500 
 27 H        2.7880     4.2600    -0.7230 H     1 <1>   0.2700 
 28 H        0.9110     5.8290    -0.0320 H     1 <1>   0.1500 
 29 H       -2.1150    -4.6610     1.5790 H     1 <1>   0.0800 
 30 H       -3.1980    -3.5220    -1.6790 H     1 <1>   0.0800 
 31 H       -3.4670    -1.8500    -1.2420 H     1 <1>   0.0800 
 32 H       -3.8920    -6.0250     1.2480 H     1 <1>   0.0800 
 33 H       -3.9150    -5.7770    -0.4610 H     1 <1>   0.0800 
 34 H       -5.4730    -3.5410    -1.3510 H     1 <1>   0.0800 
 35 H       -5.4520    -2.3220    -0.1230 H     1 <1>   0.0800 
 36 H       -5.0210    -3.8530     1.5910 H     1 <1>   0.0800 
 37 H       -5.9650    -4.8450     0.5190 H     1 <1>   0.0800 
@<TRIPOS>BOND
  1   1   2  1   
  2   1   3  1   
  3   2   4  1   
  4   2   5  2   
  5   3   6  2   
  6   3   7  1   
  7   4   8  2   
  8   4   9  1   
  9   5   6  1   
 10   5  21  1   
 11   6  22  1   
 12   7  10  1   
 13   7  23  1   
 14   7  24  1   
 15   8  11  1   
 16   9  12  2   
 17   9  25  1   
 18  10  13  1   
 19  10  14  1   
 20  10  26  1   
 21  11  12  1   
 22  11  27  1   
 23  12  28  1   
 24  13  15  1   
 25  13  16  1   
 26  13  29  1   
 27  14  17  1   
 28  14  30  1   
 29  14  31  1   
 30  15  18  ar  
 31  15  19  ar  
 32  16  20  1   
 33  16  32  1   
 34  16  33  1   
 35  17  20  1   
 36  17  34  1   
 37  17  35  1   
 38  20  36  1   
 39  20  37  1   
@<TRIPOS>SUBSTRUCTURE
  1 ****   3 GROUP 4 **** **** 0

# MOE 2024.06 (io_trps.svl 2023.06)
