@<TRIPOS>MOLECULE
NONAME
46 48 1 0 0 
SMALL
USER_CHARGES


@<TRIPOS>ATOM
  1 O       -0.3690     0.1020     1.0890 O.2   1 <1>  -0.5700 
  2 C       -1.3790     0.7620     0.9360 C.2   1 <1>   0.5440 
  3 N       -2.5490     0.1080     0.6220 N.am  1 <1>  -0.6600 
  4 C       -1.3320     2.2060     1.0680 C.ar  1 <1>   0.0860 
  5 C       -3.7150     0.7450    -0.0400 C.3   1 <1>   0.1400 
  6 C       -2.6060    -1.3670     0.4760 C.3   1 <1>   0.1400 
  7 C       -0.3810     2.9560     0.3820 C.ar  1 <1>  -0.1500 
  8 C       -2.2300     2.8940     1.8840 C.ar  1 <1>  -0.1500 
  9 C       -4.4030    -0.3890    -0.7990 C.3   1 <1>   0.2000 
 10 C       -4.0020    -1.6700    -0.0700 C.3   1 <1>  -0.0800 
 11 C       -0.3310     4.3350     0.4810 C.ar  1 <1>   0.0830 
 12 C       -2.1920     4.2720     1.9950 C.ar  1 <1>  -0.1500 
 13 O       -5.7810    -0.2460    -0.7920 O.3   1 <1>  -0.6800 
 14 C       -4.0540    -2.9130    -0.9730 C.3   1 <1>  -0.0170 
 15 O        0.6310     4.9630    -0.2380 O.3   1 <1>  -0.3630 
 16 C       -1.2460     4.9970     1.2940 C.ar  1 <1>  -0.1500 
 17 C       -3.6570    -4.1630    -0.2040 C.ar  1 <1>  -0.1430 
 18 C        0.8220     6.3560    -0.1540 C.3   1 <1>   0.1200 
 19 C       -4.5690    -4.8630     0.5600 C.ar  1 <1>  -0.1500 
 20 C       -2.3700    -4.6630    -0.2260 C.ar  1 <1>  -0.1500 
 21 C        2.0010     6.7250    -1.0490 C.3   1 <1>  -0.2400 
 22 C       -4.1620    -5.9940     1.2480 C.ar  1 <1>   0.1600 
 23 C       -2.0660    -5.8030     0.5000 C.ar  1 <1>   0.1600 
 24 N       -2.9310    -6.4800     1.2380 N.ar  1 <1>  -0.6200 
 25 H       -4.3680     1.1530     0.7120 H     1 <1>   0.0800 
 26 H       -3.3950     1.5190    -0.7160 H     1 <1>   0.0800 
 27 H       -1.8430    -1.6760    -0.2180 H     1 <1>   0.0800 
 28 H       -2.4380    -1.8490     1.4250 H     1 <1>   0.0800 
 29 H        0.3360     2.4510    -0.2410 H     1 <1>   0.1500 
 30 H       -2.9610     2.3350     2.4410 H     1 <1>   0.1500 
 31 H       -4.0660    -0.3970    -1.8220 H     1 <1>   0.0800 
 32 H       -4.6490    -1.8170     0.7770 H     1 <1>   0.0800 
 33 H       -2.8960     4.7810     2.6300 H     1 <1>   0.1500 
 34 H       -6.1220    -0.2710     0.1230 H     1 <1>   0.4000 
 35 H       -3.3990    -2.7820    -1.8170 H     1 <1>   0.0800 
 36 H       -5.0530    -3.0330    -1.3550 H     1 <1>   0.0800 
 37 H       -1.2360     6.0660     1.3930 H     1 <1>   0.1500 
 38 H       -0.0770     6.8450    -0.4880 H     1 <1>   0.0800 
 39 H        1.0290     6.6100     0.8720 H     1 <1>   0.0800 
 40 H       -5.5920    -4.5400     0.6260 H     1 <1>   0.1500 
 41 H       -1.6000    -4.1800    -0.7980 H     1 <1>   0.1500 
 42 H        1.7910     6.4530    -2.0670 H     1 <1>   0.0800 
 43 H        2.8890     6.2170    -0.7170 H     1 <1>   0.0800 
 44 H        2.1750     7.7850    -1.0050 H     1 <1>   0.0800 
 45 H       -4.8870    -6.5270     1.8390 H     1 <1>   0.1500 
 46 H       -1.0570    -6.1770     0.4730 H     1 <1>   0.1500 
@<TRIPOS>BOND
  1   1   2  2   
  2   2   3  am  
  3   2   4  1   
  4   3   5  1   
  5   3   6  1   
  6   4   7  ar  
  7   4   8  ar  
  8   5   9  1   
  9   5  25  1   
 10   5  26  1   
 11   6  10  1   
 12   6  27  1   
 13   6  28  1   
 14   7  11  ar  
 15   7  29  1   
 16   8  12  ar  
 17   8  30  1   
 18   9  10  1   
 19   9  13  1   
 20   9  31  1   
 21  10  14  1   
 22  10  32  1   
 23  11  15  1   
 24  11  16  ar  
 25  12  16  ar  
 26  12  33  1   
 27  13  34  1   
 28  14  17  1   
 29  14  35  1   
 30  14  36  1   
 31  15  18  1   
 32  16  37  1   
 33  17  19  ar  
 34  17  20  ar  
 35  18  21  1   
 36  18  38  1   
 37  18  39  1   
 38  19  22  ar  
 39  19  40  1   
 40  20  23  ar  
 41  20  41  1   
 42  21  42  1   
 43  21  43  1   
 44  21  44  1   
 45  22  24  ar  
 46  22  45  1   
 47  23  24  ar  
 48  23  46  1   
@<TRIPOS>SUBSTRUCTURE
  1 ****   3 GROUP 4 **** **** 0

# MOE 2024.06 (io_trps.svl 2023.06)
