@<TRIPOS>MOLECULE
NONAME
43 44 1 0 0 
SMALL
USER_CHARGES


@<TRIPOS>ATOM
  1 S        0.1160     0.1790     0.0150 S.o2  1 <1>   1.3330 
  2 O       -0.6510     1.4000    -0.0730 O.2   1 <1>  -0.6500 
  3 O        0.2250    -0.5030     1.2850 O.2   1 <1>  -0.6500 
  4 N       -0.5250    -0.9260    -1.1040 N.am  1 <1>  -0.8490 
  5 C        1.7450     0.5120    -0.6560 C.3   1 <1>  -0.0550 
  6 C       -1.9880    -0.8600    -1.1720 C.3   1 <1>   0.1160 
  7 C       -0.1000    -2.3100    -0.8610 C.3   1 <1>   0.1160 
  8 C        2.5500     1.5500     0.1500 C.3   1 <1>  -0.0800 
  9 C        3.8050     1.9620    -0.6030 C.3   1 <1>   0.2200 
 10 C        3.1520     0.9400     1.4140 C.3   1 <1>   0.1200 
 11 N        4.2040     3.3190    -0.1730 N.am  1 <1>  -0.7300 
 12 C        4.8410     0.9340    -0.1380 C.3   1 <1>   0.1200 
 13 O        4.3070     0.2930     0.9850 O.3   1 <1>  -0.5600 
 14 C        4.5320     4.3460    -0.9970 C.2   1 <1>   0.5690 
 15 O        4.4980     4.2320    -2.1990 O.2   1 <1>  -0.5700 
 16 C        4.9530     5.6820    -0.3910 C.3   1 <1>   0.2010 
 17 N        6.2170     5.5820     0.4040 N.am  1 <1>  -0.4690 
 18 C        6.1770     5.0600     1.6890 C.2   1 <1>   0.8410 
 19 C        7.4110     5.9710    -0.1480 C.2   1 <1>  -0.0410 
 20 O        5.1210     4.6700     2.1590 O.2   1 <1>  -0.5700 
 21 N        7.3160     4.9510     2.4410 N.2   1 <1>  -0.6610 
 22 C        8.5300     5.8510     0.6020 C.2   1 <1>  -0.1360 
 23 C        8.4210     5.3310     1.9100 C.2   1 <1>   0.3760 
 24 H        2.3020    -0.4030    -0.7190 H     1 <1>   0.0800 
 25 H        1.6150     0.8820    -1.6550 H     1 <1>   0.0800 
 26 H       -2.3600    -1.5610    -1.8990 H     1 <1>   0.0800 
 27 H       -2.2990     0.1280    -1.4700 H     1 <1>   0.0800 
 28 H       -2.4180    -1.0830    -0.2100 H     1 <1>   0.0800 
 29 H       -0.4570    -2.9500    -1.6500 H     1 <1>   0.0800 
 30 H       -0.4880    -2.6640     0.0800 H     1 <1>   0.0800 
 31 H        0.9740    -2.3700    -0.8350 H     1 <1>   0.0800 
 32 H        1.9230     2.3970     0.3730 H     1 <1>   0.0800 
 33 H        3.6790     1.9390    -1.6720 H     1 <1>   0.0800 
 34 H        2.5130     0.2310     1.9100 H     1 <1>   0.0800 
 35 H        3.4450     1.7070     2.1120 H     1 <1>   0.0800 
 36 H        4.3250     3.4520     0.8440 H     1 <1>   0.3700 
 37 H        5.7760     1.3940     0.1310 H     1 <1>   0.0800 
 38 H        5.0040     0.1850    -0.8920 H     1 <1>   0.0800 
 39 H        4.1590     6.0390     0.2400 H     1 <1>   0.0800 
 40 H        5.0840     6.3930    -1.1860 H     1 <1>   0.0800 
 41 H        7.4180     6.3550    -1.1570 H     1 <1>   0.1500 
 42 H        9.5000     6.1350     0.2400 H     1 <1>   0.1500 
 43 H        9.3270     5.2520     2.4860 H     1 <1>   0.0600 
@<TRIPOS>BOND
  1   1   2  2   
  2   1   3  2   
  3   1   4  am  
  4   1   5  1   
  5   4   6  1   
  6   4   7  1   
  7   5   8  1   
  8   5  24  1   
  9   5  25  1   
 10   6  26  1   
 11   6  27  1   
 12   6  28  1   
 13   7  29  1   
 14   7  30  1   
 15   7  31  1   
 16   8   9  1   
 17   8  10  1   
 18   8  32  1   
 19   9  11  1   
 20   9  12  1   
 21   9  33  1   
 22  10  13  1   
 23  10  34  1   
 24  10  35  1   
 25  11  14  am  
 26  11  36  1   
 27  12  13  1   
 28  12  37  1   
 29  12  38  1   
 30  14  15  2   
 31  14  16  1   
 32  16  17  1   
 33  16  39  1   
 34  16  40  1   
 35  17  18  am  
 36  17  19  1   
 37  18  20  2   
 38  18  21  1   
 39  19  22  2   
 40  19  41  1   
 41  21  23  2   
 42  22  23  1   
 43  22  42  1   
 44  23  43  1   
@<TRIPOS>SUBSTRUCTURE
  1 ****   9 GROUP 4 **** **** 0

# MOE 2024.06 (io_trps.svl 2023.06)
