@<TRIPOS>MOLECULE
NONAME
49 51 1 0 0 
SMALL
USER_CHARGES


@<TRIPOS>ATOM
  1 O       -0.1310    -0.5590    -0.3090 O.2   1 <1>  -0.5700 
  2 C        0.6890    -1.4350    -0.4340 C.2   1 <1>   0.5690 
  3 N        2.0190    -1.2030    -0.2850 N.am  1 <1>  -0.7300 
  4 C        0.2210    -2.8400    -0.7870 C.3   1 <1>  -0.0190 
  5 C        2.6150     0.0990     0.0720 C.3   1 <1>   0.1400 
  6 C       -1.2630    -3.0480    -0.4980 C.3   1 <1>   0.2090 
  7 C        0.8950    -3.9680    -0.0030 C.3   1 <1>  -0.1600 
  8 C        3.6150    -0.1180     1.2000 C.3   1 <1>  -0.2400 
  9 N       -1.4310    -4.5100    -0.2230 N.pl3 1 <1>  -0.8380 
 10 C       -0.0820    -5.1330    -0.0910 C.3   1 <1>   0.2090 
 11 C       -2.6330    -5.1050    -0.0790 C.ar  1 <1>   0.4610 
 12 N       -2.7020    -6.4200     0.1340 N.ar  1 <1>  -0.1790 
 13 C       -3.8670    -4.4060    -0.1430 C.ar  1 <1>  -0.1500 
 14 C       -3.8760    -7.1310     0.2920 C.ar  1 <1>   0.3610 
 15 C       -5.0660    -5.0340     0.0030 C.ar  1 <1>  -0.1440 
 16 C       -5.1020    -6.4450     0.2290 C.ar  1 <1>   0.0000 
 17 C       -3.8560    -8.5120     0.5120 C.ar  1 <1>  -0.1500 
 18 C       -6.3630    -4.2360    -0.0730 C.3   1 <1>  -0.0970 
 19 C       -6.2800    -7.1920     0.3930 C.ar  1 <1>  -0.1500 
 20 C       -5.0260    -9.2130     0.6680 C.ar  1 <1>  -0.1500 
 21 C       -6.2500    -8.5500     0.6090 C.ar  1 <1>  -0.1440 
 22 C       -7.5390    -9.3400     0.7840 C.3   1 <1>  -0.0170 
 23 C       -7.9420   -10.0140    -0.5300 C.3   1 <1>  -0.2400 
 24 H        2.6920    -1.9550    -0.4340 H     1 <1>   0.3700 
 25 H        0.3800    -2.9890    -1.8400 H     1 <1>   0.0800 
 26 H        1.8450     0.7850     0.3900 H     1 <1>   0.0800 
 27 H        3.1080     0.5160    -0.7900 H     1 <1>   0.0800 
 28 H       -1.8580    -2.7280    -1.3370 H     1 <1>   0.0800 
 29 H       -1.5540    -2.4920     0.3790 H     1 <1>   0.0800 
 30 H        1.0080    -3.6810     1.0290 H     1 <1>   0.0800 
 31 H        1.8600    -4.2260    -0.4030 H     1 <1>   0.0800 
 32 H        3.1210    -0.5320     2.0610 H     1 <1>   0.0800 
 33 H        4.0490     0.8250     1.4810 H     1 <1>   0.0800 
 34 H        4.4060    -0.7750     0.8850 H     1 <1>   0.0800 
 35 H       -0.0130    -5.7500     0.7900 H     1 <1>   0.0800 
 36 H        0.1300    -5.7180    -0.9710 H     1 <1>   0.0800 
 37 H       -1.8250    -6.9230     0.1710 H     1 <1>   0.4570 
 38 H       -3.8340    -3.3450    -0.3080 H     1 <1>   0.1500 
 39 H       -2.9210    -9.0410     0.5600 H     1 <1>   0.1500 
 40 H       -6.1690    -3.1930    -0.2460 H     1 <1>   0.0800 
 41 H       -6.9100    -4.3250     0.8490 H     1 <1>   0.0800 
 42 H       -6.9770    -4.5990    -0.8790 H     1 <1>   0.0800 
 43 H       -7.2330    -6.6950     0.3460 H     1 <1>   0.1500 
 44 H       -5.0100   -10.2780     0.8360 H     1 <1>   0.1500 
 45 H       -8.3310    -8.6870     1.1060 H     1 <1>   0.0800 
 46 H       -7.4070   -10.0870     1.5480 H     1 <1>   0.0800 
 47 H       -8.0920    -9.2740    -1.2960 H     1 <1>   0.0800 
 48 H       -8.8570   -10.5640    -0.3980 H     1 <1>   0.0800 
 49 H       -7.1750   -10.6950    -0.8530 H     1 <1>   0.0800 
@<TRIPOS>BOND
  1   1   2  2   
  2   2   3  am  
  3   2   4  1   
  4   3   5  1   
  5   3  24  1   
  6   4   6  1   
  7   4   7  1   
  8   4  25  1   
  9   5   8  1   
 10   5  26  1   
 11   5  27  1   
 12   6   9  1   
 13   6  28  1   
 14   6  29  1   
 15   7  10  1   
 16   7  30  1   
 17   7  31  1   
 18   8  32  1   
 19   8  33  1   
 20   8  34  1   
 21   9  10  1   
 22   9  11  1   
 23  10  35  1   
 24  10  36  1   
 25  11  12  ar  
 26  11  13  ar  
 27  12  14  ar  
 28  12  37  1   
 29  13  15  ar  
 30  13  38  1   
 31  14  16  ar  
 32  14  17  ar  
 33  15  16  ar  
 34  15  18  1   
 35  16  19  ar  
 36  17  20  ar  
 37  17  39  1   
 38  18  40  1   
 39  18  41  1   
 40  18  42  1   
 41  19  21  ar  
 42  19  43  1   
 43  20  21  ar  
 44  20  44  1   
 45  21  22  1   
 46  22  23  1   
 47  22  45  1   
 48  22  46  1   
 49  23  47  1   
 50  23  48  1   
 51  23  49  1   
@<TRIPOS>SUBSTRUCTURE
  1 ****  11 GROUP 4 **** **** 0

# MOE 2024.06 (io_trps.svl 2023.06)
