@<TRIPOS>MOLECULE
NONAME
26 27 1 0 0 
SMALL
USER_CHARGES


@<TRIPOS>ATOM
  1 BR      -0.1180     0.5690    -1.7820 Br    1 <1>  -0.1110 
  2 C        1.4560     1.1350    -0.8250 C.ar  1 <1>   0.1110 
  3 C        1.4150     2.2770    -0.0390 C.ar  1 <1>  -0.1440 
  4 C        2.5920     0.3610    -0.9630 C.ar  1 <1>  -0.1500 
  5 C        2.5740     2.6460     0.6260 C.ar  1 <1>  -0.1500 
  6 C        0.1500     3.1120     0.0950 C.3   1 <1>  -0.0960 
  7 C        3.7410     0.7380    -0.2770 C.ar  1 <1>   0.0820 
  8 C        3.7250     1.8830     0.5060 C.ar  1 <1>  -0.1500 
  9 O        4.9010     0.0370    -0.3200 O.3   1 <1>  -0.3400 
 10 C        4.9080    -1.3170    -0.7200 C.3   1 <1>   0.2580 
 11 C        4.2970    -2.2440     0.3600 C.3   1 <1>   0.4720 
 12 C        6.2640    -1.9810    -0.3870 C.3   1 <1>   0.4720 
 13 N        5.5210    -3.1120     0.2700 N.4   1 <1>  -0.8440 
 14 H        2.5460    -0.4960    -1.6060 H     1 <1>   0.1500 
 15 H        2.5880     3.5300     1.2420 H     1 <1>   0.1500 
 16 H       -0.6450     2.5140     0.5030 H     1 <1>   0.0800 
 17 H       -0.1510     3.4800    -0.8700 H     1 <1>   0.0800 
 18 H        0.3100     3.9530     0.7440 H     1 <1>   0.0800 
 19 H        4.6180     2.1830     1.0250 H     1 <1>   0.1500 
 20 H        4.5690    -1.4610    -1.7310 H     1 <1>   0.0000 
 21 H        3.4160    -2.7710     0.0440 H     1 <1>   0.0000 
 22 H        4.2250    -1.7800     1.3270 H     1 <1>   0.0000 
 23 H        6.8410    -1.4310     0.3340 H     1 <1>   0.0000 
 24 H        6.8150    -2.3190    -1.2460 H     1 <1>   0.0000 
 25 H        5.3950    -3.9210    -0.3480 H     1 <1>   0.4500 
 26 H        5.9030    -3.3640     1.1890 H     1 <1>   0.4500 
@<TRIPOS>BOND
  1   1   2  1   
  2   2   3  ar  
  3   2   4  ar  
  4   3   5  ar  
  5   3   6  1   
  6   4   7  ar  
  7   4  14  1   
  8   5   8  ar  
  9   5  15  1   
 10   6  16  1   
 11   6  17  1   
 12   6  18  1   
 13   7   8  ar  
 14   7   9  1   
 15   8  19  1   
 16   9  10  1   
 17  10  11  1   
 18  10  12  1   
 19  10  20  1   
 20  11  13  1   
 21  11  21  1   
 22  11  22  1   
 23  12  13  1   
 24  12  23  1   
 25  12  24  1   
 26  13  25  1   
 27  13  26  1   
@<TRIPOS>SUBSTRUCTURE
  1 ****   7 GROUP 4 **** **** 0

# MOE 2024.06 (io_trps.svl 2023.06)
