@<TRIPOS>MOLECULE
NONAME
49 52 1 0 0 
SMALL
USER_CHARGES


@<TRIPOS>ATOM
  1 O       -0.2370     0.1810     0.2900 O.2   1 <1>  -0.5700 
  2 C       -1.3020     0.7450     0.2120 C.2   1 <1>   0.5690 
  3 N       -2.4610     0.0620    -0.0180 N.am  1 <1>  -0.6600 
  4 C       -1.3280     2.2540     0.3550 C.3   1 <1>  -0.0990 
  5 C       -3.8190     0.6410    -0.1790 C.3   1 <1>   0.1400 
  6 C       -2.5010    -1.4130    -0.1720 C.3   1 <1>   0.1400 
  7 C       -0.0740     2.7800     1.0670 C.3   1 <1>   0.0960 
  8 C       -4.7210    -0.5470    -0.5200 C.3   1 <1>   0.2000 
  9 C       -3.9780    -1.7870    -0.0270 C.3   1 <1>  -0.0800 
 10 N       -0.1090     4.2520     1.1480 N.pl3 1 <1>   0.3140 
 11 O       -5.9510    -0.4480     0.1110 O.3   1 <1>  -0.6800 
 12 C       -4.3760    -3.0610    -0.7900 C.3   1 <1>  -0.0160 
 13 N       -0.9160     4.8970     1.9610 N.2   1 <1>  -0.4180 
 14 C        0.5730     5.1550     0.4620 C.2   1 <1>   0.0060 
 15 C       -3.6140    -4.2720    -0.2800 C.ar  1 <1>   0.1670 
 16 N       -0.7090     6.1480     1.7590 N.2   1 <1>   0.0000 
 17 N        0.2180     6.3270     0.8240 N.2   1 <1>  -0.3380 
 18 C        1.6180     4.8620    -0.5990 C.3   1 <1>  -0.0600 
 19 N       -2.4550    -4.5150    -0.8110 N.ar  1 <1>  -0.6200 
 20 C       -4.1840    -5.0570     0.7350 C.ar  1 <1>  -0.1500 
 21 C       -1.7610    -5.5880    -0.3520 C.ar  1 <1>   0.3100 
 22 C       -3.5110    -6.1400     1.2130 C.ar  1 <1>  -0.1500 
 23 C       -2.2510    -6.4340     0.6660 C.ar  1 <1>   0.0000 
 24 C       -0.5010    -5.8690    -0.9050 C.ar  1 <1>  -0.1500 
 25 C       -1.4660    -7.5260     1.0880 C.ar  1 <1>  -0.1500 
 26 C        0.2480    -6.9350    -0.4810 C.ar  1 <1>  -0.1500 
 27 C       -0.2420    -7.7720     0.5270 C.ar  1 <1>  -0.1500 
 28 H       -1.3950     2.6820    -0.6280 H     1 <1>   0.0800 
 29 H       -2.1930     2.5410     0.9240 H     1 <1>   0.0800 
 30 H       -4.1250     1.0990     0.7460 H     1 <1>   0.0800 
 31 H       -3.8280     1.3640    -0.9760 H     1 <1>   0.0800 
 32 H       -2.1320    -1.6750    -1.1490 H     1 <1>   0.0800 
 33 H       -1.8930    -1.8990     0.5740 H     1 <1>   0.0800 
 34 H        0.8120     2.4780     0.5390 H     1 <1>   0.0800 
 35 H       -0.0250     2.3840     2.0660 H     1 <1>   0.0800 
 36 H       -4.8860    -0.5850    -1.5830 H     1 <1>   0.0800 
 37 H       -4.1660    -1.9270     1.0230 H     1 <1>   0.0800 
 38 H       -5.8400    -0.4620     1.0810 H     1 <1>   0.4000 
 39 H       -4.1730    -2.9390    -1.8400 H     1 <1>   0.0800 
 40 H       -5.4330    -3.2290    -0.6830 H     1 <1>   0.0800 
 41 H        1.9840     5.7850    -1.0140 H     1 <1>   0.0800 
 42 H        1.1910     4.2760    -1.3920 H     1 <1>   0.0800 
 43 H        2.4460     4.3300    -0.1670 H     1 <1>   0.0800 
 44 H       -5.1500    -4.7920     1.1250 H     1 <1>   0.1500 
 45 H       -3.9150    -6.7650     1.9890 H     1 <1>   0.1500 
 46 H       -0.1430    -5.2130    -1.6770 H     1 <1>   0.1500 
 47 H       -1.8470    -8.1650     1.8640 H     1 <1>   0.1500 
 48 H        1.2120    -7.1380    -0.9140 H     1 <1>   0.1500 
 49 H        0.3570    -8.6060     0.8510 H     1 <1>   0.1500 
@<TRIPOS>BOND
  1   1   2  2   
  2   2   3  am  
  3   2   4  1   
  4   3   5  1   
  5   3   6  1   
  6   4   7  1   
  7   4  28  1   
  8   4  29  1   
  9   5   8  1   
 10   5  30  1   
 11   5  31  1   
 12   6   9  1   
 13   6  32  1   
 14   6  33  1   
 15   7  10  1   
 16   7  34  1   
 17   7  35  1   
 18   8   9  1   
 19   8  11  1   
 20   8  36  1   
 21   9  12  1   
 22   9  37  1   
 23  10  13  1   
 24  10  14  1   
 25  11  38  1   
 26  12  15  1   
 27  12  39  1   
 28  12  40  1   
 29  13  16  2   
 30  14  17  2   
 31  14  18  1   
 32  15  19  ar  
 33  15  20  ar  
 34  16  17  1   
 35  18  41  1   
 36  18  42  1   
 37  18  43  1   
 38  19  21  ar  
 39  20  22  ar  
 40  20  44  1   
 41  21  23  ar  
 42  21  24  ar  
 43  22  23  ar  
 44  22  45  1   
 45  23  25  ar  
 46  24  26  ar  
 47  24  46  1   
 48  25  27  ar  
 49  25  47  1   
 50  26  27  ar  
 51  26  48  1   
 52  27  49  1   
@<TRIPOS>SUBSTRUCTURE
  1 ****   6 GROUP 4 **** **** 0

# MOE 2024.06 (io_trps.svl 2023.06)
