@<TRIPOS>MOLECULE
NONAME
52 55 1 0 0 
SMALL
USER_CHARGES


@<TRIPOS>ATOM
  1 O       -2.6350     1.4560    -1.7620 O.2   1 <1>  -0.5700 
  2 C       -2.2350     1.3190    -0.6340 C.2   1 <1>   0.5690 
  3 N       -1.8740     0.1110    -0.1430 N.am  1 <1>  -0.7300 
  4 C       -2.1370     2.5330     0.2670 C.3   1 <1>  -0.0990 
  5 C       -1.8610    -1.1480    -0.9250 C.3   1 <1>   0.2200 
  6 C       -0.7470     3.1870     0.1900 C.3   1 <1>  -0.1600 
  7 C       -3.0380    -2.0430    -0.5590 C.3   1 <1>  -0.0800 
  8 C       -0.7000    -2.0090    -0.4460 C.3   1 <1>   0.1200 
  9 C       -0.6610     4.4490     1.0620 C.3   1 <1>   0.0200 
 10 C       -2.5320    -2.7990     0.6760 C.3   1 <1>   0.1200 
 11 C       -4.3890    -1.3320    -0.3600 C.3   1 <1>  -0.0170 
 12 O       -1.1500    -2.5900     0.7390 O.3   1 <1>  -0.5600 
 13 C        0.7050     5.1030     0.9660 C.2   1 <1>   0.2980 
 14 C       -5.4990    -2.3390    -0.1020 C.ar  1 <1>  -0.1440 
 15 O        1.7390     4.4790     1.4670 O.3   1 <1>  -0.0190 
 16 N        0.9510     6.2280     0.4360 N.2   1 <1>  -0.5650 
 17 C       -5.9450    -2.6320     1.1710 C.ar  1 <1>  -0.1500 
 18 C       -6.1170    -3.0160    -1.1340 C.ar  1 <1>  -0.1500 
 19 N        2.7320     5.2770     1.2330 N.2   1 <1>  -0.4100 
 20 C        2.2710     6.3110     0.6230 C.2   1 <1>   0.4620 
 21 C       -6.9550    -3.5640     1.3450 C.ar  1 <1>   0.1600 
 22 C       -7.1190    -3.9300    -0.8520 C.ar  1 <1>   0.1600 
 23 C        3.0530     7.4480     0.1760 C.ar  1 <1>   0.0540 
 24 N       -7.5510    -4.2230     0.3640 N.ar  1 <1>  -0.6200 
 25 C        4.4220     7.5460     0.3940 C.ar  1 <1>  -0.1500 
 26 C        2.5000     8.5260    -0.5030 C.ar  1 <1>  -0.1500 
 27 C        5.1270     8.6480    -0.0500 C.ar  1 <1>   0.1600 
 28 C        3.2920     9.5840    -0.9060 C.ar  1 <1>   0.1600 
 29 N        4.5950     9.6720    -0.6960 N.ar  1 <1>  -0.6200 
 30 H       -1.5550     0.0000     0.8220 H     1 <1>   0.3700 
 31 H       -2.8870     3.2390    -0.0430 H     1 <1>   0.0800 
 32 H       -2.3560     2.2400     1.2780 H     1 <1>   0.0800 
 33 H       -1.8080    -0.9400    -1.9810 H     1 <1>   0.0800 
 34 H        0.0000     2.4780     0.5050 H     1 <1>   0.0800 
 35 H       -0.5400     3.4510    -0.8340 H     1 <1>   0.0800 
 36 H       -3.1550    -2.7650    -1.3490 H     1 <1>   0.0800 
 37 H        0.1940    -1.4410    -0.2590 H     1 <1>   0.0800 
 38 H       -0.4940    -2.8000    -1.1460 H     1 <1>   0.0800 
 39 H       -0.8540     4.2040     2.0910 H     1 <1>   0.0800 
 40 H       -1.4040     5.1590     0.7420 H     1 <1>   0.0800 
 41 H       -2.7240    -3.8560     0.6010 H     1 <1>   0.0800 
 42 H       -2.9610    -2.4150     1.5840 H     1 <1>   0.0800 
 43 H       -4.6250    -0.7610    -1.2420 H     1 <1>   0.0800 
 44 H       -4.3350    -0.6430     0.4640 H     1 <1>   0.0800 
 45 H       -5.5210    -2.1450     2.0290 H     1 <1>   0.1500 
 46 H       -5.8300    -2.8400    -2.1550 H     1 <1>   0.1500 
 47 H       -7.2900    -3.7800     2.3450 H     1 <1>   0.1500 
 48 H       -7.5890    -4.4480    -1.6700 H     1 <1>   0.1500 
 49 H        4.9390     6.7590     0.9120 H     1 <1>   0.1500 
 50 H        1.4470     8.5400    -0.7180 H     1 <1>   0.1500 
 51 H        6.1870     8.6920     0.1360 H     1 <1>   0.1500 
 52 H        2.8310    10.4040    -1.4300 H     1 <1>   0.1500 
@<TRIPOS>BOND
  1   1   2  2   
  2   2   3  am  
  3   2   4  1   
  4   3   5  1   
  5   3  30  1   
  6   4   6  1   
  7   4  31  1   
  8   4  32  1   
  9   5   7  1   
 10   5   8  1   
 11   5  33  1   
 12   6   9  1   
 13   6  34  1   
 14   6  35  1   
 15   7  10  1   
 16   7  11  1   
 17   7  36  1   
 18   8  12  1   
 19   8  37  1   
 20   8  38  1   
 21   9  13  1   
 22   9  39  1   
 23   9  40  1   
 24  10  12  1   
 25  10  41  1   
 26  10  42  1   
 27  11  14  1   
 28  11  43  1   
 29  11  44  1   
 30  13  15  1   
 31  13  16  2   
 32  14  17  ar  
 33  14  18  ar  
 34  15  19  1   
 35  16  20  1   
 36  17  21  ar  
 37  17  45  1   
 38  18  22  ar  
 39  18  46  1   
 40  19  20  2   
 41  20  23  1   
 42  21  24  ar  
 43  21  47  1   
 44  22  24  ar  
 45  22  48  1   
 46  23  25  ar  
 47  23  26  ar  
 48  25  27  ar  
 49  25  49  1   
 50  26  28  ar  
 51  26  50  1   
 52  27  29  ar  
 53  27  51  1   
 54  28  29  ar  
 55  28  52  1   
@<TRIPOS>SUBSTRUCTURE
  1 ****   4 GROUP 4 **** **** 0

# MOE 2024.06 (io_trps.svl 2023.06)
