@<TRIPOS>MOLECULE
NONAME
47 49 1 0 0 
SMALL
USER_CHARGES


@<TRIPOS>ATOM
  1 O        0.4740    -0.4250    -1.1050 O.2   1 <1>  -0.5700 
  2 C        1.5250    -0.6210    -0.5450 C.2   1 <1>   0.5690 
  3 N        2.4470     0.3620    -0.3110 N.am  1 <1>  -0.4940 
  4 C        1.8640    -2.0340    -0.0770 C.3   1 <1>  -0.0190 
  5 C        2.4720     1.7400    -0.6250 C.2   1 <1>  -0.0880 
  6 C        1.8520    -3.0270    -1.2560 C.3   1 <1>  -0.0220 
  7 C        0.9140    -2.5070     1.0410 C.3   1 <1>  -0.1600 
  8 N        1.4310     2.6080    -0.7530 N.pl3 1 <1>   0.3140 
  9 C        3.6100     2.4620    -0.8230 C.2   1 <1>  -0.0540 
 10 C        1.9680    -4.4620    -0.7650 C.2   1 <1>  -0.2880 
 11 C        1.3450    -3.8700     1.6080 C.3   1 <1>  -0.0220 
 12 N        1.8640     3.8590    -1.0260 N.2   1 <1>  -0.7070 
 13 C       -0.0050     2.3730    -0.5590 C.3   1 <1>   0.0160 
 14 C        4.9730     1.9850    -0.8070 C.ar  1 <1>   0.0540 
 15 C        3.1520     3.7610    -1.0630 C.2   1 <1>   0.1080 
 16 C        1.7530    -4.8290     0.5010 C.2   1 <1>  -0.2880 
 17 C        5.9090     2.4010     0.1480 C.ar  1 <1>   0.0820 
 18 C        5.3760     1.0660    -1.7710 C.ar  1 <1>  -0.1500 
 19 C        4.0380     4.9540    -1.3430 C.3   1 <1>  -0.0590 
 20 O        5.4940     3.2920     1.0890 O.3   1 <1>  -0.3620 
 21 C        7.2080     1.8990     0.1180 C.ar  1 <1>  -0.1500 
 22 C        6.6650     0.5680    -1.7980 C.ar  1 <1>  -0.1500 
 23 C        6.3620     3.8010     2.0770 C.3   1 <1>   0.0400 
 24 C        7.5830     0.9850    -0.8510 C.ar  1 <1>  -0.1500 
 25 H        3.3300     0.0330     0.0850 H     1 <1>   0.3700 
 26 H        2.8600    -2.0280     0.3270 H     1 <1>   0.0800 
 27 H        2.6720    -2.8020    -1.9150 H     1 <1>   0.0800 
 28 H        0.9380    -2.9290    -1.8170 H     1 <1>   0.0800 
 29 H       -0.0800    -2.5950     0.6360 H     1 <1>   0.0800 
 30 H        0.8840    -1.7820     1.8350 H     1 <1>   0.0800 
 31 H        2.2350    -5.1590    -1.5410 H     1 <1>   0.1500 
 32 H        0.5290    -4.2920     2.1680 H     1 <1>   0.0800 
 33 H        2.1780    -3.7410     2.2780 H     1 <1>   0.0800 
 34 H       -0.1480     1.6960     0.2610 H     1 <1>   0.0800 
 35 H       -0.4140     1.9530    -1.4580 H     1 <1>   0.0800 
 36 H       -0.4900     3.3070    -0.3440 H     1 <1>   0.0800 
 37 H        1.8530    -5.8480     0.8380 H     1 <1>   0.1500 
 38 H        4.6630     0.7460    -2.5110 H     1 <1>   0.1500 
 39 H        4.9290     4.6460    -1.8560 H     1 <1>   0.0800 
 40 H        4.3080     5.4230    -0.4150 H     1 <1>   0.0800 
 41 H        3.5100     5.6630    -1.9540 H     1 <1>   0.0800 
 42 H        7.9420     2.2040     0.8380 H     1 <1>   0.1500 
 43 H        6.9550    -0.1410    -2.5550 H     1 <1>   0.1500 
 44 H        5.8060     4.4920     2.6840 H     1 <1>   0.0800 
 45 H        7.1780     4.3120     1.5960 H     1 <1>   0.0800 
 46 H        6.7180     2.9870     2.6830 H     1 <1>   0.0800 
 47 H        8.5880     0.6000    -0.8710 H     1 <1>   0.1500 
@<TRIPOS>BOND
  1   1   2  2   
  2   2   3  am  
  3   2   4  1   
  4   3   5  1   
  5   3  25  1   
  6   4   6  1   
  7   4   7  1   
  8   4  26  1   
  9   5   8  1   
 10   5   9  2   
 11   6  10  1   
 12   6  27  1   
 13   6  28  1   
 14   7  11  1   
 15   7  29  1   
 16   7  30  1   
 17   8  12  1   
 18   8  13  1   
 19   9  14  1   
 20   9  15  1   
 21  10  16  2   
 22  10  31  1   
 23  11  16  1   
 24  11  32  1   
 25  11  33  1   
 26  12  15  2   
 27  13  34  1   
 28  13  35  1   
 29  13  36  1   
 30  14  17  ar  
 31  14  18  ar  
 32  15  19  1   
 33  16  37  1   
 34  17  20  1   
 35  17  21  ar  
 36  18  22  ar  
 37  18  38  1   
 38  19  39  1   
 39  19  40  1   
 40  19  41  1   
 41  20  23  1   
 42  21  24  ar  
 43  21  42  1   
 44  22  24  ar  
 45  22  43  1   
 46  23  44  1   
 47  23  45  1   
 48  23  46  1   
 49  24  47  1   
@<TRIPOS>SUBSTRUCTURE
  1 ****   3 GROUP 4 **** **** 0

# MOE 2024.06 (io_trps.svl 2023.06)
