@<TRIPOS>MOLECULE
NONAME
54 56 1 0 0 
SMALL
USER_CHARGES


@<TRIPOS>ATOM
  1 O       -0.4180     0.1560    -0.1340 O.2   1 <1>  -0.5700 
  2 C       -1.4700     0.7510     0.0110 C.2   1 <1>   0.5440 
  3 N       -2.5640     0.0630     0.4960 N.am  1 <1>  -0.6600 
  4 C       -1.5250     2.1640    -0.3010 C.ar  1 <1>   0.0860 
  5 C       -2.5430    -1.4260     0.5800 C.3   1 <1>   0.3200 
  6 C       -3.6430     0.7450     1.2800 C.3   1 <1>   0.1400 
  7 C       -0.5840     3.0500     0.2240 C.ar  1 <1>  -0.1500 
  8 C       -2.5070     2.7000    -1.1360 C.ar  1 <1>  -0.1500 
  9 C       -3.5370    -2.0180    -0.4000 C.2   1 <1>  -0.3320 
 10 C       -5.0010     0.7190     0.5660 C.3   1 <1>   0.1200 
 11 C       -0.6350     4.4030    -0.0480 C.ar  1 <1>  -0.1500 
 12 C       -2.5600     4.0520    -1.4090 C.ar  1 <1>  -0.1500 
 13 N       -4.1620    -3.1970    -0.2170 N.pl3 1 <1>   0.0330 
 14 C       -3.9740    -1.5440    -1.5870 C.2   1 <1>   0.0770 
 15 O       -5.9150     1.4600     1.3030 O.3   1 <1>  -0.6800 
 16 C       -1.6290     4.9300    -0.8670 C.ar  1 <1>   0.1000 
 17 C       -4.9550    -3.3520    -1.2990 C.2   1 <1>   0.0060 
 18 N       -4.8730    -2.3780    -2.1430 N.2   1 <1>  -0.5650 
 19 N       -1.7030     6.2880    -1.1440 N.pl3 1 <1>  -0.8380 
 20 C       -5.8470    -4.5580    -1.4980 C.3   1 <1>  -0.0600 
 21 C       -2.9440     7.0540    -0.8240 C.3   1 <1>   0.2090 
 22 C       -0.4930     7.0830    -1.5110 C.3   1 <1>   0.2090 
 23 C       -2.6460     8.2030     0.1640 C.3   1 <1>   0.3430 
 24 C       -0.2550     8.2300    -0.5060 C.3   1 <1>   0.3430 
 25 N       -1.4890     9.0720    -0.2760 N.4   1 <1>  -0.9590 
 26 C       -1.2260    10.1630     0.7100 C.3   1 <1>   0.2630 
 27 H       -2.7920    -1.7220     1.5840 H     1 <1>   0.0800 
 28 H       -1.5640    -1.8160     0.3610 H     1 <1>   0.0800 
 29 H       -3.3690     1.7700     1.4570 H     1 <1>   0.0800 
 30 H       -3.7370     0.2630     2.2370 H     1 <1>   0.0800 
 31 H        0.1950     2.6550     0.8540 H     1 <1>   0.1500 
 32 H       -3.2280     2.0390    -1.5820 H     1 <1>   0.1500 
 33 H       -5.3820    -0.2830     0.4690 H     1 <1>   0.0800 
 34 H       -4.9270     1.1700    -0.4060 H     1 <1>   0.0800 
 35 H        0.1020     5.0520     0.3840 H     1 <1>   0.1500 
 36 H       -3.3240     4.4350    -2.0600 H     1 <1>   0.1500 
 37 H       -4.0650    -3.8520     0.5630 H     1 <1>   0.2700 
 38 H       -3.6820    -0.6300    -2.0770 H     1 <1>   0.1500 
 39 H       -6.2340     0.9540     2.0760 H     1 <1>   0.4000 
 40 H       -6.5600    -4.6280    -0.6970 H     1 <1>   0.0800 
 41 H       -5.2560    -5.4540    -1.5330 H     1 <1>   0.0800 
 42 H       -6.3820    -4.4630    -2.4270 H     1 <1>   0.0800 
 43 H       -3.6750     6.3950    -0.3870 H     1 <1>   0.0800 
 44 H       -3.3610     7.4510    -1.7340 H     1 <1>   0.0800 
 45 H       -0.6280     7.4880    -2.4990 H     1 <1>   0.0800 
 46 H        0.3720     6.4420    -1.5430 H     1 <1>   0.0800 
 47 H       -2.4200     7.7650     1.1220 H     1 <1>   0.0800 
 48 H       -3.5330     8.8030     0.2780 H     1 <1>   0.0800 
 49 H        0.5500     8.8490    -0.8660 H     1 <1>   0.0800 
 50 H        0.0580     7.7930     0.4280 H     1 <1>   0.0800 
 51 H       -1.7470     9.4920    -1.1810 H     1 <1>   0.4500 
 52 H       -0.9540     9.7460     1.6670 H     1 <1>   0.0800 
 53 H       -2.1050    10.7730     0.8370 H     1 <1>   0.0800 
 54 H       -0.4200    10.7920     0.3670 H     1 <1>   0.0800 
@<TRIPOS>BOND
  1   1   2  2   
  2   2   3  am  
  3   2   4  1   
  4   3   5  1   
  5   3   6  1   
  6   4   7  ar  
  7   4   8  ar  
  8   5   9  1   
  9   5  27  1   
 10   5  28  1   
 11   6  10  1   
 12   6  29  1   
 13   6  30  1   
 14   7  11  ar  
 15   7  31  1   
 16   8  12  ar  
 17   8  32  1   
 18   9  13  1   
 19   9  14  2   
 20  10  15  1   
 21  10  33  1   
 22  10  34  1   
 23  11  16  ar  
 24  11  35  1   
 25  12  16  ar  
 26  12  36  1   
 27  13  17  1   
 28  13  37  1   
 29  14  18  1   
 30  14  38  1   
 31  15  39  1   
 32  16  19  1   
 33  17  18  2   
 34  17  20  1   
 35  19  21  1   
 36  19  22  1   
 37  20  40  1   
 38  20  41  1   
 39  20  42  1   
 40  21  23  1   
 41  21  43  1   
 42  21  44  1   
 43  22  24  1   
 44  22  45  1   
 45  22  46  1   
 46  23  25  1   
 47  23  47  1   
 48  23  48  1   
 49  24  25  1   
 50  24  49  1   
 51  24  50  1   
 52  25  26  1   
 53  25  51  1   
 54  26  52  1   
 55  26  53  1   
 56  26  54  1   
@<TRIPOS>SUBSTRUCTURE
  1 ****   8 GROUP 4 **** **** 0

# MOE 2024.06 (io_trps.svl 2023.06)
