@<TRIPOS>MOLECULE
NONAME
44 46 1 0 0 
SMALL
USER_CHARGES


@<TRIPOS>ATOM
  1 S       -0.0370     0.1700    -1.8810 S.3   1 <1>  -0.0800 
  2 C        1.1050    -0.7910    -0.9550 C.2   1 <1>  -0.1400 
  3 C        0.6760     1.6590    -1.2920 C.2   1 <1>  -0.1100 
  4 C        1.9460     0.0110    -0.2750 C.2   1 <1>  -0.1500 
  5 C        1.0010    -2.2970    -1.0530 C.3   1 <1>   0.5230 
  6 C        1.7060     1.4130    -0.4570 C.2   1 <1>   0.0190 
  7 N       -0.0200    -2.7670    -0.0780 N.4   1 <1>  -0.9590 
  8 C        2.5090     2.3940     0.2040 C.1   1 <1>  -0.0190 
  9 C       -1.4270    -2.4350    -0.4750 C.3   1 <1>   0.3430 
 10 C        0.0350    -4.2420     0.1620 C.3   1 <1>   0.3430 
 11 C        3.1810     3.2100     0.7530 C.1   1 <1>  -0.2000 
 12 C       -2.2900    -3.5460     0.1240 C.3   1 <1>   0.2000 
 13 C       -1.3950    -4.7790     0.0110 C.3   1 <1>  -0.0800 
 14 C        4.0220     4.2320     1.4300 C.3   1 <1>   0.3200 
 15 O       -2.5590    -3.2600     1.4580 O.3   1 <1>  -0.6800 
 16 C       -1.7340    -5.9470     0.9610 C.3   1 <1>   0.0200 
 17 O        5.0170     4.5920     0.5490 O.3   1 <1>  -0.6800 
 18 C       -0.7890    -7.1110     0.7340 C.2   1 <1>  -0.0400 
 19 O        0.4820    -6.9790     1.0050 O.3   1 <1>  -0.0190 
 20 C       -0.9830    -8.3550     0.2710 C.2   1 <1>  -0.1500 
 21 N        1.1520    -8.0550     0.7290 N.2   1 <1>  -0.4100 
 22 C        0.2950    -8.9080     0.2940 C.2   1 <1>   0.1080 
 23 C        0.6390   -10.3180    -0.1340 C.3   1 <1>  -0.0590 
 24 H        0.2520     2.5870    -1.6330 H     1 <1>   0.1500 
 25 H        2.7520    -0.3070     0.3660 H     1 <1>   0.1500 
 26 H        1.9590    -2.7260    -0.8060 H     1 <1>   0.0800 
 27 H        0.7430    -2.5910    -2.0570 H     1 <1>   0.0800 
 28 H        0.1750    -2.2710     0.8010 H     1 <1>   0.4500 
 29 H       -1.7340    -1.4640    -0.1210 H     1 <1>   0.0800 
 30 H       -1.5180    -2.4630    -1.5480 H     1 <1>   0.0800 
 31 H        0.6900    -4.7370    -0.5390 H     1 <1>   0.0800 
 32 H        0.3970    -4.4360     1.1600 H     1 <1>   0.0800 
 33 H       -3.2310    -3.6550    -0.3910 H     1 <1>   0.0800 
 34 H       -1.4810    -5.1500    -0.9960 H     1 <1>   0.0800 
 35 H        4.4800     3.8270     2.3160 H     1 <1>   0.0800 
 36 H        3.4520     5.1110     1.6790 H     1 <1>   0.0800 
 37 H       -1.7640    -3.2650     2.0250 H     1 <1>   0.4000 
 38 H       -2.7450    -6.2720     0.7840 H     1 <1>   0.0800 
 39 H       -1.6620    -5.6460     1.9920 H     1 <1>   0.0800 
 40 H        5.3070     3.7990     0.0600 H     1 <1>   0.4000 
 41 H       -1.8830    -8.8460    -0.0500 H     1 <1>   0.1500 
 42 H        0.0860   -11.0240     0.4580 H     1 <1>   0.0800 
 43 H        1.6900   -10.4990     0.0020 H     1 <1>   0.0800 
 44 H        0.3940   -10.4570    -1.1710 H     1 <1>   0.0800 
@<TRIPOS>BOND
  1   1   2  1   
  2   1   3  1   
  3   2   4  2   
  4   2   5  1   
  5   3   6  2   
  6   3  24  1   
  7   4   6  1   
  8   4  25  1   
  9   5   7  1   
 10   5  26  1   
 11   5  27  1   
 12   6   8  1   
 13   7   9  1   
 14   7  10  1   
 15   7  28  1   
 16   8  11  3   
 17   9  12  1   
 18   9  29  1   
 19   9  30  1   
 20  10  13  1   
 21  10  31  1   
 22  10  32  1   
 23  11  14  1   
 24  12  13  1   
 25  12  15  1   
 26  12  33  1   
 27  13  16  1   
 28  13  34  1   
 29  14  17  1   
 30  14  35  1   
 31  14  36  1   
 32  15  37  1   
 33  16  18  1   
 34  16  38  1   
 35  16  39  1   
 36  17  40  1   
 37  18  19  1   
 38  18  20  2   
 39  19  21  1   
 40  20  22  1   
 41  20  41  1   
 42  21  22  2   
 43  22  23  1   
 44  23  42  1   
 45  23  43  1   
 46  23  44  1   
@<TRIPOS>SUBSTRUCTURE
  1 ****   7 GROUP 4 **** **** 0

# MOE 2024.06 (io_trps.svl 2023.06)
