@<TRIPOS>MOLECULE
NONAME
49 51 1 0 0 
SMALL
USER_CHARGES


@<TRIPOS>ATOM
  1 O       -0.1500     1.3410     1.0950 O.2   1 <1>  -0.5700 
  2 C       -0.0550     2.4050     0.5270 C.2   1 <1>   0.5690 
  3 N       -1.1340     3.2400     0.3740 N.am  1 <1>  -0.6600 
  4 C        1.3070     2.8070    -0.0330 C.3   1 <1>  -0.0990 
  5 C       -2.4790     2.8770     0.9240 C.3   1 <1>   0.1400 
  6 C       -1.1410     4.5300    -0.3680 C.3   1 <1>   0.1400 
  7 C        2.4420     1.8090     0.2690 C.3   1 <1>  -0.1600 
  8 C       -3.5250     2.7510    -0.2120 C.3   1 <1>   0.0000 
  9 C       -2.1400     4.4480    -1.5280 C.3   1 <1>  -0.1600 
 10 C        3.7860     2.2720    -0.3100 C.3   1 <1>   0.0210 
 11 C       -4.9200     2.4180     0.3460 C.3   1 <1>   0.2000 
 12 C       -3.5460     4.0550    -1.0410 C.3   1 <1>  -0.1600 
 13 C       -3.2330     1.5110    -1.0750 C.3   1 <1>  -0.1600 
 14 C        4.9120     1.2960    -0.0080 C.2   1 <1>  -0.1810 
 15 O       -5.1910     3.1380     1.5120 O.3   1 <1>  -0.5600 
 16 C       -4.9120     0.9080     0.6080 C.3   1 <1>  -0.1600 
 17 C       -3.8230     0.3260    -0.3040 C.3   1 <1>  -0.1600 
 18 C        6.2390     1.4490    -0.4010 C.2   1 <1>   0.1390 
 19 C        4.8950     0.1260     0.6680 C.2   1 <1>  -0.3020 
 20 C       -6.5240     3.1250     1.9150 C.3   1 <1>   0.0400 
 21 N        6.9900     0.4650    -0.0080 N.2   1 <1>  -0.7070 
 22 N        6.1530    -0.3540     0.6560 N.pl3 1 <1>   0.3000 
 23 H        1.2090     2.9100    -1.0980 H     1 <1>   0.0800 
 24 H        1.5670     3.7620     0.3830 H     1 <1>   0.0800 
 25 H       -2.4270     1.9590     1.4820 H     1 <1>   0.0800 
 26 H       -2.7810     3.6480     1.6100 H     1 <1>   0.0800 
 27 H       -1.4360     5.3150     0.3070 H     1 <1>   0.0800 
 28 H       -0.1670     4.7710    -0.7510 H     1 <1>   0.0800 
 29 H        2.5350     1.6940     1.3360 H     1 <1>   0.0800 
 30 H        2.1880     0.8480    -0.1460 H     1 <1>   0.0800 
 31 H       -2.1880     5.4020    -2.0210 H     1 <1>   0.0800 
 32 H       -1.7850     3.7280    -2.2450 H     1 <1>   0.0800 
 33 H        4.0440     3.2310     0.1040 H     1 <1>   0.0800 
 34 H        3.7000     2.3780    -1.3770 H     1 <1>   0.0800 
 35 H       -5.6630     2.6570    -0.3960 H     1 <1>   0.0800 
 36 H       -4.2050     3.9500    -1.8850 H     1 <1>   0.0800 
 37 H       -3.9320     4.8470    -0.4230 H     1 <1>   0.0800 
 38 H       -3.7430     1.5980    -2.0190 H     1 <1>   0.0800 
 39 H       -2.1830     1.3730    -1.2660 H     1 <1>   0.0800 
 40 H       -4.6620     0.7100     1.6360 H     1 <1>   0.0800 
 41 H       -5.8710     0.4800     0.3790 H     1 <1>   0.0800 
 42 H       -3.0540    -0.1280     0.3000 H     1 <1>   0.0800 
 43 H       -4.2190    -0.4150    -0.9760 H     1 <1>   0.0800 
 44 H        6.6140     2.2850    -0.9670 H     1 <1>   0.1500 
 45 H        4.0780    -0.3820     1.1480 H     1 <1>   0.1500 
 46 H       -6.6090     3.7270     2.8020 H     1 <1>   0.0800 
 47 H       -6.8230     2.1150     2.1350 H     1 <1>   0.0800 
 48 H       -7.1360     3.5410     1.1340 H     1 <1>   0.0800 
 49 H        6.4710    -1.2300     1.0860 H     1 <1>   0.2700 
@<TRIPOS>BOND
  1   1   2  2   
  2   2   3  am  
  3   2   4  1   
  4   3   5  1   
  5   3   6  1   
  6   4   7  1   
  7   4  23  1   
  8   4  24  1   
  9   5   8  1   
 10   5  25  1   
 11   5  26  1   
 12   6   9  1   
 13   6  27  1   
 14   6  28  1   
 15   7  10  1   
 16   7  29  1   
 17   7  30  1   
 18   8  11  1   
 19   8  12  1   
 20   8  13  1   
 21   9  12  1   
 22   9  31  1   
 23   9  32  1   
 24  10  14  1   
 25  10  33  1   
 26  10  34  1   
 27  11  15  1   
 28  11  16  1   
 29  11  35  1   
 30  12  36  1   
 31  12  37  1   
 32  13  17  1   
 33  13  38  1   
 34  13  39  1   
 35  14  18  1   
 36  14  19  2   
 37  15  20  1   
 38  16  17  1   
 39  16  40  1   
 40  16  41  1   
 41  17  42  1   
 42  17  43  1   
 43  18  21  2   
 44  18  44  1   
 45  19  22  1   
 46  19  45  1   
 47  20  46  1   
 48  20  47  1   
 49  20  48  1   
 50  21  22  1   
 51  22  49  1   
@<TRIPOS>SUBSTRUCTURE
  1 ****   2 GROUP 4 **** **** 0

# MOE 2024.06 (io_trps.svl 2023.06)
