@<TRIPOS>MOLECULE
NONAME
49 52 1 0 0 
SMALL
USER_CHARGES


@<TRIPOS>ATOM
  1 O       -1.2660     1.1550     2.7910 O.2   1 <1>  -0.5700 
  2 C       -1.2430     1.5300     1.6350 C.2   1 <1>   0.6160 
  3 N       -1.9700     0.8360     0.6940 N.am  1 <1>  -0.6600 
  4 C       -0.4960     2.7170     1.2930 C.2   1 <1>  -0.0140 
  5 C       -2.7160    -0.4090     1.0530 C.3   1 <1>   0.1400 
  6 C       -2.2820     1.3680    -0.6630 C.3   1 <1>   0.1400 
  7 C        0.6640     2.6360     0.4320 C.ar  1 <1>   0.0280 
  8 C       -0.8730     3.9360     1.7720 C.2   1 <1>  -0.1360 
  9 C       -4.1810    -0.1220     1.4250 C.3   1 <1>   0.1400 
 10 C       -3.4010     2.4180    -0.6160 C.3   1 <1>  -0.1600 
 11 C        1.3180     3.8270     0.0690 C.ar  1 <1>   0.1170 
 12 C        1.1810     1.4320    -0.0610 C.ar  1 <1>  -0.1500 
 13 C       -0.2010     5.1320     1.4170 C.2   1 <1>   0.6160 
 14 N       -4.8900     0.6800     0.3770 N.am  1 <1>  -0.6600 
 15 C       -4.5370     2.1250     0.3730 C.3   1 <1>   0.1400 
 16 N        0.8550     5.0370     0.5700 N.am  1 <1>  -0.5470 
 17 C        2.4220     3.7910    -0.7780 C.ar  1 <1>  -0.1500 
 18 C        2.2770     1.4020    -0.8990 C.ar  1 <1>  -0.1430 
 19 O       -0.5340     6.2310     1.8180 O.2   1 <1>  -0.5700 
 20 C       -5.7830     0.1730    -0.5310 C.2   1 <1>   0.6300 
 21 C        2.8960     2.5910    -1.2600 C.ar  1 <1>  -0.1500 
 22 C        2.8210     0.0870    -1.4290 C.3   1 <1>  -0.0970 
 23 O       -6.3300     0.8760    -1.3480 O.2   1 <1>  -0.5700 
 24 C       -6.1100    -1.3170    -0.5340 C.3   1 <1>  -0.1000 
 25 C       -5.1180    -2.3290    -1.0380 C.3   1 <1>  -0.2000 
 26 C       -6.3660    -2.0580    -1.8160 C.3   1 <1>  -0.2000 
 27 H       -2.2350    -0.8930     1.8860 H     1 <1>   0.0800 
 28 H       -2.6840    -1.0970     0.2270 H     1 <1>   0.0800 
 29 H       -2.5990     0.5540    -1.2940 H     1 <1>   0.0800 
 30 H       -1.4020     1.7930    -1.1140 H     1 <1>   0.0800 
 31 H       -1.7070     4.0460     2.4390 H     1 <1>   0.1500 
 32 H       -4.2000     0.4150     2.3570 H     1 <1>   0.0800 
 33 H       -4.6870    -1.0550     1.5920 H     1 <1>   0.0800 
 34 H       -3.8220     2.5050    -1.6020 H     1 <1>   0.0800 
 35 H       -2.9780     3.3770    -0.3770 H     1 <1>   0.0800 
 36 H        0.7150     0.5040     0.2200 H     1 <1>   0.1500 
 37 H       -5.4030     2.7110     0.1110 H     1 <1>   0.0800 
 38 H       -4.2350     2.4200     1.3630 H     1 <1>   0.0800 
 39 H        1.3170     5.9170     0.3470 H     1 <1>   0.3700 
 40 H        2.9090     4.7080    -1.0550 H     1 <1>   0.1500 
 41 H        3.7510     2.5730    -1.9130 H     1 <1>   0.1500 
 42 H        2.2100    -0.7400    -1.1120 H     1 <1>   0.0800 
 43 H        3.8210    -0.0670    -1.0650 H     1 <1>   0.0800 
 44 H        2.8410     0.1040    -2.5040 H     1 <1>   0.0800 
 45 H       -6.7360    -1.5820     0.2980 H     1 <1>   0.1000 
 46 H       -5.0260    -3.2690    -0.5220 H     1 <1>   0.1000 
 47 H       -4.1870    -1.9920    -1.4590 H     1 <1>   0.1000 
 48 H       -6.3010    -1.5090    -2.7410 H     1 <1>   0.1000 
 49 H       -7.1470    -2.7990    -1.8320 H     1 <1>   0.1000 
@<TRIPOS>BOND
  1   1   2  2   
  2   2   3  am  
  3   2   4  1   
  4   3   5  1   
  5   3   6  1   
  6   4   7  1   
  7   4   8  2   
  8   5   9  1   
  9   5  27  1   
 10   5  28  1   
 11   6  10  1   
 12   6  29  1   
 13   6  30  1   
 14   7  11  ar  
 15   7  12  ar  
 16   8  13  1   
 17   8  31  1   
 18   9  14  1   
 19   9  32  1   
 20   9  33  1   
 21  10  15  1   
 22  10  34  1   
 23  10  35  1   
 24  11  16  1   
 25  11  17  ar  
 26  12  18  ar  
 27  12  36  1   
 28  13  16  am  
 29  13  19  2   
 30  14  15  1   
 31  14  20  am  
 32  15  37  1   
 33  15  38  1   
 34  16  39  1   
 35  17  21  ar  
 36  17  40  1   
 37  18  21  ar  
 38  18  22  1   
 39  20  23  2   
 40  20  24  1   
 41  21  41  1   
 42  22  42  1   
 43  22  43  1   
 44  22  44  1   
 45  24  25  1   
 46  24  26  1   
 47  24  45  1   
 48  25  26  1   
 49  25  46  1   
 50  25  47  1   
 51  26  48  1   
 52  26  49  1   
@<TRIPOS>SUBSTRUCTURE
  1 ****   3 GROUP 4 **** **** 0

# MOE 2024.06 (io_trps.svl 2023.06)
