@<TRIPOS>MOLECULE
NONAME
52 54 1 0 0 
SMALL
USER_CHARGES


@<TRIPOS>ATOM
  1 O       -0.0760     1.4300    -0.1040 O.co2 1 <1>  -0.9000 
  2 C       -0.4330     2.0720     0.8990 C.2   1 <1>   0.9060 
  3 O        0.2250     2.1110     1.9410 O.co2 1 <1>  -0.9000 
  4 C       -1.8630     2.6650     0.8680 C.3   1 <1>   0.4600 
  5 N       -2.8170     1.7630     0.1000 N.4   1 <1>  -0.9590 
  6 C       -1.9120     4.0630     0.2500 C.ar  1 <1>  -0.1430 
  7 C       -4.1330     2.3720    -0.2220 C.3   1 <1>   0.3430 
  8 C       -2.8940     0.4340     0.7600 C.3   1 <1>   0.3430 
  9 C       -2.6170     5.0710     0.8920 C.ar  1 <1>  -0.1500 
 10 C       -1.2840     4.3390    -0.9580 C.ar  1 <1>  -0.1500 
 11 C       -4.9450     1.4130    -1.0900 C.3   1 <1>  -0.1600 
 12 C       -3.7200    -0.5260    -0.0980 C.3   1 <1>  -0.1600 
 13 C       -2.7190     6.3370     0.3400 C.ar  1 <1>   0.0830 
 14 C       -1.3600     5.6050    -1.5100 C.ar  1 <1>  -0.1500 
 15 C       -5.1230     0.0250    -0.4430 C.3   1 <1>   0.0000 
 16 O       -3.4760     7.2300     1.0320 O.3   1 <1>  -0.3630 
 17 C       -2.0600     6.6110    -0.8660 C.ar  1 <1>   0.0830 
 18 C       -6.0200     0.1300     0.8140 C.3   1 <1>  -0.1600 
 19 C       -5.8280    -0.9090    -1.4490 C.3   1 <1>  -0.1600 
 20 C       -4.3350     8.1060     0.3330 C.3   1 <1>   0.0400 
 21 O       -2.0550     7.8370    -1.4360 O.3   1 <1>  -0.3630 
 22 C       -6.4760    -1.2440     1.3250 C.3   1 <1>   0.1200 
 23 C       -6.2910    -2.2220    -0.8040 C.3   1 <1>   0.1200 
 24 C       -1.0950     8.7290    -0.9160 C.3   1 <1>   0.0400 
 25 O       -7.1010    -1.9320     0.2900 O.3   1 <1>  -0.5600 
 26 H       -2.1840     2.7350     1.8910 H     1 <1>   0.0800 
 27 H       -2.2740     1.6010    -0.7660 H     1 <1>   0.4500 
 28 H       -3.9910     3.3000    -0.7530 H     1 <1>   0.0800 
 29 H       -4.6670     2.5820     0.6900 H     1 <1>   0.0800 
 30 H       -3.3440     0.5350     1.7330 H     1 <1>   0.0800 
 31 H       -1.9000     0.0290     0.8860 H     1 <1>   0.0800 
 32 H       -3.1050     4.8880     1.8330 H     1 <1>   0.1500 
 33 H       -0.7210     3.5740    -1.4720 H     1 <1>   0.1500 
 34 H       -4.4500     1.3130    -2.0400 H     1 <1>   0.0800 
 35 H       -5.9070     1.8540    -1.2820 H     1 <1>   0.0800 
 36 H       -3.7930    -1.4630     0.4210 H     1 <1>   0.0800 
 37 H       -3.1690    -0.7150    -1.0030 H     1 <1>   0.0800 
 38 H       -0.8650     5.8200    -2.4400 H     1 <1>   0.1500 
 39 H       -6.9090     0.6890     0.5780 H     1 <1>   0.0800 
 40 H       -5.5230     0.6500     1.6120 H     1 <1>   0.0800 
 41 H       -5.1780    -1.1320    -2.2770 H     1 <1>   0.0800 
 42 H       -6.7000    -0.4230    -1.8500 H     1 <1>   0.0800 
 43 H       -5.1120     8.4220     1.0050 H     1 <1>   0.0800 
 44 H       -4.7610     7.5890    -0.5080 H     1 <1>   0.0800 
 45 H       -3.7720     8.9610     0.0050 H     1 <1>   0.0800 
 46 H       -7.1940    -1.1300     2.1180 H     1 <1>   0.0800 
 47 H       -5.6540    -1.8380     1.6860 H     1 <1>   0.0800 
 48 H       -5.4620    -2.8240    -0.4730 H     1 <1>   0.0800 
 49 H       -6.8780    -2.7950    -1.5010 H     1 <1>   0.0800 
 50 H       -1.1910     9.6670    -1.4320 H     1 <1>   0.0800 
 51 H       -0.1150     8.3170    -1.0760 H     1 <1>   0.0800 
 52 H       -1.2760     8.8640     0.1360 H     1 <1>   0.0800 
@<TRIPOS>BOND
  1   1   2  ar  
  2   2   3  ar  
  3   2   4  1   
  4   4   5  1   
  5   4   6  1   
  6   4  26  1   
  7   5   7  1   
  8   5   8  1   
  9   5  27  1   
 10   6   9  ar  
 11   6  10  ar  
 12   7  11  1   
 13   7  28  1   
 14   7  29  1   
 15   8  12  1   
 16   8  30  1   
 17   8  31  1   
 18   9  13  ar  
 19   9  32  1   
 20  10  14  ar  
 21  10  33  1   
 22  11  15  1   
 23  11  34  1   
 24  11  35  1   
 25  12  15  1   
 26  12  36  1   
 27  12  37  1   
 28  13  16  1   
 29  13  17  ar  
 30  14  17  ar  
 31  14  38  1   
 32  15  18  1   
 33  15  19  1   
 34  16  20  1   
 35  17  21  1   
 36  18  22  1   
 37  18  39  1   
 38  18  40  1   
 39  19  23  1   
 40  19  41  1   
 41  19  42  1   
 42  20  43  1   
 43  20  44  1   
 44  20  45  1   
 45  21  24  1   
 46  22  25  1   
 47  22  46  1   
 48  22  47  1   
 49  23  25  1   
 50  23  48  1   
 51  23  49  1   
 52  24  50  1   
 53  24  51  1   
 54  24  52  1   
@<TRIPOS>SUBSTRUCTURE
  1 ****   7 GROUP 4 **** **** 0

# MOE 2024.06 (io_trps.svl 2023.06)
