@<TRIPOS>MOLECULE
NONAME
45 47 1 0 0 
SMALL
USER_CHARGES


@<TRIPOS>ATOM
  1 O        1.6310     0.1720     1.4330 O.3   1 <1>  -0.6800 
  2 C        1.7670    -0.0390     0.0610 C.3   1 <1>   0.2000 
  3 C        2.5650    -1.3200    -0.2090 C.3   1 <1>  -0.0800 
  4 C        2.6200     1.0810    -0.5500 C.3   1 <1>   0.2090 
  5 C        4.0270    -0.8710    -0.2120 C.3   1 <1>   0.2090 
  6 C        2.2970    -2.4970     0.7450 C.3   1 <1>   0.0210 
  7 N        3.9980     0.5370    -0.6620 N.pl3 1 <1>  -0.8380 
  8 C        3.0500    -3.7340     0.3000 C.2   1 <1>   0.1080 
  9 C        5.1130     1.3390    -0.6690 C.ar  1 <1>   0.7200 
 10 N        2.6340    -4.4950    -0.6640 N.2   1 <1>  -0.7070 
 11 C        4.2450    -4.1840     0.8500 C.2   1 <1>  -0.1500 
 12 N        6.2800     0.7550    -0.4040 N.ar  1 <1>  -0.6200 
 13 N        4.9240     2.6270    -0.9520 N.ar  1 <1>  -0.6200 
 14 N        3.5650    -5.4630    -0.7570 N.pl3 1 <1>   0.3000 
 15 C        4.5520    -5.2960     0.1500 C.2   1 <1>  -0.3320 
 16 C        7.3320     1.5340    -0.4230 C.ar  1 <1>   0.1600 
 17 C        5.9970     3.3780    -0.9620 C.ar  1 <1>   0.1600 
 18 C        5.7450    -6.2220     0.2920 C.3   1 <1>  -0.0600 
 19 C        7.2520     2.8790    -0.7010 C.ar  1 <1>  -0.1430 
 20 C        8.4860     3.7680    -0.7170 C.3   1 <1>  -0.0170 
 21 C        8.7430     4.3580     0.6740 C.3   1 <1>  -0.1600 
 22 C        9.9820     5.2590     0.6830 C.3   1 <1>  -0.2400 
 23 H        1.0490    -0.5030     1.8270 H     1 <1>   0.4000 
 24 H        0.7830    -0.0640    -0.3730 H     1 <1>   0.0800 
 25 H        2.3370    -1.6400    -1.2110 H     1 <1>   0.0800 
 26 H        2.5950     1.9670     0.0630 H     1 <1>   0.0800 
 27 H        2.2680     1.3180    -1.5380 H     1 <1>   0.0800 
 28 H        4.6240    -1.4730    -0.8760 H     1 <1>   0.0800 
 29 H        4.4400    -0.9110     0.7820 H     1 <1>   0.0800 
 30 H        1.2470    -2.7260     0.7510 H     1 <1>   0.0800 
 31 H        2.5960    -2.2470     1.7470 H     1 <1>   0.0800 
 32 H        4.7870    -3.7230     1.6560 H     1 <1>   0.1500 
 33 H        3.4990    -6.2190    -1.4480 H     1 <1>   0.2700 
 34 H        8.2870     1.0870    -0.2090 H     1 <1>   0.1500 
 35 H        5.8710     4.4230    -1.1840 H     1 <1>   0.1500 
 36 H        6.3900    -5.8760     1.0800 H     1 <1>   0.0800 
 37 H        6.3090    -6.2460    -0.6240 H     1 <1>   0.0800 
 38 H        5.4180    -7.2190     0.5300 H     1 <1>   0.0800 
 39 H        9.3400     3.1930    -1.0320 H     1 <1>   0.0800 
 40 H        8.3470     4.5630    -1.4290 H     1 <1>   0.0800 
 41 H        7.8850     4.9300     0.9850 H     1 <1>   0.0800 
 42 H        8.8790     3.5580     1.3830 H     1 <1>   0.0800 
 43 H        9.8570     6.0800    -0.0010 H     1 <1>   0.0800 
 44 H       10.8570     4.7010     0.3990 H     1 <1>   0.0800 
 45 H       10.1380     5.6580     1.6700 H     1 <1>   0.0800 
@<TRIPOS>BOND
  1   1   2  1   
  2   1  23  1   
  3   2   3  1   
  4   2   4  1   
  5   2  24  1   
  6   3   5  1   
  7   3   6  1   
  8   3  25  1   
  9   4   7  1   
 10   4  26  1   
 11   4  27  1   
 12   5   7  1   
 13   5  28  1   
 14   5  29  1   
 15   6   8  1   
 16   6  30  1   
 17   6  31  1   
 18   7   9  1   
 19   8  10  2   
 20   8  11  1   
 21   9  12  ar  
 22   9  13  ar  
 23  10  14  1   
 24  11  15  2   
 25  11  32  1   
 26  12  16  ar  
 27  13  17  ar  
 28  14  15  1   
 29  14  33  1   
 30  15  18  1   
 31  16  19  ar  
 32  16  34  1   
 33  17  19  ar  
 34  17  35  1   
 35  18  36  1   
 36  18  37  1   
 37  18  38  1   
 38  19  20  1   
 39  20  21  1   
 40  20  39  1   
 41  20  40  1   
 42  21  22  1   
 43  21  41  1   
 44  21  42  1   
 45  22  43  1   
 46  22  44  1   
 47  22  45  1   
@<TRIPOS>SUBSTRUCTURE
  1 ****   5 GROUP 4 **** **** 0

# MOE 2024.06 (io_trps.svl 2023.06)
