@<TRIPOS>MOLECULE
NONAME
49 51 1 0 0 
SMALL
USER_CHARGES


@<TRIPOS>ATOM
  1 O       -3.3120    -2.7130    -1.8080 O.co2 1 <1>  -0.9000 
  2 C       -2.8470    -1.5740    -1.9520 C.2   1 <1>   0.9060 
  3 O       -3.1430    -0.9050    -2.9440 O.co2 1 <1>  -0.9000 
  4 C       -2.2240    -0.8990    -0.7300 C.3   1 <1>   0.0040 
  5 N       -3.1830    -0.3410     0.2960 N.3   1 <1>  -0.8100 
  6 C       -3.9510    -1.3100     1.1210 C.3   1 <1>   0.1100 
  7 C       -3.7710     0.9740    -0.0090 C.3   1 <1>   0.1100 
  8 C       -5.3940    -1.6670     0.6630 C.3   1 <1>   0.4230 
  9 C       -5.2370     0.9960    -0.4980 C.3   1 <1>  -0.0800 
 10 N       -5.5490    -1.5170    -0.8180 N.4   1 <1>  -0.9590 
 11 C       -6.4710    -0.9140     1.4710 C.3   1 <1>   0.1200 
 12 C       -6.2630     1.2870     0.6110 C.3   1 <1>   0.1200 
 13 C       -5.6830    -0.1590    -1.4010 C.3   1 <1>   0.3430 
 14 C       -6.2990    -2.5520    -1.5740 C.3   1 <1>   0.5240 
 15 O       -6.1500     0.4280     1.6960 O.3   1 <1>  -0.5600 
 16 C       -7.2100    -3.3570    -0.6680 C.2   1 <1>  -0.1810 
 17 C       -6.8510    -4.5270    -0.0130 C.2   1 <1>   0.1080 
 18 C       -8.4990    -3.1410    -0.3080 C.2   1 <1>  -0.3320 
 19 N       -7.8180    -4.9890     0.7160 N.2   1 <1>  -0.7070 
 20 C       -5.5130    -5.2360    -0.0890 C.3   1 <1>  -0.0590 
 21 N       -8.8360    -4.1450     0.5260 N.pl3 1 <1>   0.3140 
 22 C       -9.4430    -2.0230    -0.7250 C.3   1 <1>  -0.0600 
 23 C      -10.1320    -4.3660     1.1830 C.3   1 <1>   0.0160 
 24 H       -1.5880    -0.1110    -1.0870 H     1 <1>   0.0800 
 25 H       -1.5940    -1.6260    -0.2540 H     1 <1>   0.0800 
 26 H       -3.3890    -2.2270     1.1670 H     1 <1>   0.0800 
 27 H       -3.9930    -0.9340     2.1290 H     1 <1>   0.0800 
 28 H       -3.6940     1.5830     0.8760 H     1 <1>   0.0800 
 29 H       -3.1590     1.4450    -0.7600 H     1 <1>   0.0800 
 30 H       -5.5240    -2.7060     0.9040 H     1 <1>   0.0800 
 31 H       -5.2950     1.8620    -1.1320 H     1 <1>   0.0800 
 32 H       -4.5850    -1.7790    -1.1140 H     1 <1>   0.4500 
 33 H       -6.5450    -1.3720     2.4410 H     1 <1>   0.0800 
 34 H       -7.4340    -0.9790     1.0000 H     1 <1>   0.0800 
 35 H       -7.2720     1.2390     0.2370 H     1 <1>   0.0800 
 36 H       -6.0970     2.2800     0.9930 H     1 <1>   0.0800 
 37 H       -5.1100    -0.1190    -2.3140 H     1 <1>   0.0800 
 38 H       -6.7130     0.0050    -1.6650 H     1 <1>   0.0800 
 39 H       -6.8840    -2.0880    -2.3480 H     1 <1>   0.0800 
 40 H       -5.5960    -3.2150    -2.0520 H     1 <1>   0.0800 
 41 H       -5.6170    -6.1280    -0.6800 H     1 <1>   0.0800 
 42 H       -5.1980    -5.5160     0.8990 H     1 <1>   0.0800 
 43 H       -4.7560    -4.6140    -0.5310 H     1 <1>   0.0800 
 44 H       -8.9470    -1.3270    -1.3760 H     1 <1>   0.0800 
 45 H       -9.7950    -1.4900     0.1410 H     1 <1>   0.0800 
 46 H      -10.2900    -2.4320    -1.2480 H     1 <1>   0.0800 
 47 H      -10.3630    -3.5230     1.8050 H     1 <1>   0.0800 
 48 H      -10.0720    -5.2530     1.7870 H     1 <1>   0.0800 
 49 H      -10.8890    -4.4940     0.4340 H     1 <1>   0.0800 
@<TRIPOS>BOND
  1   1   2  ar  
  2   2   3  ar  
  3   2   4  1   
  4   4   5  1   
  5   4  24  1   
  6   4  25  1   
  7   5   6  1   
  8   5   7  1   
  9   6   8  1   
 10   6  26  1   
 11   6  27  1   
 12   7   9  1   
 13   7  28  1   
 14   7  29  1   
 15   8  10  1   
 16   8  11  1   
 17   8  30  1   
 18   9  12  1   
 19   9  13  1   
 20   9  31  1   
 21  10  13  1   
 22  10  14  1   
 23  10  32  1   
 24  11  15  1   
 25  11  33  1   
 26  11  34  1   
 27  12  15  1   
 28  12  35  1   
 29  12  36  1   
 30  13  37  1   
 31  13  38  1   
 32  14  16  1   
 33  14  39  1   
 34  14  40  1   
 35  16  17  1   
 36  16  18  2   
 37  17  19  2   
 38  17  20  1   
 39  18  21  1   
 40  18  22  1   
 41  19  21  1   
 42  20  41  1   
 43  20  42  1   
 44  20  43  1   
 45  21  23  1   
 46  22  44  1   
 47  22  45  1   
 48  22  46  1   
 49  23  47  1   
 50  23  48  1   
 51  23  49  1   
@<TRIPOS>SUBSTRUCTURE
  1 ****  10 GROUP 4 **** **** 0

# MOE 2024.06 (io_trps.svl 2023.06)
