@<TRIPOS>MOLECULE
Untitled Document
51 53 1 0 0 
SMALL
USER_CHARGES


@<TRIPOS>ATOM
  1 F       -0.2440     0.3160    -0.1080 F     1 <1>  -0.1900 
  2 C       -0.1500     1.6190    -0.1040 C.ar  1 <1>   0.1900 
  3 C       -1.3060     2.3860    -0.0370 C.ar  1 <1>  -0.1790 
  4 C        1.1200     2.1620    -0.1650 C.ar  1 <1>  -0.1500 
  5 C       -1.0990     3.7590    -0.0380 C.ar  1 <1>   0.1900 
  6 C       -2.6140     1.8050     0.0320 C.2   1 <1>   0.9790 
  7 C        1.2930     3.5450    -0.1630 C.ar  1 <1>   0.1170 
  8 F       -2.1250     4.5650     0.0240 F     1 <1>  -0.1900 
  9 C        0.1540     4.3390    -0.0970 C.ar  1 <1>  -0.1500 
 10 O       -3.2570     1.5770    -1.0070 O.co2 1 <1>  -0.9000 
 11 O       -3.1190     1.5310     1.1340 O.co2 1 <1>  -0.9000 
 12 N        2.5480     4.1690    -0.2020 N.am  1 <1>  -0.5470 
 13 C        3.7940     3.7390    -0.5930 C.2   1 <1>   0.5440 
 14 O        3.9030     2.6430    -1.1090 O.2   1 <1>  -0.5700 
 15 C        4.9720     4.5750    -0.3930 C.ar  1 <1>   0.0860 
 16 C        4.9450     5.9490    -0.1160 C.ar  1 <1>   0.0830 
 17 C        6.2400     3.9980    -0.4760 C.ar  1 <1>  -0.1500 
 18 O        3.7970     6.6450    -0.0310 O.3   1 <1>  -0.5330 
 19 C        6.1150     6.6620     0.0800 C.ar  1 <1>  -0.1500 
 20 C        7.4270     4.6980    -0.3000 C.ar  1 <1>  -0.1430 
 21 C        7.3640     6.0600     0.0120 C.ar  1 <1>  -0.1430 
 22 C        8.7610     3.9370    -0.4410 C.3   1 <1>   0.1430 
 23 C        8.6200     6.9180     0.2650 C.3   1 <1>   0.1430 
 24 C        9.9570     4.9030    -0.5380 C.3   1 <1>  -0.1600 
 25 C        8.7860     3.0750    -1.7180 C.3   1 <1>  -0.2400 
 26 C        8.9280     3.0130     0.7770 C.3   1 <1>  -0.2400 
 27 C        9.8680     6.0410     0.4780 C.3   1 <1>  -0.1600 
 28 C        8.8280     7.8480    -0.9410 C.3   1 <1>  -0.2400 
 29 C        8.4650     7.7830     1.5300 C.3   1 <1>  -0.2400 
 30 H        1.9650     1.5020    -0.2080 H     1 <1>   0.1500 
 31 H        0.2350     5.4080    -0.0940 H     1 <1>   0.1500 
 32 H        2.5540     5.1610     0.0530 H     1 <1>   0.3700 
 33 H        6.2820     2.9440    -0.6830 H     1 <1>   0.1500 
 34 H        3.9380     7.6010     0.1130 H     1 <1>   0.4500 
 35 H        6.0460     7.7120     0.2850 H     1 <1>   0.1500 
 36 H        9.9990     5.3230    -1.5270 H     1 <1>   0.0800 
 37 H       10.8750     4.3620    -0.3880 H     1 <1>   0.0800 
 38 H        8.5360     3.6770    -2.5740 H     1 <1>   0.0800 
 39 H        8.0890     2.2600    -1.6630 H     1 <1>   0.0800 
 40 H        9.7640     2.6550    -1.8690 H     1 <1>   0.0800 
 41 H        8.8700     3.5750     1.6900 H     1 <1>   0.0800 
 42 H        9.8740     2.5040     0.7430 H     1 <1>   0.0800 
 43 H        8.1480     2.2730     0.7970 H     1 <1>   0.0800 
 44 H        9.8460     5.6210     1.4680 H     1 <1>   0.0800 
 45 H       10.7550     6.6470     0.4130 H     1 <1>   0.0800 
 46 H        8.8910     7.2800    -1.8510 H     1 <1>   0.0800 
 47 H        9.7300     8.4220    -0.8290 H     1 <1>   0.0800 
 48 H        8.0030     8.5310    -1.0390 H     1 <1>   0.0800 
 49 H        8.1870     7.1660     2.3670 H     1 <1>   0.0800 
 50 H        7.7200     8.5440     1.4060 H     1 <1>   0.0800 
 51 H        9.3940     8.2730     1.7640 H     1 <1>   0.0800 
@<TRIPOS>BOND
  1   1   2  1   
  2   2   3  ar  
  3   2   4  ar  
  4   3   5  ar  
  5   3   6  1   
  6   4   7  ar  
  7   4  30  1   
  8   5   8  1   
  9   5   9  ar  
 10   6  10  ar  
 11   6  11  ar  
 12   7   9  ar  
 13   7  12  1   
 14   9  31  1   
 15  12  13  am  
 16  12  32  1   
 17  13  14  2   
 18  13  15  1   
 19  15  16  ar  
 20  15  17  ar  
 21  16  18  1   
 22  16  19  ar  
 23  17  20  ar  
 24  17  33  1   
 25  18  34  1   
 26  19  21  ar  
 27  19  35  1   
 28  20  21  ar  
 29  20  22  1   
 30  21  23  1   
 31  22  24  1   
 32  22  25  1   
 33  22  26  1   
 34  23  27  1   
 35  23  28  1   
 36  23  29  1   
 37  24  27  1   
 38  24  36  1   
 39  24  37  1   
 40  25  38  1   
 41  25  39  1   
 42  25  40  1   
 43  26  41  1   
 44  26  42  1   
 45  26  43  1   
 46  27  44  1   
 47  27  45  1   
 48  28  46  1   
 49  28  47  1   
 50  28  48  1   
 51  29  49  1   
 52  29  50  1   
 53  29  51  1   
@<TRIPOS>SUBSTRUCTURE
  1 ****  13 GROUP 4 **** **** 0

# MOE 2024.06 (io_trps.svl 2023.06)
