@<TRIPOS>MOLECULE
NONAME
51 54 1 0 0 
SMALL
USER_CHARGES


@<TRIPOS>ATOM
  1 O       -1.5280     1.0810    -2.2070 O.2   1 <1>  -0.5700 
  2 C       -2.5620     0.7330    -1.7020 C.2   1 <1>   0.4230 
  3 C       -3.2910     1.3730    -0.6520 C.ar  1 <1>   0.0860 
  4 C       -3.3030    -0.5140    -2.1360 C.3   1 <1>  -0.0990 
  5 C       -4.4440     0.6730    -0.3600 C.ar  1 <1>  -0.1440 
  6 C       -2.9940     2.5330     0.0520 C.ar  1 <1>  -0.1500 
  7 C       -4.5610    -0.5590    -1.2430 C.3   1 <1>  -0.0160 
  8 C       -5.3390     1.0890     0.6210 C.ar  1 <1>   0.0860 
  9 C       -3.8570     2.9690     1.0410 C.ar  1 <1>  -0.1500 
 10 C       -6.5570     0.3540     0.9070 C.2   1 <1>   0.5440 
 11 C       -5.0110     2.2540     1.3200 C.ar  1 <1>  -0.1500 
 12 O       -6.4830    -0.8080     1.2610 O.2   1 <1>  -0.5700 
 13 N       -7.7960     0.9420     0.7730 N.am  1 <1>  -0.6600 
 14 C       -9.0290     0.2410     1.2380 C.3   1 <1>   0.1400 
 15 C       -7.9900     2.2590     0.0960 C.3   1 <1>   0.1400 
 16 C      -10.0680     1.2620     1.7080 C.3   1 <1>  -0.1600 
 17 C       -9.3950     2.3520    -0.5000 C.3   1 <1>  -0.1600 
 18 C      -10.4790     2.2590     0.5970 C.3   1 <1>   0.2800 
 19 O      -10.4810     3.5320     1.2110 O.3   1 <1>  -0.5600 
 20 C      -11.8860     1.8960     0.0230 C.3   1 <1>   0.2000 
 21 C      -11.6500     4.3010     1.2100 C.3   1 <1>   0.1200 
 22 O      -11.8780     0.6890    -0.6870 O.3   1 <1>  -0.6800 
 23 C      -12.5460     3.0450    -0.7980 C.3   1 <1>   0.2800 
 24 C      -12.1690     4.4220    -0.2240 C.3   1 <1>  -0.1600 
 25 O      -13.9140     2.8980    -0.6530 O.3   1 <1>  -0.6800 
 26 C      -12.3010     3.0040    -2.3140 C.3   1 <1>  -0.2400 
 27 H       -3.5660    -0.4370    -3.1750 H     1 <1>   0.0800 
 28 H       -2.6840    -1.3780    -1.9800 H     1 <1>   0.0800 
 29 H       -2.0920     3.0750    -0.1800 H     1 <1>   0.1500 
 30 H       -4.5710    -1.4520    -0.6390 H     1 <1>   0.0800 
 31 H       -5.4590    -0.5180    -1.8340 H     1 <1>   0.0800 
 32 H       -3.6310     3.8650     1.5950 H     1 <1>   0.1500 
 33 H       -5.6770     2.5950     2.0950 H     1 <1>   0.1500 
 34 H       -9.4290    -0.3470     0.4290 H     1 <1>   0.0800 
 35 H       -8.7870    -0.4250     2.0490 H     1 <1>   0.0800 
 36 H       -7.8530     3.0490     0.8140 H     1 <1>   0.0800 
 37 H       -7.2620     2.3780    -0.6890 H     1 <1>   0.0800 
 38 H       -9.6480     1.7920     2.5450 H     1 <1>   0.0800 
 39 H      -10.9270     0.7260     2.0690 H     1 <1>   0.0800 
 40 H       -9.5070     1.5540    -1.2110 H     1 <1>   0.0800 
 41 H       -9.4910     3.2780    -1.0330 H     1 <1>   0.0800 
 42 H      -12.5190     1.7220     0.8760 H     1 <1>   0.0800 
 43 H      -12.3740     3.8370     1.8590 H     1 <1>   0.0800 
 44 H      -11.4000     5.2710     1.6060 H     1 <1>   0.0800 
 45 H      -12.7900     0.5120    -0.9940 H     1 <1>   0.4000 
 46 H      -11.3820     4.8650    -0.8090 H     1 <1>   0.0800 
 47 H      -13.0070     5.0950    -0.2550 H     1 <1>   0.0800 
 48 H      -14.3740     3.5480    -1.2160 H     1 <1>   0.4000 
 49 H      -11.2500     3.0470    -2.5250 H     1 <1>   0.0800 
 50 H      -12.7700     3.8420    -2.7980 H     1 <1>   0.0800 
 51 H      -12.6850     2.0950    -2.7400 H     1 <1>   0.0800 
@<TRIPOS>BOND
  1   1   2  2   
  2   2   3  1   
  3   2   4  1   
  4   3   5  ar  
  5   3   6  ar  
  6   4   7  1   
  7   4  27  1   
  8   4  28  1   
  9   5   7  1   
 10   5   8  ar  
 11   6   9  ar  
 12   6  29  1   
 13   7  30  1   
 14   7  31  1   
 15   8  10  1   
 16   8  11  ar  
 17   9  11  ar  
 18   9  32  1   
 19  10  12  2   
 20  10  13  am  
 21  11  33  1   
 22  13  14  1   
 23  13  15  1   
 24  14  16  1   
 25  14  34  1   
 26  14  35  1   
 27  15  17  1   
 28  15  36  1   
 29  15  37  1   
 30  16  18  1   
 31  16  38  1   
 32  16  39  1   
 33  17  18  1   
 34  17  40  1   
 35  17  41  1   
 36  18  19  1   
 37  18  20  1   
 38  19  21  1   
 39  20  22  1   
 40  20  23  1   
 41  20  42  1   
 42  21  24  1   
 43  21  43  1   
 44  21  44  1   
 45  22  45  1   
 46  23  24  1   
 47  23  25  1   
 48  23  26  1   
 49  24  46  1   
 50  24  47  1   
 51  25  48  1   
 52  26  49  1   
 53  26  50  1   
 54  26  51  1   
@<TRIPOS>SUBSTRUCTURE
  1 ****  15 GROUP 4 **** **** 0

# MOE 2024.06 (io_trps.svl 2023.06)
