@<TRIPOS>MOLECULE
NONAME
52 54 1 0 0 
SMALL
USER_CHARGES


@<TRIPOS>ATOM
  1 O        0.1760     0.4010     0.6010 O.2   1 <1>  -0.5700 
  2 C       -0.5040     1.4000     0.6400 C.2   1 <1>   0.5690 
  3 N       -1.8430     1.3650     0.3350 N.am  1 <1>  -0.6600 
  4 C        0.2170     2.6820     1.0180 C.3   1 <1>  -0.0990 
  5 C       -2.8390     2.4700     0.5240 C.3   1 <1>   0.1400 
  6 C       -2.4490     0.1610    -0.3000 C.3   1 <1>   0.1400 
  7 C        1.4060     2.8970     0.0850 C.3   1 <1>   0.1400 
  8 C       -3.4190     2.9240    -0.8290 C.3   1 <1>   0.1440 
  9 C       -3.0300     0.5430    -1.6690 C.3   1 <1>  -0.1600 
 10 N        2.0320     4.2090     0.3680 N.am  1 <1>  -0.7300 
 11 C       -4.4400     4.0140    -0.5640 C.ar  1 <1>   0.1670 
 12 C       -4.0310     1.7080    -1.5610 C.3   1 <1>  -0.1600 
 13 C       -2.3630     3.6610    -1.6970 C.3   1 <1>  -0.1600 
 14 C        1.6910     5.3680    -0.2430 C.2   1 <1>   0.5690 
 15 N       -5.6290     3.8300    -0.0450 N.ar  1 <1>  -0.6200 
 16 C       -3.9650     5.2410    -0.9140 C.ar  1 <1>  -0.1430 
 17 C       -2.5610     5.1680    -1.4600 C.3   1 <1>  -0.0170 
 18 O        0.7850     5.4410    -1.0360 O.2   1 <1>  -0.5700 
 19 C        2.4720     6.6090     0.1000 C.3   1 <1>  -0.1790 
 20 C       -6.3610     4.9360     0.1070 C.ar  1 <1>   0.7200 
 21 C       -4.7870     6.3220    -0.7200 C.ar  1 <1>   0.1600 
 22 N       -5.9890     6.1810    -0.2100 N.ar  1 <1>  -0.6200 
 23 N       -7.6240     4.7780     0.6470 N.pl3 1 <1>  -0.8380 
 24 C       -8.4210     5.9340     1.1410 C.3   1 <1>   0.1290 
 25 C       -8.2910     3.4490     0.7280 C.3   1 <1>   0.1290 
 26 H        0.5600     2.5930     2.0310 H     1 <1>   0.0800 
 27 H       -0.4190     3.5370     0.9390 H     1 <1>   0.0800 
 28 H       -2.4240     3.3100     1.0460 H     1 <1>   0.0800 
 29 H       -3.6460     2.0980     1.1330 H     1 <1>   0.0800 
 30 H       -3.2290    -0.2190     0.3380 H     1 <1>   0.0800 
 31 H       -1.7170    -0.6180    -0.4270 H     1 <1>   0.0800 
 32 H        1.0690     2.8760    -0.9390 H     1 <1>   0.0800 
 33 H        2.1320     2.1110     0.2140 H     1 <1>   0.0800 
 34 H       -3.5210    -0.3140    -2.0940 H     1 <1>   0.0800 
 35 H       -2.2200     0.8110    -2.3250 H     1 <1>   0.0800 
 36 H        2.7930     4.2000     1.0490 H     1 <1>   0.3700 
 37 H       -4.3730     1.9980    -2.5390 H     1 <1>   0.0800 
 38 H       -4.8910     1.3700    -1.0090 H     1 <1>   0.0800 
 39 H       -2.5540     3.4630    -2.7370 H     1 <1>   0.0800 
 40 H       -1.3550     3.3580    -1.4820 H     1 <1>   0.0800 
 41 H       -2.4490     5.7300    -2.3710 H     1 <1>   0.0800 
 42 H       -1.8650     5.5300    -0.7230 H     1 <1>   0.0800 
 43 H        3.5180     6.4420    -0.0760 H     1 <1>   0.0800 
 44 H        2.3140     6.8620     1.1320 H     1 <1>   0.0800 
 45 H        2.1420     7.4270    -0.5140 H     1 <1>   0.0800 
 46 H       -4.4550     7.3110    -0.9820 H     1 <1>   0.1500 
 47 H       -7.7720     6.7170     1.4940 H     1 <1>   0.0800 
 48 H       -9.0530     5.6270     1.9550 H     1 <1>   0.0800 
 49 H       -9.0300     6.3180     0.3420 H     1 <1>   0.0800 
 50 H       -7.9250     2.7950    -0.0440 H     1 <1>   0.0800 
 51 H       -9.3530     3.5600     0.6000 H     1 <1>   0.0800 
 52 H       -8.0910     3.0050     1.6870 H     1 <1>   0.0800 
@<TRIPOS>BOND
  1   1   2  2   
  2   2   3  am  
  3   2   4  1   
  4   3   5  1   
  5   3   6  1   
  6   4   7  1   
  7   4  26  1   
  8   4  27  1   
  9   5   8  1   
 10   5  28  1   
 11   5  29  1   
 12   6   9  1   
 13   6  30  1   
 14   6  31  1   
 15   7  10  1   
 16   7  32  1   
 17   7  33  1   
 18   8  11  1   
 19   8  12  1   
 20   8  13  1   
 21   9  12  1   
 22   9  34  1   
 23   9  35  1   
 24  10  14  am  
 25  10  36  1   
 26  11  15  ar  
 27  11  16  ar  
 28  12  37  1   
 29  12  38  1   
 30  13  17  1   
 31  13  39  1   
 32  13  40  1   
 33  14  18  2   
 34  14  19  1   
 35  15  20  ar  
 36  16  17  1   
 37  16  21  ar  
 38  17  41  1   
 39  17  42  1   
 40  19  43  1   
 41  19  44  1   
 42  19  45  1   
 43  20  22  ar  
 44  20  23  1   
 45  21  22  ar  
 46  21  46  1   
 47  23  24  1   
 48  23  25  1   
 49  24  47  1   
 50  24  48  1   
 51  24  49  1   
 52  25  50  1   
 53  25  51  1   
 54  25  52  1   
@<TRIPOS>SUBSTRUCTURE
  1 ****   8 GROUP 4 **** **** 0

# MOE 2024.06 (io_trps.svl 2023.06)
