@<TRIPOS>MOLECULE
NONAME
65 69 1 0 0 
SMALL
USER_CHARGES


@<TRIPOS>ATOM
  1 O       -0.6430     0.3510     2.1080 O.2   1 <1>  -0.5700 
  2 C       -0.0350     0.9980     1.2800 C.2   1 <1>   0.5440 
  3 N        0.9210     0.4660     0.4570 N.am  1 <1>  -0.6600 
  4 C       -0.1840     2.4000     1.0270 C.ar  1 <1>   0.0860 
  5 C        1.5990     1.5690    -0.2830 C.3   1 <1>   0.2840 
  6 C        1.5640    -0.8600     0.7350 C.3   1 <1>   0.1400 
  7 C        0.7730     2.7820     0.1090 C.ar  1 <1>  -0.1440 
  8 C       -1.0820     3.3370     1.5200 C.ar  1 <1>  -0.1500 
  9 C        1.9520    -1.7490    -0.4870 C.3   1 <1>   0.0000 
 10 C        0.8680     4.0900    -0.3280 C.ar  1 <1>  -0.1500 
 11 C       -0.9970     4.6510     1.0890 C.ar  1 <1>  -0.1500 
 12 C        2.4920    -3.0980     0.0590 C.3   1 <1>  -0.1600 
 13 C        3.0930    -1.1390    -1.3470 C.3   1 <1>  -0.1600 
 14 C        0.7270    -2.0010    -1.4190 C.3   1 <1>  -0.0990 
 15 C       -0.0270     5.0260     0.1700 C.ar  1 <1>  -0.1500 
 16 C        3.8260    -2.9840     0.8190 C.3   1 <1>  -0.1600 
 17 C        4.4130    -0.9540    -0.5830 C.3   1 <1>  -0.1600 
 18 C       -0.3010    -3.0310    -0.9570 C.2   1 <1>   0.5690 
 19 C        4.9030    -2.2960    -0.0270 C.3   1 <1>  -0.1600 
 20 O       -0.0660    -4.1960    -1.1540 O.2   1 <1>  -0.5700 
 21 N       -1.4880    -2.7040    -0.3960 N.am  1 <1>  -0.7300 
 22 C       -2.0520    -1.3840    -0.0380 C.3   1 <1>   0.1400 
 23 C       -3.2520    -1.0460    -0.9180 C.3   1 <1>   0.0200 
 24 C       -3.7680     0.3400    -0.5710 C.2   1 <1>   0.0060 
 25 N       -4.7950     0.5200     0.1840 N.2   1 <1>  -0.5650 
 26 N       -3.1940     1.4970    -1.0130 N.pl3 1 <1>   0.0480 
 27 C       -4.9240     1.8720     0.2640 C.ar  1 <1>   0.2270 
 28 C       -3.9410     2.4980    -0.4780 C.ar  1 <1>  -0.1520 
 29 C       -2.0440     1.6890    -1.9170 C.3   1 <1>   0.0160 
 30 C       -5.8650     2.6300     0.9590 C.ar  1 <1>  -0.1500 
 31 C       -3.8760     3.8930    -0.5540 C.ar  1 <1>  -0.1500 
 32 C       -5.8040     4.0050     0.8920 C.ar  1 <1>  -0.1500 
 33 C       -4.8100     4.6350     0.1340 C.ar  1 <1>  -0.1500 
 34 H        1.5330     1.4120    -1.3440 H     1 <1>   0.0800 
 35 H        2.6220     1.6710     0.0350 H     1 <1>   0.0800 
 36 H        0.8840    -1.4320     1.3450 H     1 <1>   0.0800 
 37 H        2.4280    -0.6770     1.3450 H     1 <1>   0.0800 
 38 H       -1.8350     3.0290     2.2260 H     1 <1>   0.1500 
 39 H        1.6190     4.3840    -1.0410 H     1 <1>   0.1500 
 40 H       -1.6920     5.3810     1.4700 H     1 <1>   0.1500 
 41 H        2.6330    -3.7790    -0.7640 H     1 <1>   0.0800 
 42 H        1.7680    -3.5500     0.7160 H     1 <1>   0.0800 
 43 H        2.7990    -0.2110    -1.7900 H     1 <1>   0.0800 
 44 H        3.2960    -1.8050    -2.1690 H     1 <1>   0.0800 
 45 H        1.0910    -2.3760    -2.3580 H     1 <1>   0.0800 
 46 H        0.2390    -1.0750    -1.6460 H     1 <1>   0.0800 
 47 H        0.0320     6.0510    -0.1550 H     1 <1>   0.1500 
 48 H        4.1640    -3.9710     1.0840 H     1 <1>   0.0800 
 49 H        3.6860    -2.4410     1.7360 H     1 <1>   0.0800 
 50 H        4.2920    -0.2490     0.2200 H     1 <1>   0.0800 
 51 H        5.1600    -0.5580    -1.2500 H     1 <1>   0.0800 
 52 H        5.1670    -2.9410    -0.8480 H     1 <1>   0.0800 
 53 H        5.7880    -2.1440     0.5660 H     1 <1>   0.0800 
 54 H       -2.0650    -3.5050    -0.1300 H     1 <1>   0.3700 
 55 H       -1.3090    -0.6300    -0.1700 H     1 <1>   0.0800 
 56 H       -2.3460    -1.3850     0.9990 H     1 <1>   0.0800 
 57 H       -4.0350    -1.7620    -0.7410 H     1 <1>   0.0800 
 58 H       -2.9800    -1.0840    -1.9560 H     1 <1>   0.0800 
 59 H       -1.3670     0.8610    -1.8340 H     1 <1>   0.0800 
 60 H       -1.5290     2.5930    -1.6500 H     1 <1>   0.0800 
 61 H       -2.4010     1.7650    -2.9280 H     1 <1>   0.0800 
 62 H       -6.6150     2.1170     1.5300 H     1 <1>   0.1500 
 63 H       -3.1080     4.3700    -1.1360 H     1 <1>   0.1500 
 64 H       -6.5230     4.6040     1.4220 H     1 <1>   0.1500 
 65 H       -4.7840     5.7100     0.0950 H     1 <1>   0.1500 
@<TRIPOS>BOND
  1   1   2  2   
  2   2   3  am  
  3   2   4  1   
  4   3   5  1   
  5   3   6  1   
  6   4   7  ar  
  7   4   8  ar  
  8   5   7  1   
  9   5  34  1   
 10   5  35  1   
 11   6   9  1   
 12   6  36  1   
 13   6  37  1   
 14   7  10  ar  
 15   8  11  ar  
 16   8  38  1   
 17   9  12  1   
 18   9  13  1   
 19   9  14  1   
 20  10  15  ar  
 21  10  39  1   
 22  11  15  ar  
 23  11  40  1   
 24  12  16  1   
 25  12  41  1   
 26  12  42  1   
 27  13  17  1   
 28  13  43  1   
 29  13  44  1   
 30  14  18  1   
 31  14  45  1   
 32  14  46  1   
 33  15  47  1   
 34  16  19  1   
 35  16  48  1   
 36  16  49  1   
 37  17  19  1   
 38  17  50  1   
 39  17  51  1   
 40  18  20  2   
 41  18  21  am  
 42  19  52  1   
 43  19  53  1   
 44  21  22  1   
 45  21  54  1   
 46  22  23  1   
 47  22  55  1   
 48  22  56  1   
 49  23  24  1   
 50  23  57  1   
 51  23  58  1   
 52  24  25  2   
 53  24  26  1   
 54  25  27  1   
 55  26  28  1   
 56  26  29  1   
 57  27  28  ar  
 58  27  30  ar  
 59  28  31  ar  
 60  29  59  1   
 61  29  60  1   
 62  29  61  1   
 63  30  32  ar  
 64  30  62  1   
 65  31  33  ar  
 66  31  63  1   
 67  32  33  ar  
 68  32  64  1   
 69  33  65  1   
@<TRIPOS>SUBSTRUCTURE
  1 ****   2 GROUP 4 **** **** 0

# MOE 2024.06 (io_trps.svl 2023.06)
