@<TRIPOS>MOLECULE
NONAME
48 51 1 0 0 
SMALL
USER_CHARGES


@<TRIPOS>ATOM
  1 O        0.9970     0.1030    -1.9900 O.3   1 <1>  -0.6800 
  2 C        2.2450     0.1570    -1.3820 C.3   1 <1>   0.2000 
  3 C        2.4760    -1.0910    -0.5270 C.3   1 <1>  -0.0800 
  4 C        2.3410     1.3460    -0.4300 C.3   1 <1>   0.2090 
  5 C        3.0030    -0.5800     0.8220 C.3   1 <1>   0.2090 
  6 C        3.4580    -2.0560    -1.2110 C.3   1 <1>   0.0210 
  7 N        3.2060     0.8850     0.6840 N.pl3 1 <1>  -0.8380 
  8 C        3.6680    -3.3120    -0.3890 C.2   1 <1>   0.1080 
  9 C        4.5060     1.3530     0.6940 C.ar  1 <1>   0.4100 
 10 N        2.7520    -4.2190    -0.2460 N.2   1 <1>  -0.7070 
 11 C        4.8370    -3.6300     0.2940 C.2   1 <1>  -0.1500 
 12 N        5.3060     0.8300    -0.2310 N.ar  1 <1>  -0.6200 
 13 C        4.9200     2.3170     1.6210 C.ar  1 <1>   0.0730 
 14 N        3.3210    -5.1540     0.5390 N.pl3 1 <1>   0.3000 
 15 C        4.5830    -4.8190     0.8810 C.2   1 <1>  -0.3320 
 16 C        6.5580     1.2500    -0.2470 C.ar  1 <1>   0.1670 
 17 C        4.0100     2.8570     2.5840 C.1   1 <1>   0.4840 
 18 C        6.2340     2.7410     1.5830 C.ar  1 <1>  -0.1500 
 19 C        5.4840    -5.6680     1.7590 C.3   1 <1>  -0.0600 
 20 C        7.0720     2.1990     0.6300 C.ar  1 <1>  -0.1430 
 21 C        7.4270     0.6260    -1.3310 C.3   1 <1>  -0.0170 
 22 N        3.3400     3.3380     3.3730 N.1   1 <1>  -0.5570 
 23 C        8.5270     2.6510     0.5870 C.3   1 <1>  -0.0170 
 24 C        8.9310     0.8470    -1.1170 C.3   1 <1>  -0.1600 
 25 C        9.2100     2.3050    -0.7410 C.3   1 <1>  -0.1600 
 26 H        0.9030    -0.7310    -2.4900 H     1 <1>   0.4000 
 27 H        2.9960     0.2570    -2.1460 H     1 <1>   0.0800 
 28 H        1.5480    -1.6050    -0.3450 H     1 <1>   0.0800 
 29 H        1.3700     1.5960    -0.0390 H     1 <1>   0.0800 
 30 H        2.7690     2.2000    -0.9260 H     1 <1>   0.0800 
 31 H        3.9220    -1.0650     1.1050 H     1 <1>   0.0800 
 32 H        2.2730    -0.7610     1.5920 H     1 <1>   0.0800 
 33 H        4.4050    -1.5690    -1.3640 H     1 <1>   0.0800 
 34 H        3.0720    -2.3450    -2.1710 H     1 <1>   0.0800 
 35 H        5.7310    -3.0340     0.3270 H     1 <1>   0.1500 
 36 H        2.8230    -6.0060     0.8210 H     1 <1>   0.2700 
 37 H        6.5910     3.4780     2.2820 H     1 <1>   0.1500 
 38 H        6.4380    -5.1870     1.8830 H     1 <1>   0.0800 
 39 H        5.6420    -6.6310     1.3090 H     1 <1>   0.0800 
 40 H        5.0390    -5.8010     2.7290 H     1 <1>   0.0800 
 41 H        7.2290    -0.4300    -1.3790 H     1 <1>   0.0800 
 42 H        7.1350     1.0560    -2.2730 H     1 <1>   0.0800 
 43 H        8.5860     3.7140     0.7450 H     1 <1>   0.0800 
 44 H        9.0560     2.1680     1.3900 H     1 <1>   0.0800 
 45 H        9.2770     0.2020    -0.3280 H     1 <1>   0.0800 
 46 H        9.4630     0.5890    -2.0160 H     1 <1>   0.0800 
 47 H        8.8380     2.9540    -1.5160 H     1 <1>   0.0800 
 48 H       10.2710     2.4650    -0.6530 H     1 <1>   0.0800 
@<TRIPOS>BOND
  1   1   2  1   
  2   1  26  1   
  3   2   3  1   
  4   2   4  1   
  5   2  27  1   
  6   3   5  1   
  7   3   6  1   
  8   3  28  1   
  9   4   7  1   
 10   4  29  1   
 11   4  30  1   
 12   5   7  1   
 13   5  31  1   
 14   5  32  1   
 15   6   8  1   
 16   6  33  1   
 17   6  34  1   
 18   7   9  1   
 19   8  10  2   
 20   8  11  1   
 21   9  12  ar  
 22   9  13  ar  
 23  10  14  1   
 24  11  15  2   
 25  11  35  1   
 26  12  16  ar  
 27  13  17  1   
 28  13  18  ar  
 29  14  15  1   
 30  14  36  1   
 31  15  19  1   
 32  16  20  ar  
 33  16  21  1   
 34  17  22  3   
 35  18  20  ar  
 36  18  37  1   
 37  19  38  1   
 38  19  39  1   
 39  19  40  1   
 40  20  23  1   
 41  21  24  1   
 42  21  41  1   
 43  21  42  1   
 44  23  25  1   
 45  23  43  1   
 46  23  44  1   
 47  24  25  1   
 48  24  45  1   
 49  24  46  1   
 50  25  47  1   
 51  25  48  1   
@<TRIPOS>SUBSTRUCTURE
  1 ****  12 GROUP 4 **** **** 0

# MOE 2024.06 (io_trps.svl 2023.06)
