@<TRIPOS>MOLECULE
NONAME
55 56 1 0 0 
SMALL
USER_CHARGES


@<TRIPOS>ATOM
  1 N       -0.2120    -0.4160    -0.7430 N.ar  1 <1>  -0.6200 
  2 C       -0.1650    -1.6610    -1.1460 C.ar  1 <1>   0.7710 
  3 C        0.9310     0.2240    -0.5790 C.ar  1 <1>   0.4100 
  4 N        0.9810    -2.3070    -1.4270 N.ar  1 <1>  -0.1790 
  5 N       -1.3650    -2.2450    -1.2400 N.pl3 1 <1>  -0.8690 
  6 N        0.8390     1.4900    -0.1030 N.pl3 1 <1>  -0.8380 
  7 C        2.1780    -0.3830    -0.8850 C.ar  1 <1>  -0.1430 
  8 C        2.1720    -1.6710    -1.3110 C.ar  1 <1>   0.2110 
  9 C       -1.8400    -3.6650    -1.3380 C.3   1 <1>   0.2090 
 10 C       -0.1620     2.4590    -0.6360 C.3   1 <1>   0.1290 
 11 C        1.5380     1.9570     1.1270 C.3   1 <1>   0.1290 
 12 C        3.4950     0.3860    -0.7890 C.3   1 <1>  -0.0970 
 13 C       -2.5660    -4.2000    -0.0480 C.3   1 <1>   0.5030 
 14 N       -3.6590    -3.2750     0.4620 N.4   1 <1>  -0.9590 
 15 C       -3.2460    -5.5540    -0.3670 C.3   1 <1>  -0.1600 
 16 C       -1.5370    -4.4270     1.0900 C.3   1 <1>  -0.1600 
 17 C       -4.6520    -2.8640    -0.5780 C.3   1 <1>   0.3430 
 18 C       -3.1960    -2.0780     1.2590 C.3   1 <1>   0.2630 
 19 C       -2.2610    -6.7020    -0.6470 C.3   1 <1>  -0.1600 
 20 C       -0.5480    -5.5800     0.8410 C.3   1 <1>  -0.1600 
 21 C       -5.9830    -2.5310     0.0860 C.3   1 <1>  -0.2400 
 22 C       -1.2820    -6.8830     0.5160 C.3   1 <1>  -0.1600 
 23 H        0.9160    -3.2550    -1.7800 H     1 <1>   0.4570 
 24 H       -2.1180    -1.5550    -1.1550 H     1 <1>   0.4000 
 25 H        3.0760    -2.2020    -1.5700 H     1 <1>   0.1500 
 26 H       -1.0120    -4.3080    -1.5710 H     1 <1>   0.0800 
 27 H       -2.5170    -3.7370    -2.1720 H     1 <1>   0.0800 
 28 H       -0.5770     2.1010    -1.5630 H     1 <1>   0.0800 
 29 H        0.3090     3.4090    -0.8180 H     1 <1>   0.0800 
 30 H       -0.9590     2.5910     0.0750 H     1 <1>   0.0800 
 31 H        2.0270     1.1350     1.6190 H     1 <1>   0.0800 
 32 H        0.8280     2.3870     1.8120 H     1 <1>   0.0800 
 33 H        2.2700     2.7040     0.8700 H     1 <1>   0.0800 
 34 H        3.3810     1.3690    -1.2150 H     1 <1>   0.0800 
 35 H        4.2820    -0.1160    -1.3240 H     1 <1>   0.0800 
 36 H        3.7980     0.4890     0.2370 H     1 <1>   0.0800 
 37 H       -4.1890    -3.8580     1.1250 H     1 <1>   0.4500 
 38 H       -3.8930    -5.4660    -1.2210 H     1 <1>   0.0800 
 39 H       -3.8520    -5.8510     0.4720 H     1 <1>   0.0800 
 40 H       -2.0670    -4.6580     1.9990 H     1 <1>   0.0800 
 41 H       -0.9610    -3.5350     1.2610 H     1 <1>   0.0800 
 42 H       -4.8170    -3.6670    -1.2770 H     1 <1>   0.0800 
 43 H       -4.2900    -2.0110    -1.1280 H     1 <1>   0.0800 
 44 H       -2.6030    -1.4140     0.6540 H     1 <1>   0.0800 
 45 H       -2.6060    -2.3900     2.1050 H     1 <1>   0.0800 
 46 H       -4.0420    -1.5270     1.6360 H     1 <1>   0.0800 
 47 H       -1.7160    -6.5260    -1.5580 H     1 <1>   0.0800 
 48 H       -2.8130    -7.6190    -0.7820 H     1 <1>   0.0800 
 49 H        0.0510    -5.7320     1.7250 H     1 <1>   0.0800 
 50 H        0.1290    -5.3420     0.0400 H     1 <1>   0.0800 
 51 H       -6.3510    -3.3670     0.6530 H     1 <1>   0.0800 
 52 H       -6.7080    -2.3070    -0.6770 H     1 <1>   0.0800 
 53 H       -5.9080    -1.6660     0.7200 H     1 <1>   0.0800 
 54 H       -0.5680    -7.6520     0.2710 H     1 <1>   0.0800 
 55 H       -1.8220    -7.2170     1.3880 H     1 <1>   0.0800 
@<TRIPOS>BOND
  1   1   2  ar  
  2   1   3  ar  
  3   2   4  ar  
  4   2   5  1   
  5   3   6  1   
  6   3   7  ar  
  7   4   8  ar  
  8   4  23  1   
  9   5   9  1   
 10   5  24  1   
 11   6  10  1   
 12   6  11  1   
 13   7   8  ar  
 14   7  12  1   
 15   8  25  1   
 16   9  13  1   
 17   9  26  1   
 18   9  27  1   
 19  10  28  1   
 20  10  29  1   
 21  10  30  1   
 22  11  31  1   
 23  11  32  1   
 24  11  33  1   
 25  12  34  1   
 26  12  35  1   
 27  12  36  1   
 28  13  14  1   
 29  13  15  1   
 30  13  16  1   
 31  14  17  1   
 32  14  18  1   
 33  14  37  1   
 34  15  19  1   
 35  15  38  1   
 36  15  39  1   
 37  16  20  1   
 38  16  40  1   
 39  16  41  1   
 40  17  21  1   
 41  17  42  1   
 42  17  43  1   
 43  18  44  1   
 44  18  45  1   
 45  18  46  1   
 46  19  22  1   
 47  19  47  1   
 48  19  48  1   
 49  20  22  1   
 50  20  49  1   
 51  20  50  1   
 52  21  51  1   
 53  21  52  1   
 54  21  53  1   
 55  22  54  1   
 56  22  55  1   
@<TRIPOS>SUBSTRUCTURE
  1 ****   5 GROUP 4 **** **** 0

# MOE 2024.06 (io_trps.svl 2023.06)
