@<TRIPOS>MOLECULE
NONAME
53 56 1 0 0 
SMALL
USER_CHARGES


@<TRIPOS>ATOM
  1 O        1.6950     0.0630    -0.5940 O.3   1 <1>  -0.5600 
  2 C        2.6360    -0.9920    -0.6160 C.3   1 <1>   0.4240 
  3 C        0.4280    -0.1880    -1.1340 C.3   1 <1>   0.1200 
  4 C        1.9800    -2.3710    -0.4070 C.ar  1 <1>  -0.1440 
  5 C        3.6100    -0.6950     0.5320 C.3   1 <1>  -0.1600 
  6 C        3.3930    -0.9020    -1.9550 C.3   1 <1>  -0.1600 
  7 C       -0.2660    -1.2660    -0.3080 C.3   1 <1>  -0.0160 
  8 C        0.6080    -2.5020    -0.2550 C.ar  1 <1>  -0.1440 
  9 C        2.7570    -3.5210    -0.3600 C.ar  1 <1>  -0.1500 
 10 C        4.2750     0.6800     0.4210 C.3   1 <1>   0.3430 
 11 C        4.4140     0.2410    -2.0150 C.3   1 <1>   0.3430 
 12 C        0.0360    -3.7480    -0.0570 C.ar  1 <1>  -0.1500 
 13 C        2.2070    -4.7770    -0.1680 C.ar  1 <1>   0.0830 
 14 N        4.1290     1.2430    -0.9570 N.4   1 <1>  -0.9590 
 15 C        0.8160    -4.9010    -0.0090 C.ar  1 <1>   0.0830 
 16 O        3.1340    -5.7800    -0.1570 O.3   1 <1>  -0.3630 
 17 C        4.8390     2.5350    -1.1450 C.3   1 <1>   0.4860 
 18 O        0.2460    -6.1270     0.1900 O.3   1 <1>  -0.3630 
 19 C        2.8070    -7.1440    -0.0240 C.3   1 <1>   0.0400 
 20 C        4.3440     3.5270    -0.1090 C.ar  1 <1>  -0.1430 
 21 C       -1.1370    -6.2950     0.4180 C.3   1 <1>   0.0400 
 22 C        3.0540     4.0240    -0.1260 C.ar  1 <1>  -0.1500 
 23 C        5.1610     3.9780     0.9110 C.ar  1 <1>  -0.1500 
 24 C        2.6510     4.9110     0.8580 C.ar  1 <1>   0.1600 
 25 C        4.6590     4.8690     1.8450 C.ar  1 <1>   0.1600 
 26 N        3.4230     5.3370     1.8420 N.ar  1 <1>  -0.6200 
 27 H        0.5320    -0.5010    -2.1580 H     1 <1>   0.0800 
 28 H       -0.1360     0.7280    -1.1000 H     1 <1>   0.0800 
 29 H        4.3820    -1.4410     0.5520 H     1 <1>   0.0800 
 30 H        3.0890    -0.7680     1.4700 H     1 <1>   0.0800 
 31 H        2.6940    -0.8120    -2.7650 H     1 <1>   0.0800 
 32 H        3.9310    -1.8160    -2.1300 H     1 <1>   0.0800 
 33 H       -1.2140    -1.4990    -0.7580 H     1 <1>   0.0800 
 34 H       -0.4460    -0.9020     0.6880 H     1 <1>   0.0800 
 35 H        3.8230    -3.4720    -0.4710 H     1 <1>   0.1500 
 36 H        5.3160     0.5990     0.6860 H     1 <1>   0.0800 
 37 H        3.8020     1.3500     1.1230 H     1 <1>   0.0800 
 38 H        4.3740     0.7010    -2.9900 H     1 <1>   0.0800 
 39 H        5.4060    -0.1570    -1.8710 H     1 <1>   0.0800 
 40 H       -1.0280    -3.7990     0.0590 H     1 <1>   0.1500 
 41 H        3.1110     1.4280    -1.0210 H     1 <1>   0.4500 
 42 H        4.6450     2.9240    -2.1310 H     1 <1>   0.0800 
 43 H        5.9020     2.3930    -1.0370 H     1 <1>   0.0800 
 44 H        3.7160    -7.7150    -0.0770 H     1 <1>   0.0800 
 45 H        2.1510    -7.4250    -0.8290 H     1 <1>   0.0800 
 46 H        2.3330    -7.2980     0.9290 H     1 <1>   0.0800 
 47 H       -1.3230    -7.3430     0.5720 H     1 <1>   0.0800 
 48 H       -1.6780    -5.9530    -0.4450 H     1 <1>   0.0800 
 49 H       -1.4160    -5.7430     1.2980 H     1 <1>   0.0800 
 50 H        2.3490     3.7390    -0.8870 H     1 <1>   0.1500 
 51 H        6.1830     3.6560     0.9990 H     1 <1>   0.1500 
 52 H        1.6430     5.2920     0.8360 H     1 <1>   0.1500 
 53 H        5.3040     5.2160     2.6360 H     1 <1>   0.1500 
@<TRIPOS>BOND
  1   1   2  1   
  2   1   3  1   
  3   2   4  1   
  4   2   5  1   
  5   2   6  1   
  6   3   7  1   
  7   3  27  1   
  8   3  28  1   
  9   4   8  ar  
 10   4   9  ar  
 11   5  10  1   
 12   5  29  1   
 13   5  30  1   
 14   6  11  1   
 15   6  31  1   
 16   6  32  1   
 17   7   8  1   
 18   7  33  1   
 19   7  34  1   
 20   8  12  ar  
 21   9  13  ar  
 22   9  35  1   
 23  10  14  1   
 24  10  36  1   
 25  10  37  1   
 26  11  14  1   
 27  11  38  1   
 28  11  39  1   
 29  12  15  ar  
 30  12  40  1   
 31  13  15  ar  
 32  13  16  1   
 33  14  17  1   
 34  14  41  1   
 35  15  18  1   
 36  16  19  1   
 37  17  20  1   
 38  17  42  1   
 39  17  43  1   
 40  18  21  1   
 41  19  44  1   
 42  19  45  1   
 43  19  46  1   
 44  20  22  ar  
 45  20  23  ar  
 46  21  47  1   
 47  21  48  1   
 48  21  49  1   
 49  22  24  ar  
 50  22  50  1   
 51  23  25  ar  
 52  23  51  1   
 53  24  26  ar  
 54  24  52  1   
 55  25  26  ar  
 56  25  53  1   
@<TRIPOS>SUBSTRUCTURE
  1 ****   2 GROUP 4 **** **** 0

# MOE 2024.06 (io_trps.svl 2023.06)
