@<TRIPOS>MOLECULE
NONAME
53 56 1 0 0 
SMALL
USER_CHARGES


@<TRIPOS>ATOM
  1 O       -3.0840     2.2910    -2.3400 O.2   1 <1>  -0.5700 
  2 C       -2.7690     1.8990    -1.2280 C.2   1 <1>   0.5440 
  3 N       -3.4280     0.7900    -0.7300 N.am  1 <1>  -0.6600 
  4 C       -1.7960     2.6440    -0.4380 C.ar  1 <1>   0.3960 
  5 C       -4.8290     0.4870    -1.1680 C.3   1 <1>   0.1400 
  6 C       -2.8310    -0.1030     0.3100 C.3   1 <1>   0.1400 
  7 N       -0.5640     2.1060    -0.3220 N.ar  1 <1>  -0.6200 
  8 C       -2.1280     3.8770     0.1790 C.ar  1 <1>   0.0830 
  9 C       -5.5990    -0.1100     0.0120 C.3   1 <1>   0.2200 
 10 C       -3.4650    -1.5040     0.2650 C.3   1 <1>  -0.1600 
 11 C        0.3420     2.7920     0.3430 C.ar  1 <1>   0.1600 
 12 O       -3.3400     4.5040     0.2050 O.3   1 <1>  -0.3620 
 13 C       -1.1460     4.5670     0.8650 C.ar  1 <1>  -0.1500 
 14 N       -7.0600    -0.1330    -0.2410 N.am  1 <1>  -0.7300 
 15 C       -5.0090    -1.4920     0.3630 C.3   1 <1>   0.2000 
 16 C        0.1090     4.0140     0.9440 C.ar  1 <1>  -0.1500 
 17 C       -4.5710     3.9250    -0.1780 C.3   1 <1>   0.1200 
 18 C       -7.9840     0.0870     0.7210 C.2   1 <1>   0.5690 
 19 O       -5.5030    -2.4530    -0.5300 O.3   1 <1>  -0.5600 
 20 C       -5.7220     4.8250     0.2590 C.3   1 <1>   0.0960 
 21 O       -7.7010     0.0660     1.8960 O.2   1 <1>  -0.5700 
 22 C       -9.4010     0.4260     0.3120 C.3   1 <1>  -0.0990 
 23 C       -5.5870    -3.7430    -0.0130 C.3   1 <1>   0.0400 
 24 N       -6.9840     4.1060     0.0270 N.pl3 1 <1>   0.3140 
 25 C       -9.7370     1.8750     0.7000 C.3   1 <1>   0.0210 
 26 N       -7.5110     3.9310    -1.1890 N.2   1 <1>  -0.4180 
 27 C       -7.6980     3.4210     0.9200 C.2   1 <1>  -0.3020 
 28 C       -8.6640     2.8280     0.2060 C.2   1 <1>   0.0460 
 29 N       -8.5370     3.1590    -1.0830 N.2   1 <1>  -0.2270 
 30 H       -5.3120     1.3900    -1.5000 H     1 <1>   0.0800 
 31 H       -4.8000    -0.2130    -1.9860 H     1 <1>   0.0800 
 32 H       -1.7710    -0.1910     0.1410 H     1 <1>   0.0800 
 33 H       -2.9830     0.3360     1.2810 H     1 <1>   0.0800 
 34 H       -5.4370     0.5410     0.8540 H     1 <1>   0.0800 
 35 H       -3.0650    -2.0950     1.0670 H     1 <1>   0.0800 
 36 H       -3.1670    -1.9630    -0.6620 H     1 <1>   0.0800 
 37 H        1.3270     2.3610     0.4150 H     1 <1>   0.1500 
 38 H       -1.3680     5.5130     1.3260 H     1 <1>   0.1500 
 39 H       -7.3340    -0.2360    -1.2190 H     1 <1>   0.3700 
 40 H       -5.3290    -1.7380     1.3620 H     1 <1>   0.0800 
 41 H        0.9020     4.5200     1.4660 H     1 <1>   0.1500 
 42 H       -4.5870     3.8260    -1.2490 H     1 <1>   0.0800 
 43 H       -4.6570     2.9690     0.3050 H     1 <1>   0.0800 
 44 H       -5.7280     5.7300    -0.3200 H     1 <1>   0.0800 
 45 H       -5.6420     5.0570     1.3040 H     1 <1>   0.0800 
 46 H       -9.5070     0.3080    -0.7500 H     1 <1>   0.0800 
 47 H      -10.0780    -0.2500     0.8000 H     1 <1>   0.0800 
 48 H       -5.9600    -4.3900    -0.7870 H     1 <1>   0.0800 
 49 H       -6.2680    -3.7460     0.8210 H     1 <1>   0.0800 
 50 H       -4.6090    -4.0720     0.2940 H     1 <1>   0.0800 
 51 H       -9.7970     1.9470     1.7720 H     1 <1>   0.0800 
 52 H      -10.6900     2.1590     0.2900 H     1 <1>   0.0800 
 53 H       -7.4760     3.3740     1.9700 H     1 <1>   0.1500 
@<TRIPOS>BOND
  1   1   2  2   
  2   2   3  am  
  3   2   4  1   
  4   3   5  1   
  5   3   6  1   
  6   4   7  ar  
  7   4   8  ar  
  8   5   9  1   
  9   5  30  1   
 10   5  31  1   
 11   6  10  1   
 12   6  32  1   
 13   6  33  1   
 14   7  11  ar  
 15   8  12  1   
 16   8  13  ar  
 17   9  14  1   
 18   9  15  1   
 19   9  34  1   
 20  10  15  1   
 21  10  35  1   
 22  10  36  1   
 23  11  16  ar  
 24  11  37  1   
 25  12  17  1   
 26  13  16  ar  
 27  13  38  1   
 28  14  18  am  
 29  14  39  1   
 30  15  19  1   
 31  15  40  1   
 32  16  41  1   
 33  17  20  1   
 34  17  42  1   
 35  17  43  1   
 36  18  21  2   
 37  18  22  1   
 38  19  23  1   
 39  20  24  1   
 40  20  44  1   
 41  20  45  1   
 42  22  25  1   
 43  22  46  1   
 44  22  47  1   
 45  23  48  1   
 46  23  49  1   
 47  23  50  1   
 48  24  26  1   
 49  24  27  1   
 50  25  28  1   
 51  25  51  1   
 52  25  52  1   
 53  26  29  2   
 54  27  28  2   
 55  27  53  1   
 56  28  29  1   
@<TRIPOS>SUBSTRUCTURE
  1 ****   5 GROUP 4 **** **** 0

# MOE 2024.06 (io_trps.svl 2023.06)
