@<TRIPOS>MOLECULE
NONAME
48 52 1 0 0 
SMALL
USER_CHARGES


@<TRIPOS>ATOM
  1 S        1.7770     0.8060     0.8520 S.3   1 <1>  -0.0800 
  2 C        0.1770     1.3220     0.3400 C.2   1 <1>  -0.1400 
  3 C        1.2950    -0.8830     0.7610 C.2   1 <1>  -0.1100 
  4 C       -0.6210     0.2640     0.1420 C.2   1 <1>  -0.1810 
  5 C       -0.1990     2.7880     0.1600 C.3   1 <1>   0.4600 
  6 C        0.0100    -0.9980     0.3740 C.2   1 <1>  -0.1500 
  7 C       -2.0540     0.4830    -0.2900 C.3   1 <1>   0.0210 
  8 O       -1.4910     2.8540    -0.4160 O.3   1 <1>  -0.5600 
  9 C        0.7450     3.4710    -0.8360 C.3   1 <1>  -0.1600 
 10 C       -0.2110     3.5400     1.5010 C.3   1 <1>  -0.1600 
 11 C       -2.4620     1.9350     0.0300 C.3   1 <1>   0.1200 
 12 C        0.4200     4.9580    -0.9830 C.3   1 <1>   0.1400 
 13 C       -0.5160     5.0270     1.3110 C.3   1 <1>   0.1400 
 14 N        0.4750     5.5940     0.3580 N.am  1 <1>  -0.6600 
 15 C        1.4060     6.5220     0.7640 C.2   1 <1>   0.6300 
 16 O        1.2980     7.0880     1.8290 O.2   1 <1>  -0.5700 
 17 C        2.6200     6.8670    -0.1200 C.3   1 <1>   0.0320 
 18 C        3.5680     5.6820    -0.3240 C.ar  1 <1>  -0.0320 
 19 C        3.2760     8.2150     0.0220 C.3   1 <1>  -0.2000 
 20 C        2.4540     7.9190    -1.1880 C.3   1 <1>  -0.2000 
 21 C        4.2140     5.0810     0.7490 C.ar  1 <1>   0.1900 
 22 C        3.8050     5.1530    -1.5880 C.ar  1 <1>  -0.1500 
 23 F        4.0410     5.5470     1.9570 F     1 <1>  -0.1900 
 24 C        5.0510     3.9900     0.6030 C.ar  1 <1>  -0.1500 
 25 C        4.6430     4.0610    -1.7550 C.ar  1 <1>  -0.1500 
 26 C        5.2640     3.4760    -0.6630 C.ar  1 <1>  -0.1500 
 27 H        2.0360    -1.6210     1.0110 H     1 <1>   0.1500 
 28 H       -0.5240    -1.9230     0.2400 H     1 <1>   0.1500 
 29 H       -2.7050    -0.1930     0.2330 H     1 <1>   0.0800 
 30 H       -2.1470     0.3010    -1.3450 H     1 <1>   0.0800 
 31 H        0.6700     2.9790    -1.7890 H     1 <1>   0.0800 
 32 H        1.7590     3.3710    -0.4970 H     1 <1>   0.0800 
 33 H        0.7560     3.4520     1.9620 H     1 <1>   0.0800 
 34 H       -0.9210     3.0970     2.1710 H     1 <1>   0.0800 
 35 H       -2.5910     2.0620     1.0900 H     1 <1>   0.0800 
 36 H       -3.3890     2.1750    -0.4600 H     1 <1>   0.0800 
 37 H       -0.5730     5.0760    -1.3850 H     1 <1>   0.0800 
 38 H        1.1030     5.4270    -1.6650 H     1 <1>   0.0800 
 39 H       -0.4670     5.5320     2.2620 H     1 <1>   0.0800 
 40 H       -1.5080     5.1580     0.9130 H     1 <1>   0.0800 
 41 H        4.3470     8.2710    -0.0710 H     1 <1>   0.1000 
 42 H        2.8940     8.8940     0.7650 H     1 <1>   0.1000 
 43 H        1.4980     8.4040    -1.2830 H     1 <1>   0.1000 
 44 H        2.9690     7.8380    -2.1270 H     1 <1>   0.1000 
 45 H        3.3350     5.5820    -2.4530 H     1 <1>   0.1500 
 46 H        5.5220     3.5560     1.4670 H     1 <1>   0.1500 
 47 H        4.8130     3.6620    -2.7410 H     1 <1>   0.1500 
 48 H        5.9110     2.6260    -0.7990 H     1 <1>   0.1500 
@<TRIPOS>BOND
  1   1   2  1   
  2   1   3  1   
  3   2   4  2   
  4   2   5  1   
  5   3   6  2   
  6   3  27  1   
  7   4   6  1   
  8   4   7  1   
  9   5   8  1   
 10   5   9  1   
 11   5  10  1   
 12   6  28  1   
 13   7  11  1   
 14   7  29  1   
 15   7  30  1   
 16   8  11  1   
 17   9  12  1   
 18   9  31  1   
 19   9  32  1   
 20  10  13  1   
 21  10  33  1   
 22  10  34  1   
 23  11  35  1   
 24  11  36  1   
 25  12  14  1   
 26  12  37  1   
 27  12  38  1   
 28  13  14  1   
 29  13  39  1   
 30  13  40  1   
 31  14  15  am  
 32  15  16  2   
 33  15  17  1   
 34  17  18  1   
 35  17  19  1   
 36  17  20  1   
 37  18  21  ar  
 38  18  22  ar  
 39  19  20  1   
 40  19  41  1   
 41  19  42  1   
 42  20  43  1   
 43  20  44  1   
 44  21  23  1   
 45  21  24  ar  
 46  22  25  ar  
 47  22  45  1   
 48  24  26  ar  
 49  24  46  1   
 50  25  26  ar  
 51  25  47  1   
 52  26  48  1   
@<TRIPOS>SUBSTRUCTURE
  1 ****   9 GROUP 4 **** **** 0

# MOE 2024.06 (io_trps.svl 2023.06)
