@<TRIPOS>MOLECULE
NONAME
50 52 1 0 0 
SMALL
USER_CHARGES


@<TRIPOS>ATOM
  1 CL      -0.7230    -0.4440    -0.9510 Cl    1 <1>  -0.1770 
  2 C       -0.4720    -2.0490    -0.3090 C.ar  1 <1>   0.1770 
  3 C        0.7480    -2.6860    -0.4750 C.ar  1 <1>  -0.1440 
  4 C       -1.5180    -2.6540     0.3610 C.ar  1 <1>  -0.1500 
  5 C        0.8990    -3.9580     0.0530 C.ar  1 <1>  -0.1500 
  6 C        1.8970    -2.0140    -1.2110 C.3   1 <1>  -0.0960 
  7 C       -1.3770    -3.9320     0.8850 C.ar  1 <1>  -0.0090 
  8 C       -0.1490    -4.5670     0.7240 C.ar  1 <1>  -0.1500 
  9 S       -2.7440    -4.7380     1.7620 S.o2  1 <1>   1.4470 
 10 O       -2.6130    -6.1820     1.6990 O.2   1 <1>  -0.6500 
 11 O       -2.9660    -4.0990     3.0380 O.2   1 <1>  -0.6500 
 12 N       -4.0950    -4.3940     0.7900 N.am  1 <1>  -0.8490 
 13 C       -4.1730    -5.2670    -0.4040 C.3   1 <1>   0.1960 
 14 C       -5.3400    -4.3350     1.5960 C.3   1 <1>   0.1960 
 15 C       -5.0450    -6.4960    -0.0730 C.3   1 <1>   0.4230 
 16 C       -6.5950    -4.6880     0.7760 C.3   1 <1>  -0.1600 
 17 N       -4.8120    -7.7800    -0.8330 N.4   1 <1>  -0.9590 
 18 C       -6.5320    -6.0990     0.1120 C.3   1 <1>   0.0000 
 19 C       -5.8700    -8.8060    -0.5460 C.3   1 <1>   0.3430 
 20 C       -4.6260    -7.5920    -2.3060 C.3   1 <1>   0.2630 
 21 C       -7.1380    -7.1810     1.0430 C.3   1 <1>  -0.1600 
 22 C       -7.3780    -6.0450    -1.1900 C.3   1 <1>   0.1200 
 23 C       -6.5210    -8.5900     0.8330 C.3   1 <1>  -0.1600 
 24 O       -6.7250    -5.3410    -2.1900 O.3   1 <1>  -0.6800 
 25 H       -2.4470    -2.1220     0.4720 H     1 <1>   0.1500 
 26 H        1.8360    -4.4800    -0.0520 H     1 <1>   0.1500 
 27 H        2.7630    -2.6500    -1.2440 H     1 <1>   0.0800 
 28 H        2.1670    -1.0990    -0.7140 H     1 <1>   0.0800 
 29 H        1.6040    -1.7840    -2.2200 H     1 <1>   0.0800 
 30 H       -0.0060    -5.5540     1.1320 H     1 <1>   0.1500 
 31 H       -4.6020    -4.7040    -1.2130 H     1 <1>   0.0800 
 32 H       -3.1850    -5.5730    -0.7050 H     1 <1>   0.0800 
 33 H       -5.2750    -5.0240     2.4240 H     1 <1>   0.0800 
 34 H       -5.4380    -3.3450     2.0130 H     1 <1>   0.0800 
 35 H       -4.7260    -6.7380     0.9270 H     1 <1>   0.0800 
 36 H       -7.4650    -4.6110     1.4060 H     1 <1>   0.0800 
 37 H       -6.6970    -3.9220     0.0260 H     1 <1>   0.0800 
 38 H       -3.9280    -8.1470    -0.4490 H     1 <1>   0.4500 
 39 H       -6.6390    -8.7470    -1.2990 H     1 <1>   0.0800 
 40 H       -5.4420    -9.7940    -0.5950 H     1 <1>   0.0800 
 41 H       -5.5370    -7.2410    -2.7600 H     1 <1>   0.0800 
 42 H       -4.3510    -8.5250    -2.7700 H     1 <1>   0.0800 
 43 H       -3.8490    -6.8720    -2.5010 H     1 <1>   0.0800 
 44 H       -6.9780    -6.9090     2.0740 H     1 <1>   0.0800 
 45 H       -8.2050    -7.2270     0.9040 H     1 <1>   0.0800 
 46 H       -8.3160    -5.5510    -0.9960 H     1 <1>   0.0800 
 47 H       -7.5960    -7.0250    -1.5730 H     1 <1>   0.0800 
 48 H       -7.2860    -9.3340     0.9790 H     1 <1>   0.0800 
 49 H       -5.7740    -8.7680     1.5880 H     1 <1>   0.0800 
 50 H       -7.3650    -5.0100    -2.8580 H     1 <1>   0.4000 
@<TRIPOS>BOND
  1   1   2  1   
  2   2   3  ar  
  3   2   4  ar  
  4   3   5  ar  
  5   3   6  1   
  6   4   7  ar  
  7   4  25  1   
  8   5   8  ar  
  9   5  26  1   
 10   6  27  1   
 11   6  28  1   
 12   6  29  1   
 13   7   8  ar  
 14   7   9  1   
 15   8  30  1   
 16   9  10  2   
 17   9  11  2   
 18   9  12  am  
 19  12  13  1   
 20  12  14  1   
 21  13  15  1   
 22  13  31  1   
 23  13  32  1   
 24  14  16  1   
 25  14  33  1   
 26  14  34  1   
 27  15  17  1   
 28  15  18  1   
 29  15  35  1   
 30  16  18  1   
 31  16  36  1   
 32  16  37  1   
 33  17  19  1   
 34  17  20  1   
 35  17  38  1   
 36  18  21  1   
 37  18  22  1   
 38  19  23  1   
 39  19  39  1   
 40  19  40  1   
 41  20  41  1   
 42  20  42  1   
 43  20  43  1   
 44  21  23  1   
 45  21  44  1   
 46  21  45  1   
 47  22  24  1   
 48  22  46  1   
 49  22  47  1   
 50  23  48  1   
 51  23  49  1   
 52  24  50  1   
@<TRIPOS>SUBSTRUCTURE
  1 ****  13 GROUP 4 **** **** 0

# MOE 2024.06 (io_trps.svl 2023.06)
