@<TRIPOS>MOLECULE
NONAME
49 50 1 0 0 
SMALL
USER_CHARGES


@<TRIPOS>ATOM
  1 F        4.2350     2.8240    -4.2720 F     1 <1>  -0.1900 
  2 C        4.5800     2.8040    -3.0130 C.ar  1 <1>   0.1900 
  3 C        5.7350     2.1390    -2.6500 C.ar  1 <1>  -0.1500 
  4 C        3.7800     3.4480    -2.0910 C.ar  1 <1>  -0.1500 
  5 C        6.0990     2.1230    -1.3130 C.ar  1 <1>  -0.1500 
  6 C        4.1540     3.4240    -0.7590 C.ar  1 <1>  -0.1500 
  7 C        5.3140     2.7630    -0.3590 C.ar  1 <1>  -0.1430 
  8 C        5.7630     2.7590     1.1080 C.3   1 <1>   0.3950 
  9 N        4.6070     2.5160     2.0440 N.3   1 <1>  -0.8100 
 10 C        6.4880     4.0920     1.3690 C.2   1 <1>   0.5690 
 11 C        5.0620     2.4510     3.4450 C.3   1 <1>   0.0300 
 12 C        3.9020     1.2610     1.7240 C.3   1 <1>   0.0300 
 13 O        7.6940     4.1440     1.2710 O.2   1 <1>  -0.5700 
 14 N        5.7140     5.1680     1.7090 N.am  1 <1>  -0.4940 
 15 C        6.0290     6.5390     1.8420 C.2   1 <1>  -0.0880 
 16 N        6.8190     7.2880     1.0160 N.pl3 1 <1>   0.3140 
 17 C        5.5700     7.3810     2.7990 C.2   1 <1>  -0.1810 
 18 N        6.8710     8.5770     1.4310 N.2   1 <1>  -0.7070 
 19 C        7.5030     6.8850    -0.2360 C.3   1 <1>   0.0960 
 20 C        6.1280     8.6160     2.4910 C.2   1 <1>   0.1390 
 21 C        4.6530     7.0920     3.9720 C.3   1 <1>  -0.0590 
 22 C        6.5210     6.4500    -1.3450 C.3   1 <1>  -0.0800 
 23 C        7.2920     5.8870    -2.5450 C.3   1 <1>  -0.2400 
 24 C        5.6230     7.6090    -1.8010 C.3   1 <1>  -0.2400 
 25 H        6.3330     1.6500    -3.3970 H     1 <1>   0.1500 
 26 H        2.8880     3.9560    -2.4120 H     1 <1>   0.1500 
 27 H        7.0030     1.6150    -1.0220 H     1 <1>   0.1500 
 28 H        3.5400     3.9220    -0.0280 H     1 <1>   0.1500 
 29 H        6.4820     1.9710     1.2460 H     1 <1>   0.0800 
 30 H        5.5290     3.3740     3.7430 H     1 <1>   0.0800 
 31 H        5.7670     1.6480     3.5780 H     1 <1>   0.0800 
 32 H        4.2200     2.2830     4.0960 H     1 <1>   0.0800 
 33 H        3.4690     1.3050     0.7400 H     1 <1>   0.0800 
 34 H        3.1010     1.1000     2.4250 H     1 <1>   0.0800 
 35 H        4.5780     0.4240     1.7690 H     1 <1>   0.0800 
 36 H        4.7540     4.8980     1.9450 H     1 <1>   0.3700 
 37 H        8.1890     6.0940    -0.0080 H     1 <1>   0.0800 
 38 H        8.0820     7.7230    -0.5800 H     1 <1>   0.0800 
 39 H        5.9680     9.5140     3.0630 H     1 <1>   0.1500 
 40 H        4.4210     6.0440     4.0250 H     1 <1>   0.0800 
 41 H        3.7380     7.6460     3.8650 H     1 <1>   0.0800 
 42 H        5.1330     7.3840     4.8890 H     1 <1>   0.0800 
 43 H        5.8960     5.6620    -0.9670 H     1 <1>   0.0800 
 44 H        7.9340     6.6370    -2.9730 H     1 <1>   0.0800 
 45 H        6.6060     5.5480    -3.3020 H     1 <1>   0.0800 
 46 H        7.8930     5.0490    -2.2390 H     1 <1>   0.0800 
 47 H        6.2170     8.4220    -2.1810 H     1 <1>   0.0800 
 48 H        5.0350     7.9750    -0.9780 H     1 <1>   0.0800 
 49 H        4.9510     7.2800    -2.5740 H     1 <1>   0.0800 
@<TRIPOS>BOND
  1   1   2  1   
  2   2   3  ar  
  3   2   4  ar  
  4   3   5  ar  
  5   3  25  1   
  6   4   6  ar  
  7   4  26  1   
  8   5   7  ar  
  9   5  27  1   
 10   6   7  ar  
 11   6  28  1   
 12   7   8  1   
 13   8   9  1   
 14   8  10  1   
 15   8  29  1   
 16   9  11  1   
 17   9  12  1   
 18  10  13  2   
 19  10  14  am  
 20  11  30  1   
 21  11  31  1   
 22  11  32  1   
 23  12  33  1   
 24  12  34  1   
 25  12  35  1   
 26  14  15  1   
 27  14  36  1   
 28  15  16  1   
 29  15  17  2   
 30  16  18  1   
 31  16  19  1   
 32  17  20  1   
 33  17  21  1   
 34  18  20  2   
 35  19  22  1   
 36  19  37  1   
 37  19  38  1   
 38  20  39  1   
 39  21  40  1   
 40  21  41  1   
 41  21  42  1   
 42  22  23  1   
 43  22  24  1   
 44  22  43  1   
 45  23  44  1   
 46  23  45  1   
 47  23  46  1   
 48  24  47  1   
 49  24  48  1   
 50  24  49  1   
@<TRIPOS>SUBSTRUCTURE
  1 ****  14 GROUP 4 **** **** 0

# MOE 2024.06 (io_trps.svl 2023.06)
