@<TRIPOS>MOLECULE
NONAME
51 54 1 0 0 
SMALL
USER_CHARGES


@<TRIPOS>ATOM
  1 CL      -0.5730     0.2100    -0.0470 Cl    1 <1>  -0.1770 
  2 C       -0.0590    -1.3570    -0.6590 C.ar  1 <1>   0.1770 
  3 C       -0.8910    -2.5100    -0.5320 C.ar  1 <1>   0.4100 
  4 C        1.1740    -1.4730    -1.2280 C.ar  1 <1>   0.2170 
  5 N       -0.4430    -3.6970    -0.9230 N.ar  1 <1>  -0.6200 
  6 N       -2.1630    -2.4990    -0.0270 N.pl3 1 <1>  -0.8380 
  7 N        1.5540    -2.7130    -1.6320 N.ar  1 <1>  -0.1790 
  8 C        2.1730    -0.3390    -1.4400 C.3   1 <1>  -0.0970 
  9 C        0.7530    -3.7770    -1.4620 C.ar  1 <1>   0.7710 
 10 C       -3.2260    -1.5220    -0.4690 C.3   1 <1>   0.2090 
 11 C       -2.7520    -3.7280     0.6020 C.3   1 <1>   0.2090 
 12 N        1.1510    -4.9860    -1.8440 N.pl3 1 <1>  -0.9000 
 13 C       -4.1790    -1.1220     0.6790 C.3   1 <1>   0.1440 
 14 C       -3.6980    -3.3660     1.7520 C.3   1 <1>  -0.1600 
 15 C       -5.2300    -0.1790     0.1220 C.ar  1 <1>   0.1670 
 16 C       -4.7960    -2.3900     1.3010 C.3   1 <1>  -0.1600 
 17 C       -3.4890    -0.2420     1.7570 C.3   1 <1>  -0.1600 
 18 N       -6.2200    -0.5230    -0.6630 N.ar  1 <1>  -0.6200 
 19 C       -5.0160     1.1040     0.5260 C.ar  1 <1>  -0.1430 
 20 C       -3.8000     1.2230     1.4080 C.3   1 <1>  -0.0170 
 21 C       -7.0290     0.4740    -1.0330 C.ar  1 <1>   0.7200 
 22 C       -5.8940     2.0640     0.0920 C.ar  1 <1>   0.1600 
 23 N       -6.9050     1.7600    -0.6880 N.ar  1 <1>  -0.6200 
 24 N       -8.0920     0.1450    -1.8530 N.pl3 1 <1>  -0.8380 
 25 C       -8.8890     1.1810    -2.5670 C.3   1 <1>   0.1290 
 26 C       -8.5270    -1.2630    -2.0590 C.3   1 <1>   0.1290 
 27 H        2.4570    -2.8820    -2.0630 H     1 <1>   0.4570 
 28 H        1.7810     0.6080    -1.1160 H     1 <1>   0.0800 
 29 H        2.4190    -0.2470    -2.4830 H     1 <1>   0.0800 
 30 H        3.0750    -0.5260    -0.8850 H     1 <1>   0.0800 
 31 H       -3.8140    -1.9930    -1.2390 H     1 <1>   0.0800 
 32 H       -2.7950    -0.6430    -0.9080 H     1 <1>   0.0800 
 33 H       -1.9700    -4.3630     0.9850 H     1 <1>   0.0800 
 34 H       -3.2920    -4.2800    -0.1500 H     1 <1>   0.0800 
 35 H        2.0300    -5.2740    -2.2770 H     1 <1>   0.4000 
 36 H        0.4940    -5.7610    -1.6980 H     1 <1>   0.4000 
 37 H       -3.1230    -2.9370     2.5540 H     1 <1>   0.0800 
 38 H       -4.1530    -4.2650     2.1260 H     1 <1>   0.0800 
 39 H       -5.4150    -2.8750     0.5650 H     1 <1>   0.0800 
 40 H       -5.4290    -2.1290     2.1300 H     1 <1>   0.0800 
 41 H       -2.4350    -0.4320     1.8350 H     1 <1>   0.0800 
 42 H       -3.9290    -0.4470     2.7170 H     1 <1>   0.0800 
 43 H       -2.9920     1.6670     0.8530 H     1 <1>   0.0800 
 44 H       -4.0010     1.8060     2.2910 H     1 <1>   0.0800 
 45 H       -5.7670     3.0910     0.3860 H     1 <1>   0.1500 
 46 H       -8.2810     2.0420    -2.7840 H     1 <1>   0.0800 
 47 H       -9.7170     1.4840    -1.9520 H     1 <1>   0.0800 
 48 H       -9.2600     0.7870    -3.4970 H     1 <1>   0.0800 
 49 H       -8.2860    -1.8630    -1.1980 H     1 <1>   0.0800 
 50 H       -8.0270    -1.6710    -2.9200 H     1 <1>   0.0800 
 51 H       -9.5910    -1.3040    -2.2110 H     1 <1>   0.0800 
@<TRIPOS>BOND
  1   1   2  1   
  2   2   3  ar  
  3   2   4  ar  
  4   3   5  ar  
  5   3   6  1   
  6   4   7  ar  
  7   4   8  1   
  8   5   9  ar  
  9   6  10  1   
 10   6  11  1   
 11   7   9  ar  
 12   7  27  1   
 13   8  28  1   
 14   8  29  1   
 15   8  30  1   
 16   9  12  1   
 17  10  13  1   
 18  10  31  1   
 19  10  32  1   
 20  11  14  1   
 21  11  33  1   
 22  11  34  1   
 23  12  35  1   
 24  12  36  1   
 25  13  15  1   
 26  13  16  1   
 27  13  17  1   
 28  14  16  1   
 29  14  37  1   
 30  14  38  1   
 31  15  18  ar  
 32  15  19  ar  
 33  16  39  1   
 34  16  40  1   
 35  17  20  1   
 36  17  41  1   
 37  17  42  1   
 38  18  21  ar  
 39  19  20  1   
 40  19  22  ar  
 41  20  43  1   
 42  20  44  1   
 43  21  23  ar  
 44  21  24  1   
 45  22  23  ar  
 46  22  45  1   
 47  24  25  1   
 48  24  26  1   
 49  25  46  1   
 50  25  47  1   
 51  25  48  1   
 52  26  49  1   
 53  26  50  1   
 54  26  51  1   
@<TRIPOS>SUBSTRUCTURE
  1 ****  10 GROUP 4 **** **** 0

# MOE 2024.06 (io_trps.svl 2023.06)
