@<TRIPOS>MOLECULE
NONAME
41 43 1 0 0 
SMALL
USER_CHARGES


@<TRIPOS>ATOM
  1 O       -0.3440     0.2500    -0.2910 O.2   1 <1>  -0.5700 
  2 C       -1.4140     0.8100    -0.2410 C.2   1 <1>   0.5690 
  3 N       -2.5870     0.1110    -0.2690 N.am  1 <1>  -0.6600 
  4 C       -1.4410     2.3240    -0.1610 C.3   1 <1>  -0.0990 
  5 C       -3.9580     0.6790    -0.2310 C.3   1 <1>   0.1400 
  6 C       -2.6340    -1.3680    -0.3470 C.3   1 <1>   0.1400 
  7 C       -0.0860     2.9050     0.2630 C.3   1 <1>   0.0960 
  8 C       -4.8900    -0.5290    -0.3520 C.3   1 <1>   0.2000 
  9 C       -4.0590    -1.7410     0.0670 C.3   1 <1>  -0.0800 
 10 N       -0.1470     4.3770     0.3130 N.pl3 1 <1>   0.3140 
 11 O       -5.9950    -0.4060     0.4750 O.3   1 <1>  -0.6800 
 12 C       -4.5750    -3.0520    -0.5510 C.3   1 <1>  -0.0160 
 13 N       -0.9720     5.0310     1.1530 N.2   1 <1>  -0.7070 
 14 C        0.5650     5.2390    -0.4400 C.2   1 <1>  -0.3020 
 15 C       -3.7660    -4.2540    -0.0910 C.ar  1 <1>   0.1670 
 16 C       -0.7600     6.2900     0.9150 C.2   1 <1>   0.1390 
 17 C        0.1930     6.4840    -0.0760 C.2   1 <1>  -0.1500 
 18 N       -2.6200    -4.4690    -0.7180 N.ar  1 <1>  -0.6200 
 19 C       -4.2400    -5.0610     0.9420 C.ar  1 <1>   0.1600 
 20 C       -1.9870    -5.5300    -0.2460 C.ar  1 <1>   0.1600 
 21 N       -3.6080    -6.1220     1.4160 N.ar  1 <1>  -0.6200 
 22 C       -2.4650    -6.3290     0.7860 C.ar  1 <1>   0.1600 
 23 H       -1.7110     2.7090    -1.1270 H     1 <1>   0.0800 
 24 H       -2.1820     2.6240     0.5560 H     1 <1>   0.0800 
 25 H       -4.1090     1.1870     0.7060 H     1 <1>   0.0800 
 26 H       -4.1070     1.3570    -1.0530 H     1 <1>   0.0800 
 27 H       -2.4330    -1.6720    -1.3610 H     1 <1>   0.0800 
 28 H       -1.9010    -1.8150     0.3050 H     1 <1>   0.0800 
 29 H        0.6800     2.6130    -0.4320 H     1 <1>   0.0800 
 30 H        0.1800     2.5440     1.2400 H     1 <1>   0.0800 
 31 H       -5.2340    -0.6220    -1.3680 H     1 <1>   0.0800 
 32 H       -4.0630    -1.8250     1.1390 H     1 <1>   0.0800 
 33 H       -5.7160    -0.3140     1.4070 H     1 <1>   0.4000 
 34 H       -4.5340    -2.9950    -1.6250 H     1 <1>   0.0800 
 35 H       -5.6060    -3.1880    -0.2760 H     1 <1>   0.0800 
 36 H        1.2820     4.9260    -1.1770 H     1 <1>   0.1500 
 37 H       -1.2720     7.0850     1.4330 H     1 <1>   0.1500 
 38 H        0.5380     7.4320    -0.4480 H     1 <1>   0.1500 
 39 H       -5.1830    -4.8170     1.3990 H     1 <1>   0.1500 
 40 H       -1.0430    -5.7800    -0.6970 H     1 <1>   0.1500 
 41 H       -1.8760    -7.1720     1.1010 H     1 <1>   0.1500 
@<TRIPOS>BOND
  1   1   2  2   
  2   2   3  am  
  3   2   4  1   
  4   3   5  1   
  5   3   6  1   
  6   4   7  1   
  7   4  23  1   
  8   4  24  1   
  9   5   8  1   
 10   5  25  1   
 11   5  26  1   
 12   6   9  1   
 13   6  27  1   
 14   6  28  1   
 15   7  10  1   
 16   7  29  1   
 17   7  30  1   
 18   8   9  1   
 19   8  11  1   
 20   8  31  1   
 21   9  12  1   
 22   9  32  1   
 23  10  13  1   
 24  10  14  1   
 25  11  33  1   
 26  12  15  1   
 27  12  34  1   
 28  12  35  1   
 29  13  16  2   
 30  14  17  2   
 31  14  36  1   
 32  15  18  ar  
 33  15  19  ar  
 34  16  17  1   
 35  16  37  1   
 36  17  38  1   
 37  18  20  ar  
 38  19  21  ar  
 39  19  39  1   
 40  20  22  ar  
 41  20  40  1   
 42  21  22  ar  
 43  22  41  1   
@<TRIPOS>SUBSTRUCTURE
  1 ****   3 GROUP 4 **** **** 0

# MOE 2024.06 (io_trps.svl 2023.06)
