@<TRIPOS>MOLECULE
NONAME
50 52 1 0 0 
SMALL
USER_CHARGES


@<TRIPOS>ATOM
  1 O       -1.1220    -2.5760    -1.1330 O.2   1 <1>  -0.5700 
  2 C        0.0180    -2.4530    -0.7300 C.2   1 <1>   0.6900 
  3 N        1.0150    -3.2910    -1.1790 N.am  1 <1>  -0.4200 
  4 N        0.3070    -1.5400     0.2430 N.am  1 <1>  -0.5390 
  5 C        2.2150    -3.3550    -0.5000 C.2   1 <1>   0.6160 
  6 C        0.8080    -4.1230    -2.4010 C.3   1 <1>   0.1400 
  7 C        1.5350    -1.4880     0.8720 C.2   1 <1>  -0.0290 
  8 O        2.9900    -4.2570    -0.7520 O.2   1 <1>  -0.5700 
  9 C        2.4780    -2.3870     0.5140 C.2   1 <1>  -0.1360 
 10 C        0.2470    -5.5150    -2.0610 C.3   1 <1>   0.3430 
 11 C        1.7250    -0.4190     1.9290 C.3   1 <1>  -0.1020 
 12 N       -0.9730    -5.4220    -1.1990 N.4   1 <1>  -0.9590 
 13 C       -0.6640    -5.7530     0.2200 C.3   1 <1>   0.3430 
 14 C       -2.1080    -6.2270    -1.7260 C.3   1 <1>   0.3430 
 15 C       -1.8930    -5.4830     1.0900 C.3   1 <1>  -0.1600 
 16 C       -3.3500    -5.9390    -0.8880 C.3   1 <1>  -0.1600 
 17 C       -3.1100    -6.2810     0.5950 C.3   1 <1>  -0.0800 
 18 C       -4.3590    -6.0090     1.4610 C.3   1 <1>  -0.1600 
 19 C       -5.2660    -7.2440     1.6520 C.3   1 <1>   0.0960 
 20 N       -5.7400    -7.8250     0.3800 N.pl3 1 <1>   0.3140 
 21 N       -5.0710    -8.8110    -0.2520 N.2   1 <1>  -0.7070 
 22 C       -6.8560    -7.4850    -0.2950 C.2   1 <1>  -0.3020 
 23 C       -5.7880    -9.0820    -1.3000 C.2   1 <1>   0.1390 
 24 C       -6.9180    -8.2780    -1.3850 C.2   1 <1>  -0.1500 
 25 H       -0.4470    -0.8910     0.4830 H     1 <1>   0.3700 
 26 H        1.7450    -4.2370    -2.9200 H     1 <1>   0.0800 
 27 H        0.1340    -3.6180    -3.0720 H     1 <1>   0.0800 
 28 H        3.4530    -2.4220     0.9630 H     1 <1>   0.1500 
 29 H        1.0120    -6.0890    -1.5630 H     1 <1>   0.0800 
 30 H        0.0080    -6.0200    -2.9820 H     1 <1>   0.0800 
 31 H        1.0090    -0.5480     2.7220 H     1 <1>   0.0800 
 32 H        1.5930     0.5570     1.4970 H     1 <1>   0.0800 
 33 H        2.7130    -0.4730     2.3500 H     1 <1>   0.0800 
 34 H       -1.2860    -4.4280    -1.2080 H     1 <1>   0.4500 
 35 H        0.1620    -5.1540     0.5690 H     1 <1>   0.0800 
 36 H       -0.3880    -6.7920     0.3000 H     1 <1>   0.0800 
 37 H       -1.8740    -7.2790    -1.6740 H     1 <1>   0.0800 
 38 H       -2.3030    -5.9680    -2.7540 H     1 <1>   0.0800 
 39 H       -2.1090    -4.4280     1.0880 H     1 <1>   0.0800 
 40 H       -1.6630    -5.7670     2.1020 H     1 <1>   0.0800 
 41 H       -4.1590    -6.5210    -1.2870 H     1 <1>   0.0800 
 42 H       -3.6210    -4.9030    -0.9970 H     1 <1>   0.0800 
 43 H       -2.8630    -7.3290     0.6720 H     1 <1>   0.0800 
 44 H       -4.9350    -5.1970     1.0520 H     1 <1>   0.0800 
 45 H       -4.0500    -5.7030     2.4450 H     1 <1>   0.0800 
 46 H       -6.1250    -6.9780     2.2410 H     1 <1>   0.0800 
 47 H       -4.7280    -8.0100     2.1800 H     1 <1>   0.0800 
 48 H       -7.5330    -6.7180     0.0330 H     1 <1>   0.1500 
 49 H       -5.5300    -9.8450    -2.0160 H     1 <1>   0.1500 
 50 H       -7.6630    -8.3090    -2.1600 H     1 <1>   0.1500 
@<TRIPOS>BOND
  1   1   2  2   
  2   2   3  am  
  3   2   4  am  
  4   3   5  am  
  5   3   6  1   
  6   4   7  1   
  7   4  25  1   
  8   5   8  2   
  9   5   9  1   
 10   6  10  1   
 11   6  26  1   
 12   6  27  1   
 13   7   9  2   
 14   7  11  1   
 15   9  28  1   
 16  10  12  1   
 17  10  29  1   
 18  10  30  1   
 19  11  31  1   
 20  11  32  1   
 21  11  33  1   
 22  12  13  1   
 23  12  14  1   
 24  12  34  1   
 25  13  15  1   
 26  13  35  1   
 27  13  36  1   
 28  14  16  1   
 29  14  37  1   
 30  14  38  1   
 31  15  17  1   
 32  15  39  1   
 33  15  40  1   
 34  16  17  1   
 35  16  41  1   
 36  16  42  1   
 37  17  18  1   
 38  17  43  1   
 39  18  19  1   
 40  18  44  1   
 41  18  45  1   
 42  19  20  1   
 43  19  46  1   
 44  19  47  1   
 45  20  21  1   
 46  20  22  1   
 47  21  23  2   
 48  22  24  2   
 49  22  48  1   
 50  23  24  1   
 51  23  49  1   
 52  24  50  1   
@<TRIPOS>SUBSTRUCTURE
  1 ****  12 GROUP 4 **** **** 0

# MOE 2024.06 (io_trps.svl 2023.06)
