@<TRIPOS>MOLECULE
NONAME
58 61 1 0 0 
SMALL
USER_CHARGES


@<TRIPOS>ATOM
  1 F       -0.4610     0.8640    -0.1750 F     1 <1>  -0.1900 
  2 C       -1.7660     0.9610    -0.1360 C.ar  1 <1>   0.1900 
  3 C       -2.5030     1.4900    -1.2020 C.ar  1 <1>   0.0830 
  4 C       -2.3810     0.5150     1.0180 C.ar  1 <1>  -0.1500 
  5 O       -2.0140     1.9610    -2.3850 O.3   1 <1>  -0.3630 
  6 C       -3.8800     1.5530    -1.0610 C.ar  1 <1>  -0.1500 
  7 C       -3.7580     0.5930     1.1240 C.ar  1 <1>  -0.1500 
  8 C       -0.6440     1.9310    -2.7180 C.3   1 <1>   0.0400 
  9 C       -4.5370     1.1090     0.0880 C.ar  1 <1>   0.0530 
 10 C       -5.9730     1.2040     0.1900 C.2   1 <1>   0.0870 
 11 O       -6.5810     2.2580    -0.2930 O.3   1 <1>  -0.0190 
 12 C       -6.9360     0.4000     0.7190 C.2   1 <1>  -0.0860 
 13 N       -7.8750     2.2270    -0.1230 N.2   1 <1>  -0.4100 
 14 C       -8.1170     1.1200     0.4830 C.2   1 <1>   0.3720 
 15 C       -6.8560    -0.8840     1.3500 C.2   1 <1>   0.7160 
 16 N       -9.4130     0.7020     0.8310 N.pl3 1 <1>  -0.8210 
 17 O       -5.8710    -1.5890     1.2540 O.2   1 <1>  -0.5700 
 18 N       -7.9090    -1.3490     2.0670 N.am  1 <1>  -0.7300 
 19 C      -10.3020     1.7970     1.3140 C.3   1 <1>   0.1290 
 20 C      -10.0730    -0.0920    -0.2440 C.3   1 <1>   0.1290 
 21 C       -8.1850    -2.7810     2.3370 C.3   1 <1>   0.3200 
 22 C       -9.4390    -3.2250     1.5980 C.2   1 <1>   0.2980 
 23 O      -10.5730    -2.6440     1.9010 O.3   1 <1>  -0.0190 
 24 N       -9.5050    -4.1090     0.6850 N.2   1 <1>  -0.5650 
 25 N      -11.4330    -3.2010     1.1050 N.2   1 <1>  -0.4100 
 26 C      -10.8010    -4.0580     0.4030 C.2   1 <1>   0.3350 
 27 C      -11.4020    -4.9680    -0.6680 C.3   1 <1>   0.1010 
 28 C      -12.6430    -4.3470    -1.3410 C.3   1 <1>  -0.1600 
 29 C      -11.7440    -6.3470    -0.0750 C.3   1 <1>  -0.1600 
 30 C      -13.2410    -5.2840    -2.4000 C.3   1 <1>  -0.1600 
 31 C      -12.3490    -7.2860    -1.1290 C.3   1 <1>  -0.1600 
 32 C      -13.5770    -6.6540    -1.7980 C.3   1 <1>  -0.1600 
 33 H       -1.7890     0.1110     1.8190 H     1 <1>   0.1500 
 34 H       -4.4570     1.9580    -1.8730 H     1 <1>   0.1500 
 35 H       -4.2340     0.2470     2.0250 H     1 <1>   0.1500 
 36 H       -0.5320     2.3340    -3.7080 H     1 <1>   0.0800 
 37 H       -0.3010     0.9120    -2.6980 H     1 <1>   0.0800 
 38 H       -0.0990     2.5360    -2.0150 H     1 <1>   0.0800 
 39 H       -8.7470    -0.7510     1.9930 H     1 <1>   0.3700 
 40 H       -9.7810     2.3980     2.0390 H     1 <1>   0.0800 
 41 H      -11.1800     1.3800     1.7770 H     1 <1>   0.0800 
 42 H      -10.5980     2.4270     0.4920 H     1 <1>   0.0800 
 43 H       -9.4460    -0.9190    -0.5320 H     1 <1>   0.0800 
 44 H      -10.2470     0.5280    -1.1080 H     1 <1>   0.0800 
 45 H      -11.0130    -0.4820     0.1070 H     1 <1>   0.0800 
 46 H       -8.3250    -2.9230     3.3930 H     1 <1>   0.0800 
 47 H       -7.3550    -3.3890     2.0190 H     1 <1>   0.0800 
 48 H      -10.6510    -5.1060    -1.4260 H     1 <1>   0.0800 
 49 H      -12.3710    -3.4120    -1.7990 H     1 <1>   0.0800 
 50 H      -13.3900    -4.1420    -0.5930 H     1 <1>   0.0800 
 51 H      -12.4450    -6.2190     0.7320 H     1 <1>   0.0800 
 52 H      -10.8520    -6.7920     0.3310 H     1 <1>   0.0800 
 53 H      -12.5380    -5.4110    -3.2060 H     1 <1>   0.0800 
 54 H      -14.1340    -4.8420    -2.8090 H     1 <1>   0.0800 
 55 H      -12.6300    -8.2150    -0.6640 H     1 <1>   0.0800 
 56 H      -11.6080    -7.5050    -1.8800 H     1 <1>   0.0800 
 57 H      -13.9430    -7.3080    -2.5700 H     1 <1>   0.0800 
 58 H      -14.3600    -6.5390    -1.0670 H     1 <1>   0.0800 
@<TRIPOS>BOND
  1   1   2  1   
  2   2   3  ar  
  3   2   4  ar  
  4   3   5  1   
  5   3   6  ar  
  6   4   7  ar  
  7   4  33  1   
  8   5   8  1   
  9   6   9  ar  
 10   6  34  1   
 11   7   9  ar  
 12   7  35  1   
 13   8  36  1   
 14   8  37  1   
 15   8  38  1   
 16   9  10  1   
 17  10  11  1   
 18  10  12  2   
 19  11  13  1   
 20  12  14  1   
 21  12  15  1   
 22  13  14  2   
 23  14  16  1   
 24  15  17  2   
 25  15  18  am  
 26  16  19  1   
 27  16  20  1   
 28  18  21  1   
 29  18  39  1   
 30  19  40  1   
 31  19  41  1   
 32  19  42  1   
 33  20  43  1   
 34  20  44  1   
 35  20  45  1   
 36  21  22  1   
 37  21  46  1   
 38  21  47  1   
 39  22  23  1   
 40  22  24  2   
 41  23  25  1   
 42  24  26  1   
 43  25  26  2   
 44  26  27  1   
 45  27  28  1   
 46  27  29  1   
 47  27  48  1   
 48  28  30  1   
 49  28  49  1   
 50  28  50  1   
 51  29  31  1   
 52  29  51  1   
 53  29  52  1   
 54  30  32  1   
 55  30  53  1   
 56  30  54  1   
 57  31  32  1   
 58  31  55  1   
 59  31  56  1   
 60  32  57  1   
 61  32  58  1   
@<TRIPOS>SUBSTRUCTURE
  1 ****  15 GROUP 4 **** **** 0

# MOE 2024.06 (io_trps.svl 2023.06)
