@<TRIPOS>MOLECULE
NONAME
50 52 1 0 0 
SMALL
USER_CHARGES


@<TRIPOS>ATOM
  1 O       -0.2490     0.4920    -0.2410 O.2   1 <1>  -0.5700 
  2 C       -0.2390     1.7010    -0.3820 C.2   1 <1>   0.5440 
  3 N       -1.4410     2.3540    -0.5600 N.am  1 <1>  -0.6600 
  4 C        1.0290     2.4070    -0.3430 C.ar  1 <1>   0.0860 
  5 C       -2.6710     1.5690    -0.8730 C.3   1 <1>   0.1400 
  6 C       -1.6220     3.8140    -0.3050 C.3   1 <1>   0.1400 
  7 C        1.9680     2.1410     0.6510 C.ar  1 <1>  -0.1500 
  8 C        1.3730     3.3650    -1.2950 C.ar  1 <1>  -0.1500 
  9 C       -3.7590     2.4840    -1.4370 C.3   1 <1>  -0.1600 
 10 C       -2.9510     4.0360     0.4170 C.3   1 <1>  -0.1600 
 11 C        3.1770     2.8080     0.7050 C.ar  1 <1>  -0.1500 
 12 C        2.5810     4.0330    -1.2400 C.ar  1 <1>  -0.1500 
 13 C       -4.1610     3.6060    -0.4510 C.3   1 <1>   0.2800 
 14 C        3.5220     3.7800    -0.2400 C.ar  1 <1>   0.0860 
 15 O       -4.4810     4.6830    -1.2840 O.3   1 <1>  -0.5600 
 16 C       -5.3800     3.1570     0.4120 C.3   1 <1>  -0.1600 
 17 C        4.7780     4.5050    -0.2170 C.2   1 <1>   0.4230 
 18 C       -5.1720     5.8210    -0.8170 C.3   1 <1>   0.1200 
 19 C       -6.5980     4.0930     0.3770 C.3   1 <1>   0.2800 
 20 O        5.0360     5.3950    -0.9850 O.2   1 <1>  -0.5700 
 21 C        5.8450     4.1630     0.8040 C.3   1 <1>  -0.1790 
 22 C       -6.1190     5.5600     0.3670 C.3   1 <1>   0.2000 
 23 O       -7.3070     3.8460    -0.7840 O.3   1 <1>  -0.6800 
 24 C       -7.5730     3.7910     1.5200 C.3   1 <1>  -0.2400 
 25 O       -5.4460     5.8620     1.5550 O.3   1 <1>  -0.6800 
 26 H       -2.4290     0.8050    -1.5930 H     1 <1>   0.0800 
 27 H       -3.0170     1.0850     0.0250 H     1 <1>   0.0800 
 28 H       -0.8170     4.1880     0.3060 H     1 <1>   0.0800 
 29 H       -1.6200     4.3470    -1.2410 H     1 <1>   0.0800 
 30 H        1.7330     1.3920     1.3880 H     1 <1>   0.1500 
 31 H        0.6810     3.5810    -2.0910 H     1 <1>   0.1500 
 32 H       -4.6120     1.8970    -1.7210 H     1 <1>   0.0800 
 33 H       -3.3720     2.9170    -2.3430 H     1 <1>   0.0800 
 34 H       -3.0250     5.0690     0.6960 H     1 <1>   0.0800 
 35 H       -2.9080     3.4590     1.3230 H     1 <1>   0.0800 
 36 H        3.8580     2.5590     1.4980 H     1 <1>   0.1500 
 37 H        2.8100     4.7700    -1.9930 H     1 <1>   0.1500 
 38 H       -5.6950     2.1630     0.1560 H     1 <1>   0.0800 
 39 H       -5.0590     3.0810     1.4340 H     1 <1>   0.0800 
 40 H       -4.4550     6.5850    -0.5740 H     1 <1>   0.0800 
 41 H       -5.7580     6.1670    -1.6490 H     1 <1>   0.0800 
 42 H        6.1130     3.1260     0.7250 H     1 <1>   0.0800 
 43 H        5.4880     4.3730     1.7950 H     1 <1>   0.0800 
 44 H        6.7240     4.7560     0.6260 H     1 <1>   0.0800 
 45 H       -6.9640     6.2240     0.3160 H     1 <1>   0.0800 
 46 H       -7.5900     2.9150    -0.8090 H     1 <1>   0.4000 
 47 H       -7.1010     3.9680     2.4700 H     1 <1>   0.0800 
 48 H       -7.8950     2.7660     1.4910 H     1 <1>   0.0800 
 49 H       -8.4310     4.4360     1.4540 H     1 <1>   0.0800 
 50 H       -4.6510     5.3040     1.6260 H     1 <1>   0.4000 
@<TRIPOS>BOND
  1   1   2  2   
  2   2   3  am  
  3   2   4  1   
  4   3   5  1   
  5   3   6  1   
  6   4   7  ar  
  7   4   8  ar  
  8   5   9  1   
  9   5  26  1   
 10   5  27  1   
 11   6  10  1   
 12   6  28  1   
 13   6  29  1   
 14   7  11  ar  
 15   7  30  1   
 16   8  12  ar  
 17   8  31  1   
 18   9  13  1   
 19   9  32  1   
 20   9  33  1   
 21  10  13  1   
 22  10  34  1   
 23  10  35  1   
 24  11  14  ar  
 25  11  36  1   
 26  12  14  ar  
 27  12  37  1   
 28  13  15  1   
 29  13  16  1   
 30  14  17  1   
 31  15  18  1   
 32  16  19  1   
 33  16  38  1   
 34  16  39  1   
 35  17  20  2   
 36  17  21  1   
 37  18  22  1   
 38  18  40  1   
 39  18  41  1   
 40  19  22  1   
 41  19  23  1   
 42  19  24  1   
 43  21  42  1   
 44  21  43  1   
 45  21  44  1   
 46  22  25  1   
 47  22  45  1   
 48  23  46  1   
 49  24  47  1   
 50  24  48  1   
 51  24  49  1   
 52  25  50  1   
@<TRIPOS>SUBSTRUCTURE
  1 ****   6 GROUP 4 **** **** 0

# MOE 2024.06 (io_trps.svl 2023.06)
