@<TRIPOS>MOLECULE
NONAME
46 48 1 0 0 
SMALL
USER_CHARGES


@<TRIPOS>ATOM
  1 CL       2.3810    -0.6080    -1.6520 Cl    1 <1>  -0.1770 
  2 C        2.9520     0.8460    -0.8660 C.ar  1 <1>   0.1770 
  3 C        3.4910     1.8770    -1.6130 C.ar  1 <1>   0.1600 
  4 C        2.8610     0.9600     0.5030 C.ar  1 <1>  -0.1500 
  5 N        3.9460     3.0120    -1.1000 N.ar  1 <1>  -0.6200 
  6 C        3.3340     2.1350     1.0440 C.ar  1 <1>  -0.1500 
  7 C        3.8740     3.1300     0.2240 C.ar  1 <1>   0.4100 
  8 N        4.3630     4.3070     0.7730 N.pl3 1 <1>  -0.8380 
  9 C        4.3290     5.5740    -0.0260 C.3   1 <1>   0.2090 
 10 C        5.1090     4.2980     2.0590 C.3   1 <1>   0.2090 
 11 C        5.5900     5.7680    -0.8880 C.3   1 <1>   0.1960 
 12 C        6.3090     5.2490     2.0890 C.3   1 <1>  -0.1600 
 13 N        6.7850     6.1890    -0.1340 N.am  1 <1>  -0.8490 
 14 C        7.1930     5.1750     0.8410 C.3   1 <1>   0.1960 
 15 S        8.0420     6.5400    -1.2030 S.o2  1 <1>   1.5760 
 16 O        7.5710     7.4800    -2.1970 O.2   1 <1>  -0.6500 
 17 O        8.6610     5.2960    -1.6030 O.2   1 <1>  -0.6500 
 18 N        9.0940     7.3670    -0.1740 N.am  1 <1>  -0.8490 
 19 C        8.5420     8.6630     0.2290 C.3   1 <1>   0.1960 
 20 C       10.4070     7.5260    -0.8000 C.3   1 <1>   0.1960 
 21 C        9.4560     9.3290     1.2630 C.3   1 <1>  -0.1600 
 22 C       11.3940     8.1570     0.1880 C.3   1 <1>  -0.1600 
 23 C       10.8790     9.5000     0.7180 C.3   1 <1>  -0.1600 
 24 H        3.5470     1.7600    -2.6800 H     1 <1>   0.1500 
 25 H        2.4400     0.1720     1.1020 H     1 <1>   0.1500 
 26 H        3.2820     2.2970     2.1020 H     1 <1>   0.1500 
 27 H        4.1960     6.4220     0.6220 H     1 <1>   0.0800 
 28 H        3.4770     5.5380    -0.6830 H     1 <1>   0.0800 
 29 H        5.4690     3.2990     2.2400 H     1 <1>   0.0800 
 30 H        4.4330     4.5560     2.8560 H     1 <1>   0.0800 
 31 H        5.3570     6.5300    -1.6110 H     1 <1>   0.0800 
 32 H        5.7950     4.8610    -1.4330 H     1 <1>   0.0800 
 33 H        6.9080     4.9750     2.9380 H     1 <1>   0.0800 
 34 H        5.9840     6.2610     2.2520 H     1 <1>   0.0800 
 35 H        7.1720     4.1900     0.4020 H     1 <1>   0.0800 
 36 H        8.2060     5.3710     1.1510 H     1 <1>   0.0800 
 37 H        7.5670     8.5230     0.6660 H     1 <1>   0.0800 
 38 H        8.4350     9.3030    -0.6310 H     1 <1>   0.0800 
 39 H       10.3190     8.1420    -1.6810 H     1 <1>   0.0800 
 40 H       10.7850     6.5620    -1.1000 H     1 <1>   0.0800 
 41 H        9.4760     8.7190     2.1490 H     1 <1>   0.0800 
 42 H        9.0520    10.2880     1.5310 H     1 <1>   0.0800 
 43 H       12.3430     8.2980    -0.2980 H     1 <1>   0.0800 
 44 H       11.5420     7.4750     1.0070 H     1 <1>   0.0800 
 45 H       11.5300     9.8670     1.4920 H     1 <1>   0.0800 
 46 H       10.8700    10.2210    -0.0830 H     1 <1>   0.0800 
@<TRIPOS>BOND
  1   1   2  1   
  2   2   3  ar  
  3   2   4  ar  
  4   3   5  ar  
  5   3  24  1   
  6   4   6  ar  
  7   4  25  1   
  8   5   7  ar  
  9   6   7  ar  
 10   6  26  1   
 11   7   8  1   
 12   8   9  1   
 13   8  10  1   
 14   9  11  1   
 15   9  27  1   
 16   9  28  1   
 17  10  12  1   
 18  10  29  1   
 19  10  30  1   
 20  11  13  1   
 21  11  31  1   
 22  11  32  1   
 23  12  14  1   
 24  12  33  1   
 25  12  34  1   
 26  13  14  1   
 27  13  15  am  
 28  14  35  1   
 29  14  36  1   
 30  15  16  2   
 31  15  17  2   
 32  15  18  am  
 33  18  19  1   
 34  18  20  1   
 35  19  21  1   
 36  19  37  1   
 37  19  38  1   
 38  20  22  1   
 39  20  39  1   
 40  20  40  1   
 41  21  23  1   
 42  21  41  1   
 43  21  42  1   
 44  22  23  1   
 45  22  43  1   
 46  22  44  1   
 47  23  45  1   
 48  23  46  1   
@<TRIPOS>SUBSTRUCTURE
  1 ****  13 GROUP 4 **** **** 0

# MOE 2024.06 (io_trps.svl 2023.06)
