@<TRIPOS>MOLECULE
NONAME
52 54 1 0 0 
SMALL
USER_CHARGES


@<TRIPOS>ATOM
  1 O       -0.7770    -0.3290     0.6770 O.2   1 <1>  -0.5700 
  2 C       -1.9280    -0.6380     0.4500 C.2   1 <1>   0.6900 
  3 N       -2.8260     0.2490    -0.0600 N.am  1 <1>  -0.6600 
  4 N       -2.3010    -1.8990     0.6770 N.am  1 <1>  -0.8000 
  5 C       -4.2990     0.2000     0.2120 C.3   1 <1>   0.2810 
  6 C       -2.4130     1.5820    -0.5460 C.3   1 <1>   0.1400 
  7 C       -5.0760    -1.0520    -0.2790 C.2   1 <1>   0.5690 
  8 C       -4.8200     1.4980    -0.4170 C.3   1 <1>  -0.1600 
  9 C       -3.6410     2.4650    -0.3670 C.3   1 <1>  -0.1600 
 10 O       -4.5480    -1.7790    -1.0950 O.2   1 <1>  -0.5700 
 11 N       -6.3370    -1.3530     0.2010 N.am  1 <1>  -0.6600 
 12 C       -7.0420    -2.5990    -0.2460 C.3   1 <1>   0.1400 
 13 C       -7.1060    -0.5200     1.1690 C.3   1 <1>   0.1400 
 14 C       -8.3610    -2.3040    -0.9710 C.3   1 <1>   0.1400 
 15 C       -8.1540     0.3090     0.4170 C.3   1 <1>  -0.1600 
 16 N       -9.4260    -1.8470    -0.0230 N.am  1 <1>  -0.6600 
 17 C       -9.5140    -0.3850     0.2620 C.3   1 <1>   0.1400 
 18 C      -10.4400    -2.6910     0.3860 C.2   1 <1>   0.7160 
 19 O      -11.4480    -2.2140     0.8740 O.2   1 <1>  -0.5700 
 20 C      -10.3350    -4.1210     0.2270 C.2   1 <1>  -0.0860 
 21 C      -11.0630    -4.9540    -0.5660 C.2   1 <1>  -0.0400 
 22 C       -9.4210    -4.9760     0.8770 C.2   1 <1>  -0.1500 
 23 O      -10.6470    -6.1910    -0.4570 O.3   1 <1>  -0.2800 
 24 C      -12.2170    -4.6570    -1.5000 C.3   1 <1>  -0.0600 
 25 C       -9.6620    -6.2170     0.4120 C.2   1 <1>  -0.0400 
 26 C       -9.0140    -7.5460     0.7320 C.3   1 <1>  -0.0600 
 27 H       -1.5490    -2.5530     0.8770 H     1 <1>   0.3700 
 28 H       -3.0410    -2.2610     0.0680 H     1 <1>   0.3700 
 29 H       -4.4040     0.2620     1.2790 H     1 <1>   0.0800 
 30 H       -1.5700     1.9590     0.0090 H     1 <1>   0.0800 
 31 H       -2.1500     1.5040    -1.5880 H     1 <1>   0.0800 
 32 H       -5.0870     1.3070    -1.4420 H     1 <1>   0.0800 
 33 H       -5.6760     1.8850     0.1030 H     1 <1>   0.0800 
 34 H       -3.5900     2.9380     0.5980 H     1 <1>   0.0800 
 35 H       -3.6980     3.2250    -1.1270 H     1 <1>   0.0800 
 36 H       -6.4160    -3.1610    -0.9170 H     1 <1>   0.0800 
 37 H       -7.2270    -3.2260     0.6070 H     1 <1>   0.0800 
 38 H       -7.5820    -1.1520     1.9010 H     1 <1>   0.0800 
 39 H       -6.4490     0.1410     1.7030 H     1 <1>   0.0800 
 40 H       -8.6840    -3.2010    -1.4710 H     1 <1>   0.0800 
 41 H       -8.1980    -1.5620    -1.7330 H     1 <1>   0.0800 
 42 H       -8.3240     1.2190     0.9620 H     1 <1>   0.0800 
 43 H       -7.7780     0.5920    -0.5500 H     1 <1>   0.0800 
 44 H      -10.0760     0.0910    -0.5240 H     1 <1>   0.0800 
 45 H      -10.0640    -0.2470     1.1780 H     1 <1>   0.0800 
 46 H       -8.6960    -4.6630     1.6050 H     1 <1>   0.1500 
 47 H      -12.4600    -3.6100    -1.4790 H     1 <1>   0.0800 
 48 H      -13.0800    -5.2190    -1.1930 H     1 <1>   0.0800 
 49 H      -11.9550    -4.9390    -2.5030 H     1 <1>   0.0800 
 50 H       -8.2360    -7.4160     1.4620 H     1 <1>   0.0800 
 51 H       -8.5920    -7.9680    -0.1620 H     1 <1>   0.0800 
 52 H       -9.7520    -8.2220     1.1230 H     1 <1>   0.0800 
@<TRIPOS>BOND
  1   1   2  2   
  2   2   3  am  
  3   2   4  am  
  4   3   5  1   
  5   3   6  1   
  6   4  27  1   
  7   4  28  1   
  8   5   7  1   
  9   5   8  1   
 10   5  29  1   
 11   6   9  1   
 12   6  30  1   
 13   6  31  1   
 14   7  10  2   
 15   7  11  am  
 16   8   9  1   
 17   8  32  1   
 18   8  33  1   
 19   9  34  1   
 20   9  35  1   
 21  11  12  1   
 22  11  13  1   
 23  12  14  1   
 24  12  36  1   
 25  12  37  1   
 26  13  15  1   
 27  13  38  1   
 28  13  39  1   
 29  14  16  1   
 30  14  40  1   
 31  14  41  1   
 32  15  17  1   
 33  15  42  1   
 34  15  43  1   
 35  16  17  1   
 36  16  18  am  
 37  17  44  1   
 38  17  45  1   
 39  18  19  2   
 40  18  20  1   
 41  20  21  2   
 42  20  22  1   
 43  21  23  1   
 44  21  24  1   
 45  22  25  2   
 46  22  46  1   
 47  23  25  1   
 48  24  47  1   
 49  24  48  1   
 50  24  49  1   
 51  25  26  1   
 52  26  50  1   
 53  26  51  1   
 54  26  52  1   
@<TRIPOS>SUBSTRUCTURE
  1 ****  12 GROUP 4 **** **** 0

# MOE 2024.06 (io_trps.svl 2023.06)
