@<TRIPOS>MOLECULE
NONAME
51 53 1 0 0 
SMALL
USER_CHARGES


@<TRIPOS>ATOM
  1 S        0.3290     1.0180     2.0960 S.3   1 <1>  -0.0800 
  2 C        1.3870     1.5470     0.7970 C.2   1 <1>  -0.1400 
  3 C        0.1310    -0.5570     1.3590 C.2   1 <1>  -0.1100 
  4 C        1.5510     0.5620    -0.1140 C.2   1 <1>  -0.1810 
  5 C        1.8970     2.9690     0.9320 C.3   1 <1>   0.6030 
  6 C        0.8320    -0.6330     0.2150 C.2   1 <1>  -0.1500 
  7 C        2.3780     0.5740    -1.3900 C.3   1 <1>  -0.0590 
  8 N        1.3300     3.7340    -0.2390 N.4   1 <1>  -0.9590 
  9 C        3.4470     2.9340     1.0980 C.3   1 <1>   0.2090 
 10 C        1.9170     5.0910    -0.4730 C.3   1 <1>   0.2630 
 11 C       -0.1580     3.8470    -0.1140 C.3   1 <1>   0.2630 
 12 N        4.0640     4.1800     1.6640 N.pl3 1 <1>  -0.8690 
 13 C        4.9230     4.9470     0.9250 C.ar  1 <1>   0.4100 
 14 N        4.4300     6.1310     0.6590 N.ar  1 <1>  -0.6200 
 15 C        6.1750     4.5090     0.4670 C.ar  1 <1>   0.1600 
 16 C        5.1980     6.8550    -0.1680 C.ar  1 <1>   0.3960 
 17 N        6.9670     5.2140    -0.3160 N.ar  1 <1>  -0.6200 
 18 C        4.7100     8.1350    -0.6550 C.2   1 <1>   0.5440 
 19 C        6.4340     6.3900    -0.6220 C.ar  1 <1>   0.1600 
 20 O        3.6640     8.1710    -1.2840 O.2   1 <1>  -0.5700 
 21 N        5.4040     9.3080    -0.4510 N.am  1 <1>  -0.6600 
 22 C        4.9160    10.6140    -0.9510 C.3   1 <1>   0.1400 
 23 C        6.4860     9.4960     0.5450 C.3   1 <1>   0.1400 
 24 C        5.8920    11.6410    -0.3870 C.3   1 <1>  -0.1600 
 25 C        6.4590    10.9850     0.8680 C.3   1 <1>  -0.1600 
 26 H       -0.4950    -1.2700     1.8660 H     1 <1>   0.1500 
 27 H        1.4920     3.3760     1.8430 H     1 <1>   0.0800 
 28 H        0.8730    -1.5010    -0.4220 H     1 <1>   0.1500 
 29 H        2.8590     1.5200    -1.5510 H     1 <1>   0.0800 
 30 H        1.7480     0.3610    -2.2360 H     1 <1>   0.0800 
 31 H        3.1370    -0.1880    -1.3360 H     1 <1>   0.0800 
 32 H        1.5180     3.1530    -1.0650 H     1 <1>   0.4500 
 33 H        3.9040     2.6930     0.1550 H     1 <1>   0.0800 
 34 H        3.6820     2.1310     1.7750 H     1 <1>   0.0800 
 35 H        1.8840     5.6850     0.4260 H     1 <1>   0.0800 
 36 H        1.3760     5.6120    -1.2460 H     1 <1>   0.0800 
 37 H        2.9420     5.0040    -0.7890 H     1 <1>   0.0800 
 38 H       -0.4200     4.4190     0.7610 H     1 <1>   0.0800 
 39 H       -0.6050     2.8680    -0.0330 H     1 <1>   0.0800 
 40 H       -0.5700     4.3370    -0.9820 H     1 <1>   0.0800 
 41 H        3.4490     4.7620     2.2440 H     1 <1>   0.4000 
 42 H        6.5100     3.5350     0.7730 H     1 <1>   0.1500 
 43 H        7.0020     7.0260    -1.2800 H     1 <1>   0.1500 
 44 H        3.9220    10.7880    -0.5730 H     1 <1>   0.0800 
 45 H        4.8980    10.6290    -2.0280 H     1 <1>   0.0800 
 46 H        7.4300     9.2330     0.0980 H     1 <1>   0.0800 
 47 H        6.3190     8.9020     1.4280 H     1 <1>   0.0800 
 48 H        5.4070    12.5780    -0.1780 H     1 <1>   0.0800 
 49 H        6.6780    11.8060    -1.1030 H     1 <1>   0.0800 
 50 H        7.4360    11.3590     1.1220 H     1 <1>   0.0800 
 51 H        5.7940    11.1510     1.6980 H     1 <1>   0.0800 
@<TRIPOS>BOND
  1   1   2  1   
  2   1   3  1   
  3   2   4  2   
  4   2   5  1   
  5   3   6  2   
  6   3  26  1   
  7   4   6  1   
  8   4   7  1   
  9   5   8  1   
 10   5   9  1   
 11   5  27  1   
 12   6  28  1   
 13   7  29  1   
 14   7  30  1   
 15   7  31  1   
 16   8  10  1   
 17   8  11  1   
 18   8  32  1   
 19   9  12  1   
 20   9  33  1   
 21   9  34  1   
 22  10  35  1   
 23  10  36  1   
 24  10  37  1   
 25  11  38  1   
 26  11  39  1   
 27  11  40  1   
 28  12  13  1   
 29  12  41  1   
 30  13  14  ar  
 31  13  15  ar  
 32  14  16  ar  
 33  15  17  ar  
 34  15  42  1   
 35  16  18  1   
 36  16  19  ar  
 37  17  19  ar  
 38  18  20  2   
 39  18  21  am  
 40  19  43  1   
 41  21  22  1   
 42  21  23  1   
 43  22  24  1   
 44  22  44  1   
 45  22  45  1   
 46  23  25  1   
 47  23  46  1   
 48  23  47  1   
 49  24  25  1   
 50  24  48  1   
 51  24  49  1   
 52  25  50  1   
 53  25  51  1   
@<TRIPOS>SUBSTRUCTURE
  1 ****  14 GROUP 4 **** **** 0

# MOE 2024.06 (io_trps.svl 2023.06)
