@<TRIPOS>MOLECULE
NONAME
52 53 1 0 0 
SMALL
USER_CHARGES


@<TRIPOS>ATOM
  1 O       -0.3180     1.3100    -1.1430 O.2   1 <1>  -0.5700 
  2 C        0.0160     0.5320    -0.2800 C.2   1 <1>   0.5690 
  3 N        1.0530     0.7690     0.5550 N.am  1 <1>  -0.7300 
  4 C       -0.7240    -0.8020    -0.1330 C.3   1 <1>   0.1710 
  5 C        2.1250     1.7260     0.2980 C.3   1 <1>   0.3640 
  6 N        0.1120    -1.9190     0.4180 N.3   1 <1>  -0.8100 
  7 C        3.3730     0.9150    -0.0670 C.ar  1 <1>  -0.1430 
  8 C        2.3050     2.6070     1.5330 C.3   1 <1>  -0.2400 
  9 C       -0.7380    -3.0750     0.7540 C.3   1 <1>   0.1100 
 10 C        1.1750    -2.2870    -0.5410 C.3   1 <1>   0.0300 
 11 C        3.8470     0.8530    -1.3770 C.ar  1 <1>  -0.1430 
 12 C        4.0380     0.1940     0.9210 C.ar  1 <1>  -0.1500 
 13 C       -0.0220    -4.0190     1.7240 C.3   1 <1>   0.0960 
 14 C        4.9720     0.0950    -1.6630 C.ar  1 <1>  -0.1500 
 15 C        3.1630     1.5860    -2.5240 C.3   1 <1>  -0.0970 
 16 C        5.1580    -0.5640     0.6310 C.ar  1 <1>  -0.1430 
 17 N       -0.9070    -5.1520     2.0540 N.pl3 1 <1>   0.0480 
 18 C        5.6260    -0.6070    -0.6690 C.ar  1 <1>  -0.1500 
 19 C        5.8660    -1.3330     1.7320 C.3   1 <1>  -0.0970 
 20 C       -1.0380    -6.3430     1.4170 C.2   1 <1>   0.0060 
 21 C       -1.7930    -5.2050     3.0640 C.2   1 <1>  -0.3020 
 22 N       -1.9260    -7.1190     1.9460 N.2   1 <1>  -0.5650 
 23 C       -0.2300    -6.7400     0.1990 C.3   1 <1>  -0.0600 
 24 C       -2.4020    -6.4070     2.9840 C.2   1 <1>   0.0770 
 25 H        1.3340    -0.0310     1.1250 H     1 <1>   0.3700 
 26 H       -1.1160    -1.0820    -1.0940 H     1 <1>   0.0800 
 27 H       -1.5560    -0.6230     0.5240 H     1 <1>   0.0800 
 28 H        1.8400     2.3690    -0.5160 H     1 <1>   0.0800 
 29 H        2.4580     2.0200     2.4190 H     1 <1>   0.0800 
 30 H        1.4320     3.2190     1.6650 H     1 <1>   0.0800 
 31 H        3.1540     3.2510     1.3920 H     1 <1>   0.0800 
 32 H       -1.0170    -3.6010    -0.1440 H     1 <1>   0.0800 
 33 H       -1.6360    -2.7280     1.2370 H     1 <1>   0.0800 
 34 H        1.7870    -1.4330    -0.7800 H     1 <1>   0.0800 
 35 H        0.7470    -2.6650    -1.4540 H     1 <1>   0.0800 
 36 H        1.8220    -3.0360    -0.1200 H     1 <1>   0.0800 
 37 H        3.6830     0.2150     1.9340 H     1 <1>   0.1500 
 38 H        0.2190    -3.4940     2.6300 H     1 <1>   0.0800 
 39 H        0.8800    -4.4030     1.2910 H     1 <1>   0.0800 
 40 H        5.3510     0.0460    -2.6690 H     1 <1>   0.1500 
 41 H        2.1270     1.3020    -2.5810 H     1 <1>   0.0800 
 42 H        3.6230     1.3500    -3.4660 H     1 <1>   0.0800 
 43 H        3.2280     2.6480    -2.3750 H     1 <1>   0.0800 
 44 H        6.4990    -1.1850    -0.9140 H     1 <1>   0.1500 
 45 H        5.1480    -1.7660     2.4040 H     1 <1>   0.0800 
 46 H        6.5040    -0.6670     2.2850 H     1 <1>   0.0800 
 47 H        6.4660    -2.1230     1.3190 H     1 <1>   0.0800 
 48 H       -1.9410    -4.4080     3.7700 H     1 <1>   0.1500 
 49 H       -0.3950    -6.0430    -0.6010 H     1 <1>   0.0800 
 50 H       -0.5300    -7.7190    -0.1310 H     1 <1>   0.0800 
 51 H        0.8160    -6.7680     0.4430 H     1 <1>   0.0800 
 52 H       -3.1690    -6.8060     3.6260 H     1 <1>   0.1500 
@<TRIPOS>BOND
  1   1   2  2   
  2   2   3  am  
  3   2   4  1   
  4   3   5  1   
  5   3  25  1   
  6   4   6  1   
  7   4  26  1   
  8   4  27  1   
  9   5   7  1   
 10   5   8  1   
 11   5  28  1   
 12   6   9  1   
 13   6  10  1   
 14   7  11  ar  
 15   7  12  ar  
 16   8  29  1   
 17   8  30  1   
 18   8  31  1   
 19   9  13  1   
 20   9  32  1   
 21   9  33  1   
 22  10  34  1   
 23  10  35  1   
 24  10  36  1   
 25  11  14  ar  
 26  11  15  1   
 27  12  16  ar  
 28  12  37  1   
 29  13  17  1   
 30  13  38  1   
 31  13  39  1   
 32  14  18  ar  
 33  14  40  1   
 34  15  41  1   
 35  15  42  1   
 36  15  43  1   
 37  16  18  ar  
 38  16  19  1   
 39  17  20  1   
 40  17  21  1   
 41  18  44  1   
 42  19  45  1   
 43  19  46  1   
 44  19  47  1   
 45  20  22  2   
 46  20  23  1   
 47  21  24  2   
 48  21  48  1   
 49  22  24  1   
 50  23  49  1   
 51  23  50  1   
 52  23  51  1   
 53  24  52  1   
@<TRIPOS>SUBSTRUCTURE
  1 ****  10 GROUP 4 **** **** 0

# MOE 2024.06 (io_trps.svl 2023.06)
