@<TRIPOS>MOLECULE
NONAME
52 53 1 0 0 
SMALL
USER_CHARGES


@<TRIPOS>ATOM
  1 O        0.5190    -0.1010     0.3130 O.2   1 <1>  -0.5700 
  2 C        1.4600    -0.7760    -0.0530 C.2   1 <1>   0.5440 
  3 N        2.7260    -0.2690     0.0730 N.am  1 <1>  -0.7300 
  4 C        1.2430    -2.1010    -0.6040 C.ar  1 <1>   0.0860 
  5 C        3.0650     1.0750     0.6080 C.3   1 <1>   0.0600 
  6 C        0.1550    -2.8740    -0.2450 C.ar  1 <1>  -0.1500 
  7 C        2.0980    -2.6930    -1.5270 C.ar  1 <1>  -0.1500 
  8 C       -0.0410    -4.1410    -0.7780 C.ar  1 <1>   0.4100 
  9 C        1.8330    -3.9610    -2.0010 C.ar  1 <1>   0.1600 
 10 N        0.7950    -4.6950    -1.6480 N.ar  1 <1>  -0.6200 
 11 N       -1.1490    -4.8760    -0.4020 N.pl3 1 <1>  -0.8380 
 12 C       -2.4960    -4.3290    -0.7440 C.3   1 <1>   0.2090 
 13 C       -1.1080    -6.3650    -0.5350 C.3   1 <1>   0.2090 
 14 C       -3.6240    -5.0890    -0.0050 C.3   1 <1>   0.2000 
 15 C       -2.2970    -7.0290     0.1930 C.3   1 <1>   0.2000 
 16 O       -3.5050    -6.4680    -0.2400 O.3   1 <1>  -0.5600 
 17 C       -5.0440    -4.6490    -0.4350 C.3   1 <1>  -0.0800 
 18 C       -2.3970    -8.5390    -0.0600 C.3   1 <1>  -0.1600 
 19 C       -5.2900    -3.1490    -0.1960 C.3   1 <1>  -0.2400 
 20 C       -6.1310    -5.4480     0.3050 C.3   1 <1>  -0.2400 
 21 C       -1.1970    -9.3240     0.4940 C.3   1 <1>  -0.1600 
 22 C       -1.3880   -10.8320     0.2940 C.3   1 <1>  -0.1600 
 23 C       -0.1920   -11.6160     0.8410 C.3   1 <1>  -0.2400 
 24 H        3.5220    -0.8810    -0.1140 H     1 <1>   0.3700 
 25 H        2.1730     1.6610     0.7510 H     1 <1>   0.0800 
 26 H        3.7090     1.5910    -0.0820 H     1 <1>   0.0800 
 27 H        3.5660     0.9730     1.5550 H     1 <1>   0.0800 
 28 H       -0.5530    -2.4940     0.4660 H     1 <1>   0.1500 
 29 H        2.9620    -2.1640    -1.8810 H     1 <1>   0.1500 
 30 H        2.5100    -4.4000    -2.7150 H     1 <1>   0.1500 
 31 H       -2.5340    -3.2880    -0.4810 H     1 <1>   0.0800 
 32 H       -2.6510    -4.4110    -1.8060 H     1 <1>   0.0800 
 33 H       -1.1330    -6.6320    -1.5770 H     1 <1>   0.0800 
 34 H       -0.1830    -6.7250    -0.1210 H     1 <1>   0.0800 
 35 H       -3.5150    -4.9260     1.0540 H     1 <1>   0.0800 
 36 H       -2.2110    -6.8500     1.2520 H     1 <1>   0.0800 
 37 H       -5.1450    -4.8400    -1.4900 H     1 <1>   0.0800 
 38 H       -3.2940    -8.8970     0.4120 H     1 <1>   0.0800 
 39 H       -2.4820    -8.7120    -1.1190 H     1 <1>   0.0800 
 40 H       -5.1270    -2.8990     0.8380 H     1 <1>   0.0800 
 41 H       -6.3030    -2.8940    -0.4520 H     1 <1>   0.0800 
 42 H       -4.6410    -2.5470    -0.8050 H     1 <1>   0.0800 
 43 H       -6.0480    -5.3050     1.3680 H     1 <1>   0.0800 
 44 H       -6.0330    -6.4990     0.0950 H     1 <1>   0.0800 
 45 H       -7.1100    -5.1370    -0.0110 H     1 <1>   0.0800 
 46 H       -0.2940    -9.0190    -0.0050 H     1 <1>   0.0800 
 47 H       -1.0870    -9.1160     1.5450 H     1 <1>   0.0800 
 48 H       -2.2840   -11.1540     0.7990 H     1 <1>   0.0800 
 49 H       -1.5020   -11.0460    -0.7550 H     1 <1>   0.0800 
 50 H       -0.0730   -11.4350     1.8940 H     1 <1>   0.0800 
 51 H        0.7120   -11.3250     0.3340 H     1 <1>   0.0800 
 52 H       -0.3440   -12.6700     0.6900 H     1 <1>   0.0800 
@<TRIPOS>BOND
  1   1   2  2   
  2   2   3  am  
  3   2   4  1   
  4   3   5  1   
  5   3  24  1   
  6   4   6  ar  
  7   4   7  ar  
  8   5  25  1   
  9   5  26  1   
 10   5  27  1   
 11   6   8  ar  
 12   6  28  1   
 13   7   9  ar  
 14   7  29  1   
 15   8  10  ar  
 16   8  11  1   
 17   9  10  ar  
 18   9  30  1   
 19  11  12  1   
 20  11  13  1   
 21  12  14  1   
 22  12  31  1   
 23  12  32  1   
 24  13  15  1   
 25  13  33  1   
 26  13  34  1   
 27  14  16  1   
 28  14  17  1   
 29  14  35  1   
 30  15  16  1   
 31  15  18  1   
 32  15  36  1   
 33  17  19  1   
 34  17  20  1   
 35  17  37  1   
 36  18  21  1   
 37  18  38  1   
 38  18  39  1   
 39  19  40  1   
 40  19  41  1   
 41  19  42  1   
 42  20  43  1   
 43  20  44  1   
 44  20  45  1   
 45  21  22  1   
 46  21  46  1   
 47  21  47  1   
 48  22  23  1   
 49  22  48  1   
 50  22  49  1   
 51  23  50  1   
 52  23  51  1   
 53  23  52  1   
@<TRIPOS>SUBSTRUCTURE
  1 ****  11 GROUP 4 **** **** 0

# MOE 2024.06 (io_trps.svl 2023.06)
