@<TRIPOS>MOLECULE
NONAME
43 45 1 0 0 
SMALL
USER_CHARGES


@<TRIPOS>ATOM
  1 S        0.3800     0.0210     1.0830 S.o2  1 <1>   1.3330 
  2 O       -0.8510     0.0700     1.8390 O.2   1 <1>  -0.6500 
  3 O        1.6390     0.2860     1.7420 O.2   1 <1>  -0.6500 
  4 N        0.4920    -1.5030     0.3430 N.am  1 <1>  -0.8490 
  5 C        0.2100     1.1270    -0.3150 C.3   1 <1>  -0.0550 
  6 C        1.8520    -1.8450    -0.0870 C.3   1 <1>   0.1160 
  7 C       -0.0480    -2.5740     1.1870 C.3   1 <1>   0.1160 
  8 C        0.0060     2.5960     0.0920 C.3   1 <1>  -0.0800 
  9 C       -0.2140     3.5030    -1.1150 C.3   1 <1>   0.2000 
 10 C        1.2010     3.2240     0.8130 C.3   1 <1>   0.1400 
 11 O       -1.5430     3.4530    -1.5050 O.3   1 <1>  -0.6800 
 12 C        0.2010     4.8990    -0.6570 C.3   1 <1>   0.1400 
 13 N        1.1430     4.6640     0.4660 N.am  1 <1>  -0.6600 
 14 C        1.9000     5.6240     1.1120 C.2   1 <1>   0.7160 
 15 O        2.6970     5.2320     1.9490 O.2   1 <1>  -0.5700 
 16 C        1.8070     7.0630     0.8500 C.2   1 <1>   0.1410 
 17 N        0.9160     7.6660     0.0130 N.2   1 <1>  -0.5650 
 18 C        2.6020     8.0210     1.4160 C.2   1 <1>  -0.3020 
 19 C        1.1850     8.9370     0.0890 C.2   1 <1>   0.3120 
 20 N        2.2250     9.2140     0.9470 N.pl3 1 <1>   0.3340 
 21 N        0.5200     9.9220    -0.6030 N.2   1 <1>  -0.5760 
 22 C        2.6390    10.5190     1.1430 C.2   1 <1>  -0.1810 
 23 C        0.9140    11.1350    -0.4110 C.2   1 <1>   0.3760 
 24 C        1.9820    11.4900     0.4620 C.2   1 <1>  -0.1360 
 25 H        1.0760     1.0480    -0.9410 H     1 <1>   0.0800 
 26 H       -0.6400     0.8160    -0.8930 H     1 <1>   0.0800 
 27 H        1.8450    -2.7750    -0.6300 H     1 <1>   0.0800 
 28 H        2.5040    -1.9420     0.7660 H     1 <1>   0.0800 
 29 H        2.2420    -1.0780    -0.7340 H     1 <1>   0.0800 
 30 H        0.0250    -3.5210     0.6810 H     1 <1>   0.0800 
 31 H       -1.0870    -2.3870     1.4000 H     1 <1>   0.0800 
 32 H        0.4920    -2.6250     2.1180 H     1 <1>   0.0800 
 33 H       -0.8410     2.6710     0.7530 H     1 <1>   0.0800 
 34 H        0.3950     3.2000    -1.9500 H     1 <1>   0.0800 
 35 H        2.1330     2.8170     0.4550 H     1 <1>   0.0800 
 36 H        1.1410     3.0840     1.8800 H     1 <1>   0.0800 
 37 H       -2.1190     3.7910    -0.7920 H     1 <1>   0.4000 
 38 H       -0.6460     5.4590    -0.2980 H     1 <1>   0.0800 
 39 H        0.6880     5.4350    -1.4540 H     1 <1>   0.0800 
 40 H        3.4020     7.8880     2.1200 H     1 <1>   0.1500 
 41 H        3.4540    10.6820     1.8240 H     1 <1>   0.1500 
 42 H        0.4170    11.9320    -0.9350 H     1 <1>   0.0600 
 43 H        2.2340    12.5310     0.5520 H     1 <1>   0.1500 
@<TRIPOS>BOND
  1   1   2  2   
  2   1   3  2   
  3   1   4  am  
  4   1   5  1   
  5   4   6  1   
  6   4   7  1   
  7   5   8  1   
  8   5  25  1   
  9   5  26  1   
 10   6  27  1   
 11   6  28  1   
 12   6  29  1   
 13   7  30  1   
 14   7  31  1   
 15   7  32  1   
 16   8   9  1   
 17   8  10  1   
 18   8  33  1   
 19   9  11  1   
 20   9  12  1   
 21   9  34  1   
 22  10  13  1   
 23  10  35  1   
 24  10  36  1   
 25  11  37  1   
 26  12  13  1   
 27  12  38  1   
 28  12  39  1   
 29  13  14  am  
 30  14  15  2   
 31  14  16  1   
 32  16  17  1   
 33  16  18  2   
 34  17  19  2   
 35  18  20  1   
 36  18  40  1   
 37  19  20  1   
 38  19  21  1   
 39  20  22  1   
 40  21  23  2   
 41  22  24  2   
 42  22  41  1   
 43  23  24  1   
 44  23  42  1   
 45  24  43  1   
@<TRIPOS>SUBSTRUCTURE
  1 ****  13 GROUP 4 **** **** 0

# MOE 2024.06 (io_trps.svl 2023.06)
