@<TRIPOS>MOLECULE
NONAME
48 51 1 0 0 
SMALL
USER_CHARGES


@<TRIPOS>ATOM
  1 O       -0.3850     0.0180     1.1340 O.2   1 <1>  -0.5700 
  2 C       -1.3960     0.6920     1.1040 C.2   1 <1>   0.5440 
  3 N       -2.6190     0.0590     1.0910 N.am  1 <1>  -0.6600 
  4 C       -1.3000     2.1410     1.0660 C.ar  1 <1>   0.0860 
  5 C       -2.7610    -1.4220     1.2560 C.3   1 <1>   0.1400 
  6 C       -3.8950     0.7180     0.6750 C.3   1 <1>   0.1400 
  7 C       -0.7540     2.8440    -0.0170 C.ar  1 <1>  -0.1440 
  8 C       -1.7870     2.8680     2.1540 C.ar  1 <1>  -0.1500 
  9 C       -3.4550    -2.0500     0.0330 C.3   1 <1>   0.3440 
 10 C       -4.5240    -0.0200    -0.5290 C.3   1 <1>   0.2950 
 11 C       -0.7050     4.2340     0.0330 C.ar  1 <1>   0.0820 
 12 C       -0.2150     2.0940    -1.2390 C.3   1 <1>  -0.0970 
 13 C       -1.7450     4.2480     2.1840 C.ar  1 <1>  -0.1500 
 14 O       -4.6610    -1.3810    -0.2380 O.3   1 <1>  -0.5600 
 15 C       -3.7320    -3.5310     0.2760 C.ar  1 <1>  -0.1440 
 16 C       -5.9160     0.4900    -0.9410 C.3   1 <1>  -0.1950 
 17 O       -0.1620     4.9460    -0.9670 O.3   1 <1>  -0.5320 
 18 C       -1.2010     4.9340     1.1170 C.ar  1 <1>  -0.1500 
 19 C       -2.7740    -4.4720    -0.0740 C.ar  1 <1>  -0.1500 
 20 C       -4.9190    -3.9620     0.8540 C.ar  1 <1>  -0.1500 
 21 C       -6.3530     1.9170    -0.8010 C.3   1 <1>  -0.2000 
 22 C       -6.9980     0.8440     0.0320 C.3   1 <1>  -0.2000 
 23 C       -2.9970    -5.8200     0.1500 C.ar  1 <1>  -0.1500 
 24 C       -5.1440    -5.3090     1.0790 C.ar  1 <1>  -0.1500 
 25 C       -4.1830    -6.2390     0.7270 C.ar  1 <1>  -0.1500 
 26 H       -1.8010    -1.8870     1.3920 H     1 <1>   0.0800 
 27 H       -3.3470    -1.6260     2.1340 H     1 <1>   0.0800 
 28 H       -4.5790     0.7050     1.5040 H     1 <1>   0.0800 
 29 H       -3.7210     1.7420     0.4020 H     1 <1>   0.0800 
 30 H       -2.2020     2.3320     2.9910 H     1 <1>   0.1500 
 31 H       -2.8200    -1.9480    -0.8300 H     1 <1>   0.0800 
 32 H       -3.8660     0.0740    -1.3760 H     1 <1>   0.0800 
 33 H       -0.6730     1.1280    -1.3450 H     1 <1>   0.0800 
 34 H        0.8460     1.9520    -1.1340 H     1 <1>   0.0800 
 35 H       -0.4120     2.6350    -2.1460 H     1 <1>   0.0800 
 36 H       -2.1270     4.7870     3.0340 H     1 <1>   0.1500 
 37 H       -6.2360    -0.0090    -1.8400 H     1 <1>   0.1000 
 38 H        0.2600     4.3850    -1.6400 H     1 <1>   0.4500 
 39 H       -1.1520     6.0080     1.1220 H     1 <1>   0.1500 
 40 H       -1.8460    -4.1620    -0.5220 H     1 <1>   0.1500 
 41 H       -5.6750    -3.2460     1.1290 H     1 <1>   0.1500 
 42 H       -5.7370     2.6410    -0.2970 H     1 <1>   0.1000 
 43 H       -6.9260     2.3600    -1.5980 H     1 <1>   0.1000 
 44 H       -8.0040     0.5380    -0.1980 H     1 <1>   0.1000 
 45 H       -6.7970     0.8070     1.0880 H     1 <1>   0.1000 
 46 H       -2.2490    -6.5420    -0.1250 H     1 <1>   0.1500 
 47 H       -6.0680    -5.6310     1.5250 H     1 <1>   0.1500 
 48 H       -4.3570    -7.2870     0.9010 H     1 <1>   0.1500 
@<TRIPOS>BOND
  1   1   2  2   
  2   2   3  am  
  3   2   4  1   
  4   3   5  1   
  5   3   6  1   
  6   4   7  ar  
  7   4   8  ar  
  8   5   9  1   
  9   5  26  1   
 10   5  27  1   
 11   6  10  1   
 12   6  28  1   
 13   6  29  1   
 14   7  11  ar  
 15   7  12  1   
 16   8  13  ar  
 17   8  30  1   
 18   9  14  1   
 19   9  15  1   
 20   9  31  1   
 21  10  14  1   
 22  10  16  1   
 23  10  32  1   
 24  11  17  1   
 25  11  18  ar  
 26  12  33  1   
 27  12  34  1   
 28  12  35  1   
 29  13  18  ar  
 30  13  36  1   
 31  15  19  ar  
 32  15  20  ar  
 33  16  21  1   
 34  16  22  1   
 35  16  37  1   
 36  17  38  1   
 37  18  39  1   
 38  19  23  ar  
 39  19  40  1   
 40  20  24  ar  
 41  20  41  1   
 42  21  22  1   
 43  21  42  1   
 44  21  43  1   
 45  22  44  1   
 46  22  45  1   
 47  23  25  ar  
 48  23  46  1   
 49  24  25  ar  
 50  24  47  1   
 51  25  48  1   
@<TRIPOS>SUBSTRUCTURE
  1 ****   3 GROUP 4 **** **** 0

# MOE 2024.06 (io_trps.svl 2023.06)
