@<TRIPOS>MOLECULE
NONAME
48 51 1 0 0 
SMALL
USER_CHARGES


@<TRIPOS>ATOM
  1 O        0.1730    -1.0720     0.4040 O.2   1 <1>  -0.5700 
  2 C        1.2900    -1.2980    -0.0400 C.2   1 <1>   0.5440 
  3 N        1.5090    -2.3850    -0.8790 N.am  1 <1>  -0.2980 
  4 C        2.4060    -0.4380     0.2480 C.ar  1 <1>   0.0860 
  5 N        2.6930    -2.6220    -1.5400 N.2   1 <1>  -0.5120 
  6 C        0.4240    -3.3900    -1.0730 C.3   1 <1>   0.2010 
  7 C        3.6190    -0.7110    -0.3970 C.ar  1 <1>   0.0860 
  8 C        2.3370     0.6470     1.1270 C.ar  1 <1>  -0.1500 
  9 C        3.6690    -1.8230    -1.2950 C.2   1 <1>   0.3040 
 10 C        0.0470    -4.1270     0.2210 C.2   1 <1>   0.5690 
 11 C        4.7260     0.1070    -0.1450 C.ar  1 <1>  -0.1500 
 12 C        3.4360     1.4440     1.3650 C.ar  1 <1>  -0.1500 
 13 O        0.9450    -4.6550     0.8400 O.2   1 <1>  -0.5700 
 14 N       -1.2580    -4.2180     0.6650 N.am  1 <1>  -0.6600 
 15 C        4.6370     1.1720     0.7240 C.ar  1 <1>  -0.1500 
 16 C       -2.4380    -3.8120    -0.1580 C.3   1 <1>   0.2200 
 17 C       -1.5140    -4.6670     2.0700 C.3   1 <1>   0.0600 
 18 C       -3.6910    -4.6670     0.0340 C.3   1 <1>  -0.1600 
 19 C       -2.9000    -2.3950     0.1600 C.3   1 <1>  -0.1600 
 20 C       -4.8280    -3.7930    -0.5110 C.3   1 <1>  -0.0800 
 21 C       -4.3470    -2.3290    -0.3460 C.3   1 <1>  -0.0800 
 22 C       -6.1970    -4.1270     0.1190 C.3   1 <1>   0.1400 
 23 C       -5.2540    -1.4620     0.5470 C.3   1 <1>  -0.0990 
 24 N       -7.1040    -2.9680    -0.0030 N.am  1 <1>  -0.7300 
 25 C       -6.7080    -1.6940     0.2030 C.2   1 <1>   0.5690 
 26 O       -7.4800    -0.7740     0.1260 O.2   1 <1>  -0.5700 
 27 H       -0.4170    -2.8730    -1.4850 H     1 <1>   0.0800 
 28 H        0.7530    -4.1210    -1.7870 H     1 <1>   0.0800 
 29 H        1.4040     0.8550     1.6240 H     1 <1>   0.1500 
 30 H        4.6050    -1.9920    -1.7950 H     1 <1>   0.0600 
 31 H        5.6590    -0.1010    -0.6390 H     1 <1>   0.1500 
 32 H        3.3680     2.2760     2.0450 H     1 <1>   0.1500 
 33 H        5.4940     1.7970     0.9130 H     1 <1>   0.1500 
 34 H       -2.1890    -3.8670    -1.2030 H     1 <1>   0.0800 
 35 H       -2.2480    -4.0370     2.5370 H     1 <1>   0.0800 
 36 H       -0.6130    -4.6150     2.6580 H     1 <1>   0.0800 
 37 H       -1.8600    -5.6860     2.0680 H     1 <1>   0.0800 
 38 H       -3.6160    -5.6000    -0.4950 H     1 <1>   0.0800 
 39 H       -3.8720    -4.8570     1.0760 H     1 <1>   0.0800 
 40 H       -2.8630    -2.2320     1.2220 H     1 <1>   0.0800 
 41 H       -2.2840    -1.6610    -0.3280 H     1 <1>   0.0800 
 42 H       -4.9080    -3.9840    -1.5680 H     1 <1>   0.0800 
 43 H       -4.3430    -1.8840    -1.3280 H     1 <1>   0.0800 
 44 H       -6.0830    -4.3530     1.1660 H     1 <1>   0.0800 
 45 H       -6.6290    -4.9840    -0.3690 H     1 <1>   0.0800 
 46 H       -5.0150    -0.4220     0.4190 H     1 <1>   0.0800 
 47 H       -5.1180    -1.7150     1.5820 H     1 <1>   0.0800 
 48 H       -8.0950    -3.1280    -0.1980 H     1 <1>   0.3700 
@<TRIPOS>BOND
  1   1   2  2   
  2   2   3  am  
  3   2   4  1   
  4   3   5  1   
  5   3   6  1   
  6   4   7  ar  
  7   4   8  ar  
  8   5   9  2   
  9   6  10  1   
 10   6  27  1   
 11   6  28  1   
 12   7   9  1   
 13   7  11  ar  
 14   8  12  ar  
 15   8  29  1   
 16   9  30  1   
 17  10  13  2   
 18  10  14  am  
 19  11  15  ar  
 20  11  31  1   
 21  12  15  ar  
 22  12  32  1   
 23  14  16  1   
 24  14  17  1   
 25  15  33  1   
 26  16  18  1   
 27  16  19  1   
 28  16  34  1   
 29  17  35  1   
 30  17  36  1   
 31  17  37  1   
 32  18  20  1   
 33  18  38  1   
 34  18  39  1   
 35  19  21  1   
 36  19  40  1   
 37  19  41  1   
 38  20  21  1   
 39  20  22  1   
 40  20  42  1   
 41  21  23  1   
 42  21  43  1   
 43  22  24  1   
 44  22  44  1   
 45  22  45  1   
 46  23  25  1   
 47  23  46  1   
 48  23  47  1   
 49  24  25  am  
 50  24  48  1   
 51  25  26  2   
@<TRIPOS>SUBSTRUCTURE
  1 ****   1 GROUP 4 **** **** 0

# MOE 2024.06 (io_trps.svl 2023.06)
