@<TRIPOS>MOLECULE
NONAME
41 43 1 0 0 
SMALL
USER_CHARGES


@<TRIPOS>ATOM
  1 S       -2.2750    -0.9780    -0.7070 S.3   1 <1>  -0.0800 
  2 C       -2.2770    -1.5400     0.9320 C.2   1 <1>   0.4420 
  3 C       -1.3660     0.3880    -0.1610 C.2   1 <1>   0.1980 
  4 N       -1.6520    -0.7420     1.7190 N.2   1 <1>  -0.3380 
  5 N       -2.9230    -2.7320     1.1690 N.am  1 <1>  -0.4940 
  6 N       -1.1350     0.3560     1.0890 N.2   1 <1>  -0.3380 
  7 C       -0.9660     1.4220    -1.1950 C.3   1 <1>   0.0200 
  8 C       -3.0620    -3.4540     2.3200 C.2   1 <1>   0.5690 
  9 C       -0.1600     2.5560    -0.5670 C.3   1 <1>   0.1200 
 10 O       -2.6110    -3.1110     3.3830 O.2   1 <1>  -0.5700 
 11 C       -3.8210    -4.7720     2.2550 C.3   1 <1>   0.0820 
 12 O        0.1710     3.4580    -1.5730 O.3   1 <1>  -0.5600 
 13 C       -4.3200    -5.1090     0.8540 C.2   1 <1>  -0.1810 
 14 C        0.9110     4.5450    -1.1290 C.3   1 <1>   0.1200 
 15 C       -3.4820    -5.4220    -0.2410 C.ar  1 <1>   0.0000 
 16 C       -5.6000    -5.1460     0.4150 C.2   1 <1>  -0.3020 
 17 C        1.1910     5.4320    -2.3350 C.3   1 <1>  -0.2400 
 18 C       -4.3220    -5.6250    -1.3300 C.ar  1 <1>  -0.1520 
 19 C       -2.0970    -5.5370    -0.4060 C.ar  1 <1>  -0.1500 
 20 N       -5.6180    -5.4650    -0.9130 N.pl3 1 <1>   0.0330 
 21 C       -3.8030    -5.9330    -2.5900 C.ar  1 <1>  -0.1500 
 22 C       -1.5870    -5.8390    -1.6470 C.ar  1 <1>  -0.1500 
 23 C       -2.4390    -6.0360    -2.7390 C.ar  1 <1>  -0.1500 
 24 H       -3.3350    -3.1770     0.3470 H     1 <1>   0.3700 
 25 H       -1.8530     1.8260    -1.6460 H     1 <1>   0.0800 
 26 H       -0.3720     0.9450    -1.9540 H     1 <1>   0.0800 
 27 H        0.7460     2.1760    -0.1260 H     1 <1>   0.0800 
 28 H       -0.7450     3.0650     0.1810 H     1 <1>   0.0800 
 29 H       -4.6560    -4.7100     2.9280 H     1 <1>   0.0800 
 30 H       -3.1760    -5.5570     2.6030 H     1 <1>   0.0800 
 31 H        1.8310     4.1890    -0.6970 H     1 <1>   0.0800 
 32 H        0.3370     5.0790    -0.3900 H     1 <1>   0.0800 
 33 H       -6.5080    -4.9630     0.9640 H     1 <1>   0.1500 
 34 H        1.7520     4.8850    -3.0720 H     1 <1>   0.0800 
 35 H        1.7650     6.2890    -2.0330 H     1 <1>   0.0800 
 36 H        0.2670     5.7700    -2.7670 H     1 <1>   0.0800 
 37 H       -1.4460    -5.3890     0.4370 H     1 <1>   0.1500 
 38 H       -6.4480    -5.5760    -1.5060 H     1 <1>   0.2700 
 39 H       -4.4640    -6.0870    -3.4240 H     1 <1>   0.1500 
 40 H       -0.5240    -5.9300    -1.7900 H     1 <1>   0.1500 
 41 H       -2.0140    -6.2730    -3.6990 H     1 <1>   0.1500 
@<TRIPOS>BOND
  1   1   2  1   
  2   1   3  1   
  3   2   4  2   
  4   2   5  1   
  5   3   6  2   
  6   3   7  1   
  7   4   6  1   
  8   5   8  am  
  9   5  24  1   
 10   7   9  1   
 11   7  25  1   
 12   7  26  1   
 13   8  10  2   
 14   8  11  1   
 15   9  12  1   
 16   9  27  1   
 17   9  28  1   
 18  11  13  1   
 19  11  29  1   
 20  11  30  1   
 21  12  14  1   
 22  13  15  1   
 23  13  16  2   
 24  14  17  1   
 25  14  31  1   
 26  14  32  1   
 27  15  18  ar  
 28  15  19  ar  
 29  16  20  1   
 30  16  33  1   
 31  17  34  1   
 32  17  35  1   
 33  17  36  1   
 34  18  20  1   
 35  18  21  ar  
 36  19  22  ar  
 37  19  37  1   
 38  20  38  1   
 39  21  23  ar  
 40  21  39  1   
 41  22  23  ar  
 42  22  40  1   
 43  23  41  1   
@<TRIPOS>SUBSTRUCTURE
  1 ****   2 GROUP 4 **** **** 0

# MOE 2024.06 (io_trps.svl 2023.06)
