@<TRIPOS>MOLECULE
NONAME
46 48 1 0 0 
SMALL
USER_CHARGES


@<TRIPOS>ATOM
  1 S       -0.3010    -0.5480     0.4310 S.o2  1 <1>   1.5010 
  2 O       -1.6550    -0.0440     0.4770 O.2   1 <1>  -0.6500 
  3 O        0.2040    -1.3830     1.4960 O.2   1 <1>  -0.6500 
  4 N       -0.2710    -1.4390    -0.9920 N.am  1 <1>  -0.9140 
  5 C        0.8450     0.7930     0.0800 C.2   1 <1>  -0.0630 
  6 C       -0.7360    -2.8320    -0.9710 C.3   1 <1>   0.2760 
  7 C        2.2300     0.6810    -0.0080 C.2   1 <1>   0.1080 
  8 C        0.6150     2.1050    -0.1810 C.2   1 <1>  -0.3020 
  9 C       -2.0250    -3.1240    -0.2130 C.3   1 <1>  -0.0800 
 10 C        0.2210    -3.8570    -0.3770 C.3   1 <1>   0.1200 
 11 N        2.8050     1.8080    -0.2900 N.2   1 <1>  -0.7070 
 12 C        3.0290    -0.5890     0.1960 C.3   1 <1>  -0.0590 
 13 N        1.8040     2.6950    -0.3940 N.pl3 1 <1>   0.3140 
 14 C       -1.8920    -4.6170     0.1100 C.3   1 <1>   0.1200 
 15 C       -3.2930    -2.7620    -1.0010 C.3   1 <1>  -0.0170 
 16 O       -0.5730    -4.9850    -0.1740 O.3   1 <1>  -0.5600 
 17 C        2.0480     4.1180    -0.7040 C.3   1 <1>   0.0960 
 18 C       -4.5360    -3.0210    -0.1670 C.ar  1 <1>  -0.1430 
 19 C        1.9170     4.9890     0.5510 C.3   1 <1>  -0.2400 
 20 C       -5.3600    -4.1080    -0.3800 C.ar  1 <1>  -0.1500 
 21 C       -4.8990    -2.1690     0.8560 C.ar  1 <1>  -0.1500 
 22 C       -6.4750    -4.2860     0.4230 C.ar  1 <1>   0.1600 
 23 C       -6.0350    -2.4390     1.6000 C.ar  1 <1>   0.1600 
 24 N       -6.8330    -3.4780     1.4080 N.ar  1 <1>  -0.6200 
 25 H       -0.9140    -0.9230    -1.5870 H     1 <1>   0.4200 
 26 H       -0.8750    -3.1330    -1.9960 H     1 <1>   0.0800 
 27 H       -0.3200     2.6340    -0.2190 H     1 <1>   0.1500 
 28 H       -2.0430    -2.6210     0.7360 H     1 <1>   0.0800 
 29 H        0.6120    -3.5580     0.5770 H     1 <1>   0.0800 
 30 H        1.0200    -4.1090    -1.0520 H     1 <1>   0.0800 
 31 H        2.6700    -1.3610    -0.4590 H     1 <1>   0.0800 
 32 H        2.9400    -0.9170     1.2150 H     1 <1>   0.0800 
 33 H        4.0660    -0.4070    -0.0200 H     1 <1>   0.0800 
 34 H       -2.5400    -5.2240    -0.4990 H     1 <1>   0.0800 
 35 H       -2.0880    -4.8120     1.1510 H     1 <1>   0.0800 
 36 H       -3.3370    -3.3280    -1.9150 H     1 <1>   0.0800 
 37 H       -3.2680    -1.7180    -1.2620 H     1 <1>   0.0800 
 38 H        3.0400     4.2070    -1.1100 H     1 <1>   0.0800 
 39 H        1.3430     4.4310    -1.4520 H     1 <1>   0.0800 
 40 H        2.6270     4.6720     1.2950 H     1 <1>   0.0800 
 41 H        0.9230     4.9200     0.9570 H     1 <1>   0.0800 
 42 H        2.1160     6.0160     0.3050 H     1 <1>   0.0800 
 43 H       -5.1490    -4.8180    -1.1580 H     1 <1>   0.1500 
 44 H       -4.3070    -1.2990     1.0820 H     1 <1>   0.1500 
 45 H       -7.1080    -5.1380     0.2440 H     1 <1>   0.1500 
 46 H       -6.3020    -1.7630     2.3940 H     1 <1>   0.1500 
@<TRIPOS>BOND
  1   1   2  2   
  2   1   3  2   
  3   1   4  am  
  4   1   5  1   
  5   4   6  1   
  6   4  25  1   
  7   5   7  1   
  8   5   8  2   
  9   6   9  1   
 10   6  10  1   
 11   6  26  1   
 12   7  11  2   
 13   7  12  1   
 14   8  13  1   
 15   8  27  1   
 16   9  14  1   
 17   9  15  1   
 18   9  28  1   
 19  10  16  1   
 20  10  29  1   
 21  10  30  1   
 22  11  13  1   
 23  12  31  1   
 24  12  32  1   
 25  12  33  1   
 26  13  17  1   
 27  14  16  1   
 28  14  34  1   
 29  14  35  1   
 30  15  18  1   
 31  15  36  1   
 32  15  37  1   
 33  17  19  1   
 34  17  38  1   
 35  17  39  1   
 36  18  20  ar  
 37  18  21  ar  
 38  19  40  1   
 39  19  41  1   
 40  19  42  1   
 41  20  22  ar  
 42  20  43  1   
 43  21  23  ar  
 44  21  44  1   
 45  22  24  ar  
 46  22  45  1   
 47  23  24  ar  
 48  23  46  1   
@<TRIPOS>SUBSTRUCTURE
  1 ****   1 GROUP 4 **** **** 0

# MOE 2024.06 (io_trps.svl 2023.06)
