@<TRIPOS>MOLECULE
NONAME
51 53 1 0 0 
SMALL
USER_CHARGES


@<TRIPOS>ATOM
  1 S       -0.8910     1.5480    -0.6180 S.3   1 <1>  -0.3320 
  2 C        0.8950     1.7930    -0.5710 C.ar  1 <1>   0.1020 
  3 C       -1.3960     0.6690     0.9440 C.3   1 <1>   0.2110 
  4 C        1.7220     1.1390     0.3300 C.ar  1 <1>  -0.1500 
  5 C        1.4220     2.6750    -1.4960 C.ar  1 <1>  -0.1500 
  6 C       -2.7860     0.0200     0.7990 C.2   1 <1>   0.5690 
  7 C       -1.2420     1.6400     2.1280 C.3   1 <1>  -0.2400 
  8 C        3.0840     1.3860     0.3040 C.ar  1 <1>  -0.1500 
  9 C        2.7850     2.9170    -1.5160 C.ar  1 <1>  -0.1500 
 10 O       -2.8000    -1.1910     0.8430 O.2   1 <1>  -0.5700 
 11 N       -3.9670     0.7230     0.6620 N.am  1 <1>  -0.6600 
 12 C        3.6210     2.2760    -0.6140 C.ar  1 <1>  -0.1430 
 13 C       -4.0710     2.2090     0.5090 C.3   1 <1>   0.1400 
 14 C       -5.2600    -0.0320     0.6140 C.3   1 <1>   0.1400 
 15 C        5.1150     2.5420    -0.6380 C.3   1 <1>  -0.0970 
 16 C       -5.2730     2.5620    -0.3630 C.3   1 <1>  -0.1600 
 17 C       -6.4200     0.8290     1.1160 C.3   1 <1>  -0.1600 
 18 C       -6.5860     2.1290     0.3100 C.3   1 <1>   0.4180 
 19 O       -6.9490     3.1050     1.2560 O.3   1 <1>  -0.5600 
 20 C       -7.6890     1.9530    -0.7340 C.2   1 <1>  -0.2880 
 21 C       -7.6380     4.2380     0.8010 C.3   1 <1>   0.1200 
 22 C       -8.7890     2.7060    -0.8010 C.2   1 <1>  -0.2760 
 23 C       -8.9850     3.8450     0.1810 C.3   1 <1>  -0.0220 
 24 C       -9.9090     2.5090    -1.8070 C.3   1 <1>  -0.1020 
 25 H       -0.6970    -0.1370     1.0580 H     1 <1>   0.0800 
 26 H        1.3350     0.4400     1.0430 H     1 <1>   0.1500 
 27 H        0.7690     3.1690    -2.1930 H     1 <1>   0.1500 
 28 H       -1.8290     2.5260     1.9850 H     1 <1>   0.0800 
 29 H       -0.2150     1.9310     2.2430 H     1 <1>   0.0800 
 30 H       -1.5620     1.1570     3.0340 H     1 <1>   0.0800 
 31 H        3.7270     0.8800     1.0020 H     1 <1>   0.1500 
 32 H        3.1900     3.6050    -2.2370 H     1 <1>   0.1500 
 33 H       -3.1880     2.6110     0.0530 H     1 <1>   0.0800 
 34 H       -4.1890     2.6580     1.4810 H     1 <1>   0.0800 
 35 H       -5.1900    -0.9160     1.2260 H     1 <1>   0.0800 
 36 H       -5.4440    -0.3440    -0.4000 H     1 <1>   0.0800 
 37 H        5.5370     2.4170     0.3430 H     1 <1>   0.0800 
 38 H        5.3130     3.5480    -0.9650 H     1 <1>   0.0800 
 39 H        5.5960     1.8570    -1.3130 H     1 <1>   0.0800 
 40 H       -5.1610     2.0550    -1.3050 H     1 <1>   0.0800 
 41 H       -5.2820     3.6130    -0.5710 H     1 <1>   0.0800 
 42 H       -6.2290     1.0610     2.1490 H     1 <1>   0.0800 
 43 H       -7.3300     0.2600     1.0770 H     1 <1>   0.0800 
 44 H       -7.4920     1.1410    -1.4100 H     1 <1>   0.1500 
 45 H       -7.0290     4.7470     0.0760 H     1 <1>   0.0800 
 46 H       -7.7910     4.8890     1.6430 H     1 <1>   0.0800 
 47 H       -9.3940     4.7040    -0.3200 H     1 <1>   0.0800 
 48 H       -9.6710     3.5470     0.9540 H     1 <1>   0.0800 
 49 H      -10.0220     3.3880    -2.4160 H     1 <1>   0.0800 
 50 H      -10.8350     2.3150    -1.2960 H     1 <1>   0.0800 
 51 H       -9.6940     1.6740    -2.4510 H     1 <1>   0.0800 
@<TRIPOS>BOND
  1   1   2  1   
  2   1   3  1   
  3   2   4  ar  
  4   2   5  ar  
  5   3   6  1   
  6   3   7  1   
  7   3  25  1   
  8   4   8  ar  
  9   4  26  1   
 10   5   9  ar  
 11   5  27  1   
 12   6  10  2   
 13   6  11  am  
 14   7  28  1   
 15   7  29  1   
 16   7  30  1   
 17   8  12  ar  
 18   8  31  1   
 19   9  12  ar  
 20   9  32  1   
 21  11  13  1   
 22  11  14  1   
 23  12  15  1   
 24  13  16  1   
 25  13  33  1   
 26  13  34  1   
 27  14  17  1   
 28  14  35  1   
 29  14  36  1   
 30  15  37  1   
 31  15  38  1   
 32  15  39  1   
 33  16  18  1   
 34  16  40  1   
 35  16  41  1   
 36  17  18  1   
 37  17  42  1   
 38  17  43  1   
 39  18  19  1   
 40  18  20  1   
 41  19  21  1   
 42  20  22  2   
 43  20  44  1   
 44  21  23  1   
 45  21  45  1   
 46  21  46  1   
 47  22  23  1   
 48  22  24  1   
 49  23  47  1   
 50  23  48  1   
 51  24  49  1   
 52  24  50  1   
 53  24  51  1   
@<TRIPOS>SUBSTRUCTURE
  1 ****  13 GROUP 4 **** **** 0

# MOE 2024.06 (io_trps.svl 2023.06)
