@<TRIPOS>MOLECULE
NONAME
41 42 1 0 0 
SMALL
USER_CHARGES


@<TRIPOS>ATOM
  1 S        0.5880     0.0240     0.5080 S.o2  1 <1>   1.3330 
  2 O        0.7170    -1.4150     0.5750 O.2   1 <1>  -0.6500 
  3 O        0.5160     0.7910     1.7300 O.2   1 <1>  -0.6500 
  4 N       -0.7870     0.3750    -0.4230 N.am  1 <1>  -0.8490 
  5 C        1.9280     0.6800    -0.4840 C.3   1 <1>  -0.0550 
  6 C       -1.9900     0.5270     0.4000 C.3   1 <1>   0.1160 
  7 C       -1.0330    -0.5960    -1.4950 C.3   1 <1>   0.1160 
  8 C        3.2960     0.6140     0.2170 C.3   1 <1>  -0.0800 
  9 C        4.4200     1.1450    -0.6600 C.3   1 <1>   0.2200 
 10 C        3.7750    -0.7910     0.5620 C.3   1 <1>   0.1200 
 11 N        4.7060     2.5560    -0.3160 N.am  1 <1>  -0.7300 
 12 C        5.5970     0.2140    -0.3660 C.3   1 <1>   0.1200 
 13 O        5.1600    -0.6870     0.6040 O.3   1 <1>  -0.5600 
 14 C        4.1830     3.6390    -0.9610 C.2   1 <1>   0.5440 
 15 O        3.4520     3.4210    -1.9080 O.2   1 <1>  -0.5700 
 16 C        4.4700     5.0080    -0.5600 C.ar  1 <1>   0.0860 
 17 C        5.0840     5.3730     0.6480 C.ar  1 <1>   0.1900 
 18 C        4.1260     6.0680    -1.4070 C.ar  1 <1>  -0.1500 
 19 F        5.4360     4.4560     1.5090 F     1 <1>  -0.1900 
 20 C        5.3530     6.6830     1.0120 C.ar  1 <1>  -0.1500 
 21 C        4.3940     7.3730    -1.0440 C.ar  1 <1>   0.1900 
 22 C        5.0030     7.7080     0.1510 C.ar  1 <1>  -0.1500 
 23 F        4.0600     8.3340    -1.8620 F     1 <1>  -0.1900 
 24 H        1.9770     0.1480    -1.4130 H     1 <1>   0.0800 
 25 H        1.7150     1.7080    -0.7110 H     1 <1>   0.0800 
 26 H       -2.8380     0.7660    -0.2180 H     1 <1>   0.0800 
 27 H       -1.8540     1.3280     1.1070 H     1 <1>   0.0800 
 28 H       -2.1900    -0.3820     0.9420 H     1 <1>   0.0800 
 29 H       -1.8610    -0.2730    -2.1020 H     1 <1>   0.0800 
 30 H       -1.2570    -1.5650    -1.0810 H     1 <1>   0.0800 
 31 H       -0.1650    -0.6810    -2.1250 H     1 <1>   0.0800 
 32 H        3.2510     1.1720     1.1370 H     1 <1>   0.0800 
 33 H        4.1720     1.0660    -1.7060 H     1 <1>   0.0800 
 34 H        3.5160    -1.5030    -0.2040 H     1 <1>   0.0800 
 35 H        3.4150    -1.1300     1.5180 H     1 <1>   0.0800 
 36 H        5.2090     2.6980     0.5660 H     1 <1>   0.3700 
 37 H        6.4570     0.7380     0.0130 H     1 <1>   0.0800 
 38 H        5.8640    -0.3500    -1.2430 H     1 <1>   0.0800 
 39 H        3.6490     5.8740    -2.3520 H     1 <1>   0.1500 
 40 H        5.8280     6.8950     1.9540 H     1 <1>   0.1500 
 41 H        5.1930     8.7390     0.3940 H     1 <1>   0.1500 
@<TRIPOS>BOND
  1   1   2  2   
  2   1   3  2   
  3   1   4  am  
  4   1   5  1   
  5   4   6  1   
  6   4   7  1   
  7   5   8  1   
  8   5  24  1   
  9   5  25  1   
 10   6  26  1   
 11   6  27  1   
 12   6  28  1   
 13   7  29  1   
 14   7  30  1   
 15   7  31  1   
 16   8   9  1   
 17   8  10  1   
 18   8  32  1   
 19   9  11  1   
 20   9  12  1   
 21   9  33  1   
 22  10  13  1   
 23  10  34  1   
 24  10  35  1   
 25  11  14  am  
 26  11  36  1   
 27  12  13  1   
 28  12  37  1   
 29  12  38  1   
 30  14  15  2   
 31  14  16  1   
 32  16  17  ar  
 33  16  18  ar  
 34  17  19  1   
 35  17  20  ar  
 36  18  21  ar  
 37  18  39  1   
 38  20  22  ar  
 39  20  40  1   
 40  21  22  ar  
 41  21  23  1   
 42  22  41  1   
@<TRIPOS>SUBSTRUCTURE
  1 ****  11 GROUP 4 **** **** 0

# MOE 2024.06 (io_trps.svl 2023.06)
