@<TRIPOS>MOLECULE
NONAME
51 53 1 0 0 
SMALL
USER_CHARGES


@<TRIPOS>ATOM
  1 O       -0.2150    -0.0340     0.0890 O.2   1 <1>  -0.5700 
  2 C        0.8500    -0.5990     0.0320 C.2   1 <1>   0.5690 
  3 N        2.0500     0.0150     0.2230 N.am  1 <1>  -0.4930 
  4 C        0.8430    -2.0840    -0.2710 C.3   1 <1>  -0.0990 
  5 C        2.3310     1.3680     0.5410 C.2   1 <1>   0.0630 
  6 C        0.0740    -2.8660     0.8050 C.3   1 <1>  -0.0220 
  7 C        1.6910     2.2330     1.4350 C.2   1 <1>   0.1080 
  8 C        3.3510     2.0960     0.0310 C.2   1 <1>  -0.3320 
  9 C        0.0600    -4.3670     0.4890 C.2   1 <1>  -0.1240 
 10 N        2.2590     3.3970     1.4800 N.2   1 <1>  -0.7070 
 11 C        0.4860     1.9190     2.2940 C.3   1 <1>  -0.0590 
 12 N        3.2790     3.3220     0.6100 N.pl3 1 <1>   0.3140 
 13 C        4.4020     1.7010    -0.9980 C.3   1 <1>  -0.0600 
 14 C        1.0700    -5.2260     1.0520 C.2   1 <1>   0.3750 
 15 C       -0.8970    -4.9130    -0.3240 C.2   1 <1>  -0.1690 
 16 C        4.1580     4.4870     0.3760 C.3   1 <1>   0.0960 
 17 N        1.1240    -6.4960     0.8340 N.2   1 <1>  -0.5760 
 18 C        2.1570    -4.6720     1.9570 C.3   1 <1>  -0.1790 
 19 N       -0.8310    -6.2830    -0.5380 N.pl3 1 <1>   0.6010 
 20 C       -2.0380    -4.1790    -1.0350 C.3   1 <1>  -0.1020 
 21 C        3.6300     5.3510    -0.7790 C.3   1 <1>  -0.1600 
 22 C        0.1560    -7.0290     0.0280 C.2   1 <1>   0.3120 
 23 N       -1.6070    -7.0860    -1.2640 N.2   1 <1>  -0.7070 
 24 C        4.5420     6.5540    -1.0400 C.3   1 <1>  -0.2400 
 25 N        0.0410    -8.2750    -0.3060 N.2   1 <1>  -0.5650 
 26 C       -1.0390    -8.2380    -1.0830 C.2   1 <1>   0.3660 
 27 H        2.8850    -0.5350     0.0420 H     1 <1>   0.3700 
 28 H        1.8500    -2.4510    -0.3430 H     1 <1>   0.0800 
 29 H        0.3710    -2.2260    -1.2260 H     1 <1>   0.0800 
 30 H       -0.9330    -2.4950     0.8660 H     1 <1>   0.0800 
 31 H        0.5040    -2.6720     1.7710 H     1 <1>   0.0800 
 32 H        0.5070     0.8930     2.6040 H     1 <1>   0.0800 
 33 H       -0.4100     2.1030     1.7300 H     1 <1>   0.0800 
 34 H        0.4850     2.5480     3.1640 H     1 <1>   0.0800 
 35 H        4.2320     0.7020    -1.3530 H     1 <1>   0.0800 
 36 H        5.3840     1.7480    -0.5620 H     1 <1>   0.0800 
 37 H        4.3620     2.3670    -1.8410 H     1 <1>   0.0800 
 38 H        5.1500     4.1360     0.1620 H     1 <1>   0.0800 
 39 H        4.1880     5.0660     1.2810 H     1 <1>   0.0800 
 40 H        2.6780    -3.8670     1.4750 H     1 <1>   0.0800 
 41 H        2.8730    -5.4400     2.1900 H     1 <1>   0.0800 
 42 H        1.7270    -4.3270     2.8790 H     1 <1>   0.0800 
 43 H       -2.0180    -4.4090    -2.0860 H     1 <1>   0.0800 
 44 H       -1.9850    -3.1130    -0.9360 H     1 <1>   0.0800 
 45 H       -2.9830    -4.5100    -0.6400 H     1 <1>   0.0800 
 46 H        2.6420     5.7010    -0.5290 H     1 <1>   0.0800 
 47 H        3.5610     4.7570    -1.6730 H     1 <1>   0.0800 
 48 H        4.6050     7.1760    -0.1630 H     1 <1>   0.0800 
 49 H        4.1460     7.1460    -1.8470 H     1 <1>   0.0800 
 50 H        5.5320     6.2290    -1.3080 H     1 <1>   0.0800 
 51 H       -1.4140    -9.1430    -1.5360 H     1 <1>   0.1500 
@<TRIPOS>BOND
  1   1   2  2   
  2   2   3  am  
  3   2   4  1   
  4   3   5  1   
  5   3  27  1   
  6   4   6  1   
  7   4  28  1   
  8   4  29  1   
  9   5   7  1   
 10   5   8  2   
 11   6   9  1   
 12   6  30  1   
 13   6  31  1   
 14   7  10  2   
 15   7  11  1   
 16   8  12  1   
 17   8  13  1   
 18   9  14  1   
 19   9  15  2   
 20  10  12  1   
 21  11  32  1   
 22  11  33  1   
 23  11  34  1   
 24  12  16  1   
 25  13  35  1   
 26  13  36  1   
 27  13  37  1   
 28  14  17  2   
 29  14  18  1   
 30  15  19  1   
 31  15  20  1   
 32  16  21  1   
 33  16  38  1   
 34  16  39  1   
 35  17  22  1   
 36  18  40  1   
 37  18  41  1   
 38  18  42  1   
 39  19  22  1   
 40  19  23  1   
 41  20  43  1   
 42  20  44  1   
 43  20  45  1   
 44  21  24  1   
 45  21  46  1   
 46  21  47  1   
 47  22  25  2   
 48  23  26  2   
 49  24  48  1   
 50  24  49  1   
 51  24  50  1   
 52  25  26  1   
 53  26  51  1   
@<TRIPOS>SUBSTRUCTURE
  1 ****   4 GROUP 4 **** **** 0

# MOE 2024.06 (io_trps.svl 2023.06)
