@<TRIPOS>MOLECULE
NONAME
50 52 1 0 0 
SMALL
USER_CHARGES


@<TRIPOS>ATOM
  1 O        4.9090    -2.6370    -0.0290 O.2   1 <1>  -0.5700 
  2 C        3.9490    -2.1430     0.5320 C.2   1 <1>   0.5440 
  3 N        4.2030    -1.3080     1.6010 N.am  1 <1>  -0.6600 
  4 C        2.6120    -2.3940     0.0360 C.ar  1 <1>   0.0860 
  5 C        5.4910    -1.4250     2.3470 C.3   1 <1>   0.1400 
  6 C        3.3840    -0.1010     1.8830 C.3   1 <1>   0.1400 
  7 C        2.3740    -2.4660    -1.3340 C.ar  1 <1>   0.1600 
  8 C        1.5170    -2.5670     0.8740 C.ar  1 <1>  -0.1500 
  9 C        6.6690    -0.8620     1.5260 C.3   1 <1>   0.3430 
 10 C        4.2230     1.1750     1.7490 C.3   1 <1>  -0.1600 
 11 N        1.1950    -2.6470    -1.9070 N.ar  1 <1>  -0.6200 
 12 C        0.2830    -2.7690     0.2960 C.ar  1 <1>  -0.1500 
 13 N        6.6070     0.6180     1.2320 N.4   1 <1>  -0.9590 
 14 C        5.2990     1.0900     0.6620 C.3   1 <1>   0.3430 
 15 C        0.1710    -2.7970    -1.0850 C.ar  1 <1>   0.1670 
 16 C        7.7360     0.9700     0.3240 C.3   1 <1>   0.4860 
 17 C       -1.1760    -3.0140    -1.7410 C.3   1 <1>  -0.0970 
 18 C        7.8240     2.4750     0.1880 C.ar  1 <1>  -0.1430 
 19 C        7.4580     3.0810    -1.0050 C.ar  1 <1>   0.1600 
 20 C        8.2540     3.2680     1.2370 C.ar  1 <1>  -0.1500 
 21 N        7.4580     4.3820    -1.2210 N.ar  1 <1>  -0.6200 
 22 C        8.2700     4.6270     1.0210 C.ar  1 <1>  -0.1500 
 23 C        7.8660     5.1360    -0.2050 C.ar  1 <1>   0.3930 
 24 O        7.8980     6.4750    -0.3510 O.3   1 <1>  -0.3630 
 25 C        7.5350     7.0850    -1.5750 C.3   1 <1>   0.0400 
 26 H        5.6780    -2.4700     2.5330 H     1 <1>   0.0800 
 27 H        5.4220    -0.9330     3.3010 H     1 <1>   0.0800 
 28 H        2.9630    -0.1700     2.8730 H     1 <1>   0.0800 
 29 H        2.5660    -0.0480     1.1840 H     1 <1>   0.0800 
 30 H        3.2160    -2.3640    -1.9970 H     1 <1>   0.1500 
 31 H        1.6310    -2.5490     1.9440 H     1 <1>   0.1500 
 32 H        6.7120    -1.4090     0.5980 H     1 <1>   0.0800 
 33 H        7.5790    -1.0760     2.0600 H     1 <1>   0.0800 
 34 H        4.6580     1.4390     2.6960 H     1 <1>   0.0800 
 35 H        3.5470     1.9720     1.4920 H     1 <1>   0.0800 
 36 H       -0.5870    -2.9060     0.9120 H     1 <1>   0.1500 
 37 H        6.7540     1.1390     2.1030 H     1 <1>   0.4500 
 38 H        5.4240     2.0790     0.2510 H     1 <1>   0.0800 
 39 H        4.9760     0.4380    -0.1350 H     1 <1>   0.0800 
 40 H        7.5860     0.5190    -0.6440 H     1 <1>   0.0800 
 41 H        8.6650     0.5990     0.7280 H     1 <1>   0.0800 
 42 H       -1.4090    -2.1740    -2.3700 H     1 <1>   0.0800 
 43 H       -1.9540    -3.1260    -1.0090 H     1 <1>   0.0800 
 44 H       -1.1400    -3.8990    -2.3490 H     1 <1>   0.0800 
 45 H        7.1400     2.4710    -1.8350 H     1 <1>   0.1500 
 46 H        8.5700     2.8650     2.1850 H     1 <1>   0.1500 
 47 H        8.5920     5.3120     1.7840 H     1 <1>   0.1500 
 48 H        7.6410     8.1490    -1.4680 H     1 <1>   0.0800 
 49 H        6.5130     6.8360    -1.7990 H     1 <1>   0.0800 
 50 H        8.1880     6.7240    -2.3500 H     1 <1>   0.0800 
@<TRIPOS>BOND
  1   1   2  2   
  2   2   3  am  
  3   2   4  1   
  4   3   5  1   
  5   3   6  1   
  6   4   7  ar  
  7   4   8  ar  
  8   5   9  1   
  9   5  26  1   
 10   5  27  1   
 11   6  10  1   
 12   6  28  1   
 13   6  29  1   
 14   7  11  ar  
 15   7  30  1   
 16   8  12  ar  
 17   8  31  1   
 18   9  13  1   
 19   9  32  1   
 20   9  33  1   
 21  10  14  1   
 22  10  34  1   
 23  10  35  1   
 24  11  15  ar  
 25  12  15  ar  
 26  12  36  1   
 27  13  14  1   
 28  13  16  1   
 29  13  37  1   
 30  14  38  1   
 31  14  39  1   
 32  15  17  1   
 33  16  18  1   
 34  16  40  1   
 35  16  41  1   
 36  17  42  1   
 37  17  43  1   
 38  17  44  1   
 39  18  19  ar  
 40  18  20  ar  
 41  19  21  ar  
 42  19  45  1   
 43  20  22  ar  
 44  20  46  1   
 45  21  23  ar  
 46  22  23  ar  
 47  22  47  1   
 48  23  24  1   
 49  24  25  1   
 50  25  48  1   
 51  25  49  1   
 52  25  50  1   
@<TRIPOS>SUBSTRUCTURE
  1 ****  14 GROUP 4 **** **** 0

# MOE 2024.06 (io_trps.svl 2023.06)
