@<TRIPOS>MOLECULE
NONAME
55 57 1 0 0 
SMALL
USER_CHARGES


@<TRIPOS>ATOM
  1 F       -0.8100    -1.5250    -0.7740 F     1 <1>  -0.1900 
  2 C       -0.8080    -2.6630    -0.1300 C.ar  1 <1>   0.1900 
  3 C        0.3590    -3.4090    -0.0680 C.ar  1 <1>  -0.1440 
  4 C       -1.9890    -3.0730     0.4610 C.ar  1 <1>  -0.1500 
  5 C        0.3200    -4.6090     0.6220 C.ar  1 <1>  -0.1500 
  6 C        1.6430    -2.9320    -0.7310 C.3   1 <1>  -0.0960 
  7 C       -2.0170    -4.2810     1.1420 C.ar  1 <1>  -0.1430 
  8 C       -0.8540    -5.0370     1.2230 C.ar  1 <1>  -0.1500 
  9 C       -3.3110    -4.7760     1.7850 C.3   1 <1>   0.0450 
 10 C       -3.6000    -6.2480     1.5090 C.2   1 <1>   0.5690 
 11 O       -3.6710    -6.9820     2.4670 O.2   1 <1>  -0.5700 
 12 N       -3.7670    -6.7160     0.2310 N.am  1 <1>  -0.6600 
 13 C       -3.9690    -8.1760    -0.0360 C.3   1 <1>   0.3640 
 14 C       -3.7540    -5.8420    -0.9830 C.3   1 <1>   0.1400 
 15 C       -2.6340    -8.7900    -0.5000 C.ar  1 <1>  -0.1430 
 16 C       -5.1760    -8.3650    -1.0040 C.3   1 <1>   0.2000 
 17 C       -4.1390    -6.5880    -2.2720 C.3   1 <1>   0.1200 
 18 C       -1.5550    -8.7270     0.3740 C.ar  1 <1>  -0.1500 
 19 C       -2.4440    -9.4120    -1.7320 C.ar  1 <1>  -0.1500 
 20 O       -5.2340    -7.4410    -2.0770 O.3   1 <1>  -0.5600 
 21 C       -6.5090    -8.2410    -0.2540 C.3   1 <1>   0.1200 
 22 C       -0.3170    -9.2440     0.0350 C.ar  1 <1>   0.0830 
 23 C       -1.2080    -9.9280    -2.0850 C.ar  1 <1>  -0.1500 
 24 O       -6.7110    -9.3490     0.5630 O.3   1 <1>  -0.6800 
 25 O        0.6730    -9.1560     0.9550 O.3   1 <1>  -0.3630 
 26 C       -0.1340    -9.8330    -1.2190 C.ar  1 <1>   0.0830 
 27 C        1.0630   -10.3730     1.5520 C.3   1 <1>   0.0400 
 28 O        1.0570   -10.3260    -1.6420 O.3   1 <1>  -0.3630 
 29 C        2.1140    -9.4010    -1.7720 C.3   1 <1>   0.0400 
 30 H       -2.8610    -2.4510     0.3800 H     1 <1>   0.1500 
 31 H        1.2000    -5.2240     0.7000 H     1 <1>   0.1500 
 32 H        2.4340    -3.6480    -0.5990 H     1 <1>   0.0800 
 33 H        1.9510    -1.9970    -0.2990 H     1 <1>   0.0800 
 34 H        1.4810    -2.7900    -1.7840 H     1 <1>   0.0800 
 35 H       -0.8530    -5.9750     1.7540 H     1 <1>   0.1500 
 36 H       -4.1480    -4.1980     1.4430 H     1 <1>   0.0800 
 37 H       -3.2370    -4.6360     2.8480 H     1 <1>   0.0800 
 38 H       -4.2230    -8.6760     0.8830 H     1 <1>   0.0800 
 39 H       -4.4410    -5.0270    -0.8400 H     1 <1>   0.0800 
 40 H       -2.7680    -5.4300    -1.1140 H     1 <1>   0.0800 
 41 H       -5.1420    -9.3460    -1.4380 H     1 <1>   0.0800 
 42 H       -3.3090    -7.1620    -2.6380 H     1 <1>   0.0800 
 43 H       -4.4090    -5.8800    -3.0360 H     1 <1>   0.0800 
 44 H       -1.6690    -8.2760     1.3430 H     1 <1>   0.1500 
 45 H       -3.2440    -9.5030    -2.4440 H     1 <1>   0.1500 
 46 H       -7.3300    -8.1850    -0.9480 H     1 <1>   0.0800 
 47 H       -6.5050    -7.3640     0.3710 H     1 <1>   0.0800 
 48 H       -1.0690   -10.4020    -3.0390 H     1 <1>   0.1500 
 49 H       -6.9620   -10.1330     0.0360 H     1 <1>   0.4000 
 50 H        1.8080   -10.1600     2.2960 H     1 <1>   0.0800 
 51 H        1.4690   -11.0230     0.7980 H     1 <1>   0.0800 
 52 H        0.2010   -10.8240     2.0100 H     1 <1>   0.0800 
 53 H        2.9280    -9.8910    -2.2750 H     1 <1>   0.0800 
 54 H        2.4290    -9.0790    -0.7960 H     1 <1>   0.0800 
 55 H        1.7730    -8.5620    -2.3520 H     1 <1>   0.0800 
@<TRIPOS>BOND
  1   1   2  1   
  2   2   3  ar  
  3   2   4  ar  
  4   3   5  ar  
  5   3   6  1   
  6   4   7  ar  
  7   4  30  1   
  8   5   8  ar  
  9   5  31  1   
 10   6  32  1   
 11   6  33  1   
 12   6  34  1   
 13   7   8  ar  
 14   7   9  1   
 15   8  35  1   
 16   9  10  1   
 17   9  36  1   
 18   9  37  1   
 19  10  11  2   
 20  10  12  am  
 21  12  13  1   
 22  12  14  1   
 23  13  15  1   
 24  13  16  1   
 25  13  38  1   
 26  14  17  1   
 27  14  39  1   
 28  14  40  1   
 29  15  18  ar  
 30  15  19  ar  
 31  16  20  1   
 32  16  21  1   
 33  16  41  1   
 34  17  20  1   
 35  17  42  1   
 36  17  43  1   
 37  18  22  ar  
 38  18  44  1   
 39  19  23  ar  
 40  19  45  1   
 41  21  24  1   
 42  21  46  1   
 43  21  47  1   
 44  22  25  1   
 45  22  26  ar  
 46  23  26  ar  
 47  23  48  1   
 48  24  49  1   
 49  25  27  1   
 50  26  28  1   
 51  27  50  1   
 52  27  51  1   
 53  27  52  1   
 54  28  29  1   
 55  29  53  1   
 56  29  54  1   
 57  29  55  1   
@<TRIPOS>SUBSTRUCTURE
  1 ****  12 GROUP 4 **** **** 0

# MOE 2024.06 (io_trps.svl 2023.06)
