@<TRIPOS>MOLECULE
NONAME
43 44 1 0 0 
SMALL
USER_CHARGES


@<TRIPOS>ATOM
  1 F       -4.5470    -1.7180     2.5770 F     1 <1>  -0.1900 
  2 C       -4.2070    -0.5780     2.0200 C.ar  1 <1>   0.1900 
  3 C       -3.9730    -0.5460     0.6470 C.ar  1 <1>   0.1170 
  4 C       -4.1010     0.5350     2.8300 C.ar  1 <1>  -0.1500 
  5 N       -4.0990    -1.7260    -0.1090 N.am  1 <1>  -0.5470 
  6 C       -3.6170     0.6820     0.0980 C.ar  1 <1>  -0.1500 
  7 C       -3.7470     1.7430     2.2530 C.ar  1 <1>  -0.1500 
  8 C       -4.1790    -1.9810    -1.4470 C.2   1 <1>   0.5690 
  9 C       -3.5060     1.8180     0.8890 C.ar  1 <1>  -0.1440 
 10 O       -4.1080    -1.1400    -2.3080 O.2   1 <1>  -0.5700 
 11 C       -4.3940    -3.4420    -1.8510 C.3   1 <1>   0.1710 
 12 C       -3.1170     3.1450     0.2620 C.3   1 <1>  -0.0970 
 13 N       -5.1260    -4.2600    -0.8290 N.3   1 <1>  -0.8100 
 14 C       -5.1970    -5.6780    -1.2030 C.3   1 <1>   0.1100 
 15 C       -6.5290    -3.8310    -0.6750 C.3   1 <1>   0.1100 
 16 C       -6.3120    -6.2280    -0.3060 C.3   1 <1>   0.4230 
 17 C       -7.3450    -5.1180    -0.4980 C.3   1 <1>  -0.1600 
 18 N       -5.8370    -6.2560     1.1200 N.4   1 <1>  -0.9590 
 19 C       -4.7250    -7.2320     1.3410 C.3   1 <1>   0.2630 
 20 C       -6.9140    -6.4920     2.1330 C.3   1 <1>   0.2630 
 21 H       -4.2910     0.4600     3.8850 H     1 <1>   0.1500 
 22 H       -4.2530    -2.5670     0.4490 H     1 <1>   0.3700 
 23 H       -3.4210     0.7550    -0.9560 H     1 <1>   0.1500 
 24 H       -3.6580     2.6220     2.8680 H     1 <1>   0.1500 
 25 H       -3.4220    -3.8720    -2.0190 H     1 <1>   0.0800 
 26 H       -4.9240    -3.4590    -2.7880 H     1 <1>   0.0800 
 27 H       -3.3490     3.1510    -0.7880 H     1 <1>   0.0800 
 28 H       -2.0610     3.3090     0.3840 H     1 <1>   0.0800 
 29 H       -3.6520     3.9510     0.7300 H     1 <1>   0.0800 
 30 H       -4.2510    -6.1720    -1.0670 H     1 <1>   0.0800 
 31 H       -5.4890    -5.7730    -2.2360 H     1 <1>   0.0800 
 32 H       -6.8760    -3.2910    -1.5430 H     1 <1>   0.0800 
 33 H       -6.6210    -3.1910     0.1870 H     1 <1>   0.0800 
 34 H       -6.6700    -7.1940    -0.6250 H     1 <1>   0.0800 
 35 H       -7.8760    -5.3000    -1.4160 H     1 <1>   0.0800 
 36 H       -8.0810    -5.0300     0.2770 H     1 <1>   0.0800 
 37 H       -5.4500    -5.3020     1.2430 H     1 <1>   0.4500 
 38 H       -5.0550    -8.2340     1.1200 H     1 <1>   0.0800 
 39 H       -4.3990    -7.1960     2.3680 H     1 <1>   0.0800 
 40 H       -3.8810    -6.9960     0.7140 H     1 <1>   0.0800 
 41 H       -7.4110    -7.4290     1.9390 H     1 <1>   0.0800 
 42 H       -7.6430    -5.7000     2.1090 H     1 <1>   0.0800 
 43 H       -6.4910    -6.5260     3.1240 H     1 <1>   0.0800 
@<TRIPOS>BOND
  1   1   2  1   
  2   2   3  ar  
  3   2   4  ar  
  4   3   5  1   
  5   3   6  ar  
  6   4   7  ar  
  7   4  21  1   
  8   5   8  am  
  9   5  22  1   
 10   6   9  ar  
 11   6  23  1   
 12   7   9  ar  
 13   7  24  1   
 14   8  10  2   
 15   8  11  1   
 16   9  12  1   
 17  11  13  1   
 18  11  25  1   
 19  11  26  1   
 20  12  27  1   
 21  12  28  1   
 22  12  29  1   
 23  13  14  1   
 24  13  15  1   
 25  14  16  1   
 26  14  30  1   
 27  14  31  1   
 28  15  17  1   
 29  15  32  1   
 30  15  33  1   
 31  16  17  1   
 32  16  18  1   
 33  16  34  1   
 34  17  35  1   
 35  17  36  1   
 36  18  19  1   
 37  18  20  1   
 38  18  37  1   
 39  19  38  1   
 40  19  39  1   
 41  19  40  1   
 42  20  41  1   
 43  20  42  1   
 44  20  43  1   
@<TRIPOS>SUBSTRUCTURE
  1 ****   5 GROUP 4 **** **** 0

# MOE 2024.06 (io_trps.svl 2023.06)
