@<TRIPOS>MOLECULE
NONAME
49 53 1 0 0 
SMALL
USER_CHARGES


@<TRIPOS>ATOM
  1 O       -1.4770    -0.0930     1.8300 O.3   1 <1>  -0.6800 
  2 C       -1.8000    -1.2090     1.0960 C.3   1 <1>   0.2800 
  3 C       -3.3230    -1.2620     0.9160 C.3   1 <1>  -0.1600 
  4 C       -1.3090    -2.4540     1.8440 C.3   1 <1>  -0.1600 
  5 C       -1.1130    -1.1100    -0.2720 C.3   1 <1>  -0.1600 
  6 C       -3.7250    -2.5070     0.0810 C.3   1 <1>   0.0000 
  7 C       -1.6670    -3.7040     1.0190 C.3   1 <1>  -0.0800 
  8 C       -1.4690    -2.3540    -1.1060 C.3   1 <1>  -0.0800 
  9 C       -5.2780    -2.6000    -0.0610 C.3   1 <1>   0.2890 
 10 C       -3.1940    -3.7630     0.8270 C.3   1 <1>  -0.1600 
 11 C       -2.9980    -2.4210    -1.2900 C.3   1 <1>  -0.1600 
 12 C       -0.9910    -3.6160    -0.3620 C.3   1 <1>  -0.1600 
 13 N       -5.6610    -3.8040    -0.8300 N.pl3 1 <1>  -0.8690 
 14 C       -5.9510    -1.4150    -0.7570 C.3   1 <1>  -0.2400 
 15 C       -6.5580    -4.7700    -0.5410 C.2   1 <1>   0.2710 
 16 N       -6.4150    -5.8710    -1.2790 N.2   1 <1>  -0.6210 
 17 C       -7.5430    -4.6500     0.4090 C.2   1 <1>  -0.1410 
 18 C       -7.2310    -6.8560    -1.0810 C.2   1 <1>   0.9190 
 19 C       -8.3820    -5.7260     0.5730 C.cat 1 <1>   0.7910 
 20 N       -8.2240    -6.8230    -0.1650 N.pl3 1 <1>  -0.6690 
 21 N       -7.0760    -7.9500    -1.8220 N.pl3 1 <1>  -0.8500 
 22 N       -9.4300    -5.9600     1.3800 N.pl3 1 <1>  -0.3930 
 23 C       -9.2080    -7.6900     0.2400 C.2   1 <1>   0.5030 
 24 N       -9.9460    -7.2010     1.1650 N.2   1 <1>  -0.2600 
 25 H       -1.8420    -0.1780     2.7280 H     1 <1>   0.4000 
 26 H       -3.6310    -0.3630     0.4140 H     1 <1>   0.0800 
 27 H       -3.8010    -1.3000     1.8780 H     1 <1>   0.0800 
 28 H       -1.7720    -2.5170     2.8120 H     1 <1>   0.0800 
 29 H       -0.2420    -2.4030     1.9770 H     1 <1>   0.0800 
 30 H       -0.0470    -1.0530    -0.1400 H     1 <1>   0.0800 
 31 H       -1.4400    -0.2210    -0.7820 H     1 <1>   0.0800 
 32 H       -1.3280    -4.5880     1.5330 H     1 <1>   0.0800 
 33 H       -0.9880    -2.2960    -2.0680 H     1 <1>   0.0800 
 34 H       -5.6870    -2.6770     0.9310 H     1 <1>   0.0800 
 35 H       -3.4340    -4.6540     0.2730 H     1 <1>   0.0800 
 36 H       -3.6700    -3.8470     1.7880 H     1 <1>   0.0800 
 37 H       -3.3150    -1.5450    -1.8280 H     1 <1>   0.0800 
 38 H       -3.2350    -3.2770    -1.8950 H     1 <1>   0.0800 
 39 H       -1.2280    -4.4920    -0.9410 H     1 <1>   0.0800 
 40 H        0.0780    -3.5850    -0.2430 H     1 <1>   0.0800 
 41 H       -5.0190    -4.0040    -1.6040 H     1 <1>   0.4000 
 42 H       -5.5810    -1.2930    -1.7570 H     1 <1>   0.0800 
 43 H       -5.7840    -0.5040    -0.2130 H     1 <1>   0.0800 
 44 H       -7.0130    -1.5760    -0.8040 H     1 <1>   0.0800 
 45 H       -7.6630    -3.7590     0.9900 H     1 <1>   0.1500 
 46 H       -6.3200    -7.9470    -2.5090 H     1 <1>   0.4000 
 47 H       -7.6350    -8.7960    -1.7810 H     1 <1>   0.4000 
 48 H       -9.8140    -5.3070     2.0720 H     1 <1>   0.4500 
 49 H       -9.3290    -8.6730    -0.1880 H     1 <1>   0.1500 
@<TRIPOS>BOND
  1   1   2  1   
  2   1  25  1   
  3   2   3  1   
  4   2   4  1   
  5   2   5  1   
  6   3   6  1   
  7   3  26  1   
  8   3  27  1   
  9   4   7  1   
 10   4  28  1   
 11   4  29  1   
 12   5   8  1   
 13   5  30  1   
 14   5  31  1   
 15   6   9  1   
 16   6  10  1   
 17   6  11  1   
 18   7  10  1   
 19   7  12  1   
 20   7  32  1   
 21   8  11  1   
 22   8  12  1   
 23   8  33  1   
 24   9  13  1   
 25   9  14  1   
 26   9  34  1   
 27  10  35  1   
 28  10  36  1   
 29  11  37  1   
 30  11  38  1   
 31  12  39  1   
 32  12  40  1   
 33  13  15  1   
 34  13  41  1   
 35  14  42  1   
 36  14  43  1   
 37  14  44  1   
 38  15  16  1   
 39  15  17  2   
 40  16  18  2   
 41  17  19  1   
 42  17  45  1   
 43  18  20  1   
 44  18  21  1   
 45  19  20  ar  
 46  19  22  ar  
 47  20  23  1   
 48  21  46  1   
 49  21  47  1   
 50  22  24  1   
 51  22  48  1   
 52  23  24  2   
 53  23  49  1   
@<TRIPOS>SUBSTRUCTURE
  1 ****  13 GROUP 4 **** **** 0

# MOE 2024.06 (io_trps.svl 2023.06)
