@<TRIPOS>MOLECULE
NONAME
39 41 1 0 0 
SMALL
USER_CHARGES


@<TRIPOS>ATOM
  1 CL      -1.1370     0.5650     2.5950 Cl    1 <1>  -0.1230 
  2 C       -2.0130     0.8590     1.1000 C.2   1 <1>   0.1230 
  3 C       -2.7560    -0.0650     0.3530 C.2   1 <1>   0.2030 
  4 C       -2.0940     2.0470     0.4800 C.2   1 <1>  -0.3020 
  5 N       -3.2820     0.5650    -0.6940 N.2   1 <1>  -0.7070 
  6 C       -2.8950    -1.4770     0.6980 C.2   1 <1>   0.7160 
  7 N       -2.8640     1.8410    -0.6030 N.pl3 1 <1>   0.3000 
  8 O       -2.0230    -2.0470     1.3340 O.2   1 <1>  -0.5700 
  9 N       -3.9890    -2.2340     0.3230 N.am  1 <1>  -0.6600 
 10 C       -5.1600    -1.7570    -0.4520 C.3   1 <1>   0.1400 
 11 C       -4.1650    -3.6570     0.6850 C.3   1 <1>   0.1400 
 12 C       -6.1540    -2.9270    -0.4670 C.3   1 <1>   0.2000 
 13 C       -5.2690    -4.1590    -0.2480 C.3   1 <1>  -0.0800 
 14 O       -7.0440    -2.8160     0.6080 O.3   1 <1>  -0.5600 
 15 C       -6.0130    -5.3950     0.2910 C.3   1 <1>   0.0200 
 16 C       -8.1500    -2.0000     0.3830 C.3   1 <1>   0.0400 
 17 C       -5.1460    -6.6430     0.3310 C.2   1 <1>  -0.0400 
 18 O       -5.6400    -7.7330     0.8560 O.3   1 <1>  -0.0190 
 19 C       -3.8970    -6.9200    -0.0790 C.2   1 <1>  -0.1500 
 20 N       -4.7920    -8.7190     0.8230 N.2   1 <1>  -0.4100 
 21 C       -3.7310    -8.2580     0.2650 C.2   1 <1>   0.1080 
 22 C       -2.4780    -9.0670     0.0200 C.3   1 <1>  -0.0590 
 23 H       -1.6620     2.9940     0.7440 H     1 <1>   0.1500 
 24 H       -3.1210     2.5550    -1.2980 H     1 <1>   0.2700 
 25 H       -5.5820    -0.8730    -0.0080 H     1 <1>   0.0800 
 26 H       -4.8400    -1.5370    -1.4560 H     1 <1>   0.0800 
 27 H       -3.2460    -4.2030     0.5590 H     1 <1>   0.0800 
 28 H       -4.4800    -3.7160     1.7130 H     1 <1>   0.0800 
 29 H       -6.7110    -2.9880    -1.3860 H     1 <1>   0.0800 
 30 H       -4.8170    -4.4090    -1.1910 H     1 <1>   0.0800 
 31 H       -6.8660    -5.5960    -0.3320 H     1 <1>   0.0800 
 32 H       -6.3750    -5.1980     1.2850 H     1 <1>   0.0800 
 33 H       -8.7470    -1.9940     1.2780 H     1 <1>   0.0800 
 34 H       -8.7280    -2.4010    -0.4320 H     1 <1>   0.0800 
 35 H       -7.8250    -0.9990     0.1610 H     1 <1>   0.0800 
 36 H       -3.1670    -6.2970    -0.5600 H     1 <1>   0.1500 
 37 H       -2.2620    -9.0980    -1.0310 H     1 <1>   0.0800 
 38 H       -2.6150   -10.0720     0.3770 H     1 <1>   0.0800 
 39 H       -1.6500    -8.6230     0.5410 H     1 <1>   0.0800 
@<TRIPOS>BOND
  1   1   2  1   
  2   2   3  1   
  3   2   4  2   
  4   3   5  2   
  5   3   6  1   
  6   4   7  1   
  7   4  23  1   
  8   5   7  1   
  9   6   8  2   
 10   6   9  am  
 11   7  24  1   
 12   9  10  1   
 13   9  11  1   
 14  10  12  1   
 15  10  25  1   
 16  10  26  1   
 17  11  13  1   
 18  11  27  1   
 19  11  28  1   
 20  12  13  1   
 21  12  14  1   
 22  12  29  1   
 23  13  15  1   
 24  13  30  1   
 25  14  16  1   
 26  15  17  1   
 27  15  31  1   
 28  15  32  1   
 29  16  33  1   
 30  16  34  1   
 31  16  35  1   
 32  17  18  1   
 33  17  19  2   
 34  18  20  1   
 35  19  21  1   
 36  19  36  1   
 37  20  21  2   
 38  21  22  1   
 39  22  37  1   
 40  22  38  1   
 41  22  39  1   
@<TRIPOS>SUBSTRUCTURE
  1 ****  11 GROUP 4 **** **** 0

# MOE 2024.06 (io_trps.svl 2023.06)
