@<TRIPOS>MOLECULE
NONAME
43 44 1 0 0 
SMALL
USER_CHARGES


@<TRIPOS>ATOM
  1 O       -1.3440    -0.8370     1.7150 O.3   1 <1>  -0.3630 
  2 C       -2.0170    -1.0480     0.5670 C.ar  1 <1>   0.0820 
  3 C        0.0230    -0.5190     1.5870 C.3   1 <1>   0.0400 
  4 C       -2.6200     0.0030    -0.1180 C.ar  1 <1>  -0.1440 
  5 C       -2.1160    -2.3460     0.0950 C.ar  1 <1>  -0.1500 
  6 C       -3.2980    -0.2690    -1.2950 C.ar  1 <1>  -0.1500 
  7 C       -2.5510     1.4330     0.3990 C.3   1 <1>  -0.0960 
  8 C       -2.8140    -2.6140    -1.0720 C.ar  1 <1>  -0.1430 
  9 C       -3.3940    -1.5660    -1.7710 C.ar  1 <1>  -0.1500 
 10 C       -2.9550    -4.0390    -1.5660 C.3   1 <1>   0.4860 
 11 N       -3.9060    -4.7520    -0.6700 N.4   1 <1>  -0.9590 
 12 C       -3.9150    -6.2260    -0.9550 C.3   1 <1>   0.3430 
 13 C       -5.2730    -4.1570    -0.7450 C.3   1 <1>   0.3430 
 14 C       -4.8780    -6.9980    -0.0320 C.3   1 <1>   0.2000 
 15 C       -6.2080    -4.8750     0.2290 C.3   1 <1>  -0.1600 
 16 O       -4.9250    -8.3030    -0.4900 O.3   1 <1>  -0.6800 
 17 C       -6.2920    -6.3920    -0.0520 C.3   1 <1>  -0.0800 
 18 C       -7.2280    -7.1030     0.9420 C.3   1 <1>   0.1200 
 19 O       -8.4750    -6.5080     0.8840 O.3   1 <1>  -0.6800 
 20 H        0.4250    -0.3580     2.5710 H     1 <1>   0.0800 
 21 H        0.1230     0.3750     0.9980 H     1 <1>   0.0800 
 22 H        0.5300    -1.3390     1.1100 H     1 <1>   0.0800 
 23 H       -1.6390    -3.1250     0.6620 H     1 <1>   0.1500 
 24 H       -3.7590     0.5340    -1.8450 H     1 <1>   0.1500 
 25 H       -3.3480     2.0270    -0.0100 H     1 <1>   0.0800 
 26 H       -1.6130     1.8780     0.1230 H     1 <1>   0.0800 
 27 H       -2.6400     1.4470     1.4710 H     1 <1>   0.0800 
 28 H       -3.9290    -1.7390    -2.6900 H     1 <1>   0.1500 
 29 H       -1.9890    -4.5190    -1.5420 H     1 <1>   0.0800 
 30 H       -3.3170    -4.0460    -2.5810 H     1 <1>   0.0800 
 31 H       -3.5690    -4.5920     0.2880 H     1 <1>   0.4500 
 32 H       -4.2290    -6.3890    -1.9730 H     1 <1>   0.0800 
 33 H       -2.9240    -6.6300    -0.8340 H     1 <1>   0.0800 
 34 H       -5.2360    -3.1080    -0.4940 H     1 <1>   0.0800 
 35 H       -5.6610    -4.2510    -1.7470 H     1 <1>   0.0800 
 36 H       -4.4820    -7.0160     0.9700 H     1 <1>   0.0800 
 37 H       -5.8840    -4.6950     1.2390 H     1 <1>   0.0800 
 38 H       -7.1860    -4.4350     0.1270 H     1 <1>   0.0800 
 39 H       -5.4640    -8.8770     0.0920 H     1 <1>   0.4000 
 40 H       -6.6980    -6.5270    -1.0410 H     1 <1>   0.0800 
 41 H       -6.8630    -7.0200     1.9520 H     1 <1>   0.0800 
 42 H       -7.3480    -8.1420     0.6850 H     1 <1>   0.0800 
 43 H       -9.1170    -6.9690     1.4620 H     1 <1>   0.4000 
@<TRIPOS>BOND
  1   1   2  1   
  2   1   3  1   
  3   2   4  ar  
  4   2   5  ar  
  5   3  20  1   
  6   3  21  1   
  7   3  22  1   
  8   4   6  ar  
  9   4   7  1   
 10   5   8  ar  
 11   5  23  1   
 12   6   9  ar  
 13   6  24  1   
 14   7  25  1   
 15   7  26  1   
 16   7  27  1   
 17   8   9  ar  
 18   8  10  1   
 19   9  28  1   
 20  10  11  1   
 21  10  29  1   
 22  10  30  1   
 23  11  12  1   
 24  11  13  1   
 25  11  31  1   
 26  12  14  1   
 27  12  32  1   
 28  12  33  1   
 29  13  15  1   
 30  13  34  1   
 31  13  35  1   
 32  14  16  1   
 33  14  17  1   
 34  14  36  1   
 35  15  17  1   
 36  15  37  1   
 37  15  38  1   
 38  16  39  1   
 39  17  18  1   
 40  17  40  1   
 41  18  19  1   
 42  18  41  1   
 43  18  42  1   
 44  19  43  1   
@<TRIPOS>SUBSTRUCTURE
  1 ****  11 GROUP 4 **** **** 0

# MOE 2024.06 (io_trps.svl 2023.06)
