@<TRIPOS>MOLECULE
NONAME
45 47 1 0 0 
SMALL
USER_CHARGES


@<TRIPOS>ATOM
  1 S        0.1670     0.1450    -0.9280 S.3   1 <1>  -0.2420 
  2 C        1.7640    -0.5960    -0.8510 C.2   1 <1>   0.6410 
  3 C       -0.6180    -1.4010    -0.5440 C.2   1 <1>  -0.0490 
  4 N        2.8530     0.0500    -1.0540 N.2   1 <1>  -0.6610 
  5 N        1.6420    -1.9430    -0.5470 N.pl3 1 <1>  -0.1080 
  6 C        0.3030    -2.3690    -0.3810 C.2   1 <1>   0.2090 
  7 C        3.9660    -0.7390    -0.9400 C.2   1 <1>   0.7810 
  8 N        2.7390    -2.7640    -0.4250 N.2   1 <1>  -0.4920 
  9 N        0.1090    -3.7210    -0.0720 N.am  1 <1>  -0.5390 
 10 O        5.0520    -0.1990    -1.1190 O.2   1 <1>  -0.5700 
 11 C        3.8640    -2.1520    -0.6220 C.2   1 <1>   0.3890 
 12 C       -1.0400    -4.4300     0.1310 C.2   1 <1>   0.7150 
 13 C        5.1400    -2.9760    -0.5100 C.3   1 <1>  -0.1790 
 14 O       -2.1120    -3.8640     0.0380 O.2   1 <1>  -0.5700 
 15 C       -0.9360    -5.8260     0.4470 C.2   1 <1>  -0.2370 
 16 N       -1.9800    -6.6970     0.5560 N.pl3 1 <1>   0.3140 
 17 C        0.1800    -6.5700     0.6980 C.2   1 <1>  -0.1500 
 18 N       -1.5570    -7.9390     0.8600 N.2   1 <1>  -0.7070 
 19 C       -3.4280    -6.3820     0.3690 C.3   1 <1>   0.0960 
 20 C       -0.2670    -7.8530     0.9410 C.2   1 <1>   0.1080 
 21 C       -4.3560    -7.6040     0.4680 C.3   1 <1>  -0.2400 
 22 C        0.6160    -9.0450     1.2680 C.3   1 <1>   0.0210 
 23 C        1.5510    -9.4310     0.1050 C.3   1 <1>  -0.0800 
 24 C        0.7580    -9.8590    -1.1390 C.3   1 <1>  -0.2400 
 25 C        2.4940   -10.5640     0.5300 C.3   1 <1>  -0.2400 
 26 H       -1.6930    -1.4090    -0.4840 H     1 <1>   0.1500 
 27 H        0.9740    -4.2550    -0.0040 H     1 <1>   0.3700 
 28 H        5.7690    -2.5680     0.2600 H     1 <1>   0.0800 
 29 H        5.6730    -2.9490    -1.4430 H     1 <1>   0.0800 
 30 H        4.9150    -3.9990    -0.2680 H     1 <1>   0.0800 
 31 H        1.2090    -6.2640     0.7160 H     1 <1>   0.1500 
 32 H       -3.5460    -5.9280    -0.5970 H     1 <1>   0.0800 
 33 H       -3.7080    -5.6620     1.1160 H     1 <1>   0.0800 
 34 H       -4.0950    -8.3300    -0.2820 H     1 <1>   0.0800 
 35 H       -5.3760    -7.3030     0.3160 H     1 <1>   0.0800 
 36 H       -4.2720    -8.0560     1.4410 H     1 <1>   0.0800 
 37 H       -0.0120    -9.8810     1.5210 H     1 <1>   0.0800 
 38 H        1.1990    -8.8020     2.1370 H     1 <1>   0.0800 
 39 H        2.1500    -8.5740    -0.1530 H     1 <1>   0.0800 
 40 H        0.1330   -10.7060    -0.9150 H     1 <1>   0.0800 
 41 H        1.4260   -10.1240    -1.9390 H     1 <1>   0.0800 
 42 H        0.1270    -9.0570    -1.4800 H     1 <1>   0.0800 
 43 H        1.9330   -11.4440     0.7930 H     1 <1>   0.0800 
 44 H        3.0820   -10.2650     1.3790 H     1 <1>   0.0800 
 45 H        3.1640   -10.8130    -0.2740 H     1 <1>   0.0800 
@<TRIPOS>BOND
  1   1   2  1   
  2   1   3  1   
  3   2   4  2   
  4   2   5  1   
  5   3   6  2   
  6   3  26  1   
  7   4   7  1   
  8   5   6  1   
  9   5   8  1   
 10   6   9  1   
 11   7  10  2   
 12   7  11  1   
 13   8  11  2   
 14   9  12  am  
 15   9  27  1   
 16  11  13  1   
 17  12  14  2   
 18  12  15  1   
 19  13  28  1   
 20  13  29  1   
 21  13  30  1   
 22  15  16  1   
 23  15  17  2   
 24  16  18  1   
 25  16  19  1   
 26  17  20  1   
 27  17  31  1   
 28  18  20  2   
 29  19  21  1   
 30  19  32  1   
 31  19  33  1   
 32  20  22  1   
 33  21  34  1   
 34  21  35  1   
 35  21  36  1   
 36  22  23  1   
 37  22  37  1   
 38  22  38  1   
 39  23  24  1   
 40  23  25  1   
 41  23  39  1   
 42  24  40  1   
 43  24  41  1   
 44  24  42  1   
 45  25  43  1   
 46  25  44  1   
 47  25  45  1   
@<TRIPOS>SUBSTRUCTURE
  1 ****   9 GROUP 4 **** **** 0

# MOE 2024.06 (io_trps.svl 2023.06)
