@<TRIPOS>MOLECULE
NONAME
56 57 1 0 0 
SMALL
USER_CHARGES


@<TRIPOS>ATOM
  1 O       -1.7320    -0.7330     1.0390 O.3   1 <1>  -0.3630 
  2 C       -1.3520    -1.9520     0.5860 C.ar  1 <1>   0.0830 
  3 C       -1.1100    -0.1570     2.1690 C.3   1 <1>   0.0400 
  4 C       -1.4950    -2.2140    -0.7700 C.ar  1 <1>  -0.1440 
  5 C       -0.8470    -2.9330     1.4320 C.ar  1 <1>  -0.1500 
  6 C       -1.1680    -3.4670    -1.2550 C.ar  1 <1>  -0.1500 
  7 C       -1.9880    -1.1300    -1.7210 C.3   1 <1>  -0.0960 
  8 C       -0.5110    -4.1860     0.9460 C.ar  1 <1>  -0.1430 
  9 C       -0.7030    -4.4620    -0.4060 C.ar  1 <1>  -0.1430 
 10 C        0.0620    -5.2100     1.9220 C.3   1 <1>  -0.0970 
 11 C       -0.4580    -5.8420    -0.9880 C.3   1 <1>   0.4860 
 12 N       -1.5680    -6.7260    -0.5310 N.4   1 <1>  -0.9590 
 13 C       -1.4520    -8.1340    -0.9950 C.3   1 <1>   0.5240 
 14 C       -2.9580    -6.1660    -0.7020 C.3   1 <1>   0.3430 
 15 C       -2.1800    -8.9870     0.0410 C.2   1 <1>   0.0460 
 16 C       -3.5610    -5.6630     0.6420 C.3   1 <1>   0.3430 
 17 N       -2.3100    -8.5440     1.3160 N.2   1 <1>  -0.5650 
 18 C       -2.7580   -10.2010    -0.1080 C.2   1 <1>  -0.3320 
 19 N       -4.7680    -4.7680     0.5090 N.4   1 <1>  -0.9590 
 20 C       -2.9370    -9.5080     1.9130 C.2   1 <1>   0.0360 
 21 N       -3.2410   -10.5430     1.1030 N.pl3 1 <1>   0.0330 
 22 C       -2.8870   -11.1170    -1.3160 C.3   1 <1>  -0.0600 
 23 C       -4.4020    -3.4020     0.0040 C.3   1 <1>   0.2630 
 24 C       -5.4360    -4.6200     1.8430 C.3   1 <1>   0.2630 
 25 H       -1.3930     0.8790     2.2140 H     1 <1>   0.0800 
 26 H       -0.0420    -0.2380     2.0610 H     1 <1>   0.0800 
 27 H       -1.4460    -0.6630     3.0560 H     1 <1>   0.0800 
 28 H       -0.7140    -2.7210     2.4770 H     1 <1>   0.1500 
 29 H       -1.2760    -3.6600    -2.3100 H     1 <1>   0.1500 
 30 H       -2.9430    -0.7540    -1.3990 H     1 <1>   0.0800 
 31 H       -2.0810    -1.4950    -2.7280 H     1 <1>   0.0800 
 32 H       -1.2890    -0.3110    -1.7230 H     1 <1>   0.0800 
 33 H        0.4190    -4.7220     2.8120 H     1 <1>   0.0800 
 34 H        0.9010    -5.7260     1.4890 H     1 <1>   0.0800 
 35 H       -0.6830    -5.9270     2.2160 H     1 <1>   0.0800 
 36 H        0.4930    -6.2200    -0.6490 H     1 <1>   0.0800 
 37 H       -0.4410    -5.7860    -2.0640 H     1 <1>   0.0800 
 38 H       -1.4380    -6.8680     0.4870 H     1 <1>   0.4500 
 39 H       -0.4170    -8.4350    -1.0170 H     1 <1>   0.0800 
 40 H       -1.8810    -8.2670    -1.9740 H     1 <1>   0.0800 
 41 H       -3.6070    -6.9300    -1.0980 H     1 <1>   0.0800 
 42 H       -2.9280    -5.3500    -1.4050 H     1 <1>   0.0800 
 43 H       -2.8010    -5.1230     1.1800 H     1 <1>   0.0800 
 44 H       -3.8270    -6.5290     1.2290 H     1 <1>   0.0800 
 45 H       -5.4620    -5.1880    -0.1310 H     1 <1>   0.4500 
 46 H       -3.2000    -9.5160     2.9590 H     1 <1>   0.1500 
 47 H       -3.7200   -11.4130     1.3660 H     1 <1>   0.2700 
 48 H       -2.4320   -10.6810    -2.1870 H     1 <1>   0.0800 
 49 H       -3.9240   -11.3070    -1.5330 H     1 <1>   0.0800 
 50 H       -2.4030   -12.0590    -1.1200 H     1 <1>   0.0800 
 51 H       -3.7120    -2.9230     0.6810 H     1 <1>   0.0800 
 52 H       -5.2820    -2.7830    -0.0760 H     1 <1>   0.0800 
 53 H       -3.9400    -3.4620    -0.9670 H     1 <1>   0.0800 
 54 H       -4.7640    -4.1650     2.5530 H     1 <1>   0.0800 
 55 H       -5.7390    -5.5830     2.2230 H     1 <1>   0.0800 
 56 H       -6.3130    -3.9980     1.7560 H     1 <1>   0.0800 
@<TRIPOS>BOND
  1   1   2  1   
  2   1   3  1   
  3   2   4  ar  
  4   2   5  ar  
  5   3  25  1   
  6   3  26  1   
  7   3  27  1   
  8   4   6  ar  
  9   4   7  1   
 10   5   8  ar  
 11   5  28  1   
 12   6   9  ar  
 13   6  29  1   
 14   7  30  1   
 15   7  31  1   
 16   7  32  1   
 17   8   9  ar  
 18   8  10  1   
 19   9  11  1   
 20  10  33  1   
 21  10  34  1   
 22  10  35  1   
 23  11  12  1   
 24  11  36  1   
 25  11  37  1   
 26  12  13  1   
 27  12  14  1   
 28  12  38  1   
 29  13  15  1   
 30  13  39  1   
 31  13  40  1   
 32  14  16  1   
 33  14  41  1   
 34  14  42  1   
 35  15  17  1   
 36  15  18  2   
 37  16  19  1   
 38  16  43  1   
 39  16  44  1   
 40  17  20  2   
 41  18  21  1   
 42  18  22  1   
 43  19  23  1   
 44  19  24  1   
 45  19  45  1   
 46  20  21  1   
 47  20  46  1   
 48  21  47  1   
 49  22  48  1   
 50  22  49  1   
 51  22  50  1   
 52  23  51  1   
 53  23  52  1   
 54  23  53  1   
 55  24  54  1   
 56  24  55  1   
 57  24  56  1   
@<TRIPOS>SUBSTRUCTURE
  1 ****  14 GROUP 4 **** **** 0

# MOE 2024.06 (io_trps.svl 2023.06)
