@<TRIPOS>MOLECULE
NONAME
38 39 1 0 0 
SMALL
USER_CHARGES


@<TRIPOS>ATOM
  1 S        0.2810     0.3650    -0.9800 S.o2  1 <1>   1.3330 
  2 O        0.5960    -0.8650    -1.6720 O.2   1 <1>  -0.6500 
  3 O       -0.7120     1.2610    -1.5280 O.2   1 <1>  -0.6500 
  4 N       -0.2220    -0.0380     0.5930 N.am  1 <1>  -0.8490 
  5 C        1.8140     1.2630    -0.7210 C.3   1 <1>  -0.0550 
  6 C       -1.0510    -1.2470     0.6140 C.3   1 <1>   0.1160 
  7 C       -0.9250     1.0540     1.2740 C.3   1 <1>   0.1160 
  8 C        2.9770     0.3890    -0.2040 C.3   1 <1>  -0.0800 
  9 C        4.3300     1.0830    -0.1510 C.3   1 <1>   0.2200 
 10 C        2.8150    -0.1440     1.2260 C.3   1 <1>   0.1200 
 11 N        4.2040     2.4480     0.4130 N.am  1 <1>  -0.7300 
 12 C        5.0470     0.2070     0.8650 C.3   1 <1>   0.1200 
 13 O        4.0780    -0.0830     1.8250 O.3   1 <1>  -0.5600 
 14 C        4.2330     3.6120    -0.3010 C.2   1 <1>   0.7150 
 15 O        4.2410     3.5270    -1.5150 O.2   1 <1>  -0.5700 
 16 C        4.2350     4.8830     0.3920 C.2   1 <1>   0.0550 
 17 O        4.1800     6.0330    -0.2760 O.3   1 <1>  -0.2800 
 18 C        4.2860     5.1700     1.7250 C.2   1 <1>  -0.1500 
 19 C        4.1960     7.0280     0.5810 C.2   1 <1>  -0.0100 
 20 C        4.2610     6.5600     1.8440 C.2   1 <1>  -0.1500 
 21 H        2.1130     1.6900    -1.6590 H     1 <1>   0.0800 
 22 H        1.6380     2.0760    -0.0450 H     1 <1>   0.0800 
 23 H       -1.3460    -1.4820     1.6220 H     1 <1>   0.0800 
 24 H       -0.4960    -2.0840     0.2230 H     1 <1>   0.0800 
 25 H       -1.9330    -1.1060     0.0100 H     1 <1>   0.0800 
 26 H       -1.1390     0.7780     2.2930 H     1 <1>   0.0800 
 27 H       -1.8520     1.2790     0.7710 H     1 <1>   0.0800 
 28 H       -0.3160     1.9410     1.2850 H     1 <1>   0.0800 
 29 H        3.0740    -0.4620    -0.8560 H     1 <1>   0.0800 
 30 H        4.8300     1.1030    -1.1060 H     1 <1>   0.0800 
 31 H        2.4700    -1.1640     1.2350 H     1 <1>   0.0800 
 32 H        2.1500     0.4690     1.8110 H     1 <1>   0.0800 
 33 H        4.1470     2.4730     1.4320 H     1 <1>   0.3700 
 34 H        5.8860     0.6970     1.3270 H     1 <1>   0.0800 
 35 H        5.3620    -0.7210     0.4190 H     1 <1>   0.0800 
 36 H        4.3400     4.4850     2.5530 H     1 <1>   0.1500 
 37 H        4.1590     8.0380     0.2090 H     1 <1>   0.1500 
 38 H        4.2900     7.1170     2.7640 H     1 <1>   0.1500 
@<TRIPOS>BOND
  1   1   2  2   
  2   1   3  2   
  3   1   4  am  
  4   1   5  1   
  5   4   6  1   
  6   4   7  1   
  7   5   8  1   
  8   5  21  1   
  9   5  22  1   
 10   6  23  1   
 11   6  24  1   
 12   6  25  1   
 13   7  26  1   
 14   7  27  1   
 15   7  28  1   
 16   8   9  1   
 17   8  10  1   
 18   8  29  1   
 19   9  11  1   
 20   9  12  1   
 21   9  30  1   
 22  10  13  1   
 23  10  31  1   
 24  10  32  1   
 25  11  14  am  
 26  11  33  1   
 27  12  13  1   
 28  12  34  1   
 29  12  35  1   
 30  14  15  2   
 31  14  16  1   
 32  16  17  1   
 33  16  18  2   
 34  17  19  1   
 35  18  20  1   
 36  18  36  1   
 37  19  20  2   
 38  19  37  1   
 39  20  38  1   
@<TRIPOS>SUBSTRUCTURE
  1 ****   5 GROUP 4 **** **** 0

# MOE 2024.06 (io_trps.svl 2023.06)
