@<TRIPOS>MOLECULE
NONAME
41 44 1 0 0 
SMALL
USER_CHARGES


@<TRIPOS>ATOM
  1 O        0.3800    -0.1080     0.1270 O.3   1 <1>  -0.6800 
  2 C        1.6490    -0.2020    -0.4280 C.3   1 <1>   0.2000 
  3 C        2.3870    -1.4230     0.1140 C.3   1 <1>  -0.0800 
  4 C        2.5240     0.9850    -0.0250 C.3   1 <1>   0.2090 
  5 C        3.8610    -1.0490    -0.0590 C.3   1 <1>   0.2090 
  6 C        1.9930    -2.7390    -0.5780 C.3   1 <1>  -0.0170 
  7 N        3.9020     0.4330     0.0620 N.pl3 1 <1>  -0.8380 
  8 C        2.8050    -3.9120    -0.0520 C.ar  1 <1>   0.1660 
  9 C        5.0260     1.1630    -0.2670 C.ar  1 <1>   0.4100 
 10 N        3.9300    -4.1820    -0.6920 N.ar  1 <1>  -0.6200 
 11 C        2.3540    -4.6350     1.0510 C.ar  1 <1>   0.1600 
 12 N        6.0490     0.5180    -0.7920 N.ar  1 <1>  -0.6200 
 13 C        5.0930     2.5260    -0.0520 C.ar  1 <1>  -0.1500 
 14 C        4.5700    -5.2110    -0.1620 C.ar  1 <1>   0.1600 
 15 N        2.9910    -5.6650     1.5830 N.ar  1 <1>  -0.6200 
 16 C        7.0980     1.2540    -1.0970 C.ar  1 <1>   0.4700 
 17 C        6.2380     3.1850    -0.4060 C.ar  1 <1>   0.2780 
 18 C        4.1160    -5.9280     0.9390 C.ar  1 <1>   0.1600 
 19 N        7.2620     2.5550    -0.9440 N.ar  1 <1>  -0.6200 
 20 C        6.3800     4.6850    -0.2010 C.3   1 <1>  -0.0680 
 21 C        7.2910     5.2100     0.8670 C.3   1 <1>  -0.2000 
 22 C        5.8090     5.3880     0.9960 C.3   1 <1>  -0.2000 
 23 H       -0.1970    -0.8220    -0.2040 H     1 <1>   0.4000 
 24 H        1.5620    -0.2350    -1.5010 H     1 <1>   0.0800 
 25 H        2.2050    -1.5000     1.1720 H     1 <1>   0.0800 
 26 H        2.2310     1.3540     0.9420 H     1 <1>   0.0800 
 27 H        2.4670     1.7680    -0.7610 H     1 <1>   0.0800 
 28 H        4.2150    -1.3400    -1.0340 H     1 <1>   0.0800 
 29 H        4.4790    -1.5100     0.6930 H     1 <1>   0.0800 
 30 H        2.1480    -2.6560    -1.6400 H     1 <1>   0.0800 
 31 H        0.9480    -2.9320    -0.4160 H     1 <1>   0.0800 
 32 H        1.4270    -4.3490     1.5160 H     1 <1>   0.1500 
 33 H        4.2670     3.0450     0.3880 H     1 <1>   0.1500 
 34 H        5.4990    -5.5010    -0.6190 H     1 <1>   0.1500 
 35 H        7.9310     0.7240    -1.5280 H     1 <1>   0.1500 
 36 H        4.7070    -6.7510     1.2980 H     1 <1>   0.1500 
 37 H        6.3850     5.2130    -1.1380 H     1 <1>   0.1000 
 38 H        7.7910     4.4960     1.4990 H     1 <1>   0.1000 
 39 H        7.9070     6.0620     0.6380 H     1 <1>   0.1000 
 40 H        5.3930     6.3720     0.8650 H     1 <1>   0.1000 
 41 H        5.3040     4.8250     1.7620 H     1 <1>   0.1000 
@<TRIPOS>BOND
  1   1   2  1   
  2   1  23  1   
  3   2   3  1   
  4   2   4  1   
  5   2  24  1   
  6   3   5  1   
  7   3   6  1   
  8   3  25  1   
  9   4   7  1   
 10   4  26  1   
 11   4  27  1   
 12   5   7  1   
 13   5  28  1   
 14   5  29  1   
 15   6   8  1   
 16   6  30  1   
 17   6  31  1   
 18   7   9  1   
 19   8  10  ar  
 20   8  11  ar  
 21   9  12  ar  
 22   9  13  ar  
 23  10  14  ar  
 24  11  15  ar  
 25  11  32  1   
 26  12  16  ar  
 27  13  17  ar  
 28  13  33  1   
 29  14  18  ar  
 30  14  34  1   
 31  15  18  ar  
 32  16  19  ar  
 33  16  35  1   
 34  17  19  ar  
 35  17  20  1   
 36  18  36  1   
 37  20  21  1   
 38  20  22  1   
 39  20  37  1   
 40  21  22  1   
 41  21  38  1   
 42  21  39  1   
 43  22  40  1   
 44  22  41  1   
@<TRIPOS>SUBSTRUCTURE
  1 ****   5 GROUP 4 **** **** 0

# MOE 2024.06 (io_trps.svl 2023.06)
