@<TRIPOS>MOLECULE
NONAME
37 38 1 0 0 
SMALL
USER_CHARGES


@<TRIPOS>ATOM
  1 S       -0.2220    -0.1530    -0.9300 S.3   1 <1>  -0.0800 
  2 C       -1.5540    -0.8600    -0.0750 C.2   1 <1>   0.4420 
  3 C       -0.5950     1.3370    -0.1320 C.2   1 <1>   0.1980 
  4 N       -2.1450    -0.0130     0.6850 N.2   1 <1>  -0.3380 
  5 N       -1.7990    -2.1960    -0.3170 N.am  1 <1>  -0.4940 
  6 N       -1.5930     1.2390     0.6470 N.2   1 <1>  -0.3380 
  7 C        0.2610     2.5530    -0.4310 C.3   1 <1>   0.0200 
  8 C       -2.7580    -3.0130     0.2250 C.2   1 <1>   0.5690 
  9 C        1.6540     2.4350     0.2030 C.3   1 <1>  -0.1600 
 10 O       -3.5630    -2.6270     1.0360 O.2   1 <1>  -0.5700 
 11 C       -2.8330    -4.4830    -0.2430 C.3   1 <1>   0.2810 
 12 C        2.5070     3.6800    -0.0770 C.3   1 <1>  -0.1600 
 13 N       -3.4400    -5.4040     0.7380 N.am  1 <1>  -0.7300 
 14 C       -1.4700    -5.1610    -0.5190 C.3   1 <1>  -0.1600 
 15 C        3.8940     3.5530     0.5620 C.3   1 <1>  -0.1600 
 16 C       -2.7850    -6.5590     0.8940 C.2   1 <1>   0.5690 
 17 C       -1.6190    -6.6230    -0.0510 C.3   1 <1>  -0.0990 
 18 C        4.7450     4.7950     0.2840 C.3   1 <1>  -0.2400 
 19 O       -3.0620    -7.4160     1.6900 O.2   1 <1>  -0.5700 
 20 H       -1.1650    -2.6210    -0.9860 H     1 <1>   0.3700 
 21 H       -0.2370     3.4240    -0.0410 H     1 <1>   0.0800 
 22 H        0.3470     2.6690    -1.4970 H     1 <1>   0.0800 
 23 H        2.1540     1.5650    -0.1870 H     1 <1>   0.0800 
 24 H        1.5440     2.3070     1.2670 H     1 <1>   0.0800 
 25 H       -3.4370    -4.5160    -1.1330 H     1 <1>   0.0800 
 26 H        2.0120     4.5510     0.3200 H     1 <1>   0.0800 
 27 H        2.6150     3.8120    -1.1400 H     1 <1>   0.0800 
 28 H       -4.1480    -5.0640     1.3970 H     1 <1>   0.3700 
 29 H       -0.7070    -4.6910     0.0780 H     1 <1>   0.0800 
 30 H       -1.1930    -5.0980    -1.5560 H     1 <1>   0.0800 
 31 H        4.3980     2.6860     0.1680 H     1 <1>   0.0800 
 32 H        3.7930     3.4250     1.6270 H     1 <1>   0.0800 
 33 H       -0.7390    -6.9810     0.4510 H     1 <1>   0.0800 
 34 H       -1.8710    -7.2750    -0.8680 H     1 <1>   0.0800 
 35 H        4.8790     4.9310    -0.7750 H     1 <1>   0.0800 
 36 H        5.7130     4.6870     0.7400 H     1 <1>   0.0800 
 37 H        4.2730     5.6730     0.6890 H     1 <1>   0.0800 
@<TRIPOS>BOND
  1   1   2  1   
  2   1   3  1   
  3   2   4  2   
  4   2   5  1   
  5   3   6  2   
  6   3   7  1   
  7   4   6  1   
  8   5   8  am  
  9   5  20  1   
 10   7   9  1   
 11   7  21  1   
 12   7  22  1   
 13   8  10  2   
 14   8  11  1   
 15   9  12  1   
 16   9  23  1   
 17   9  24  1   
 18  11  13  1   
 19  11  14  1   
 20  11  25  1   
 21  12  15  1   
 22  12  26  1   
 23  12  27  1   
 24  13  16  am  
 25  13  28  1   
 26  14  17  1   
 27  14  29  1   
 28  14  30  1   
 29  15  18  1   
 30  15  31  1   
 31  15  32  1   
 32  16  17  1   
 33  16  19  2   
 34  17  33  1   
 35  17  34  1   
 36  18  35  1   
 37  18  36  1   
 38  18  37  1   
@<TRIPOS>SUBSTRUCTURE
  1 ****   2 GROUP 4 **** **** 0

# MOE 2024.06 (io_trps.svl 2023.06)
