@<TRIPOS>MOLECULE
NONAME
43 44 1 0 0 
SMALL
USER_CHARGES


@<TRIPOS>ATOM
  1 O       -2.3610     0.6800    -1.5020 O.2   1 <1>  -0.5700 
  2 C       -2.1520     0.8860    -0.3310 C.2   1 <1>   0.5690 
  3 N       -2.1060    -0.1270     0.5730 N.am  1 <1>  -0.7300 
  4 C       -1.9330     2.3140     0.1710 C.3   1 <1>  -0.0190 
  5 C       -2.2660    -1.5610     0.2320 C.3   1 <1>   0.1400 
  6 C       -2.6410     3.3730    -0.7000 C.3   1 <1>  -0.1600 
  7 C       -0.4230     2.6300     0.2930 C.3   1 <1>  -0.1600 
  8 C       -3.7240    -1.9820     0.4120 C.3   1 <1>  -0.0170 
  9 C       -2.5350     4.7910    -0.0980 C.3   1 <1>   0.2000 
 10 C       -0.1030     4.1380     0.3220 C.3   1 <1>  -0.1600 
 11 C       -3.8830    -3.4620     0.1040 C.ar  1 <1>  -0.1440 
 12 O       -2.4620     5.7200    -1.1510 O.3   1 <1>  -0.5600 
 13 C       -1.2940     4.9630     0.8170 C.3   1 <1>   0.2000 
 14 C       -4.0180    -3.8860    -1.2090 C.ar  1 <1>  -0.1500 
 15 C       -3.8900    -4.4000     1.1250 C.ar  1 <1>  -0.1500 
 16 C       -3.6700     5.9940    -1.7900 C.3   1 <1>   0.0400 
 17 O       -0.9200     6.2900     0.8320 O.3   1 <1>  -0.6800 
 18 C       -4.1580    -5.2320    -1.4990 C.ar  1 <1>  -0.1500 
 19 C       -4.0300    -5.7460     0.8370 C.ar  1 <1>  -0.1500 
 20 C       -4.1640    -6.1630    -0.4760 C.ar  1 <1>  -0.1500 
 21 H       -1.9270     0.0770     1.5570 H     1 <1>   0.3700 
 22 H       -2.3690     2.3700     1.1520 H     1 <1>   0.0800 
 23 H       -1.9700    -1.7250    -0.7920 H     1 <1>   0.0800 
 24 H       -1.6290    -2.1550     0.8640 H     1 <1>   0.0800 
 25 H       -3.6770     3.1100    -0.8130 H     1 <1>   0.0800 
 26 H       -2.1850     3.3640    -1.6760 H     1 <1>   0.0800 
 27 H       -0.0460     2.1660     1.1880 H     1 <1>   0.0800 
 28 H        0.1020     2.1910    -0.5390 H     1 <1>   0.0800 
 29 H       -4.0380    -1.7860     1.4210 H     1 <1>   0.0800 
 30 H       -4.3440    -1.4100    -0.2550 H     1 <1>   0.0800 
 31 H       -3.4090     5.0090     0.4920 H     1 <1>   0.0800 
 32 H        0.1380     4.4600    -0.6780 H     1 <1>   0.0800 
 33 H        0.7540     4.3160     0.9490 H     1 <1>   0.0800 
 34 H       -1.5300     4.6770     1.8280 H     1 <1>   0.0800 
 35 H       -4.0130    -3.1680    -2.0120 H     1 <1>   0.1500 
 36 H       -3.7870    -4.0880     2.1500 H     1 <1>   0.1500 
 37 H       -3.4860     6.7330    -2.5490 H     1 <1>   0.0800 
 38 H       -4.3740     6.3790    -1.0730 H     1 <1>   0.0800 
 39 H       -4.0480     5.0960    -2.2490 H     1 <1>   0.0800 
 40 H       -1.1630     6.6430    -0.0540 H     1 <1>   0.4000 
 41 H       -4.2620    -5.5530    -2.5210 H     1 <1>   0.1500 
 42 H       -4.0350    -6.4700     1.6330 H     1 <1>   0.1500 
 43 H       -4.2730    -7.2100    -0.7010 H     1 <1>   0.1500 
@<TRIPOS>BOND
  1   1   2  2   
  2   2   3  am  
  3   2   4  1   
  4   3   5  1   
  5   3  21  1   
  6   4   6  1   
  7   4   7  1   
  8   4  22  1   
  9   5   8  1   
 10   5  23  1   
 11   5  24  1   
 12   6   9  1   
 13   6  25  1   
 14   6  26  1   
 15   7  10  1   
 16   7  27  1   
 17   7  28  1   
 18   8  11  1   
 19   8  29  1   
 20   8  30  1   
 21   9  12  1   
 22   9  13  1   
 23   9  31  1   
 24  10  13  1   
 25  10  32  1   
 26  10  33  1   
 27  11  14  ar  
 28  11  15  ar  
 29  12  16  1   
 30  13  17  1   
 31  13  34  1   
 32  14  18  ar  
 33  14  35  1   
 34  15  19  ar  
 35  15  36  1   
 36  16  37  1   
 37  16  38  1   
 38  16  39  1   
 39  17  40  1   
 40  18  20  ar  
 41  18  41  1   
 42  19  20  ar  
 43  19  42  1   
 44  20  43  1   
@<TRIPOS>SUBSTRUCTURE
  1 ****   2 GROUP 4 **** **** 0

# MOE 2024.06 (io_trps.svl 2023.06)
