@<TRIPOS>MOLECULE
NONAME
50 51 1 0 0 
SMALL
USER_CHARGES


@<TRIPOS>ATOM
  1 O       -4.0730     2.4180    -1.5820 O.2   1 <1>  -0.5700 
  2 C       -3.2220     1.5560    -1.5980 C.2   1 <1>   0.5690 
  3 N       -3.5850     0.2510    -1.3660 N.am  1 <1>  -0.6600 
  4 C       -1.7790     2.0140    -1.7870 C.3   1 <1>   0.0440 
  5 C       -2.6740    -0.9370    -1.4690 C.3   1 <1>   0.3210 
  6 C       -4.9940    -0.0760    -0.9600 C.3   1 <1>   0.1400 
  7 C       -1.1500     2.3670    -0.4350 C.ar  1 <1>  -0.1440 
  8 C       -2.7680    -1.8540    -0.2490 C.2   1 <1>   0.0460 
  9 C       -5.2520     0.1610     0.5470 C.3   1 <1>   0.3430 
 10 C       -1.2590     3.6370     0.1320 C.ar  1 <1>  -0.1440 
 11 C       -0.4640     1.3770     0.2560 C.ar  1 <1>  -0.1500 
 12 N       -2.4330    -1.4130     0.9840 N.2   1 <1>  -0.5650 
 13 C       -3.1520    -3.1530    -0.2010 C.2   1 <1>  -0.3320 
 14 N       -4.8200     1.5260     0.9920 N.4   1 <1>  -0.9590 
 15 C       -0.6990     3.8800     1.3780 C.ar  1 <1>  -0.1500 
 16 C       -1.9650     4.7930    -0.5680 C.3   1 <1>  -0.0970 
 17 C        0.0890     1.6280     1.4980 C.ar  1 <1>  -0.1500 
 18 C       -2.5950    -2.4470     1.7420 C.2   1 <1>   0.0360 
 19 N       -3.0340    -3.5370     1.0840 N.pl3 1 <1>   0.0330 
 20 C       -3.6170    -4.1120    -1.2870 C.3   1 <1>  -0.0600 
 21 C       -3.5100     1.4590     1.7120 C.3   1 <1>   0.2630 
 22 C       -5.8520     2.2410     1.7900 C.3   1 <1>   0.2630 
 23 C       -0.0310     2.8820     2.0620 C.ar  1 <1>  -0.1500 
 24 H       -1.7790     2.8730    -2.4310 H     1 <1>   0.0800 
 25 H       -1.1970     1.2710    -2.2920 H     1 <1>   0.0800 
 26 H       -1.6510    -0.6390    -1.5760 H     1 <1>   0.0800 
 27 H       -2.9370    -1.4910    -2.3520 H     1 <1>   0.0800 
 28 H       -5.2140    -1.1020    -1.1970 H     1 <1>   0.0800 
 29 H       -5.6790     0.5290    -1.5300 H     1 <1>   0.0800 
 30 H       -4.7290    -0.5900     1.1150 H     1 <1>   0.0800 
 31 H       -6.3050     0.0350     0.7330 H     1 <1>   0.0800 
 32 H       -0.3500     0.3910    -0.1550 H     1 <1>   0.1500 
 33 H       -4.6400     2.0600     0.1120 H     1 <1>   0.4500 
 34 H       -0.7720     4.8550     1.8270 H     1 <1>   0.1500 
 35 H       -3.0040     4.5680    -0.7200 H     1 <1>   0.0800 
 36 H       -1.5040     4.9880    -1.5190 H     1 <1>   0.0800 
 37 H       -1.9030     5.6940     0.0150 H     1 <1>   0.0800 
 38 H        0.6150     0.8470     2.0200 H     1 <1>   0.1500 
 39 H       -2.4000    -2.4630     2.8010 H     1 <1>   0.1500 
 40 H       -3.2150    -4.4660     1.4800 H     1 <1>   0.2700 
 41 H       -3.6610    -3.6250    -2.2440 H     1 <1>   0.0800 
 42 H       -4.5960    -4.4910    -1.0550 H     1 <1>   0.0800 
 43 H       -2.9360    -4.9420    -1.3630 H     1 <1>   0.0800 
 44 H       -3.6100     0.9100     2.6330 H     1 <1>   0.0800 
 45 H       -3.1440     2.4490     1.9270 H     1 <1>   0.0800 
 46 H       -2.7790     0.9600     1.0980 H     1 <1>   0.0800 
 47 H       -6.0560     1.7060     2.7020 H     1 <1>   0.0800 
 48 H       -6.7640     2.3300     1.2230 H     1 <1>   0.0800 
 49 H       -5.5050     3.2310     2.0380 H     1 <1>   0.0800 
 50 H        0.4030     3.0840     3.0260 H     1 <1>   0.1500 
@<TRIPOS>BOND
  1   1   2  2   
  2   2   3  am  
  3   2   4  1   
  4   3   5  1   
  5   3   6  1   
  6   4   7  1   
  7   4  24  1   
  8   4  25  1   
  9   5   8  1   
 10   5  26  1   
 11   5  27  1   
 12   6   9  1   
 13   6  28  1   
 14   6  29  1   
 15   7  10  ar  
 16   7  11  ar  
 17   8  12  1   
 18   8  13  2   
 19   9  14  1   
 20   9  30  1   
 21   9  31  1   
 22  10  15  ar  
 23  10  16  1   
 24  11  17  ar  
 25  11  32  1   
 26  12  18  2   
 27  13  19  1   
 28  13  20  1   
 29  14  21  1   
 30  14  22  1   
 31  14  33  1   
 32  15  23  ar  
 33  15  34  1   
 34  16  35  1   
 35  16  36  1   
 36  16  37  1   
 37  17  23  ar  
 38  17  38  1   
 39  18  19  1   
 40  18  39  1   
 41  19  40  1   
 42  20  41  1   
 43  20  42  1   
 44  20  43  1   
 45  21  44  1   
 46  21  45  1   
 47  21  46  1   
 48  22  47  1   
 49  22  48  1   
 50  22  49  1   
 51  23  50  1   
@<TRIPOS>SUBSTRUCTURE
  1 ****   3 GROUP 4 **** **** 0

# MOE 2024.06 (io_trps.svl 2023.06)
