@<TRIPOS>MOLECULE
NONAME
47 50 1 0 0 
SMALL
USER_CHARGES


@<TRIPOS>ATOM
  1 O       -3.0240     0.4880     0.8700 O.2   1 <1>  -0.5700 
  2 C       -2.8360     1.2250    -0.0830 C.2   1 <1>   0.5440 
  3 N       -3.5510     0.9320    -1.2180 N.am  1 <1>  -0.6600 
  4 C       -1.9290     2.3530    -0.0120 C.ar  1 <1>   0.0860 
  5 C       -5.0050     1.2960    -1.2230 C.3   1 <1>   0.1400 
  6 C       -3.2920    -0.3950    -1.8690 C.3   1 <1>   0.1400 
  7 C       -1.6840     3.1660    -1.1190 C.ar  1 <1>   0.1600 
  8 C       -1.2570     2.6850     1.1600 C.ar  1 <1>  -0.1500 
  9 C       -5.8700     0.2340    -0.4880 C.3   1 <1>   0.4230 
 10 C       -4.3190    -1.4740    -1.4440 C.3   1 <1>   0.3430 
 11 N       -0.8850     4.2150    -1.1540 N.ar  1 <1>  -0.6200 
 12 C       -0.4150     3.7750     1.1480 C.ar  1 <1>  -0.1500 
 13 N       -5.0980    -1.0400    -0.2350 N.4   1 <1>  -0.9590 
 14 C       -7.1840    -0.0570    -1.2490 C.3   1 <1>   0.1200 
 15 C       -0.2580     4.5110    -0.0250 C.ar  1 <1>   0.3930 
 16 C       -5.9700    -2.0720     0.3990 C.3   1 <1>   0.5180 
 17 O       -7.9340    -1.0390    -0.5890 O.3   1 <1>  -0.5600 
 18 O        0.5470     5.5860    -0.1030 O.3   1 <1>  -0.3620 
 19 C       -5.1920    -3.3820     0.5710 C.3   1 <1>  -0.1950 
 20 C       -7.2810    -2.2670    -0.3950 C.3   1 <1>   0.1200 
 21 C        1.3130     6.0650     0.9800 C.3   1 <1>   0.0400 
 22 C       -5.3360    -4.1800     1.8310 C.3   1 <1>  -0.2000 
 23 C       -4.0410    -3.4850     1.5260 C.3   1 <1>  -0.2000 
 24 H       -5.1420     2.2520    -0.7460 H     1 <1>   0.0800 
 25 H       -5.3310     1.4020    -2.2440 H     1 <1>   0.0800 
 26 H       -3.3050    -0.2820    -2.9400 H     1 <1>   0.0800 
 27 H       -2.3050    -0.7330    -1.5980 H     1 <1>   0.0800 
 28 H       -2.1830     2.9330    -2.0430 H     1 <1>   0.1500 
 29 H       -1.3930     2.1010     2.0540 H     1 <1>   0.1500 
 30 H       -6.1460     0.6540     0.4650 H     1 <1>   0.0800 
 31 H       -3.7870    -2.3880    -1.2390 H     1 <1>   0.0800 
 32 H       -4.9930    -1.6650    -2.2620 H     1 <1>   0.0800 
 33 H        0.1100     4.0420     2.0440 H     1 <1>   0.1500 
 34 H       -4.3690    -0.7660     0.4560 H     1 <1>   0.4500 
 35 H       -6.9920    -0.3910    -2.2530 H     1 <1>   0.0800 
 36 H       -7.7900     0.8320    -1.2960 H     1 <1>   0.0800 
 37 H       -6.2420    -1.7240     1.3830 H     1 <1>   0.0800 
 38 H       -5.1470    -3.9630    -0.3340 H     1 <1>   0.1000 
 39 H       -7.9480    -2.9090     0.1530 H     1 <1>   0.0800 
 40 H       -7.0920    -2.7130    -1.3560 H     1 <1>   0.0800 
 41 H        1.8630     6.9250     0.6420 H     1 <1>   0.0800 
 42 H        1.9960     5.2960     1.2930 H     1 <1>   0.0800 
 43 H        0.6510     6.3470     1.7800 H     1 <1>   0.0800 
 44 H       -5.9280    -3.8050     2.6500 H     1 <1>   0.1000 
 45 H       -5.3610    -5.2560     1.7730 H     1 <1>   0.1000 
 46 H       -3.1900    -4.0940     1.2670 H     1 <1>   0.1000 
 47 H       -3.7650    -2.6430     2.1400 H     1 <1>   0.1000 
@<TRIPOS>BOND
  1   1   2  2   
  2   2   3  am  
  3   2   4  1   
  4   3   5  1   
  5   3   6  1   
  6   4   7  ar  
  7   4   8  ar  
  8   5   9  1   
  9   5  24  1   
 10   5  25  1   
 11   6  10  1   
 12   6  26  1   
 13   6  27  1   
 14   7  11  ar  
 15   7  28  1   
 16   8  12  ar  
 17   8  29  1   
 18   9  13  1   
 19   9  14  1   
 20   9  30  1   
 21  10  13  1   
 22  10  31  1   
 23  10  32  1   
 24  11  15  ar  
 25  12  15  ar  
 26  12  33  1   
 27  13  16  1   
 28  13  34  1   
 29  14  17  1   
 30  14  35  1   
 31  14  36  1   
 32  15  18  1   
 33  16  19  1   
 34  16  20  1   
 35  16  37  1   
 36  17  20  1   
 37  18  21  1   
 38  19  22  1   
 39  19  23  1   
 40  19  38  1   
 41  20  39  1   
 42  20  40  1   
 43  21  41  1   
 44  21  42  1   
 45  21  43  1   
 46  22  23  1   
 47  22  44  1   
 48  22  45  1   
 49  23  46  1   
 50  23  47  1   
@<TRIPOS>SUBSTRUCTURE
  1 ****   2 GROUP 4 **** **** 0

# MOE 2024.06 (io_trps.svl 2023.06)
