@<TRIPOS>MOLECULE
NONAME
43 46 1 0 0 
SMALL
USER_CHARGES


@<TRIPOS>ATOM
  1 O       -0.5020    -1.0820    -0.2480 O.3   1 <1>  -0.5600 
  2 C        0.4990    -1.5840     0.5940 C.3   1 <1>   0.2000 
  3 C       -1.5950    -0.5160     0.4030 C.3   1 <1>   0.0400 
  4 C        1.8590    -1.6250    -0.1420 C.3   1 <1>   0.0000 
  5 C        0.1760    -3.0550     0.8830 C.3   1 <1>  -0.1600 
  6 C        2.9680    -1.8520     0.9300 C.3   1 <1>   0.2090 
  7 C        2.1670    -0.3720    -1.0070 C.3   1 <1>  -0.1600 
  8 C        1.7080    -2.8730    -1.0280 C.3   1 <1>  -0.1600 
  9 C        0.8440    -3.8650    -0.2380 C.3   1 <1>  -0.1600 
 10 N        4.3010    -1.3040     0.5250 N.pl3 1 <1>  -0.8380 
 11 C        2.9430     0.6800    -0.2070 C.3   1 <1>  -0.1600 
 12 C        5.3720    -2.1340     0.2260 C.ar  1 <1>   0.4100 
 13 C        4.3280     0.1500     0.1920 C.3   1 <1>   0.2090 
 14 N        5.1050    -3.3710    -0.1300 N.ar  1 <1>  -0.6200 
 15 C        6.7100    -1.6950     0.2900 C.ar  1 <1>   0.0000 
 16 C        6.1430    -4.1490    -0.4560 C.ar  1 <1>   0.4700 
 17 C        7.6800    -2.6050    -0.0770 C.ar  1 <1>   0.1050 
 18 C        7.4130    -0.5200     0.6590 C.2   1 <1>  -0.1500 
 19 N        7.4180    -3.8540    -0.4620 N.ar  1 <1>  -0.5670 
 20 N        8.9090    -2.0320     0.0340 N.pl3 1 <1>   0.0330 
 21 C        8.7380    -0.7530     0.4890 C.2   1 <1>  -0.3020 
 22 H        0.5440    -0.9810     1.4850 H     1 <1>   0.0800 
 23 H       -2.3000    -0.2010    -0.3450 H     1 <1>   0.0800 
 24 H       -1.2660     0.3360     0.9710 H     1 <1>   0.0800 
 25 H       -2.0520    -1.2480     1.0450 H     1 <1>   0.0800 
 26 H        0.6150    -3.3320     1.8240 H     1 <1>   0.0800 
 27 H       -0.8820    -3.2390     0.9310 H     1 <1>   0.0800 
 28 H        3.0480    -2.8970     1.1720 H     1 <1>   0.0800 
 29 H        2.6900    -1.3500     1.8390 H     1 <1>   0.0800 
 30 H        2.7830    -0.6700    -1.8390 H     1 <1>   0.0800 
 31 H        1.2730     0.0580    -1.4190 H     1 <1>   0.0800 
 32 H        1.1810    -2.6040    -1.9270 H     1 <1>   0.0800 
 33 H        2.6600    -3.2920    -1.3040 H     1 <1>   0.0800 
 34 H        1.4540    -4.6460     0.1810 H     1 <1>   0.0800 
 35 H        0.1040    -4.3050    -0.8840 H     1 <1>   0.0800 
 36 H        2.3900     0.9480     0.6750 H     1 <1>   0.0800 
 37 H        3.0670     1.5710    -0.7960 H     1 <1>   0.0800 
 38 H        4.6930     0.7040     1.0390 H     1 <1>   0.0800 
 39 H        5.0050     0.2990    -0.6330 H     1 <1>   0.0800 
 40 H        5.8830    -5.1500    -0.7520 H     1 <1>   0.1500 
 41 H        6.9510     0.3810     1.0180 H     1 <1>   0.1500 
 42 H        9.7850    -2.5140    -0.1820 H     1 <1>   0.2700 
 43 H        9.5690    -0.0940     0.6680 H     1 <1>   0.1500 
@<TRIPOS>BOND
  1   1   2  1   
  2   1   3  1   
  3   2   4  1   
  4   2   5  1   
  5   2  22  1   
  6   3  23  1   
  7   3  24  1   
  8   3  25  1   
  9   4   6  1   
 10   4   7  1   
 11   4   8  1   
 12   5   9  1   
 13   5  26  1   
 14   5  27  1   
 15   6  10  1   
 16   6  28  1   
 17   6  29  1   
 18   7  11  1   
 19   7  30  1   
 20   7  31  1   
 21   8   9  1   
 22   8  32  1   
 23   8  33  1   
 24   9  34  1   
 25   9  35  1   
 26  10  12  1   
 27  10  13  1   
 28  11  13  1   
 29  11  36  1   
 30  11  37  1   
 31  12  14  ar  
 32  12  15  ar  
 33  13  38  1   
 34  13  39  1   
 35  14  16  ar  
 36  15  17  ar  
 37  15  18  1   
 38  16  19  ar  
 39  16  40  1   
 40  17  19  ar  
 41  17  20  1   
 42  18  21  2   
 43  18  41  1   
 44  20  21  1   
 45  20  42  1   
 46  21  43  1   
@<TRIPOS>SUBSTRUCTURE
  1 ****  10 GROUP 4 **** **** 0

# MOE 2024.06 (io_trps.svl 2023.06)
