@<TRIPOS>MOLECULE
NONAME
66 70 1 0 0 
SMALL
USER_CHARGES


@<TRIPOS>ATOM
  1 O       -1.3530     3.3130     2.7220 O.2   1 <1>  -0.5700 
  2 C       -0.9810     3.0200     1.6050 C.2   1 <1>   0.5440 
  3 N       -1.7970     2.8680     0.5020 N.am  1 <1>  -0.6600 
  4 C        0.3840     2.7420     1.2670 C.ar  1 <1>   0.0860 
  5 C       -3.3130     2.8440     0.4630 C.3   1 <1>   0.3000 
  6 C       -0.9560     2.3430    -0.6270 C.3   1 <1>   0.2840 
  7 C        0.4440     2.3390    -0.0490 C.ar  1 <1>  -0.1440 
  8 C        1.5520     2.8140     2.0170 C.ar  1 <1>  -0.1500 
  9 C       -3.8640     4.1250     1.1380 C.3   1 <1>  -0.1600 
 10 C       -3.7720     1.6030     1.2620 C.3   1 <1>  -0.1600 
 11 C       -3.7460     2.7830    -1.0340 C.3   1 <1>  -0.0990 
 12 C        1.6440     2.0050    -0.6490 C.ar  1 <1>  -0.1500 
 13 C        2.7620     2.4820     1.4300 C.ar  1 <1>  -0.1500 
 14 C       -5.3170     4.0020     1.6130 C.3   1 <1>   0.1200 
 15 C       -5.2170     1.6640     1.7770 C.3   1 <1>   0.1200 
 16 C       -5.2260     2.7890    -1.3740 C.2   1 <1>   0.5690 
 17 C        2.8080     2.0800     0.1020 C.ar  1 <1>  -0.1500 
 18 O       -5.4550     2.8810     2.4110 O.3   1 <1>  -0.5600 
 19 O       -5.7840     1.7220    -1.3470 O.2   1 <1>  -0.5700 
 20 N       -5.9180     3.9230    -1.7500 N.am  1 <1>  -0.6600 
 21 C       -7.3790     3.8350    -2.0660 C.3   1 <1>   0.1400 
 22 C       -5.3820     5.3120    -1.8910 C.3   1 <1>   0.1400 
 23 C       -8.1800     4.7900    -1.1650 C.3   1 <1>   0.3430 
 24 C       -6.1930     6.3030    -1.0260 C.3   1 <1>   0.3430 
 25 N       -7.6830     6.2170    -1.2540 N.4   1 <1>  -0.9590 
 26 C       -8.3920     7.1160    -0.2880 C.3   1 <1>   0.3430 
 27 C       -9.8760     7.2950    -0.6210 C.3   1 <1>  -0.0170 
 28 C      -10.4870     8.2370     0.3990 C.ar  1 <1>  -0.1430 
 29 C      -10.6140     9.5920     0.1610 C.ar  1 <1>  -0.1500 
 30 C      -10.9380     7.7860     1.6240 C.ar  1 <1>  -0.1500 
 31 C      -11.1600    10.4090     1.1370 C.ar  1 <1>   0.1600 
 32 C      -11.4680     8.6890     2.5320 C.ar  1 <1>   0.1600 
 33 N      -11.5810     9.9880     2.3170 N.ar  1 <1>  -0.6200 
 34 H       -1.0060     2.9950    -1.4810 H     1 <1>   0.0800 
 35 H       -1.2510     1.3420    -0.8880 H     1 <1>   0.0800 
 36 H        1.4970     3.1270     3.0450 H     1 <1>   0.1500 
 37 H       -3.7520     4.9670     0.4870 H     1 <1>   0.0800 
 38 H       -3.3120     4.3610     2.0230 H     1 <1>   0.0800 
 39 H       -3.1550     1.4920     2.1350 H     1 <1>   0.0800 
 40 H       -3.6490     0.7140     0.6710 H     1 <1>   0.0800 
 41 H       -3.3830     1.8610    -1.4480 H     1 <1>   0.0800 
 42 H       -3.2650     3.5700    -1.5760 H     1 <1>   0.0800 
 43 H        1.6810     1.6910    -1.6780 H     1 <1>   0.1500 
 44 H        3.6700     2.5370     2.0060 H     1 <1>   0.1500 
 45 H       -6.0200     3.9220     0.8100 H     1 <1>   0.0800 
 46 H       -5.5760     4.8530     2.2180 H     1 <1>   0.0800 
 47 H       -5.3740     0.8870     2.5060 H     1 <1>   0.0800 
 48 H       -5.9440     1.5360     0.9990 H     1 <1>   0.0800 
 49 H        3.7540     1.8240    -0.3460 H     1 <1>   0.1500 
 50 H       -7.7510     2.8350    -1.9190 H     1 <1>   0.0800 
 51 H       -7.5380     4.0840    -3.1010 H     1 <1>   0.0800 
 52 H       -5.4410     5.6070    -2.9240 H     1 <1>   0.0800 
 53 H       -4.3490     5.3660    -1.6050 H     1 <1>   0.0800 
 54 H       -8.1000     4.4390    -0.1480 H     1 <1>   0.0800 
 55 H       -9.2180     4.7420    -1.4470 H     1 <1>   0.0800 
 56 H       -5.8510     7.3050    -1.2310 H     1 <1>   0.0800 
 57 H       -5.9790     6.0960     0.0100 H     1 <1>   0.0800 
 58 H       -7.8700     6.5530    -2.2090 H     1 <1>   0.4500 
 59 H       -7.9280     8.0900    -0.2950 H     1 <1>   0.0800 
 60 H       -8.3020     6.7210     0.7120 H     1 <1>   0.0800 
 61 H      -10.3990     6.3560    -0.5770 H     1 <1>   0.0800 
 62 H       -9.9900     7.7110    -1.6060 H     1 <1>   0.0800 
 63 H      -10.3010    10.0310    -0.7690 H     1 <1>   0.1500 
 64 H      -10.8920     6.7470     1.8930 H     1 <1>   0.1500 
 65 H      -11.2550    11.4630     0.9390 H     1 <1>   0.1500 
 66 H      -11.8160     8.3240     3.4840 H     1 <1>   0.1500 
@<TRIPOS>BOND
  1   1   2  2   
  2   2   3  am  
  3   2   4  1   
  4   3   5  1   
  5   3   6  1   
  6   4   7  ar  
  7   4   8  ar  
  8   5   9  1   
  9   5  10  1   
 10   5  11  1   
 11   6   7  1   
 12   6  34  1   
 13   6  35  1   
 14   7  12  ar  
 15   8  13  ar  
 16   8  36  1   
 17   9  14  1   
 18   9  37  1   
 19   9  38  1   
 20  10  15  1   
 21  10  39  1   
 22  10  40  1   
 23  11  16  1   
 24  11  41  1   
 25  11  42  1   
 26  12  17  ar  
 27  12  43  1   
 28  13  17  ar  
 29  13  44  1   
 30  14  18  1   
 31  14  45  1   
 32  14  46  1   
 33  15  18  1   
 34  15  47  1   
 35  15  48  1   
 36  16  19  2   
 37  16  20  am  
 38  17  49  1   
 39  20  21  1   
 40  20  22  1   
 41  21  23  1   
 42  21  50  1   
 43  21  51  1   
 44  22  24  1   
 45  22  52  1   
 46  22  53  1   
 47  23  25  1   
 48  23  54  1   
 49  23  55  1   
 50  24  25  1   
 51  24  56  1   
 52  24  57  1   
 53  25  26  1   
 54  25  58  1   
 55  26  27  1   
 56  26  59  1   
 57  26  60  1   
 58  27  28  1   
 59  27  61  1   
 60  27  62  1   
 61  28  29  ar  
 62  28  30  ar  
 63  29  31  ar  
 64  29  63  1   
 65  30  32  ar  
 66  30  64  1   
 67  31  33  ar  
 68  31  65  1   
 69  32  33  ar  
 70  32  66  1   
@<TRIPOS>SUBSTRUCTURE
  1 ****   9 GROUP 4 **** **** 0

# MOE 2024.06 (io_trps.svl 2023.06)
