@<TRIPOS>MOLECULE
NONAME
41 44 1 0 0 
SMALL
USER_CHARGES


@<TRIPOS>ATOM
  1 O       -0.9130     0.1710    -0.8920 O.2   1 <1>  -0.5700 
  2 C       -1.6200     0.8160    -0.1410 C.2   1 <1>   0.7160 
  3 N       -2.6380     0.1690     0.5210 N.am  1 <1>  -0.6600 
  4 C       -1.3930     2.2340     0.0120 C.2   1 <1>  -0.0860 
  5 C       -2.6560    -1.3230     0.6540 C.3   1 <1>   0.1400 
  6 C       -3.9970     0.7740     0.6790 C.3   1 <1>   0.1400 
  7 C       -0.7930     3.0840    -0.8630 C.2   1 <1>  -0.0100 
  8 C       -1.7240     3.0560     1.1110 C.2   1 <1>  -0.1500 
  9 C       -3.7560    -1.9450    -0.2270 C.3   1 <1>   0.3440 
 10 C       -5.0330     0.0330    -0.1910 C.3   1 <1>   0.2950 
 11 O       -0.7560     4.3090    -0.3970 O.3   1 <1>  -0.2800 
 12 C       -1.3130     4.3010     0.7950 C.2   1 <1>  -0.0100 
 13 O       -4.9920    -1.3410     0.0570 O.3   1 <1>  -0.5600 
 14 C       -3.8480    -3.4480     0.0150 C.ar  1 <1>  -0.1430 
 15 C       -6.4570     0.5120     0.1050 C.3   1 <1>  -0.1950 
 16 C       -4.6800    -3.9800     0.9910 C.ar  1 <1>  -0.1500 
 17 C       -3.0710    -4.3100    -0.7480 C.ar  1 <1>  -0.1500 
 18 C       -7.5550     0.3410    -0.8960 C.3   1 <1>  -0.2000 
 19 C       -7.0290     1.7130    -0.5820 C.3   1 <1>  -0.2000 
 20 C       -4.7350    -5.3470     1.2020 C.ar  1 <1>  -0.1500 
 21 C       -3.1240    -5.6770    -0.5390 C.ar  1 <1>  -0.1500 
 22 C       -3.9560    -6.1970     0.4370 C.ar  1 <1>  -0.1500 
 23 H       -1.7030    -1.7400     0.3780 H     1 <1>   0.0800 
 24 H       -2.8400    -1.5860     1.6800 H     1 <1>   0.0800 
 25 H       -4.2920     0.7160     1.7110 H     1 <1>   0.0800 
 26 H       -3.9890     1.8100     0.3900 H     1 <1>   0.0800 
 27 H       -0.3710     2.8760    -1.8310 H     1 <1>   0.1500 
 28 H       -2.2030     2.7200     2.0140 H     1 <1>   0.1500 
 29 H       -3.5300    -1.7670    -1.2640 H     1 <1>   0.0800 
 30 H       -4.8130     0.1910    -1.2340 H     1 <1>   0.0800 
 31 H       -1.3690     5.2240     1.3470 H     1 <1>   0.1500 
 32 H       -6.7200     0.3710     1.1400 H     1 <1>   0.1000 
 33 H       -5.2930    -3.3280     1.5900 H     1 <1>   0.1500 
 34 H       -2.4180    -3.9210    -1.5100 H     1 <1>   0.1500 
 35 H       -7.3210    -0.1090    -1.8460 H     1 <1>   0.1000 
 36 H       -8.5310     0.0590    -0.5390 H     1 <1>   0.1000 
 37 H       -7.6550     2.3860    -0.0210 H     1 <1>   0.1000 
 38 H       -6.4570     2.2200    -1.3400 H     1 <1>   0.1000 
 39 H       -5.3850    -5.7470     1.9600 H     1 <1>   0.1500 
 40 H       -2.5190    -6.3370    -1.1350 H     1 <1>   0.1500 
 41 H       -3.9990    -7.2590     0.6000 H     1 <1>   0.1500 
@<TRIPOS>BOND
  1   1   2  2   
  2   2   3  am  
  3   2   4  1   
  4   3   5  1   
  5   3   6  1   
  6   4   7  2   
  7   4   8  1   
  8   5   9  1   
  9   5  23  1   
 10   5  24  1   
 11   6  10  1   
 12   6  25  1   
 13   6  26  1   
 14   7  11  1   
 15   7  27  1   
 16   8  12  2   
 17   8  28  1   
 18   9  13  1   
 19   9  14  1   
 20   9  29  1   
 21  10  13  1   
 22  10  15  1   
 23  10  30  1   
 24  11  12  1   
 25  12  31  1   
 26  14  16  ar  
 27  14  17  ar  
 28  15  18  1   
 29  15  19  1   
 30  15  32  1   
 31  16  20  ar  
 32  16  33  1   
 33  17  21  ar  
 34  17  34  1   
 35  18  19  1   
 36  18  35  1   
 37  18  36  1   
 38  19  37  1   
 39  19  38  1   
 40  20  22  ar  
 41  20  39  1   
 42  21  22  ar  
 43  21  40  1   
 44  22  41  1   
@<TRIPOS>SUBSTRUCTURE
  1 ****   3 GROUP 4 **** **** 0

# MOE 2024.06 (io_trps.svl 2023.06)
