@<TRIPOS>MOLECULE
NONAME
47 49 1 0 0 
SMALL
USER_CHARGES


@<TRIPOS>ATOM
  1 S       -0.2650     0.1130    -0.1190 S.3   1 <1>  -0.4600 
  2 C       -0.3370    -1.3850     0.8790 C.3   1 <1>   0.1500 
  3 C        1.5290     0.2190    -0.1890 C.3   1 <1>   0.0700 
  4 C        0.9370    -2.1760     0.4940 C.3   1 <1>   0.2200 
  5 C       -1.6870    -2.0910     0.6530 C.3   1 <1>  -0.1600 
  6 C        2.0290    -1.2300    -0.0900 C.3   1 <1>   0.2200 
  7 N        0.7180    -3.1380    -0.6130 N.am  1 <1>  -0.7300 
  8 C       -2.8690    -1.3050     1.2430 C.3   1 <1>  -0.1600 
  9 N        2.2640    -1.7920    -1.4390 N.am  1 <1>  -0.7300 
 10 C        1.4140    -2.7900    -1.6990 C.2   1 <1>   0.6900 
 11 C       -4.1930    -2.0450     1.0160 C.3   1 <1>  -0.1600 
 12 O        1.2180    -3.2440    -2.8020 O.2   1 <1>  -0.5700 
 13 C       -5.3810    -1.2540     1.5870 C.3   1 <1>  -0.0990 
 14 C       -6.7020    -1.9600     1.3570 C.2   1 <1>   0.5690 
 15 O       -7.2350    -2.5310     2.2740 O.2   1 <1>  -0.5700 
 16 N       -7.2500    -1.9200     0.1180 N.am  1 <1>  -0.7300 
 17 C       -8.5160    -2.5940    -0.2620 C.3   1 <1>   0.1400 
 18 C       -9.7110    -1.6780     0.0210 C.3   1 <1>   0.1400 
 19 N      -10.9460    -2.2260    -0.5860 N.am  1 <1>  -0.4200 
 20 C      -11.2210    -2.2680    -1.9290 C.2   1 <1>   0.6160 
 21 C      -12.0400    -2.7040     0.0900 C.2   1 <1>   0.6160 
 22 O      -10.4560    -1.9080    -2.7970 O.2   1 <1>  -0.5700 
 23 C      -12.5320    -2.8040    -2.0950 C.2   1 <1>  -0.1360 
 24 O      -12.1290    -2.7850     1.2950 O.2   1 <1>  -0.5700 
 25 C      -13.0270    -3.0680    -0.8720 C.2   1 <1>  -0.1360 
 26 H       -0.2520    -1.0570     1.9000 H     1 <1>   0.0800 
 27 H        1.8140     0.7100    -1.1030 H     1 <1>   0.0800 
 28 H        1.8350     0.7970     0.6640 H     1 <1>   0.0800 
 29 H        1.3110    -2.7060     1.3510 H     1 <1>   0.0800 
 30 H       -1.8440    -2.2300    -0.4030 H     1 <1>   0.0800 
 31 H       -1.6510    -3.0620     1.1170 H     1 <1>   0.0800 
 32 H        2.9380    -1.2800     0.4840 H     1 <1>   0.0800 
 33 H       -0.1890    -3.5770    -0.7610 H     1 <1>   0.3700 
 34 H       -2.7150    -1.1620     2.3000 H     1 <1>   0.0800 
 35 H       -2.9240    -0.3340     0.7800 H     1 <1>   0.0800 
 36 H        2.5590    -1.2110    -2.2220 H     1 <1>   0.3700 
 37 H       -4.1560    -3.0120     1.4910 H     1 <1>   0.0800 
 38 H       -4.3400    -2.1990    -0.0390 H     1 <1>   0.0800 
 39 H       -5.4270    -0.2800     1.1360 H     1 <1>   0.0800 
 40 H       -5.2480    -1.1200     2.6460 H     1 <1>   0.0800 
 41 H       -6.7650    -1.4230    -0.6320 H     1 <1>   0.3700 
 42 H       -8.4730    -2.8410    -1.3090 H     1 <1>   0.0800 
 43 H       -8.6220    -3.5040     0.3060 H     1 <1>   0.0800 
 44 H       -9.5270    -0.7060    -0.4000 H     1 <1>   0.0800 
 45 H       -9.8420    -1.5800     1.0850 H     1 <1>   0.0800 
 46 H      -12.9720    -2.9390    -3.0640 H     1 <1>   0.1500 
 47 H      -13.9770    -3.4760    -0.5820 H     1 <1>   0.1500 
@<TRIPOS>BOND
  1   1   2  1   
  2   1   3  1   
  3   2   4  1   
  4   2   5  1   
  5   2  26  1   
  6   3   6  1   
  7   3  27  1   
  8   3  28  1   
  9   4   6  1   
 10   4   7  1   
 11   4  29  1   
 12   5   8  1   
 13   5  30  1   
 14   5  31  1   
 15   6   9  1   
 16   6  32  1   
 17   7  10  am  
 18   7  33  1   
 19   8  11  1   
 20   8  34  1   
 21   8  35  1   
 22   9  10  am  
 23   9  36  1   
 24  10  12  2   
 25  11  13  1   
 26  11  37  1   
 27  11  38  1   
 28  13  14  1   
 29  13  39  1   
 30  13  40  1   
 31  14  15  2   
 32  14  16  am  
 33  16  17  1   
 34  16  41  1   
 35  17  18  1   
 36  17  42  1   
 37  17  43  1   
 38  18  19  1   
 39  18  44  1   
 40  18  45  1   
 41  19  20  am  
 42  19  21  am  
 43  20  22  2   
 44  20  23  1   
 45  21  24  2   
 46  21  25  1   
 47  23  25  2   
 48  23  46  1   
 49  25  47  1   
@<TRIPOS>SUBSTRUCTURE
  1 ****  11 GROUP 4 **** **** 0

# MOE 2024.06 (io_trps.svl 2023.06)
