@<TRIPOS>MOLECULE
NONAME
51 53 1 0 0 
SMALL
USER_CHARGES


@<TRIPOS>ATOM
  1 N        0.3680    -0.8240     0.5210 N.ar  1 <1>  -0.6200 
  2 C        1.1910     0.2120     0.4180 C.ar  1 <1>   0.7710 
  3 C        0.8500    -2.0250     0.3100 C.ar  1 <1>   0.4100 
  4 N        2.4880     0.0470     0.0980 N.ar  1 <1>  -0.1790 
  5 N        0.7210     1.4720     0.6300 N.pl3 1 <1>  -0.8380 
  6 N       -0.0460    -3.0160     0.4360 N.pl3 1 <1>  -0.8690 
  7 C        2.2010    -2.2430    -0.0140 C.ar  1 <1>  -0.1500 
  8 C        3.0270    -1.1750    -0.1220 C.ar  1 <1>   0.2170 
  9 C        1.5200     2.7350     0.7110 C.3   1 <1>   0.2090 
 10 C       -0.7440     1.7500     0.8010 C.3   1 <1>   0.2090 
 11 C        0.0760    -4.4690     0.1930 C.3   1 <1>   0.2090 
 12 C        4.5020    -1.2790    -0.4710 C.3   1 <1>  -0.0970 
 13 C        1.1090     3.6630    -0.4360 C.3   1 <1>  -0.1600 
 14 C       -1.2140     2.6700    -0.3310 C.3   1 <1>  -0.1600 
 15 C       -1.1980    -4.9500    -0.4960 C.3   1 <1>  -0.1600 
 16 C       -0.3950     3.9690    -0.3920 C.3   1 <1>  -0.1600 
 17 C       -1.1250    -6.4470    -0.7860 C.3   1 <1>   0.2090 
 18 N       -2.3920    -6.8700    -1.4160 N.pl3 1 <1>  -0.8690 
 19 C       -3.3730    -7.4850    -0.6340 C.ar  1 <1>   0.1000 
 20 C       -4.6760    -6.9860    -0.5570 C.ar  1 <1>   0.1600 
 21 C       -3.0850    -8.6270     0.0930 C.ar  1 <1>  -0.1500 
 22 N       -5.6610    -7.4960     0.1670 N.ar  1 <1>  -0.6200 
 23 C       -4.0950    -9.1780     0.8520 C.ar  1 <1>  -0.1500 
 24 C       -5.3450    -8.5820     0.8550 C.ar  1 <1>   0.1600 
 25 H        3.0240     0.8990     0.0140 H     1 <1>   0.4570 
 26 H       -0.9810    -2.7200     0.7390 H     1 <1>   0.4000 
 27 H        2.5490    -3.2460    -0.1660 H     1 <1>   0.1500 
 28 H        2.5780     2.5520     0.6710 H     1 <1>   0.0800 
 29 H        1.3120     3.2210     1.6520 H     1 <1>   0.0800 
 30 H       -0.9080     2.2290     1.7520 H     1 <1>   0.0800 
 31 H       -1.3360     0.8510     0.7870 H     1 <1>   0.0800 
 32 H        0.2010    -4.9760     1.1360 H     1 <1>   0.0800 
 33 H        0.9270    -4.6770    -0.4320 H     1 <1>   0.0800 
 34 H        4.7130    -0.7420    -1.3800 H     1 <1>   0.0800 
 35 H        4.7830    -2.3070    -0.6170 H     1 <1>   0.0800 
 36 H        5.1060    -0.8770     0.3230 H     1 <1>   0.0800 
 37 H        1.3570     3.2030    -1.3760 H     1 <1>   0.0800 
 38 H        1.6590     4.5850    -0.3660 H     1 <1>   0.0800 
 39 H       -2.2530     2.9090    -0.1840 H     1 <1>   0.0800 
 40 H       -1.1310     2.1420    -1.2650 H     1 <1>   0.0800 
 41 H       -1.3230    -4.4140    -1.4200 H     1 <1>   0.0800 
 42 H       -2.0400    -4.7620     0.1470 H     1 <1>   0.0800 
 43 H       -0.6790     4.5380    -1.2610 H     1 <1>   0.0800 
 44 H       -0.6130     4.5650     0.4780 H     1 <1>   0.0800 
 45 H       -0.9660    -6.9920     0.1290 H     1 <1>   0.0800 
 46 H       -0.3110    -6.6610    -1.4580 H     1 <1>   0.0800 
 47 H       -2.7440    -6.1720    -2.0810 H     1 <1>   0.4000 
 48 H       -4.9070    -6.1070    -1.1300 H     1 <1>   0.1500 
 49 H       -2.1070    -9.0690     0.0550 H     1 <1>   0.1500 
 50 H       -3.9200   -10.0640     1.4340 H     1 <1>   0.1500 
 51 H       -6.1260    -9.0220     1.4530 H     1 <1>   0.1500 
@<TRIPOS>BOND
  1   1   2  ar  
  2   1   3  ar  
  3   2   4  ar  
  4   2   5  1   
  5   3   6  1   
  6   3   7  ar  
  7   4   8  ar  
  8   4  25  1   
  9   5   9  1   
 10   5  10  1   
 11   6  11  1   
 12   6  26  1   
 13   7   8  ar  
 14   7  27  1   
 15   8  12  1   
 16   9  13  1   
 17   9  28  1   
 18   9  29  1   
 19  10  14  1   
 20  10  30  1   
 21  10  31  1   
 22  11  15  1   
 23  11  32  1   
 24  11  33  1   
 25  12  34  1   
 26  12  35  1   
 27  12  36  1   
 28  13  16  1   
 29  13  37  1   
 30  13  38  1   
 31  14  16  1   
 32  14  39  1   
 33  14  40  1   
 34  15  17  1   
 35  15  41  1   
 36  15  42  1   
 37  16  43  1   
 38  16  44  1   
 39  17  18  1   
 40  17  45  1   
 41  17  46  1   
 42  18  19  1   
 43  18  47  1   
 44  19  20  ar  
 45  19  21  ar  
 46  20  22  ar  
 47  20  48  1   
 48  21  23  ar  
 49  21  49  1   
 50  22  24  ar  
 51  23  24  ar  
 52  23  50  1   
 53  24  51  1   
@<TRIPOS>SUBSTRUCTURE
  1 ****   6 GROUP 4 **** **** 0

# MOE 2024.06 (io_trps.svl 2023.06)
