@<TRIPOS>MOLECULE
NONAME
44 45 1 0 0 
SMALL
USER_CHARGES


@<TRIPOS>ATOM
  1 O       -0.8380     2.1660    -2.2120 O.3   1 <1>  -0.6800 
  2 C       -0.0750     1.5010    -1.2690 C.3   1 <1>   0.1200 
  3 C        1.0950     0.8290    -1.9990 C.3   1 <1>   0.3430 
  4 N        1.8330    -0.1180    -1.1190 N.4   1 <1>  -0.9590 
  5 C        3.2360    -0.2990    -1.5740 C.3   1 <1>   0.5240 
  6 C        1.1360    -1.4080    -0.8450 C.3   1 <1>   0.5240 
  7 C        4.0960     0.3840    -0.5200 C.2   1 <1>   0.0460 
  8 C        1.8990    -2.2420     0.1770 C.2   1 <1>   0.0460 
  9 N        3.6700     1.5320     0.0570 N.2   1 <1>  -0.5650 
 10 C        5.2840    -0.0030    -0.0040 C.2   1 <1>  -0.3320 
 11 N        2.9360    -3.0200    -0.1970 N.2   1 <1>  -0.5650 
 12 C        1.6850    -2.3380     1.5080 C.2   1 <1>  -0.3020 
 13 C        4.6120     1.8290     0.8920 C.2   1 <1>   0.0060 
 14 N        5.6230     0.9330     0.9020 N.pl3 1 <1>   0.0330 
 15 C        6.1470    -1.2200    -0.2930 C.3   1 <1>  -0.0600 
 16 C        3.3280    -3.5710     0.9040 C.2   1 <1>   0.0060 
 17 N        2.6070    -3.1950     1.9820 N.pl3 1 <1>   0.0330 
 18 C        4.6030     3.0580     1.7840 C.3   1 <1>   0.0200 
 19 C        4.4790    -4.5520     0.9950 C.3   1 <1>  -0.0600 
 20 C        5.6760     4.0640     1.3570 C.3   1 <1>  -0.2400 
 21 H       -1.5530     2.6920    -1.7930 H     1 <1>   0.4000 
 22 H       -0.7100     0.7790    -0.7860 H     1 <1>   0.0800 
 23 H        0.2880     2.2210    -0.5560 H     1 <1>   0.0800 
 24 H        1.7650     1.6060    -2.3300 H     1 <1>   0.0800 
 25 H        0.7220     0.3060    -2.8640 H     1 <1>   0.0800 
 26 H        2.0150     0.3590    -0.2170 H     1 <1>   0.4500 
 27 H        3.3910     0.1810    -2.5250 H     1 <1>   0.0800 
 28 H        3.5040    -1.3380    -1.6580 H     1 <1>   0.0800 
 29 H        1.0350    -1.9780    -1.7530 H     1 <1>   0.0800 
 30 H        0.1510    -1.2120    -0.4570 H     1 <1>   0.0800 
 31 H        0.9520    -1.8640     2.1380 H     1 <1>   0.1500 
 32 H        6.4680     0.9710     1.4800 H     1 <1>   0.2700 
 33 H        5.6730    -1.8630    -1.0140 H     1 <1>   0.0800 
 34 H        6.3020    -1.7840     0.6090 H     1 <1>   0.0800 
 35 H        7.1030    -0.9150    -0.6820 H     1 <1>   0.0800 
 36 H        2.7370    -3.5080     2.9500 H     1 <1>   0.2700 
 37 H        4.7630     2.7620     2.8060 H     1 <1>   0.0800 
 38 H        3.6370     3.5270     1.7240 H     1 <1>   0.0800 
 39 H        4.9150    -4.6960     0.0230 H     1 <1>   0.0800 
 40 H        4.1270    -5.5010     1.3560 H     1 <1>   0.0800 
 41 H        5.2350    -4.1770     1.6600 H     1 <1>   0.0800 
 42 H        6.6580     3.6340     1.4440 H     1 <1>   0.0800 
 43 H        5.6280     4.9410     1.9780 H     1 <1>   0.0800 
 44 H        5.5170     4.3580     0.3340 H     1 <1>   0.0800 
@<TRIPOS>BOND
  1   1   2  1   
  2   1  21  1   
  3   2   3  1   
  4   2  22  1   
  5   2  23  1   
  6   3   4  1   
  7   3  24  1   
  8   3  25  1   
  9   4   5  1   
 10   4   6  1   
 11   4  26  1   
 12   5   7  1   
 13   5  27  1   
 14   5  28  1   
 15   6   8  1   
 16   6  29  1   
 17   6  30  1   
 18   7   9  1   
 19   7  10  2   
 20   8  11  1   
 21   8  12  2   
 22   9  13  2   
 23  10  14  1   
 24  10  15  1   
 25  11  16  2   
 26  12  17  1   
 27  12  31  1   
 28  13  14  1   
 29  13  18  1   
 30  14  32  1   
 31  15  33  1   
 32  15  34  1   
 33  15  35  1   
 34  16  17  1   
 35  16  19  1   
 36  17  36  1   
 37  18  20  1   
 38  18  37  1   
 39  18  38  1   
 40  19  39  1   
 41  19  40  1   
 42  19  41  1   
 43  20  42  1   
 44  20  43  1   
 45  20  44  1   
@<TRIPOS>SUBSTRUCTURE
  1 ****   7 GROUP 4 **** **** 0

# MOE 2024.06 (io_trps.svl 2023.06)
