@<TRIPOS>MOLECULE
NONAME
49 52 1 0 0 
SMALL
USER_CHARGES


@<TRIPOS>ATOM
  1 O       -0.1860     0.1290     0.3820 O.2   1 <1>  -0.5700 
  2 C       -1.2360     0.7400     0.4690 C.2   1 <1>   0.7150 
  3 N       -2.3600     0.0380     0.8600 N.am  1 <1>  -0.6600 
  4 C       -1.2700     2.1520     0.1480 C.2   1 <1>   0.0550 
  5 C       -2.4750    -1.4420     0.6770 C.3   1 <1>   0.1400 
  6 C       -3.6560     0.6530     1.2740 C.3   1 <1>   0.1400 
  7 O       -2.3090     2.6860    -0.4850 O.3   1 <1>  -0.2800 
  8 C       -0.3570     3.1220     0.3650 C.2   1 <1>   0.0460 
  9 C       -3.6680    -1.7840    -0.2410 C.3   1 <1>   0.3440 
 10 C       -4.7650     0.2410     0.2890 C.3   1 <1>   0.2950 
 11 C       -1.9490     3.9490    -0.5970 C.2   1 <1>   0.2980 
 12 N       -0.8080     4.2750    -0.1120 N.2   1 <1>  -0.5650 
 13 C        1.0030     3.0630     1.0310 C.3   1 <1>  -0.0590 
 14 O       -4.8410    -1.1540     0.2130 O.3   1 <1>  -0.5600 
 15 C       -3.8860    -3.2930    -0.2950 C.ar  1 <1>  -0.1430 
 16 C       -6.1340     0.7600     0.7360 C.3   1 <1>  -0.1950 
 17 C       -2.9300     4.8830    -1.2910 C.3   1 <1>   0.0200 
 18 C       -3.2590    -4.0420    -1.2820 C.ar  1 <1>  -0.1500 
 19 C       -4.6900    -3.9410     0.6320 C.ar  1 <1>  -0.1500 
 20 C       -7.2490     0.9450    -0.2440 C.3   1 <1>  -0.2000 
 21 C       -6.5860     2.1420     0.3790 C.3   1 <1>  -0.2000 
 22 C       -2.4560     6.3430    -1.3620 C.3   1 <1>  -0.2400 
 23 C       -3.4310    -5.4150    -1.3390 C.ar  1 <1>  -0.1500 
 24 C       -4.8640    -5.3140     0.5770 C.ar  1 <1>  -0.1500 
 25 C       -4.2340    -6.0520    -0.4090 C.ar  1 <1>  -0.1500 
 26 H       -1.5760    -1.8460     0.2470 H     1 <1>   0.0800 
 27 H       -2.6190    -1.9110     1.6350 H     1 <1>   0.0800 
 28 H       -3.9140     0.3010     2.2570 H     1 <1>   0.0800 
 29 H       -3.5870     1.7230     1.3250 H     1 <1>   0.0800 
 30 H       -3.4680    -1.4220    -1.2350 H     1 <1>   0.0800 
 31 H       -4.5400     0.6220    -0.6930 H     1 <1>   0.0800 
 32 H        1.2100     2.0760     1.4010 H     1 <1>   0.0800 
 33 H        1.0330     3.7560     1.8510 H     1 <1>   0.0800 
 34 H        1.7610     3.3330     0.3200 H     1 <1>   0.0800 
 35 H       -6.4010     0.3970     1.7140 H     1 <1>   0.1000 
 36 H       -3.0950     4.5170    -2.2880 H     1 <1>   0.0800 
 37 H       -3.8650     4.8430    -0.7630 H     1 <1>   0.0800 
 38 H       -2.6310    -3.5630    -2.0120 H     1 <1>   0.1500 
 39 H       -5.1890    -3.3760     1.4010 H     1 <1>   0.1500 
 40 H       -7.0660     0.7210    -1.2810 H     1 <1>   0.1000 
 41 H       -8.2460     0.6780     0.0630 H     1 <1>   0.1000 
 42 H       -7.1360     2.7130     1.1070 H     1 <1>   0.1000 
 43 H       -5.9650     2.7600    -0.2460 H     1 <1>   0.1000 
 44 H       -1.5280     6.4030    -1.9040 H     1 <1>   0.0800 
 45 H       -2.2990     6.7300    -0.3710 H     1 <1>   0.0800 
 46 H       -3.1900     6.9500    -1.8610 H     1 <1>   0.0800 
 47 H       -2.9420    -5.9870    -2.1070 H     1 <1>   0.1500 
 48 H       -5.4910    -5.8050     1.3000 H     1 <1>   0.1500 
 49 H       -4.3690    -7.1180    -0.4530 H     1 <1>   0.1500 
@<TRIPOS>BOND
  1   1   2  2   
  2   2   3  am  
  3   2   4  1   
  4   3   5  1   
  5   3   6  1   
  6   4   7  1   
  7   4   8  2   
  8   5   9  1   
  9   5  26  1   
 10   5  27  1   
 11   6  10  1   
 12   6  28  1   
 13   6  29  1   
 14   7  11  1   
 15   8  12  1   
 16   8  13  1   
 17   9  14  1   
 18   9  15  1   
 19   9  30  1   
 20  10  14  1   
 21  10  16  1   
 22  10  31  1   
 23  11  12  2   
 24  11  17  1   
 25  13  32  1   
 26  13  33  1   
 27  13  34  1   
 28  15  18  ar  
 29  15  19  ar  
 30  16  20  1   
 31  16  21  1   
 32  16  35  1   
 33  17  22  1   
 34  17  36  1   
 35  17  37  1   
 36  18  23  ar  
 37  18  38  1   
 38  19  24  ar  
 39  19  39  1   
 40  20  21  1   
 41  20  40  1   
 42  20  41  1   
 43  21  42  1   
 44  21  43  1   
 45  22  44  1   
 46  22  45  1   
 47  22  46  1   
 48  23  25  ar  
 49  23  47  1   
 50  24  25  ar  
 51  24  48  1   
 52  25  49  1   
@<TRIPOS>SUBSTRUCTURE
  1 ****   3 GROUP 4 **** **** 0

# MOE 2024.06 (io_trps.svl 2023.06)
