@<TRIPOS>MOLECULE
NONAME
44 47 1 0 0 
SMALL
USER_CHARGES


@<TRIPOS>ATOM
  1 O        2.1660    -0.2880     2.0190 O.3   1 <1>  -0.0190 
  2 N        2.4320     0.8920     1.5550 N.2   1 <1>  -0.4100 
  3 C        1.2700    -0.7520     1.1890 C.2   1 <1>   0.2980 
  4 C        1.7150     1.0670     0.5160 C.2   1 <1>   0.4300 
  5 N        0.9380     0.0260     0.2350 N.2   1 <1>  -0.5650 
  6 C        0.7080    -2.1480     1.4270 C.3   1 <1>   0.5230 
  7 C        1.7020     2.3150    -0.3520 C.3   1 <1>  -0.0140 
  8 N       -0.3050    -2.4780     0.3630 N.4   1 <1>  -0.9590 
  9 C        2.3970     2.3240    -1.6810 C.3   1 <1>  -0.2000 
 10 C        2.9360     3.1450    -0.5490 C.3   1 <1>  -0.2000 
 11 C       -1.6830    -2.7120     0.8950 C.3   1 <1>   0.4230 
 12 C        0.2150    -3.5650    -0.5250 C.3   1 <1>   0.2630 
 13 C       -2.6900    -2.8470    -0.2510 C.3   1 <1>  -0.1600 
 14 C       -2.2050    -1.4600     1.6110 C.3   1 <1>  -0.1600 
 15 C       -2.9660    -1.4110    -0.7190 C.3   1 <1>  -0.0800 
 16 C       -2.6780    -0.5170     0.4930 C.3   1 <1>  -0.0800 
 17 C       -4.4110    -1.1240    -1.1500 C.3   1 <1>  -0.1600 
 18 C       -3.9700     0.2570     0.7870 C.3   1 <1>  -0.1600 
 19 C       -4.7280     0.2330    -0.5340 C.3   1 <1>   0.2000 
 20 O       -6.0800     0.3520    -0.3110 O.3   1 <1>  -0.6800 
 21 H        0.2550    -2.1820     2.4030 H     1 <1>   0.0800 
 22 H        1.5170    -2.8580     1.4080 H     1 <1>   0.0800 
 23 H        0.7670     2.8410    -0.2800 H     1 <1>   0.1000 
 24 H       -0.3610    -1.6050    -0.1960 H     1 <1>   0.4500 
 25 H        2.9500     1.4530    -1.9880 H     1 <1>   0.1000 
 26 H        1.9260     2.8270    -2.5080 H     1 <1>   0.1000 
 27 H        2.8360     4.2160    -0.5890 H     1 <1>   0.1000 
 28 H        3.8510     2.8340    -0.0730 H     1 <1>   0.1000 
 29 H       -1.7000    -3.5770     1.5390 H     1 <1>   0.0800 
 30 H        0.2350    -4.5060     0.0010 H     1 <1>   0.0800 
 31 H        1.2140    -3.3310    -0.8570 H     1 <1>   0.0800 
 32 H       -0.4070    -3.6720    -1.3990 H     1 <1>   0.0800 
 33 H       -2.3840    -3.4890    -1.0550 H     1 <1>   0.0800 
 34 H       -3.5910    -3.2660     0.1650 H     1 <1>   0.0800 
 35 H       -3.0490    -1.7620     2.2060 H     1 <1>   0.0800 
 36 H       -1.5050    -0.9820     2.2700 H     1 <1>   0.0800 
 37 H       -2.2930    -1.1400    -1.5170 H     1 <1>   0.0800 
 38 H       -1.8980     0.1800     0.2330 H     1 <1>   0.0800 
 39 H       -5.0820    -1.8670    -0.7580 H     1 <1>   0.0800 
 40 H       -4.5030    -1.0900    -2.2220 H     1 <1>   0.0800 
 41 H       -3.7640     1.2660     1.0960 H     1 <1>   0.0800 
 42 H       -4.5500    -0.2390     1.5460 H     1 <1>   0.0800 
 43 H       -4.4080     1.0360    -1.1780 H     1 <1>   0.0800 
 44 H       -6.3990    -0.3660     0.2660 H     1 <1>   0.4000 
@<TRIPOS>BOND
  1   1   2  1   
  2   1   3  1   
  3   2   4  2   
  4   3   5  2   
  5   3   6  1   
  6   4   5  1   
  7   4   7  1   
  8   6   8  1   
  9   6  21  1   
 10   6  22  1   
 11   7   9  1   
 12   7  10  1   
 13   7  23  1   
 14   8  11  1   
 15   8  12  1   
 16   8  24  1   
 17   9  10  1   
 18   9  25  1   
 19   9  26  1   
 20  10  27  1   
 21  10  28  1   
 22  11  13  1   
 23  11  14  1   
 24  11  29  1   
 25  12  30  1   
 26  12  31  1   
 27  12  32  1   
 28  13  15  1   
 29  13  33  1   
 30  13  34  1   
 31  14  16  1   
 32  14  35  1   
 33  14  36  1   
 34  15  16  1   
 35  15  17  1   
 36  15  37  1   
 37  16  18  1   
 38  16  38  1   
 39  17  19  1   
 40  17  39  1   
 41  17  40  1   
 42  18  19  1   
 43  18  41  1   
 44  18  42  1   
 45  19  20  1   
 46  19  43  1   
 47  20  44  1   
@<TRIPOS>SUBSTRUCTURE
  1 ****   5 GROUP 4 **** **** 0

# MOE 2024.06 (io_trps.svl 2023.06)
