@<TRIPOS>MOLECULE
NONAME
53 56 1 0 0 
SMALL
USER_CHARGES


@<TRIPOS>ATOM
  1 O        0.5470    -2.3740    -0.0110 O.3   1 <1>  -0.6800 
  2 C       -0.7450    -2.7600     0.3080 C.3   1 <1>   0.2000 
  3 C       -1.2770    -3.7340    -0.7590 C.3   1 <1>   0.2090 
  4 C       -1.6050    -1.4940     0.3790 C.3   1 <1>  -0.1600 
  5 N       -2.7190    -4.0630    -0.4990 N.pl3 1 <1>  -0.8380 
  6 C       -3.0870    -1.8580     0.5720 C.3   1 <1>  -0.1600 
  7 C       -3.2310    -5.3220    -0.4250 C.ar  1 <1>   0.4100 
  8 C       -3.5860    -2.8420    -0.4940 C.3   1 <1>   0.2090 
  9 N       -4.4820    -5.5020    -0.8100 N.ar  1 <1>  -0.6200 
 10 C       -2.4550    -6.3990     0.0520 C.ar  1 <1>  -0.1500 
 11 C       -4.9740    -6.7230    -0.7740 C.ar  1 <1>   0.7710 
 12 C       -2.9950    -7.6410     0.0860 C.ar  1 <1>   0.2110 
 13 N       -4.2690    -7.7820    -0.3440 N.ar  1 <1>  -0.1790 
 14 N       -6.2390    -6.8560    -1.1890 N.pl3 1 <1>  -0.8690 
 15 C       -7.0900    -8.0510    -1.4520 C.3   1 <1>   0.2090 
 16 C       -7.5090    -8.7550    -0.1570 C.3   1 <1>  -0.0170 
 17 C       -6.9160   -10.1470    -0.1000 C.ar  1 <1>   0.4770 
 18 N       -5.6050   -10.2240     0.1350 N.ar  1 <1>  -0.6200 
 19 N       -7.7650   -11.1340    -0.3140 N.ar  1 <1>  -0.6200 
 20 C       -5.1070   -11.4480     0.1920 C.ar  1 <1>   0.1670 
 21 C       -7.2310   -12.3290    -0.2600 C.ar  1 <1>   0.1670 
 22 C       -5.9110   -12.5470    -0.0090 C.ar  1 <1>  -0.1430 
 23 C       -3.6270   -11.5860     0.4900 C.3   1 <1>  -0.0970 
 24 C       -7.9920   -13.6120    -0.4610 C.3   1 <1>  -0.0170 
 25 C       -5.5970   -14.0280     0.0000 C.3   1 <1>  -0.0170 
 26 C       -6.8860   -14.6810    -0.5340 C.3   1 <1>  -0.1600 
 27 H        1.1850    -3.0900     0.1690 H     1 <1>   0.4000 
 28 H       -0.7210    -3.2440     1.2690 H     1 <1>   0.0800 
 29 H       -0.6730    -4.6200    -0.7800 H     1 <1>   0.0800 
 30 H       -1.2070    -3.2600    -1.7230 H     1 <1>   0.0800 
 31 H       -1.4960    -0.9390    -0.5370 H     1 <1>   0.0800 
 32 H       -1.2740    -0.8780     1.1960 H     1 <1>   0.0800 
 33 H       -3.6830    -0.9630     0.5300 H     1 <1>   0.0800 
 34 H       -3.2300    -2.2990     1.5420 H     1 <1>   0.0800 
 35 H       -4.6110    -3.0950    -0.2810 H     1 <1>   0.0800 
 36 H       -3.5520    -2.3800    -1.4660 H     1 <1>   0.0800 
 37 H       -1.4560    -6.2180     0.3960 H     1 <1>   0.1500 
 38 H       -2.4640    -8.5070     0.4450 H     1 <1>   0.1500 
 39 H       -4.7620    -8.6810    -0.3070 H     1 <1>   0.4570 
 40 H       -6.6660    -5.9670    -1.4750 H     1 <1>   0.4000 
 41 H       -6.5710    -8.7340    -2.1060 H     1 <1>   0.0800 
 42 H       -7.9780    -7.7310    -1.9730 H     1 <1>   0.0800 
 43 H       -8.5810    -8.8370    -0.1390 H     1 <1>   0.0800 
 44 H       -7.2150    -8.1950     0.7120 H     1 <1>   0.0800 
 45 H       -3.3830   -11.0360     1.3800 H     1 <1>   0.0800 
 46 H       -3.0520   -11.2070    -0.3350 H     1 <1>   0.0800 
 47 H       -3.3570   -12.6130     0.6490 H     1 <1>   0.0800 
 48 H       -8.5730   -13.5800    -1.3650 H     1 <1>   0.0800 
 49 H       -8.6380   -13.7790     0.3830 H     1 <1>   0.0800 
 50 H       -5.4020   -14.3510     1.0080 H     1 <1>   0.0800 
 51 H       -4.7560   -14.2620    -0.6280 H     1 <1>   0.0800 
 52 H       -6.7380   -14.9600    -1.5640 H     1 <1>   0.0800 
 53 H       -7.1480   -15.5600     0.0280 H     1 <1>   0.0800 
@<TRIPOS>BOND
  1   1   2  1   
  2   1  27  1   
  3   2   3  1   
  4   2   4  1   
  5   2  28  1   
  6   3   5  1   
  7   3  29  1   
  8   3  30  1   
  9   4   6  1   
 10   4  31  1   
 11   4  32  1   
 12   5   7  1   
 13   5   8  1   
 14   6   8  1   
 15   6  33  1   
 16   6  34  1   
 17   7   9  ar  
 18   7  10  ar  
 19   8  35  1   
 20   8  36  1   
 21   9  11  ar  
 22  10  12  ar  
 23  10  37  1   
 24  11  13  ar  
 25  11  14  1   
 26  12  13  ar  
 27  12  38  1   
 28  13  39  1   
 29  14  15  1   
 30  14  40  1   
 31  15  16  1   
 32  15  41  1   
 33  15  42  1   
 34  16  17  1   
 35  16  43  1   
 36  16  44  1   
 37  17  18  ar  
 38  17  19  ar  
 39  18  20  ar  
 40  19  21  ar  
 41  20  22  ar  
 42  20  23  1   
 43  21  22  ar  
 44  21  24  1   
 45  22  25  1   
 46  23  45  1   
 47  23  46  1   
 48  23  47  1   
 49  24  26  1   
 50  24  48  1   
 51  24  49  1   
 52  25  26  1   
 53  25  50  1   
 54  25  51  1   
 55  26  52  1   
 56  26  53  1   
@<TRIPOS>SUBSTRUCTURE
  1 ****  13 GROUP 4 **** **** 0

# MOE 2024.06 (io_trps.svl 2023.06)
