@<TRIPOS>MOLECULE
NONAME
44 45 1 0 0 
SMALL
USER_CHARGES


@<TRIPOS>ATOM
  1 CL      -2.0280    -1.8500    -0.2760 Cl    1 <1>  -0.1770 
  2 C       -2.4070    -0.2060     0.1980 C.ar  1 <1>   0.1770 
  3 C       -3.3440     0.0000     1.2060 C.ar  1 <1>   0.0860 
  4 C       -1.7730     0.8450    -0.4560 C.ar  1 <1>  -0.1440 
  5 C       -3.6260     1.3240     1.5220 C.ar  1 <1>   0.1900 
  6 C       -3.9840    -1.0990     1.8770 C.2   1 <1>   0.5440 
  7 C       -2.0840     2.1500    -0.0990 C.ar  1 <1>  -0.1500 
  8 C       -0.7470     0.5880    -1.5520 C.3   1 <1>  -0.0970 
  9 F       -4.5130     1.5860     2.4410 F     1 <1>  -0.1900 
 10 C       -3.0170     2.3940     0.8940 C.ar  1 <1>  -0.1500 
 11 O       -3.5300    -1.5120     2.9250 O.2   1 <1>  -0.5700 
 12 N       -5.0890    -1.7140     1.3390 N.am  1 <1>  -0.6600 
 13 C       -5.6910    -1.3820     0.0210 C.3   1 <1>   0.1400 
 14 C       -5.5960    -3.0210     1.8270 C.3   1 <1>   0.1400 
 15 C       -6.7310    -2.4780    -0.2180 C.3   1 <1>   0.2000 
 16 C       -6.2160    -3.6750     0.5860 C.3   1 <1>  -0.0800 
 17 O       -7.9340    -2.0710     0.3350 O.3   1 <1>  -0.6800 
 18 C       -5.1430    -4.4390    -0.2170 C.3   1 <1>  -0.0550 
 19 S       -4.7830    -6.0750     0.4240 S.o2  1 <1>   1.3330 
 20 O       -4.3840    -6.0010     1.8110 O.2   1 <1>  -0.6500 
 21 O       -5.8810    -6.9350     0.0460 O.2   1 <1>  -0.6500 
 22 N       -3.4190    -6.5290    -0.4780 N.am  1 <1>  -0.8490 
 23 C       -3.2970    -7.9850    -0.5940 C.3   1 <1>   0.1160 
 24 C       -2.1670    -5.9670     0.0470 C.3   1 <1>   0.1160 
 25 H       -1.6040     2.9810    -0.5900 H     1 <1>   0.1500 
 26 H       -0.3560     1.5100    -1.9420 H     1 <1>   0.0800 
 27 H       -1.1980     0.0410    -2.3610 H     1 <1>   0.0800 
 28 H        0.0730     0.0120    -1.1600 H     1 <1>   0.0800 
 29 H       -3.2700     3.4000     1.1810 H     1 <1>   0.1500 
 30 H       -6.1380    -0.4030     0.0250 H     1 <1>   0.0800 
 31 H       -4.9320    -1.4310    -0.7400 H     1 <1>   0.0800 
 32 H       -4.8020    -3.6070     2.2610 H     1 <1>   0.0800 
 33 H       -6.3460    -2.8480     2.5800 H     1 <1>   0.0800 
 34 H       -6.8970    -2.6880    -1.2610 H     1 <1>   0.0800 
 35 H       -7.0180    -4.3480     0.8410 H     1 <1>   0.0800 
 36 H       -7.7810    -1.7670     1.2530 H     1 <1>   0.4000 
 37 H       -4.2420    -3.8590    -0.2420 H     1 <1>   0.0800 
 38 H       -5.4790    -4.5560    -1.2290 H     1 <1>   0.0800 
 39 H       -2.4330    -8.2420    -1.1820 H     1 <1>   0.0800 
 40 H       -4.1680    -8.3910    -1.0820 H     1 <1>   0.0800 
 41 H       -3.2090    -8.4330     0.3830 H     1 <1>   0.0800 
 42 H       -1.3490    -6.2130    -0.6070 H     1 <1>   0.0800 
 43 H       -1.9600    -6.3590     1.0300 H     1 <1>   0.0800 
 44 H       -2.2360    -4.8950     0.1140 H     1 <1>   0.0800 
@<TRIPOS>BOND
  1   1   2  1   
  2   2   3  ar  
  3   2   4  ar  
  4   3   5  ar  
  5   3   6  1   
  6   4   7  ar  
  7   4   8  1   
  8   5   9  1   
  9   5  10  ar  
 10   6  11  2   
 11   6  12  am  
 12   7  10  ar  
 13   7  25  1   
 14   8  26  1   
 15   8  27  1   
 16   8  28  1   
 17  10  29  1   
 18  12  13  1   
 19  12  14  1   
 20  13  15  1   
 21  13  30  1   
 22  13  31  1   
 23  14  16  1   
 24  14  32  1   
 25  14  33  1   
 26  15  16  1   
 27  15  17  1   
 28  15  34  1   
 29  16  18  1   
 30  16  35  1   
 31  17  36  1   
 32  18  19  1   
 33  18  37  1   
 34  18  38  1   
 35  19  20  2   
 36  19  21  2   
 37  19  22  am  
 38  22  23  1   
 39  22  24  1   
 40  23  39  1   
 41  23  40  1   
 42  23  41  1   
 43  24  42  1   
 44  24  43  1   
 45  24  44  1   
@<TRIPOS>SUBSTRUCTURE
  1 ****  12 GROUP 4 **** **** 0

# MOE 2024.06 (io_trps.svl 2023.06)
