@<TRIPOS>MOLECULE
NONAME
30 30 1 0 0 
SMALL
USER_CHARGES


@<TRIPOS>ATOM
  1 O       -2.4700    -0.7960     1.5640 O.2   1 <1>  -0.5700 
  2 C       -2.1960    -0.9000     0.3960 C.2   1 <1>   0.6590 
  3 O       -1.9960     0.1520    -0.3840 O.3   1 <1>  -0.4300 
  4 C       -2.0650    -2.2650    -0.2820 C.3   1 <1>  -0.0190 
  5 C       -2.0800     1.4670     0.1160 C.3   1 <1>   0.1200 
  6 C       -2.6620    -3.4000     0.5810 C.3   1 <1>  -0.1600 
  7 C       -0.5930    -2.5700    -0.6260 C.3   1 <1>  -0.1600 
  8 C       -1.7890     2.4280    -1.0310 C.3   1 <1>  -0.2400 
  9 C       -2.4980    -4.7660    -0.0840 C.3   1 <1>   0.4230 
 10 C       -0.4290    -3.9480    -1.2840 C.3   1 <1>  -0.1600 
 11 N       -2.9960    -5.7980     0.8340 N.4   1 <1>  -0.8530 
 12 C       -1.0290    -5.0570    -0.4080 C.3   1 <1>  -0.1600 
 13 H       -2.6200    -2.2060    -1.2020 H     1 <1>   0.0800 
 14 H       -3.0720     1.6210     0.5080 H     1 <1>   0.0800 
 15 H       -1.3580     1.5790     0.9070 H     1 <1>   0.0800 
 16 H       -3.7060    -3.1930     0.7440 H     1 <1>   0.0800 
 17 H       -2.1620    -3.3990     1.5360 H     1 <1>   0.0800 
 18 H       -0.2160    -1.8130    -1.2940 H     1 <1>   0.0800 
 19 H        0.0010    -2.5280     0.2720 H     1 <1>   0.0800 
 20 H       -2.5120     2.2990    -1.8170 H     1 <1>   0.0800 
 21 H       -0.8010     2.2560    -1.4180 H     1 <1>   0.0800 
 22 H       -1.8460     3.4420    -0.6780 H     1 <1>   0.0800 
 23 H       -3.0680    -4.7830    -1.0010 H     1 <1>   0.0800 
 24 H        0.6180    -4.1420    -1.4470 H     1 <1>   0.0800 
 25 H       -0.9090    -3.9420    -2.2490 H     1 <1>   0.0800 
 26 H       -2.4580    -5.7790     1.7070 H     1 <1>   0.4500 
 27 H       -2.9070    -6.7310     0.4180 H     1 <1>   0.4500 
 28 H       -3.9820    -5.6340     1.0630 H     1 <1>   0.4500 
 29 H       -0.4540    -5.1200     0.5000 H     1 <1>   0.0800 
 30 H       -0.9450    -5.9920    -0.9340 H     1 <1>   0.0800 
@<TRIPOS>BOND
  1   1   2  2   
  2   2   3  1   
  3   2   4  1   
  4   3   5  1   
  5   4   6  1   
  6   4   7  1   
  7   4  13  1   
  8   5   8  1   
  9   5  14  1   
 10   5  15  1   
 11   6   9  1   
 12   6  16  1   
 13   6  17  1   
 14   7  10  1   
 15   7  18  1   
 16   7  19  1   
 17   8  20  1   
 18   8  21  1   
 19   8  22  1   
 20   9  11  1   
 21   9  12  1   
 22   9  23  1   
 23  10  12  1   
 24  10  24  1   
 25  10  25  1   
 26  11  26  1   
 27  11  27  1   
 28  11  28  1   
 29  12  29  1   
 30  12  30  1   
@<TRIPOS>SUBSTRUCTURE
  1 ****   4 GROUP 4 **** **** 0

# MOE 2024.06 (io_trps.svl 2023.06)
