@<TRIPOS>MOLECULE
NONAME
44 46 1 0 0 
SMALL
USER_CHARGES


@<TRIPOS>ATOM
  1 S        0.3410    -0.0730    -1.1480 S.o2  1 <1>   1.4470 
  2 O       -0.5690    -1.1320    -1.5210 O.2   1 <1>  -0.6500 
  3 O        1.0420     0.6210    -2.2040 O.2   1 <1>  -0.6500 
  4 N       -0.5210     1.0560    -0.2190 N.am  1 <1>  -0.8490 
  5 C        1.5710    -0.7460     0.0300 C.ar  1 <1>  -0.0090 
  6 C       -1.5300     0.5560     0.7360 C.3   1 <1>   0.1960 
  7 C       -0.8610     2.3280    -0.8580 C.3   1 <1>   0.1960 
  8 C        2.4020     0.0120     0.8780 C.ar  1 <1>  -0.1440 
  9 C        1.6880    -2.1340     0.0790 C.ar  1 <1>  -0.1500 
 10 C       -2.9970     0.5660     0.2260 C.3   1 <1>   0.0000 
 11 C       -2.2280     2.2490    -1.5350 C.3   1 <1>  -0.1600 
 12 C        3.2780    -0.6540     1.7390 C.ar  1 <1>  -0.1500 
 13 C        2.3990     1.5570     0.9330 C.3   1 <1>   1.1640 
 14 C        2.5650    -2.7760     0.9290 C.ar  1 <1>  -0.1500 
 15 C       -3.9460     0.2920     1.4110 C.3   1 <1>   0.2000 
 16 C       -3.3120     1.9010    -0.5050 C.3   1 <1>  -0.1600 
 17 C       -3.3560    -0.6240    -0.6850 C.3   1 <1>  -0.1600 
 18 C        3.3630    -2.0310     1.7670 C.ar  1 <1>  -0.1500 
 19 F        1.4300     2.0280     1.7070 F     1 <1>  -0.3400 
 20 F        2.2780     2.1520    -0.2410 F     1 <1>  -0.3400 
 21 F        3.5230     2.0460     1.4460 F     1 <1>  -0.3400 
 22 O       -4.1780     1.4080     2.1930 O.3   1 <1>  -0.6800 
 23 C       -5.2540    -0.2210     0.8150 C.3   1 <1>  -0.1600 
 24 C       -4.8660    -0.8490    -0.5290 C.3   1 <1>  -0.1600 
 25 H       -1.2620    -0.4330     1.0660 H     1 <1>   0.0800 
 26 H       -1.4870     1.1950     1.6020 H     1 <1>   0.0800 
 27 H       -0.8890     3.0930    -0.1010 H     1 <1>   0.0800 
 28 H       -0.1080     2.6160    -1.5720 H     1 <1>   0.0800 
 29 H        1.0750    -2.7400    -0.5680 H     1 <1>   0.1500 
 30 H       -2.4520     3.2030    -1.9780 H     1 <1>   0.0800 
 31 H       -2.1950     1.5250    -2.3290 H     1 <1>   0.0800 
 32 H        3.9180    -0.1070     2.4120 H     1 <1>   0.1500 
 33 H        2.6230    -3.8520     0.9370 H     1 <1>   0.1500 
 34 H       -3.5250    -0.4700     2.0460 H     1 <1>   0.0800 
 35 H       -4.2700     1.8560    -0.9920 H     1 <1>   0.0800 
 36 H       -3.3440     2.7070     0.2050 H     1 <1>   0.0800 
 37 H       -3.0880    -0.4700    -1.7140 H     1 <1>   0.0800 
 38 H       -2.8480    -1.5070    -0.3370 H     1 <1>   0.0800 
 39 H        4.0490    -2.5210     2.4380 H     1 <1>   0.1500 
 40 H       -4.6360     2.0870     1.6630 H     1 <1>   0.4000 
 41 H       -5.7030    -0.9500     1.4670 H     1 <1>   0.0800 
 42 H       -5.9450     0.5860     0.6470 H     1 <1>   0.0800 
 43 H       -5.0970    -1.9010    -0.5540 H     1 <1>   0.0800 
 44 H       -5.3970    -0.3610    -1.3270 H     1 <1>   0.0800 
@<TRIPOS>BOND
  1   1   2  2   
  2   1   3  2   
  3   1   4  am  
  4   1   5  1   
  5   4   6  1   
  6   4   7  1   
  7   5   8  ar  
  8   5   9  ar  
  9   6  10  1   
 10   6  25  1   
 11   6  26  1   
 12   7  11  1   
 13   7  27  1   
 14   7  28  1   
 15   8  12  ar  
 16   8  13  1   
 17   9  14  ar  
 18   9  29  1   
 19  10  15  1   
 20  10  16  1   
 21  10  17  1   
 22  11  16  1   
 23  11  30  1   
 24  11  31  1   
 25  12  18  ar  
 26  12  32  1   
 27  13  19  1   
 28  13  20  1   
 29  13  21  1   
 30  14  18  ar  
 31  14  33  1   
 32  15  22  1   
 33  15  23  1   
 34  15  34  1   
 35  16  35  1   
 36  16  36  1   
 37  17  24  1   
 38  17  37  1   
 39  17  38  1   
 40  18  39  1   
 41  22  40  1   
 42  23  24  1   
 43  23  41  1   
 44  23  42  1   
 45  24  43  1   
 46  24  44  1   
@<TRIPOS>SUBSTRUCTURE
  1 ****   4 GROUP 4 **** **** 0

# MOE 2024.06 (io_trps.svl 2023.06)
