@<TRIPOS>MOLECULE
NONAME
52 54 1 0 0 
SMALL
USER_CHARGES


@<TRIPOS>ATOM
  1 O       -0.1410     0.7520     0.2640 O.2   1 <1>  -0.5700 
  2 C       -0.0160     1.9510     0.3650 C.2   1 <1>   0.5690 
  3 N       -1.0820     2.7670     0.6470 N.am  1 <1>  -0.6600 
  4 C        1.3670     2.5560     0.1700 C.3   1 <1>  -0.0990 
  5 C       -2.4520     2.2030     0.8410 C.3   1 <1>   0.1400 
  6 C       -0.9900     4.2570     0.7260 C.3   1 <1>   0.1400 
  7 C        2.4980     1.5200     0.0970 C.3   1 <1>  -0.0160 
  8 C       -3.4470     2.7290    -0.2290 C.3   1 <1>   0.0000 
  9 C       -2.3610     4.9280     0.5470 C.3   1 <1>  -0.1600 
 10 C        3.8390     2.2180    -0.0650 C.ar  1 <1>  -0.1440 
 11 C       -4.8820     2.4270     0.2630 C.3   1 <1>   0.2000 
 12 C       -3.1690     4.2280    -0.5550 C.3   1 <1>  -0.1600 
 13 C       -3.3470     1.8600    -1.4950 C.3   1 <1>  -0.1600 
 14 C        4.3360     2.4970    -1.3280 C.ar  1 <1>  -0.1500 
 15 C        4.5760     2.5870     1.0490 C.ar  1 <1>  -0.1500 
 16 O       -5.8180     3.1360    -0.4990 O.3   1 <1>  -0.5600 
 17 C       -5.0800     0.9340    -0.0200 C.3   1 <1>  -0.1600 
 18 C       -4.1910     0.6060    -1.2280 C.3   1 <1>  -0.1600 
 19 C        5.5540     3.1380    -1.4750 C.ar  1 <1>  -0.1500 
 20 C        5.7940     3.2280     0.9010 C.ar  1 <1>  -0.1500 
 21 C       -7.0380     3.3690     0.1280 C.3   1 <1>   0.0400 
 22 C        6.2900     3.5070    -0.3620 C.ar  1 <1>  -0.1440 
 23 C        7.6260     4.2100    -0.5230 C.3   1 <1>  -0.0970 
 24 H        1.3620     3.1260    -0.7400 H     1 <1>   0.0800 
 25 H        1.5700     3.2230     0.9870 H     1 <1>   0.0800 
 26 H       -2.4220     1.1270     0.8260 H     1 <1>   0.0800 
 27 H       -2.7890     2.4920     1.8210 H     1 <1>   0.0800 
 28 H       -0.5670     4.5410     1.6740 H     1 <1>   0.0800 
 29 H       -0.3390     4.6090    -0.0560 H     1 <1>   0.0800 
 30 H        2.3300     0.8560    -0.7330 H     1 <1>   0.0800 
 31 H        2.5020     0.9240     0.9940 H     1 <1>   0.0800 
 32 H       -2.9050     4.8980     1.4750 H     1 <1>   0.0800 
 33 H       -2.2160     5.9630     0.2930 H     1 <1>   0.0800 
 34 H       -5.0090     2.6790     1.3030 H     1 <1>   0.0800 
 35 H       -2.5940     4.2870    -1.4630 H     1 <1>   0.0800 
 36 H       -4.0780     4.7730    -0.7330 H     1 <1>   0.0800 
 37 H       -3.7840     2.3900    -2.3240 H     1 <1>   0.0800 
 38 H       -2.3280     1.6140    -1.7400 H     1 <1>   0.0800 
 39 H        3.7760     2.2160    -2.2020 H     1 <1>   0.1500 
 40 H        4.2050     2.3770     2.0360 H     1 <1>   0.1500 
 41 H       -4.7410     0.3660     0.8280 H     1 <1>   0.0800 
 42 H       -6.1090     0.6860    -0.2060 H     1 <1>   0.0800 
 43 H       -3.5550    -0.2340    -1.0050 H     1 <1>   0.0800 
 44 H       -4.7890     0.3730    -2.0920 H     1 <1>   0.0800 
 45 H        5.9250     3.3490    -2.4620 H     1 <1>   0.1500 
 46 H        6.3540     3.5090     1.7760 H     1 <1>   0.1500 
 47 H       -7.6760     3.8880    -0.5660 H     1 <1>   0.0800 
 48 H       -6.8770     3.9810     0.9980 H     1 <1>   0.0800 
 49 H       -7.4890     2.4310     0.4020 H     1 <1>   0.0800 
 50 H        8.1040     3.9030    -1.4360 H     1 <1>   0.0800 
 51 H        8.2780     3.9720     0.2970 H     1 <1>   0.0800 
 52 H        7.4750     5.2740    -0.5510 H     1 <1>   0.0800 
@<TRIPOS>BOND
  1   1   2  2   
  2   2   3  am  
  3   2   4  1   
  4   3   5  1   
  5   3   6  1   
  6   4   7  1   
  7   4  24  1   
  8   4  25  1   
  9   5   8  1   
 10   5  26  1   
 11   5  27  1   
 12   6   9  1   
 13   6  28  1   
 14   6  29  1   
 15   7  10  1   
 16   7  30  1   
 17   7  31  1   
 18   8  11  1   
 19   8  12  1   
 20   8  13  1   
 21   9  12  1   
 22   9  32  1   
 23   9  33  1   
 24  10  14  ar  
 25  10  15  ar  
 26  11  16  1   
 27  11  17  1   
 28  11  34  1   
 29  12  35  1   
 30  12  36  1   
 31  13  18  1   
 32  13  37  1   
 33  13  38  1   
 34  14  19  ar  
 35  14  39  1   
 36  15  20  ar  
 37  15  40  1   
 38  16  21  1   
 39  17  18  1   
 40  17  41  1   
 41  17  42  1   
 42  18  43  1   
 43  18  44  1   
 44  19  22  ar  
 45  19  45  1   
 46  20  22  ar  
 47  20  46  1   
 48  21  47  1   
 49  21  48  1   
 50  21  49  1   
 51  22  23  1   
 52  23  50  1   
 53  23  51  1   
 54  23  52  1   
@<TRIPOS>SUBSTRUCTURE
  1 ****   2 GROUP 4 **** **** 0

# MOE 2024.06 (io_trps.svl 2023.06)
