@<TRIPOS>MOLECULE
NONAME
54 56 1 0 0 
SMALL
USER_CHARGES


@<TRIPOS>ATOM
  1 O        2.2130    -0.5040    -1.8570 O.2   1 <1>  -0.5700 
  2 C        2.0330    -0.7320    -0.6860 C.2   1 <1>   0.5690 
  3 N        2.1700     0.2650     0.2450 N.am  1 <1>  -0.6600 
  4 C        1.7250    -2.1550    -0.2610 C.3   1 <1>  -0.0990 
  5 C        2.8760     0.0560     1.5390 C.3   1 <1>   0.1400 
  6 C        1.9510     1.6820    -0.1510 C.3   1 <1>   0.1400 
  7 C        0.6950    -2.8240    -1.1780 C.3   1 <1>   0.0210 
  8 C        4.3890    -0.1300     1.2990 C.3   1 <1>   0.3430 
  9 C        3.2670     2.4610    -0.2380 C.3   1 <1>  -0.1600 
 10 C        0.3830    -4.2130    -0.6530 C.2   1 <1>  -0.1810 
 11 N        5.0950     1.0620     0.7020 N.4   1 <1>  -0.9590 
 12 C        4.4840     1.5910    -0.5620 C.3   1 <1>   0.3430 
 13 C        0.9940    -5.4050    -1.0360 C.2   1 <1>   0.1080 
 14 C       -0.5260    -4.5780     0.2780 C.2   1 <1>  -0.3320 
 15 C        6.5340     0.7520     0.4930 C.3   1 <1>   0.5240 
 16 N        0.5170    -6.4250    -0.4000 N.2   1 <1>  -0.7070 
 17 C        2.0850    -5.5520    -2.0720 C.3   1 <1>  -0.0590 
 18 N       -0.4250    -5.9200     0.4100 N.pl3 1 <1>   0.3140 
 19 C       -1.5070    -3.7220     1.0660 C.3   1 <1>  -0.0600 
 20 C        7.2860     2.0580     0.3710 C.2   1 <1>  -0.1810 
 21 C       -1.2080    -6.7920     1.2940 C.3   1 <1>   0.0160 
 22 C        7.7650     2.8430     1.3620 C.2   1 <1>  -0.0100 
 23 C        7.6390     2.7060    -0.8240 C.2   1 <1>  -0.1500 
 24 O        8.3570     3.9070     0.8640 O.3   1 <1>  -0.2800 
 25 C        8.2880     3.8280    -0.4480 C.2   1 <1>  -0.0100 
 26 H        1.3270    -2.1630     0.7360 H     1 <1>   0.0800 
 27 H        2.6320    -2.7300    -0.2720 H     1 <1>   0.0800 
 28 H        2.4860    -0.8200     2.0280 H     1 <1>   0.0800 
 29 H        2.7030     0.8910     2.1960 H     1 <1>   0.0800 
 30 H        1.2840     2.1540     0.5510 H     1 <1>   0.0800 
 31 H        1.4630     1.7070    -1.1130 H     1 <1>   0.0800 
 32 H        1.0700    -2.8870    -2.1840 H     1 <1>   0.0800 
 33 H       -0.2070    -2.2380    -1.2050 H     1 <1>   0.0800 
 34 H        4.5180    -0.9810     0.6500 H     1 <1>   0.0800 
 35 H        4.8500    -0.3730     2.2420 H     1 <1>   0.0800 
 36 H        3.4300     3.0220     0.6640 H     1 <1>   0.0800 
 37 H        3.1520     3.1830    -1.0280 H     1 <1>   0.0800 
 38 H        5.0770     1.8370     1.3750 H     1 <1>   0.4500 
 39 H        5.2010     2.2110    -1.0750 H     1 <1>   0.0800 
 40 H        4.2050     0.7870    -1.2260 H     1 <1>   0.0800 
 41 H        6.6720     0.1520    -0.3930 H     1 <1>   0.0800 
 42 H        6.9210     0.2090     1.3400 H     1 <1>   0.0800 
 43 H        2.8410    -4.8050    -1.9250 H     1 <1>   0.0800 
 44 H        1.6630    -5.4470    -3.0540 H     1 <1>   0.0800 
 45 H        2.5350    -6.5240    -1.9890 H     1 <1>   0.0800 
 46 H       -1.4010    -2.6850     0.8090 H     1 <1>   0.0800 
 47 H       -1.3310    -3.8320     2.1210 H     1 <1>   0.0800 
 48 H       -2.5160    -4.0230     0.8460 H     1 <1>   0.0800 
 49 H       -2.2480    -6.6990     1.0470 H     1 <1>   0.0800 
 50 H       -1.0400    -6.5020     2.3130 H     1 <1>   0.0800 
 51 H       -0.8920    -7.8090     1.1510 H     1 <1>   0.0800 
 52 H        7.7380     2.7370     2.4340 H     1 <1>   0.1500 
 53 H        7.4390     2.3700    -1.8270 H     1 <1>   0.1500 
 54 H        8.7320     4.6140    -1.0380 H     1 <1>   0.1500 
@<TRIPOS>BOND
  1   1   2  2   
  2   2   3  am  
  3   2   4  1   
  4   3   5  1   
  5   3   6  1   
  6   4   7  1   
  7   4  26  1   
  8   4  27  1   
  9   5   8  1   
 10   5  28  1   
 11   5  29  1   
 12   6   9  1   
 13   6  30  1   
 14   6  31  1   
 15   7  10  1   
 16   7  32  1   
 17   7  33  1   
 18   8  11  1   
 19   8  34  1   
 20   8  35  1   
 21   9  12  1   
 22   9  36  1   
 23   9  37  1   
 24  10  13  1   
 25  10  14  2   
 26  11  12  1   
 27  11  15  1   
 28  11  38  1   
 29  12  39  1   
 30  12  40  1   
 31  13  16  2   
 32  13  17  1   
 33  14  18  1   
 34  14  19  1   
 35  15  20  1   
 36  15  41  1   
 37  15  42  1   
 38  16  18  1   
 39  17  43  1   
 40  17  44  1   
 41  17  45  1   
 42  18  21  1   
 43  19  46  1   
 44  19  47  1   
 45  19  48  1   
 46  20  22  2   
 47  20  23  1   
 48  21  49  1   
 49  21  50  1   
 50  21  51  1   
 51  22  24  1   
 52  22  52  1   
 53  23  25  2   
 54  23  53  1   
 55  24  25  1   
 56  25  54  1   
@<TRIPOS>SUBSTRUCTURE
  1 ****   2 GROUP 4 **** **** 0

# MOE 2024.06 (io_trps.svl 2023.06)
