@<TRIPOS>MOLECULE
NONAME
44 48 1 0 0 
SMALL
USER_CHARGES


@<TRIPOS>ATOM
  1 S       -0.7050     0.3390    -0.0420 S.3   1 <1>  -0.0800 
  2 C       -0.6390    -1.1790    -0.8730 C.2   1 <1>   0.4620 
  3 C        1.0070     0.5150    -0.3080 C.2   1 <1>   0.3250 
  4 N        0.5580    -1.4470    -1.2680 N.2   1 <1>  -0.3380 
  5 N       -1.7810    -1.9400    -1.0360 N.pl3 1 <1>  -0.8220 
  6 N        1.4750    -0.4960    -0.9510 N.2   1 <1>  -0.3380 
  7 C        1.7020     1.6870     0.1760 C.ar  1 <1>   0.0530 
  8 C       -1.7250    -3.2620    -1.7160 C.3   1 <1>   0.2090 
  9 C       -3.1380    -1.5710    -0.5520 C.3   1 <1>   0.2090 
 10 C        3.0740     1.8270    -0.0540 C.ar  1 <1>  -0.1500 
 11 C        1.0730     2.7190     0.8800 C.ar  1 <1>  -0.1500 
 12 C       -2.1840    -4.3410    -0.7360 C.3   1 <1>  -0.1600 
 13 C       -3.6060    -2.6270     0.4460 C.3   1 <1>  -0.1600 
 14 C        3.7800     2.9290     0.3900 C.ar  1 <1>  -0.1500 
 15 C        1.7730     3.8250     1.3270 C.ar  1 <1>  -0.1500 
 16 C       -3.5740    -4.0320    -0.1720 C.3   1 <1>   0.4600 
 17 C        3.1300     3.9330     1.0830 C.ar  1 <1>  -0.1500 
 18 O       -4.4660    -4.0710    -1.2710 O.3   1 <1>  -0.5600 
 19 C       -4.0000    -5.0950     0.8350 C.2   1 <1>  -0.1400 
 20 C       -5.8340    -4.2840    -1.0110 C.3   1 <1>   0.1200 
 21 S       -3.0530    -5.4880     2.2620 S.3   1 <1>  -0.0800 
 22 C       -5.1070    -5.8470     0.7800 C.2   1 <1>  -0.1810 
 23 C       -6.0790    -5.6610    -0.3630 C.3   1 <1>   0.0210 
 24 C       -4.2220    -6.7110     2.7410 C.2   1 <1>  -0.1100 
 25 C       -5.2390    -6.7760     1.8600 C.2   1 <1>  -0.1500 
 26 H       -0.7250    -3.4800    -2.0510 H     1 <1>   0.0800 
 27 H       -2.3700    -3.2460    -2.5780 H     1 <1>   0.0800 
 28 H       -3.8120    -1.5350    -1.3920 H     1 <1>   0.0800 
 29 H       -3.1440    -0.6040    -0.0830 H     1 <1>   0.0800 
 30 H        3.5960     1.0540    -0.5920 H     1 <1>   0.1500 
 31 H        0.0200     2.6710     1.0890 H     1 <1>   0.1500 
 32 H       -1.4690    -4.3940     0.0650 H     1 <1>   0.0800 
 33 H       -2.2020    -5.2970    -1.2230 H     1 <1>   0.0800 
 34 H       -4.5930    -2.3970     0.7970 H     1 <1>   0.0800 
 35 H       -2.9510    -2.6020     1.2980 H     1 <1>   0.0800 
 36 H        4.8360     3.0050     0.1970 H     1 <1>   0.1500 
 37 H        1.2630     4.6040     1.8670 H     1 <1>   0.1500 
 38 H        3.6760     4.7930     1.4310 H     1 <1>   0.1500 
 39 H       -6.3600    -4.2160    -1.9470 H     1 <1>   0.0800 
 40 H       -6.1840    -3.4990    -0.3630 H     1 <1>   0.0800 
 41 H       -5.9380    -6.4380    -1.0910 H     1 <1>   0.0800 
 42 H       -7.0900    -5.7100    -0.0010 H     1 <1>   0.0800 
 43 H       -4.0210    -7.2590     3.6430 H     1 <1>   0.1500 
 44 H       -6.0820    -7.4430     1.9230 H     1 <1>   0.1500 
@<TRIPOS>BOND
  1   1   2  1   
  2   1   3  1   
  3   2   4  2   
  4   2   5  1   
  5   3   6  2   
  6   3   7  1   
  7   4   6  1   
  8   5   8  1   
  9   5   9  1   
 10   7  10  ar  
 11   7  11  ar  
 12   8  12  1   
 13   8  26  1   
 14   8  27  1   
 15   9  13  1   
 16   9  28  1   
 17   9  29  1   
 18  10  14  ar  
 19  10  30  1   
 20  11  15  ar  
 21  11  31  1   
 22  12  16  1   
 23  12  32  1   
 24  12  33  1   
 25  13  16  1   
 26  13  34  1   
 27  13  35  1   
 28  14  17  ar  
 29  14  36  1   
 30  15  17  ar  
 31  15  37  1   
 32  16  18  1   
 33  16  19  1   
 34  17  38  1   
 35  18  20  1   
 36  19  21  1   
 37  19  22  2   
 38  20  23  1   
 39  20  39  1   
 40  20  40  1   
 41  21  24  1   
 42  22  23  1   
 43  22  25  1   
 44  23  41  1   
 45  23  42  1   
 46  24  25  2   
 47  24  43  1   
 48  25  44  1   
@<TRIPOS>SUBSTRUCTURE
  1 ****   5 GROUP 4 **** **** 0

# MOE 2024.06 (io_trps.svl 2023.06)
