@<TRIPOS>MOLECULE
NONAME
45 48 1 0 0 
SMALL
USER_CHARGES


@<TRIPOS>ATOM
  1 O        1.1560    -1.0690    -2.1720 O.2   1 <1>  -0.5700 
  2 C        1.0350    -1.8710    -1.2620 C.2   1 <1>   0.5440 
  3 N        0.3880    -1.4280    -0.1170 N.am  1 <1>  -0.6600 
  4 C        1.5640    -3.2260    -1.4480 C.ar  1 <1>   0.3960 
  5 C       -0.0980    -0.0350     0.0250 C.3   1 <1>   0.1400 
  6 C        0.3140    -2.1350     1.1870 C.3   1 <1>   0.1400 
  7 N        1.0810    -4.2590    -0.7340 N.ar  1 <1>  -0.6200 
  8 C        2.5640    -3.4220    -2.4090 C.ar  1 <1>   0.1600 
  9 C       -0.1560     0.2120     1.5270 C.3   1 <1>  -0.1600 
 10 C       -0.3900    -1.1680     2.1320 C.3   1 <1>  -0.1600 
 11 C        1.6290    -5.4180    -1.0300 C.ar  1 <1>   0.4100 
 12 N        3.1280    -4.5840    -2.7160 N.ar  1 <1>  -0.6200 
 13 N        1.1350    -6.4710    -0.3110 N.pl3 1 <1>  -0.8690 
 14 C        2.6310    -5.5700    -1.9980 C.ar  1 <1>   0.1600 
 15 C       -0.0200    -7.2120    -0.8540 C.3   1 <1>   0.4690 
 16 C       -1.3090    -6.6780    -0.2180 C.2   1 <1>   0.0060 
 17 C        0.2180    -8.6910    -0.5650 C.3   1 <1>  -0.2400 
 18 N       -2.2280    -7.3720     0.3670 N.2   1 <1>  -0.5650 
 19 N       -1.5710    -5.3450    -0.2310 N.pl3 1 <1>   0.0330 
 20 C       -3.1490    -6.4510     0.7730 C.ar  1 <1>   0.2270 
 21 C       -2.7510    -5.1790     0.4100 C.ar  1 <1>  -0.1520 
 22 C       -4.3460    -6.6310     1.4640 C.ar  1 <1>  -0.1500 
 23 C       -3.5200    -4.0560     0.7230 C.ar  1 <1>  -0.1500 
 24 C       -5.1140    -5.5300     1.7770 C.ar  1 <1>  -0.1500 
 25 C       -4.7000    -4.2440     1.4070 C.ar  1 <1>  -0.1500 
 26 H       -1.0810     0.0380    -0.4100 H     1 <1>   0.0800 
 27 H        0.5620     0.6640    -0.4620 H     1 <1>   0.0800 
 28 H        1.3110    -2.3470     1.5350 H     1 <1>   0.0800 
 29 H       -0.2460    -3.0500     1.1040 H     1 <1>   0.0800 
 30 H        2.9150    -2.5630    -2.9560 H     1 <1>   0.1500 
 31 H       -0.9280     0.9130     1.7880 H     1 <1>   0.0800 
 32 H        0.7940     0.5980     1.8520 H     1 <1>   0.0800 
 33 H       -0.0120    -1.2450     3.1360 H     1 <1>   0.0800 
 34 H       -1.4430    -1.3900     2.1380 H     1 <1>   0.0800 
 35 H        0.8990    -6.2020     0.6480 H     1 <1>   0.4000 
 36 H        3.0210    -6.5580    -2.1600 H     1 <1>   0.1500 
 37 H       -0.0760    -7.0690    -1.9200 H     1 <1>   0.0800 
 38 H        0.2630    -8.8590     0.4960 H     1 <1>   0.0800 
 39 H        1.1330    -9.0180    -1.0230 H     1 <1>   0.0800 
 40 H       -0.5950    -9.2700    -0.9650 H     1 <1>   0.0800 
 41 H       -0.9340    -4.6160    -0.5760 H     1 <1>   0.2700 
 42 H       -4.6380    -7.6270     1.7370 H     1 <1>   0.1500 
 43 H       -3.1900    -3.0740     0.4300 H     1 <1>   0.1500 
 44 H       -6.0410    -5.6510     2.3100 H     1 <1>   0.1500 
 45 H       -5.3190    -3.4010     1.6630 H     1 <1>   0.1500 
@<TRIPOS>BOND
  1   1   2  2   
  2   2   3  am  
  3   2   4  1   
  4   3   5  1   
  5   3   6  1   
  6   4   7  ar  
  7   4   8  ar  
  8   5   9  1   
  9   5  26  1   
 10   5  27  1   
 11   6  10  1   
 12   6  28  1   
 13   6  29  1   
 14   7  11  ar  
 15   8  12  ar  
 16   8  30  1   
 17   9  10  1   
 18   9  31  1   
 19   9  32  1   
 20  10  33  1   
 21  10  34  1   
 22  11  13  1   
 23  11  14  ar  
 24  12  14  ar  
 25  13  15  1   
 26  13  35  1   
 27  14  36  1   
 28  15  16  1   
 29  15  17  1   
 30  15  37  1   
 31  16  18  2   
 32  16  19  1   
 33  17  38  1   
 34  17  39  1   
 35  17  40  1   
 36  18  20  1   
 37  19  21  1   
 38  19  41  1   
 39  20  21  ar  
 40  20  22  ar  
 41  21  23  ar  
 42  22  24  ar  
 43  22  42  1   
 44  23  25  ar  
 45  23  43  1   
 46  24  25  ar  
 47  24  44  1   
 48  25  45  1   
@<TRIPOS>SUBSTRUCTURE
  1 ****  19 GROUP 4 **** **** 0

# MOE 2024.06 (io_trps.svl 2023.06)
