@<TRIPOS>MOLECULE
NONAME
51 54 1 0 0 
SMALL
USER_CHARGES


@<TRIPOS>ATOM
  1 O        0.6360    -0.4110    -1.0350 O.3   1 <1>  -0.5600 
  2 C        1.7560    -0.9580    -0.3760 C.3   1 <1>   0.4240 
  3 C       -0.6260    -0.7960    -0.5870 C.3   1 <1>   0.1200 
  4 C        1.5360    -2.4460    -0.0210 C.ar  1 <1>  -0.1440 
  5 C        2.0330    -0.1240     0.8830 C.3   1 <1>  -0.1600 
  6 C        2.9200    -0.8110    -1.3630 C.3   1 <1>  -0.1600 
  7 C       -0.8160    -2.2820    -0.8760 C.3   1 <1>  -0.0160 
  8 C        0.3200    -3.0730    -0.2580 C.ar  1 <1>  -0.1440 
  9 C        2.5570    -3.1900     0.5570 C.ar  1 <1>  -0.1500 
 10 C        2.2980     1.3410     0.5430 C.3   1 <1>   0.2090 
 11 C        3.2270     0.6540    -1.6790 C.3   1 <1>   0.2090 
 12 C        0.1370    -4.4080     0.0680 C.ar  1 <1>  -0.1500 
 13 C        2.3940    -4.5260     0.8830 C.ar  1 <1>   0.0830 
 14 N        3.4160     1.4370    -0.4270 N.pl3 1 <1>  -0.8380 
 15 C        1.1610    -5.1520     0.6480 C.ar  1 <1>   0.0830 
 16 O        3.4900    -5.1240     1.4290 O.3   1 <1>  -0.3630 
 17 C        4.6960     1.6690     0.0620 C.ar  1 <1>   0.4100 
 18 O        0.9800    -6.4580     1.0050 O.3   1 <1>  -0.3630 
 19 C        3.8020    -6.4650     1.1220 C.3   1 <1>   0.0400 
 20 N        5.4840     0.6010     0.1270 N.ar  1 <1>  -0.6200 
 21 C        5.1230     2.9520     0.4840 C.ar  1 <1>   0.1670 
 22 C       -0.2840    -7.0820     0.9530 C.3   1 <1>   0.0400 
 23 C        6.6710     0.8720     0.6350 C.ar  1 <1>   0.1600 
 24 N        6.3120     3.2090     0.9990 N.ar  1 <1>  -0.6200 
 25 C        4.2060     4.1580     0.3640 C.3   1 <1>  -0.0970 
 26 C        7.0730     2.1280     1.0600 C.ar  1 <1>   0.1600 
 27 H       -1.3570    -0.2120    -1.1170 H     1 <1>   0.0800 
 28 H       -0.7070    -0.5920     0.4660 H     1 <1>   0.0800 
 29 H        2.9020    -0.5100     1.3840 H     1 <1>   0.0800 
 30 H        1.2120    -0.2030     1.5690 H     1 <1>   0.0800 
 31 H        2.6870    -1.3390    -2.2680 H     1 <1>   0.0800 
 32 H        3.8080    -1.2530    -0.9540 H     1 <1>   0.0800 
 33 H       -0.8330    -2.4400    -1.9390 H     1 <1>   0.0800 
 34 H       -1.7580    -2.6030    -0.4700 H     1 <1>   0.0800 
 35 H        3.5100    -2.7380     0.7630 H     1 <1>   0.1500 
 36 H        2.5460     1.8800     1.4410 H     1 <1>   0.0800 
 37 H        1.4180     1.7870     0.1110 H     1 <1>   0.0800 
 38 H        2.4130     1.0840    -2.2390 H     1 <1>   0.0800 
 39 H        4.1170     0.7160    -2.2820 H     1 <1>   0.0800 
 40 H       -0.8170    -4.8510    -0.1380 H     1 <1>   0.1500 
 41 H        4.8510    -6.6140     1.3010 H     1 <1>   0.0800 
 42 H        3.5730    -6.6530     0.0880 H     1 <1>   0.0800 
 43 H        3.2290    -7.1100     1.7630 H     1 <1>   0.0800 
 44 H       -0.1810    -8.0760     1.3500 H     1 <1>   0.0800 
 45 H       -0.6090    -7.1310    -0.0700 H     1 <1>   0.0800 
 46 H       -0.9760    -6.5190     1.5550 H     1 <1>   0.0800 
 47 H        7.3610     0.0530     0.7210 H     1 <1>   0.1500 
 48 H        3.5110     4.0360    -0.4460 H     1 <1>   0.0800 
 49 H        4.7870     5.0430     0.1770 H     1 <1>   0.0800 
 50 H        3.6620     4.2880     1.2810 H     1 <1>   0.0800 
 51 H        8.0610     2.2480     1.4660 H     1 <1>   0.1500 
@<TRIPOS>BOND
  1   1   2  1   
  2   1   3  1   
  3   2   4  1   
  4   2   5  1   
  5   2   6  1   
  6   3   7  1   
  7   3  27  1   
  8   3  28  1   
  9   4   8  ar  
 10   4   9  ar  
 11   5  10  1   
 12   5  29  1   
 13   5  30  1   
 14   6  11  1   
 15   6  31  1   
 16   6  32  1   
 17   7   8  1   
 18   7  33  1   
 19   7  34  1   
 20   8  12  ar  
 21   9  13  ar  
 22   9  35  1   
 23  10  14  1   
 24  10  36  1   
 25  10  37  1   
 26  11  14  1   
 27  11  38  1   
 28  11  39  1   
 29  12  15  ar  
 30  12  40  1   
 31  13  15  ar  
 32  13  16  1   
 33  14  17  1   
 34  15  18  1   
 35  16  19  1   
 36  17  20  ar  
 37  17  21  ar  
 38  18  22  1   
 39  19  41  1   
 40  19  42  1   
 41  19  43  1   
 42  20  23  ar  
 43  21  24  ar  
 44  21  25  1   
 45  22  44  1   
 46  22  45  1   
 47  22  46  1   
 48  23  26  ar  
 49  23  47  1   
 50  24  26  ar  
 51  25  48  1   
 52  25  49  1   
 53  25  50  1   
 54  26  51  1   
@<TRIPOS>SUBSTRUCTURE
  1 ****   2 GROUP 4 **** **** 0

# MOE 2024.06 (io_trps.svl 2023.06)
