@<TRIPOS>MOLECULE
NONAME
44 45 1 0 0 
SMALL
USER_CHARGES


@<TRIPOS>ATOM
  1 S        0.1490     0.0120    -0.6610 S.o2  1 <1>   1.3330 
  2 O       -0.0480     0.5980    -1.9670 O.2   1 <1>  -0.6500 
  3 O        0.0980    -1.4240    -0.5080 O.2   1 <1>  -0.6500 
  4 N       -0.9910     0.6890     0.3980 N.am  1 <1>  -0.8490 
  5 C        1.7020     0.6550    -0.0380 C.3   1 <1>  -0.0550 
  6 C       -2.3130     0.8120    -0.2250 C.3   1 <1>   0.1160 
  7 C       -1.1090    -0.0430     1.6640 C.3   1 <1>   0.1160 
  8 C        2.9320     0.1770    -0.8470 C.3   1 <1>  -0.0800 
  9 C        4.2240     0.9250    -0.5300 C.3   1 <1>   0.2200 
 10 C        3.3290    -1.2280    -0.4030 C.3   1 <1>   0.1200 
 11 N        4.0260     2.3800    -0.3060 N.am  1 <1>  -0.7300 
 12 C        4.7630     0.1750     0.6950 C.3   1 <1>   0.1200 
 13 O        4.0590    -1.0320     0.7640 O.3   1 <1>  -0.5600 
 14 C        5.0140     3.2530     0.0480 C.2   1 <1>   0.7150 
 15 O        6.1200     2.8080     0.2860 O.2   1 <1>  -0.5700 
 16 C        4.7200     4.6620     0.1170 C.2   1 <1>  -0.0450 
 17 S        6.0310     5.7950     0.4640 S.3   1 <1>  -0.0800 
 18 C        3.5710     5.3720    -0.0370 C.2   1 <1>  -0.1500 
 19 C        4.9670     7.1830     0.3820 C.2   1 <1>  -0.1400 
 20 C        3.7100     6.7830     0.1100 C.2   1 <1>  -0.1500 
 21 C        5.6050     8.5400     0.6190 C.3   1 <1>   0.0200 
 22 C        4.5910     9.6830     0.5250 C.3   1 <1>  -0.2400 
 23 H        1.6310     1.7220    -0.0750 H     1 <1>   0.0800 
 24 H        1.8240     0.3790     0.9920 H     1 <1>   0.0800 
 25 H       -3.0110     1.2570     0.4630 H     1 <1>   0.0800 
 26 H       -2.6780    -0.1570    -0.5240 H     1 <1>   0.0800 
 27 H       -2.2530     1.4420    -1.0970 H     1 <1>   0.0800 
 28 H       -1.7820     0.4720     2.3280 H     1 <1>   0.0800 
 29 H       -0.1480    -0.1150     2.1450 H     1 <1>   0.0800 
 30 H       -1.4830    -1.0400     1.4910 H     1 <1>   0.0800 
 31 H        2.7250     0.2020    -1.9030 H     1 <1>   0.0800 
 32 H        4.9260     0.7930    -1.3370 H     1 <1>   0.0800 
 33 H        3.9770    -1.6970    -1.1240 H     1 <1>   0.0800 
 34 H        2.4980    -1.8790    -0.1920 H     1 <1>   0.0800 
 35 H        3.1830     2.7790    -0.7140 H     1 <1>   0.3700 
 36 H        4.5830     0.7180     1.6060 H     1 <1>   0.0800 
 37 H        5.8120    -0.0390     0.5920 H     1 <1>   0.0800 
 38 H        2.6060     4.9490    -0.2510 H     1 <1>   0.1500 
 39 H        2.8600     7.4350     0.0060 H     1 <1>   0.1500 
 40 H        6.0600     8.5460     1.5940 H     1 <1>   0.0800 
 41 H        6.3820     8.6920    -0.1100 H     1 <1>   0.0800 
 42 H        3.8190     9.5560     1.2630 H     1 <1>   0.0800 
 43 H        4.1420     9.7030    -0.4520 H     1 <1>   0.0800 
 44 H        5.0810    10.6240     0.6990 H     1 <1>   0.0800 
@<TRIPOS>BOND
  1   1   2  2   
  2   1   3  2   
  3   1   4  am  
  4   1   5  1   
  5   4   6  1   
  6   4   7  1   
  7   5   8  1   
  8   5  23  1   
  9   5  24  1   
 10   6  25  1   
 11   6  26  1   
 12   6  27  1   
 13   7  28  1   
 14   7  29  1   
 15   7  30  1   
 16   8   9  1   
 17   8  10  1   
 18   8  31  1   
 19   9  11  1   
 20   9  12  1   
 21   9  32  1   
 22  10  13  1   
 23  10  33  1   
 24  10  34  1   
 25  11  14  am  
 26  11  35  1   
 27  12  13  1   
 28  12  36  1   
 29  12  37  1   
 30  14  15  2   
 31  14  16  1   
 32  16  17  1   
 33  16  18  2   
 34  17  19  1   
 35  18  20  1   
 36  18  38  1   
 37  19  20  2   
 38  19  21  1   
 39  20  39  1   
 40  21  22  1   
 41  21  40  1   
 42  21  41  1   
 43  22  42  1   
 44  22  43  1   
 45  22  44  1   
@<TRIPOS>SUBSTRUCTURE
  1 ****  11 GROUP 4 **** **** 0

# MOE 2024.06 (io_trps.svl 2023.06)
