@<TRIPOS>MOLECULE
NONAME
47 50 1 0 0 
SMALL
USER_CHARGES


@<TRIPOS>ATOM
  1 S        0.2640    -0.0100     2.0150 S.3   1 <1>  -0.0800 
  2 C        1.5370    -0.2430     0.8410 C.2   1 <1>  -0.1400 
  3 C       -0.0240    -1.7340     2.0760 C.2   1 <1>  -0.1100 
  4 C        1.7080    -1.5430     0.5550 C.2   1 <1>  -0.1810 
  5 C        2.2920     0.9440     0.2840 C.3   1 <1>   0.0200 
  6 C        0.8000    -2.4270     1.2480 C.2   1 <1>  -0.0860 
  7 C        2.7760    -1.9990    -0.4310 C.3   1 <1>   0.0210 
  8 C        3.0890     0.4950    -0.9550 C.3   1 <1>  -0.1600 
  9 C        0.7740    -3.8660     1.0630 C.2   1 <1>   0.7160 
 10 C        3.7790    -0.8660    -0.7320 C.3   1 <1>  -0.1600 
 11 O        1.7950    -4.5230     1.1350 O.2   1 <1>  -0.5700 
 12 N       -0.4080    -4.5160     0.7930 N.am  1 <1>  -0.6600 
 13 C       -1.6440    -3.8530     0.3090 C.3   1 <1>   0.1400 
 14 C       -0.4800    -5.9820     0.5780 C.3   1 <1>   0.1400 
 15 C       -2.3890    -4.9400    -0.4640 C.3   1 <1>   0.2000 
 16 C       -1.9210    -6.2570     0.1480 C.3   1 <1>  -0.0800 
 17 O       -3.7630    -4.8100    -0.3350 O.3   1 <1>  -0.6800 
 18 C       -2.0600    -7.4530    -0.8060 C.3   1 <1>   0.0210 
 19 C       -1.4700    -8.7090    -0.1950 C.2   1 <1>   0.1080 
 20 N       -1.8690    -9.1950     0.9390 N.2   1 <1>  -0.7070 
 21 C       -0.4460    -9.4630    -0.7600 C.2   1 <1>  -0.1500 
 22 N       -1.1040   -10.2870     1.1290 N.pl3 1 <1>   0.3000 
 23 C       -0.2330   -10.4690     0.1140 C.2   1 <1>  -0.3320 
 24 C        0.7650   -11.6100     0.0420 C.3   1 <1>  -0.0600 
 25 H       -0.7970    -2.0790     2.7380 H     1 <1>   0.1500 
 26 H        1.6050     1.7260     0.0140 H     1 <1>   0.0800 
 27 H        2.9590     1.3160     1.0400 H     1 <1>   0.0800 
 28 H        3.3160    -2.8390    -0.0300 H     1 <1>   0.0800 
 29 H        2.2940    -2.3130    -1.3400 H     1 <1>   0.0800 
 30 H        2.4140     0.4070    -1.7880 H     1 <1>   0.0800 
 31 H        3.8220     1.2440    -1.2000 H     1 <1>   0.0800 
 32 H        4.4540    -0.7770     0.1020 H     1 <1>   0.0800 
 33 H        4.3610    -1.1280    -1.5980 H     1 <1>   0.0800 
 34 H       -2.2210    -3.5230     1.1540 H     1 <1>   0.0800 
 35 H       -1.4080    -3.0200    -0.3310 H     1 <1>   0.0800 
 36 H        0.2160    -6.2590    -0.1960 H     1 <1>   0.0800 
 37 H       -0.2320    -6.5150     1.4820 H     1 <1>   0.0800 
 38 H       -2.1380    -4.8770    -1.5090 H     1 <1>   0.0800 
 39 H       -2.4810    -6.4580     1.0450 H     1 <1>   0.0800 
 40 H       -4.0390    -5.0270     0.5770 H     1 <1>   0.4000 
 41 H       -1.5650    -7.2440    -1.7360 H     1 <1>   0.0800 
 42 H       -3.1010    -7.6280    -1.0120 H     1 <1>   0.0800 
 43 H        0.0510    -9.2650    -1.6920 H     1 <1>   0.1500 
 44 H       -1.2000   -10.8840     1.9590 H     1 <1>   0.2700 
 45 H        1.3450   -11.5370    -0.8620 H     1 <1>   0.0800 
 46 H        0.2510   -12.5550     0.0440 H     1 <1>   0.0800 
 47 H        1.4360   -11.5720     0.8820 H     1 <1>   0.0800 
@<TRIPOS>BOND
  1   1   2  1   
  2   1   3  1   
  3   2   4  2   
  4   2   5  1   
  5   3   6  2   
  6   3  25  1   
  7   4   6  1   
  8   4   7  1   
  9   5   8  1   
 10   5  26  1   
 11   5  27  1   
 12   6   9  1   
 13   7  10  1   
 14   7  28  1   
 15   7  29  1   
 16   8  10  1   
 17   8  30  1   
 18   8  31  1   
 19   9  11  2   
 20   9  12  am  
 21  10  32  1   
 22  10  33  1   
 23  12  13  1   
 24  12  14  1   
 25  13  15  1   
 26  13  34  1   
 27  13  35  1   
 28  14  16  1   
 29  14  36  1   
 30  14  37  1   
 31  15  16  1   
 32  15  17  1   
 33  15  38  1   
 34  16  18  1   
 35  16  39  1   
 36  17  40  1   
 37  18  19  1   
 38  18  41  1   
 39  18  42  1   
 40  19  20  2   
 41  19  21  1   
 42  20  22  1   
 43  21  23  2   
 44  21  43  1   
 45  22  23  1   
 46  22  44  1   
 47  23  24  1   
 48  24  45  1   
 49  24  46  1   
 50  24  47  1   
@<TRIPOS>SUBSTRUCTURE
  1 ****  12 GROUP 4 **** **** 0

# MOE 2024.06 (io_trps.svl 2023.06)
