@<TRIPOS>MOLECULE
NONAME
40 42 1 0 0 
SMALL
USER_CHARGES


@<TRIPOS>ATOM
  1 O        0.8280     1.3320    -0.8970 O.3   1 <1>  -0.0190 
  2 N        1.6410     0.3550    -1.1620 N.2   1 <1>  -0.4100 
  3 C        0.9720     1.7660     0.3270 C.2   1 <1>  -0.0400 
  4 C        2.3030     0.1350    -0.0830 C.2   1 <1>   0.1080 
  5 C        1.9180     1.0220     0.9190 C.2   1 <1>  -0.1500 
  6 C        0.1440     2.9400     0.8120 C.3   1 <1>   0.0200 
  7 C        3.3550    -0.9420     0.0650 C.3   1 <1>  -0.0590 
  8 C        0.1690     4.0750    -0.2330 C.3   1 <1>  -0.0800 
  9 C       -0.4300     5.4140     0.1890 C.3   1 <1>   0.2000 
 10 C        1.5840     4.4150    -0.7170 C.3   1 <1>   0.3430 
 11 O        0.0130     5.7590     1.4640 O.3   1 <1>  -0.6800 
 12 C        0.2110     6.3750    -0.8150 C.3   1 <1>   0.3430 
 13 N        1.6210     5.8880    -1.0120 N.4   1 <1>  -0.9590 
 14 C        2.5950     6.5440    -0.0720 C.3   1 <1>   0.3430 
 15 C        2.7730     8.0460    -0.3250 C.3   1 <1>   0.0960 
 16 N        3.8030     8.5500     0.5950 N.pl3 1 <1>   0.0480 
 17 C        3.6760     8.8910     1.8790 C.2   1 <1>   0.0360 
 18 C        5.1080     8.7190     0.3750 C.2   1 <1>   0.0360 
 19 N        4.8050     9.2260     2.3950 N.2   1 <1>  -0.3380 
 20 N        5.7210     9.1160     1.4330 N.2   1 <1>  -0.3380 
 21 H        2.3160     1.0640     1.9170 H     1 <1>   0.1500 
 22 H       -0.8700     2.6130     0.9700 H     1 <1>   0.0800 
 23 H        0.5440     3.2660     1.7560 H     1 <1>   0.0800 
 24 H        4.2820    -0.5110     0.3940 H     1 <1>   0.0800 
 25 H        3.5150    -1.4320    -0.8790 H     1 <1>   0.0800 
 26 H        3.0290    -1.6730     0.7830 H     1 <1>   0.0800 
 27 H       -0.3770     3.7310    -1.0950 H     1 <1>   0.0800 
 28 H       -1.5070     5.4430     0.1660 H     1 <1>   0.0800 
 29 H        1.8260     3.8330    -1.5940 H     1 <1>   0.0800 
 30 H        2.2950     4.1730     0.0570 H     1 <1>   0.0800 
 31 H       -0.5670     5.3740     2.1570 H     1 <1>   0.4000 
 32 H        0.1650     7.3910    -0.4590 H     1 <1>   0.0800 
 33 H       -0.3250     6.3060    -1.7470 H     1 <1>   0.0800 
 34 H        1.9150     6.0270    -1.9900 H     1 <1>   0.4500 
 35 H        2.2600     6.4000     0.9440 H     1 <1>   0.0800 
 36 H        3.5570     6.0660    -0.1740 H     1 <1>   0.0800 
 37 H        1.8600     8.5800    -0.1360 H     1 <1>   0.0800 
 38 H        3.0960     8.2250    -1.3340 H     1 <1>   0.0800 
 39 H        2.7430     8.8830     2.4150 H     1 <1>   0.1500 
 40 H        5.5870     8.5400    -0.5720 H     1 <1>   0.1500 
@<TRIPOS>BOND
  1   1   2  1   
  2   1   3  1   
  3   2   4  2   
  4   3   5  2   
  5   3   6  1   
  6   4   5  1   
  7   4   7  1   
  8   5  21  1   
  9   6   8  1   
 10   6  22  1   
 11   6  23  1   
 12   7  24  1   
 13   7  25  1   
 14   7  26  1   
 15   8   9  1   
 16   8  10  1   
 17   8  27  1   
 18   9  11  1   
 19   9  12  1   
 20   9  28  1   
 21  10  13  1   
 22  10  29  1   
 23  10  30  1   
 24  11  31  1   
 25  12  13  1   
 26  12  32  1   
 27  12  33  1   
 28  13  14  1   
 29  13  34  1   
 30  14  15  1   
 31  14  35  1   
 32  14  36  1   
 33  15  16  1   
 34  15  37  1   
 35  15  38  1   
 36  16  17  1   
 37  16  18  1   
 38  17  19  2   
 39  17  39  1   
 40  18  20  2   
 41  18  40  1   
 42  19  20  1   
@<TRIPOS>SUBSTRUCTURE
  1 ****  10 GROUP 4 **** **** 0

# MOE 2024.06 (io_trps.svl 2023.06)
