@<TRIPOS>MOLECULE
NONAME
34 35 1 0 0 
SMALL
USER_CHARGES


@<TRIPOS>ATOM
  1 S        0.1470    -0.1160     0.0820 S.3   1 <1>  -0.0800 
  2 C       -1.4560    -0.7510    -0.0040 C.2   1 <1>   0.4420 
  3 C       -0.5300     1.4870     0.0100 C.2   1 <1>   0.3250 
  4 N       -2.3360     0.1780    -0.0760 N.2   1 <1>  -0.3380 
  5 N       -1.5790    -2.1230     0.0150 N.am  1 <1>  -0.4940 
  6 N       -1.8130     1.4350    -0.0680 N.2   1 <1>  -0.3380 
  7 C        0.3320     2.6480     0.0410 C.ar  1 <1>   0.0530 
  8 C       -2.7060    -2.8910    -0.0420 C.2   1 <1>   0.5690 
  9 C       -0.2220     3.9280    -0.0150 C.ar  1 <1>  -0.1500 
 10 C        1.7260     2.5700     0.1250 C.ar  1 <1>  -0.1500 
 11 O       -3.8180    -2.4400    -0.1230 O.2   1 <1>  -0.5700 
 12 C       -2.5100    -4.3950     0.0020 C.3   1 <1>  -0.0990 
 13 C        0.5630     5.0660     0.0120 C.ar  1 <1>  -0.1500 
 14 C        2.5160     3.7050     0.1520 C.ar  1 <1>  -0.1500 
 15 C       -3.8320    -5.1650    -0.0100 C.3   1 <1>   0.0700 
 16 C        1.9400     4.9620     0.0980 C.ar  1 <1>  -0.1430 
 17 S       -3.4350    -6.9320     0.0550 S.3   1 <1>  -0.4600 
 18 C        2.8050     6.2090     0.1260 C.3   1 <1>  -0.0970 
 19 C       -5.0670    -7.7200     0.0290 C.3   1 <1>  -0.0100 
 20 H       -0.7020    -2.6300     0.0800 H     1 <1>   0.3700 
 21 H       -1.2920     4.0350    -0.0810 H     1 <1>   0.1500 
 22 H        2.2170     1.6160     0.1700 H     1 <1>   0.1500 
 23 H       -1.9700    -4.6490     0.8950 H     1 <1>   0.0800 
 24 H       -1.9290    -4.6920    -0.8520 H     1 <1>   0.0800 
 25 H        0.0960     6.0340    -0.0340 H     1 <1>   0.1500 
 26 H        3.5860     3.6080     0.2160 H     1 <1>   0.1500 
 27 H       -4.3890    -4.9860    -0.9130 H     1 <1>   0.0800 
 28 H       -4.4360    -4.9320     0.8510 H     1 <1>   0.0800 
 29 H        2.2750     7.0240     0.5850 H     1 <1>   0.0800 
 30 H        3.0730     6.4890    -0.8760 H     1 <1>   0.0800 
 31 H        3.7040     6.0310     0.6890 H     1 <1>   0.0800 
 32 H       -4.9170    -8.7840     0.0660 H     1 <1>   0.0800 
 33 H       -5.5610    -7.4340    -0.8820 H     1 <1>   0.0800 
 34 H       -5.6140    -7.3810     0.8900 H     1 <1>   0.0800 
@<TRIPOS>BOND
  1   1   2  1   
  2   1   3  1   
  3   2   4  2   
  4   2   5  1   
  5   3   6  2   
  6   3   7  1   
  7   4   6  1   
  8   5   8  am  
  9   5  20  1   
 10   7   9  ar  
 11   7  10  ar  
 12   8  11  2   
 13   8  12  1   
 14   9  13  ar  
 15   9  21  1   
 16  10  14  ar  
 17  10  22  1   
 18  12  15  1   
 19  12  23  1   
 20  12  24  1   
 21  13  16  ar  
 22  13  25  1   
 23  14  16  ar  
 24  14  26  1   
 25  15  17  1   
 26  15  27  1   
 27  15  28  1   
 28  16  18  1   
 29  17  19  1   
 30  18  29  1   
 31  18  30  1   
 32  18  31  1   
 33  19  32  1   
 34  19  33  1   
 35  19  34  1   
@<TRIPOS>SUBSTRUCTURE
  1 ****   2 GROUP 4 **** **** 0

# MOE 2024.06 (io_trps.svl 2023.06)
