@<TRIPOS>MOLECULE
NONAME
54 58 1 0 0 
SMALL
USER_CHARGES


@<TRIPOS>ATOM
  1 O        0.1980     1.3740    -0.2820 O.2   1 <1>  -0.5700 
  2 C       -0.6600     2.1650     0.0370 C.2   1 <1>   0.5690 
  3 N       -1.9940     1.8730    -0.1410 N.am  1 <1>  -0.6600 
  4 C       -0.2200     3.5070     0.6430 C.3   1 <1>  -0.0190 
  5 C       -3.1440     2.7610     0.2260 C.3   1 <1>   0.1400 
  6 C       -2.4250     0.5770    -0.7410 C.3   1 <1>   0.1400 
  7 C        1.2460     3.8920     0.4170 C.3   1 <1>  -0.1600 
  8 C       -0.3510     3.5640     2.1680 C.3   1 <1>  -0.1600 
  9 C       -4.0100     3.0780    -1.0080 C.3   1 <1>   0.1440 
 10 C       -3.2920     0.8350    -1.9800 C.3   1 <1>  -0.1600 
 11 C        1.5270     4.9780     1.4560 C.3   1 <1>  -0.1600 
 12 C        0.5630     4.7090     2.6180 C.3   1 <1>  -0.1600 
 13 C       -5.1680     3.9520    -0.5660 C.ar  1 <1>   0.1670 
 14 C       -4.4800     1.7620    -1.6650 C.3   1 <1>  -0.1600 
 15 C       -3.2650     3.9960    -2.0160 C.3   1 <1>  -0.1600 
 16 N       -6.1980     3.5490     0.1390 N.ar  1 <1>  -0.6200 
 17 C       -5.0090     5.2410    -0.9710 C.ar  1 <1>  -0.1440 
 18 C       -3.7270     5.4380    -1.7410 C.3   1 <1>  -0.0170 
 19 C       -7.1120     4.4850     0.4280 C.ar  1 <1>   0.6200 
 20 C       -5.9850     6.1410    -0.6330 C.ar  1 <1>   0.1600 
 21 N       -7.0370     5.7740     0.0630 N.ar  1 <1>  -0.6200 
 22 C       -8.2750     4.0700     1.2030 C.ar  1 <1>   0.0000 
 23 C       -9.5000     4.7370     1.1020 C.ar  1 <1>  -0.1500 
 24 C       -8.2230     2.9850     2.0840 C.ar  1 <1>  -0.1500 
 25 C      -10.6060     4.3470     1.8350 C.ar  1 <1>  -0.1500 
 26 C       -9.3240     2.5890     2.8200 C.ar  1 <1>  -0.1500 
 27 C      -10.5210     3.2700     2.6970 C.ar  1 <1>  -0.1500 
 28 H       -0.8110     4.2920     0.2110 H     1 <1>   0.0800 
 29 H       -2.8130     3.6780     0.6720 H     1 <1>   0.0800 
 30 H       -3.7500     2.2510     0.9550 H     1 <1>   0.0800 
 31 H       -2.9900     0.0260    -0.0080 H     1 <1>   0.0800 
 32 H       -1.5740    -0.0220    -1.0180 H     1 <1>   0.0800 
 33 H        1.4240     4.2310    -0.5890 H     1 <1>   0.0800 
 34 H        1.8820     3.0460     0.6170 H     1 <1>   0.0800 
 35 H        0.0110     2.6390     2.5840 H     1 <1>   0.0800 
 36 H       -1.3670     3.7140     2.4880 H     1 <1>   0.0800 
 37 H       -3.6590    -0.1050    -2.3530 H     1 <1>   0.0800 
 38 H       -2.6750     1.2680    -2.7480 H     1 <1>   0.0800 
 39 H        1.3190     5.9460     1.0330 H     1 <1>   0.0800 
 40 H        2.5540     4.9510     1.7770 H     1 <1>   0.0800 
 41 H        1.1000     4.4320     3.5090 H     1 <1>   0.0800 
 42 H       -0.0170     5.5930     2.8220 H     1 <1>   0.0800 
 43 H       -5.0370     1.9710    -2.5610 H     1 <1>   0.0800 
 44 H       -5.1430     1.2530    -0.9860 H     1 <1>   0.0800 
 45 H       -3.5620     3.7400    -3.0180 H     1 <1>   0.0800 
 46 H       -2.1960     3.9010    -1.9540 H     1 <1>   0.0800 
 47 H       -3.8900     5.9820    -2.6550 H     1 <1>   0.0800 
 48 H       -3.0110     5.9570    -1.1270 H     1 <1>   0.0800 
 49 H       -5.9050     7.1730    -0.9320 H     1 <1>   0.1500 
 50 H       -9.5870     5.5780     0.4360 H     1 <1>   0.1500 
 51 H       -7.3010     2.4420     2.1940 H     1 <1>   0.1500 
 52 H      -11.5340     4.8830     1.7350 H     1 <1>   0.1500 
 53 H       -9.2500     1.7490     3.4890 H     1 <1>   0.1500 
 54 H      -11.3800     2.9640     3.2690 H     1 <1>   0.1500 
@<TRIPOS>BOND
  1   1   2  2   
  2   2   3  am  
  3   2   4  1   
  4   3   5  1   
  5   3   6  1   
  6   4   7  1   
  7   4   8  1   
  8   4  28  1   
  9   5   9  1   
 10   5  29  1   
 11   5  30  1   
 12   6  10  1   
 13   6  31  1   
 14   6  32  1   
 15   7  11  1   
 16   7  33  1   
 17   7  34  1   
 18   8  12  1   
 19   8  35  1   
 20   8  36  1   
 21   9  13  1   
 22   9  14  1   
 23   9  15  1   
 24  10  14  1   
 25  10  37  1   
 26  10  38  1   
 27  11  12  1   
 28  11  39  1   
 29  11  40  1   
 30  12  41  1   
 31  12  42  1   
 32  13  16  ar  
 33  13  17  ar  
 34  14  43  1   
 35  14  44  1   
 36  15  18  1   
 37  15  45  1   
 38  15  46  1   
 39  16  19  ar  
 40  17  18  1   
 41  17  20  ar  
 42  18  47  1   
 43  18  48  1   
 44  19  21  ar  
 45  19  22  1   
 46  20  21  ar  
 47  20  49  1   
 48  22  23  ar  
 49  22  24  ar  
 50  23  25  ar  
 51  23  50  1   
 52  24  26  ar  
 53  24  51  1   
 54  25  27  ar  
 55  25  52  1   
 56  26  27  ar  
 57  26  53  1   
 58  27  54  1   
@<TRIPOS>SUBSTRUCTURE
  1 ****  13 GROUP 4 **** **** 0

# MOE 2024.06 (io_trps.svl 2023.06)
