@<TRIPOS>MOLECULE
NONAME
54 56 1 0 0 
SMALL
USER_CHARGES


@<TRIPOS>ATOM
  1 F       -0.4130    -2.1710    -1.5770 F     1 <1>  -0.3400 
  2 C       -0.3340    -1.4690    -0.4530 C.3   1 <1>   1.1640 
  3 F        0.5540    -2.0900     0.3110 F     1 <1>  -0.3400 
  4 F        0.2010    -0.3000    -0.7800 F     1 <1>  -0.3400 
  5 C       -1.7050    -1.3510     0.2360 C.ar  1 <1>  -0.1440 
  6 C       -2.3750    -2.5020     0.6330 C.ar  1 <1>  -0.1500 
  7 C       -2.3050    -0.1190     0.4770 C.ar  1 <1>  -0.1500 
  8 C       -3.6170    -2.4360     1.2470 C.ar  1 <1>  -0.1440 
  9 C       -3.5380    -0.0450     1.1000 C.ar  1 <1>  -0.1500 
 10 C       -4.1940    -1.1990     1.4850 C.ar  1 <1>  -0.1500 
 11 C       -4.3270    -3.7150     1.6340 C.3   1 <1>   0.4870 
 12 N       -5.1280    -4.1220     0.4540 N.4   1 <1>  -0.9590 
 13 C       -4.9660    -5.5830     0.1600 C.3   1 <1>   0.5660 
 14 C       -6.5660    -3.7210     0.5830 C.3   1 <1>   0.3430 
 15 C       -3.5250    -5.7930    -0.2850 C.ar  1 <1>  -0.1430 
 16 C       -5.9680    -6.1240    -0.8980 C.3   1 <1>   0.2000 
 17 C       -7.4130    -4.2730    -0.5770 C.3   1 <1>   0.1200 
 18 C       -2.6830    -6.5630     0.5050 C.ar  1 <1>  -0.1500 
 19 C       -3.0240    -5.2180    -1.4500 C.ar  1 <1>  -0.1500 
 20 O       -7.2740    -5.6600    -0.6480 O.3   1 <1>  -0.5600 
 21 C       -5.9830    -7.6610    -0.8830 C.3   1 <1>   0.1200 
 22 C       -1.3570    -6.7500     0.1570 C.ar  1 <1>   0.0830 
 23 C       -1.6970    -5.3950    -1.8000 C.ar  1 <1>  -0.1500 
 24 O       -6.0670    -8.1280     0.4270 O.3   1 <1>  -0.6800 
 25 O       -0.6120    -7.5250     0.9810 O.3   1 <1>  -0.3630 
 26 C       -0.8530    -6.1410    -0.9970 C.ar  1 <1>   0.0830 
 27 C       -0.0270    -8.6840     0.4260 C.3   1 <1>   0.0400 
 28 O        0.4410    -6.2430    -1.3790 O.3   1 <1>  -0.3630 
 29 C        1.3890    -5.5710    -0.5780 C.3   1 <1>   0.0400 
 30 H       -1.9090    -3.4610     0.4590 H     1 <1>   0.1500 
 31 H       -1.8160     0.7980     0.1860 H     1 <1>   0.1500 
 32 H       -3.9840     0.9190     1.2860 H     1 <1>   0.1500 
 33 H       -5.1500    -1.1140     1.9730 H     1 <1>   0.1500 
 34 H       -4.9560    -3.5590     2.4950 H     1 <1>   0.0800 
 35 H       -3.5920    -4.4650     1.8760 H     1 <1>   0.0800 
 36 H       -4.7070    -3.6220    -0.3370 H     1 <1>   0.4500 
 37 H       -5.1310    -6.1380     1.0690 H     1 <1>   0.0800 
 38 H       -6.9710    -4.1050     1.5050 H     1 <1>   0.0800 
 39 H       -6.6470    -2.6470     0.6040 H     1 <1>   0.0800 
 40 H       -5.6960    -5.7920    -1.8840 H     1 <1>   0.0800 
 41 H       -7.1230    -3.8410    -1.5190 H     1 <1>   0.0800 
 42 H       -8.4550    -4.0600    -0.4080 H     1 <1>   0.0800 
 43 H       -3.0410    -7.0400     1.4020 H     1 <1>   0.1500 
 44 H       -3.6450    -4.6270    -2.1010 H     1 <1>   0.1500 
 45 H       -5.0760    -8.0530    -1.3130 H     1 <1>   0.0800 
 46 H       -6.8270    -8.0300    -1.4400 H     1 <1>   0.0800 
 47 H       -1.3000    -4.9490    -2.6970 H     1 <1>   0.1500 
 48 H       -6.3050    -9.0790     0.4400 H     1 <1>   0.4000 
 49 H        0.3480    -9.2890     1.2310 H     1 <1>   0.0800 
 50 H        0.7820    -8.4030    -0.2230 H     1 <1>   0.0800 
 51 H       -0.7760    -9.2260    -0.1240 H     1 <1>   0.0800 
 52 H        2.3640    -5.7390    -0.9990 H     1 <1>   0.0800 
 53 H        1.3510    -5.9600     0.4240 H     1 <1>   0.0800 
 54 H        1.1650    -4.5200    -0.5820 H     1 <1>   0.0800 
@<TRIPOS>BOND
  1   1   2  1   
  2   2   3  1   
  3   2   4  1   
  4   2   5  1   
  5   5   6  ar  
  6   5   7  ar  
  7   6   8  ar  
  8   6  30  1   
  9   7   9  ar  
 10   7  31  1   
 11   8  10  ar  
 12   8  11  1   
 13   9  10  ar  
 14   9  32  1   
 15  10  33  1   
 16  11  12  1   
 17  11  34  1   
 18  11  35  1   
 19  12  13  1   
 20  12  14  1   
 21  12  36  1   
 22  13  15  1   
 23  13  16  1   
 24  13  37  1   
 25  14  17  1   
 26  14  38  1   
 27  14  39  1   
 28  15  18  ar  
 29  15  19  ar  
 30  16  20  1   
 31  16  21  1   
 32  16  40  1   
 33  17  20  1   
 34  17  41  1   
 35  17  42  1   
 36  18  22  ar  
 37  18  43  1   
 38  19  23  ar  
 39  19  44  1   
 40  21  24  1   
 41  21  45  1   
 42  21  46  1   
 43  22  25  1   
 44  22  26  ar  
 45  23  26  ar  
 46  23  47  1   
 47  24  48  1   
 48  25  27  1   
 49  26  28  1   
 50  27  49  1   
 51  27  50  1   
 52  27  51  1   
 53  28  29  1   
 54  29  52  1   
 55  29  53  1   
 56  29  54  1   
@<TRIPOS>SUBSTRUCTURE
  1 ****  15 GROUP 4 **** **** 0

# MOE 2024.06 (io_trps.svl 2023.06)
