@<TRIPOS>MOLECULE
NONAME
44 46 1 0 0 
SMALL
USER_CHARGES


@<TRIPOS>ATOM
  1 O       -0.5320    -1.1090    -0.8780 O.co2 1 <1>  -0.9000 
  2 C        0.2280    -2.0070    -1.2820 C.2   1 <1>   0.9790 
  3 O        0.0120    -2.5000    -2.4050 O.co2 1 <1>  -0.9000 
  4 C        1.3250    -2.4610    -0.4740 C.ar  1 <1>  -0.1790 
  5 C        1.2330    -3.5780     0.3710 C.ar  1 <1>   0.4100 
  6 C        2.5330    -1.7870    -0.5440 C.ar  1 <1>  -0.1500 
  7 N        2.2700    -4.0320     1.0760 N.ar  1 <1>  -0.6200 
  8 N        0.0780    -4.3220     0.5710 N.pl3 1 <1>  -0.8380 
  9 C        3.5980    -2.2460     0.1980 C.ar  1 <1>  -0.1430 
 10 C        3.4070    -3.3730     0.9890 C.ar  1 <1>   0.1670 
 11 C       -1.3190    -3.8770     0.3150 C.3   1 <1>   0.2090 
 12 C        0.1240    -5.7980     0.6690 C.3   1 <1>   0.2090 
 13 C        4.9270    -1.5090     0.1150 C.3   1 <1>  -0.0960 
 14 C        4.5360    -3.9390     1.8300 C.3   1 <1>  -0.0970 
 15 C       -2.1600    -5.0320     0.8470 C.3   1 <1>   0.2000 
 16 C       -1.3260    -6.2570     0.4580 C.3   1 <1>  -0.0800 
 17 O       -2.1970    -4.9340     2.2310 O.3   1 <1>  -0.6800 
 18 C       -1.6830    -7.5510     1.2090 C.3   1 <1>   0.0200 
 19 C       -0.9440    -8.7670     0.6750 C.2   1 <1>  -0.0400 
 20 O       -1.0810    -9.9110     1.2920 O.3   1 <1>  -0.0190 
 21 C       -0.1200    -8.9630    -0.3680 C.2   1 <1>  -0.1500 
 22 N       -0.3930   -10.8580     0.7220 N.2   1 <1>  -0.4100 
 23 C        0.1970   -10.3150    -0.2810 C.2   1 <1>   0.1080 
 24 C        1.1120   -11.0530    -1.2330 C.3   1 <1>  -0.0590 
 25 H        2.6120    -0.9240    -1.1810 H     1 <1>   0.1500 
 26 H       -1.5400    -2.9410     0.8010 H     1 <1>   0.0800 
 27 H       -1.4850    -3.7820    -0.7440 H     1 <1>   0.0800 
 28 H        0.7880    -6.2000    -0.0770 H     1 <1>   0.0800 
 29 H        0.4800    -6.0690     1.6480 H     1 <1>   0.0800 
 30 H        4.9000    -0.7640    -0.6590 H     1 <1>   0.0800 
 31 H        5.7210    -2.1990    -0.1100 H     1 <1>   0.0800 
 32 H        5.1340    -1.0210     1.0500 H     1 <1>   0.0800 
 33 H        5.0720    -3.1510     2.3240 H     1 <1>   0.0800 
 34 H        5.2070    -4.4940     1.2010 H     1 <1>   0.0800 
 35 H        4.1420    -4.5990     2.5810 H     1 <1>   0.0800 
 36 H       -3.1650    -5.0440     0.4630 H     1 <1>   0.0800 
 37 H       -1.4670    -6.4170    -0.5960 H     1 <1>   0.0800 
 38 H       -1.3140    -4.5950     2.5000 H     1 <1>   0.4000 
 39 H       -2.7400    -7.7300     1.1250 H     1 <1>   0.0800 
 40 H       -1.4530    -7.4420     2.2550 H     1 <1>   0.0800 
 41 H        0.2340    -8.2760    -1.1140 H     1 <1>   0.1500 
 42 H        2.0890   -10.6060    -1.2190 H     1 <1>   0.0800 
 43 H        0.7140   -11.0070    -2.2300 H     1 <1>   0.0800 
 44 H        1.1950   -12.0830    -0.9380 H     1 <1>   0.0800 
@<TRIPOS>BOND
  1   1   2  ar  
  2   2   3  ar  
  3   2   4  1   
  4   4   5  ar  
  5   4   6  ar  
  6   5   7  ar  
  7   5   8  1   
  8   6   9  ar  
  9   6  25  1   
 10   7  10  ar  
 11   8  11  1   
 12   8  12  1   
 13   9  10  ar  
 14   9  13  1   
 15  10  14  1   
 16  11  15  1   
 17  11  26  1   
 18  11  27  1   
 19  12  16  1   
 20  12  28  1   
 21  12  29  1   
 22  13  30  1   
 23  13  31  1   
 24  13  32  1   
 25  14  33  1   
 26  14  34  1   
 27  14  35  1   
 28  15  16  1   
 29  15  17  1   
 30  15  36  1   
 31  16  18  1   
 32  16  37  1   
 33  17  38  1   
 34  18  19  1   
 35  18  39  1   
 36  18  40  1   
 37  19  20  1   
 38  19  21  2   
 39  20  22  1   
 40  21  23  1   
 41  21  41  1   
 42  22  23  2   
 43  23  24  1   
 44  24  42  1   
 45  24  43  1   
 46  24  44  1   
@<TRIPOS>SUBSTRUCTURE
  1 ****  12 GROUP 4 **** **** 0

# MOE 2024.06 (io_trps.svl 2023.06)
