@<TRIPOS>MOLECULE
NONAME
43 45 1 0 0 
SMALL
USER_CHARGES


@<TRIPOS>ATOM
  1 S        0.2210    -0.3400    -0.7640 S.o2  1 <1>   1.3330 
  2 O       -0.6480    -0.1290    -1.8990 O.2   1 <1>  -0.6500 
  3 O        0.4720    -1.6850    -0.2960 O.2   1 <1>  -0.6500 
  4 N       -0.4020     0.5580     0.5360 N.am  1 <1>  -0.8490 
  5 C        1.8060     0.4380    -1.0880 C.3   1 <1>  -0.0550 
  6 C       -0.9790     1.8440     0.1300 C.3   1 <1>   0.1160 
  7 C       -1.3880    -0.2060     1.3070 C.3   1 <1>   0.1160 
  8 C        2.7450     0.4840     0.1320 C.3   1 <1>  -0.0800 
  9 C        4.0210     1.2520    -0.1450 C.3   1 <1>   0.2890 
 10 C        3.2660    -0.8790     0.5910 C.3   1 <1>   0.1200 
 11 N        3.8070     2.7040     0.0480 N.pl3 1 <1>  -0.8690 
 12 C        4.9830     0.6380     0.8620 C.3   1 <1>   0.1200 
 13 O        4.5940    -0.6960     0.9860 O.3   1 <1>  -0.5600 
 14 C        4.8120     3.6170    -0.1130 C.ar  1 <1>   0.4100 
 15 N        4.8760     4.4990     0.8350 N.ar  1 <1>  -0.6200 
 16 C        5.7130     3.5980    -1.2170 C.ar  1 <1>   0.1600 
 17 C        5.8850     5.3960     0.6880 C.ar  1 <1>   0.3100 
 18 N        6.6930     4.4260    -1.3890 N.ar  1 <1>  -0.6200 
 19 C        6.7890     5.3620    -0.4060 C.ar  1 <1>   0.3100 
 20 C        6.0480     6.3990     1.6570 C.ar  1 <1>  -0.1500 
 21 C        7.8060     6.3240    -0.4750 C.ar  1 <1>  -0.1500 
 22 C        7.0510     7.3290     1.5650 C.ar  1 <1>  -0.1500 
 23 C        7.9400     7.2920     0.4890 C.ar  1 <1>  -0.1500 
 24 H        2.2910    -0.0820    -1.8910 H     1 <1>   0.0800 
 25 H        1.6310     1.4440    -1.4170 H     1 <1>   0.0800 
 26 H       -1.2900     2.4000     0.9990 H     1 <1>   0.0800 
 27 H       -1.8330     1.6900    -0.5100 H     1 <1>   0.0800 
 28 H       -0.2490     2.4300    -0.4020 H     1 <1>   0.0800 
 29 H       -1.7530     0.3810     2.1330 H     1 <1>   0.0800 
 30 H       -0.9350    -1.0990     1.7040 H     1 <1>   0.0800 
 31 H       -2.2170    -0.4890     0.6790 H     1 <1>   0.0800 
 32 H        2.2360     0.9330     0.9670 H     1 <1>   0.0800 
 33 H        4.3760     1.0500    -1.1410 H     1 <1>   0.0800 
 34 H        3.2620    -1.6010    -0.2080 H     1 <1>   0.0800 
 35 H        2.7020    -1.2640     1.4240 H     1 <1>   0.0800 
 36 H        3.2820     2.9160     0.9020 H     1 <1>   0.4000 
 37 H        4.8820     1.1020     1.8280 H     1 <1>   0.0800 
 38 H        6.0050     0.6770     0.5290 H     1 <1>   0.0800 
 39 H        5.5540     2.8380    -1.9570 H     1 <1>   0.1500 
 40 H        5.3550     6.4140     2.4790 H     1 <1>   0.1500 
 41 H        8.4800     6.2790    -1.3110 H     1 <1>   0.1500 
 42 H        7.1640     8.0940     2.3160 H     1 <1>   0.1500 
 43 H        8.7250     8.0270     0.4250 H     1 <1>   0.1500 
@<TRIPOS>BOND
  1   1   2  2   
  2   1   3  2   
  3   1   4  am  
  4   1   5  1   
  5   4   6  1   
  6   4   7  1   
  7   5   8  1   
  8   5  24  1   
  9   5  25  1   
 10   6  26  1   
 11   6  27  1   
 12   6  28  1   
 13   7  29  1   
 14   7  30  1   
 15   7  31  1   
 16   8   9  1   
 17   8  10  1   
 18   8  32  1   
 19   9  11  1   
 20   9  12  1   
 21   9  33  1   
 22  10  13  1   
 23  10  34  1   
 24  10  35  1   
 25  11  14  1   
 26  11  36  1   
 27  12  13  1   
 28  12  37  1   
 29  12  38  1   
 30  14  15  ar  
 31  14  16  ar  
 32  15  17  ar  
 33  16  18  ar  
 34  16  39  1   
 35  17  19  ar  
 36  17  20  ar  
 37  18  19  ar  
 38  19  21  ar  
 39  20  22  ar  
 40  20  40  1   
 41  21  23  ar  
 42  21  41  1   
 43  22  23  ar  
 44  22  42  1   
 45  23  43  1   
@<TRIPOS>SUBSTRUCTURE
  1 ****  11 GROUP 4 **** **** 0

# MOE 2024.06 (io_trps.svl 2023.06)
