@<TRIPOS>MOLECULE
NONAME
49 51 1 0 0 
SMALL
USER_CHARGES


@<TRIPOS>ATOM
  1 F        0.2100    -0.9540     1.2360 F     1 <1>  -0.1900 
  2 C       -0.4680    -1.9990     0.8330 C.ar  1 <1>   0.1900 
  3 C        0.1440    -3.0730     0.1770 C.ar  1 <1>   0.0820 
  4 C       -1.8250    -1.9850     1.0850 C.ar  1 <1>  -0.1500 
  5 O        1.4690    -3.2020    -0.1280 O.3   1 <1>  -0.3630 
  6 C       -0.6620    -4.1300    -0.2130 C.ar  1 <1>  -0.1500 
  7 C       -2.6000    -3.0560     0.6800 C.ar  1 <1>  -0.1500 
  8 C        2.4400    -2.2520     0.2490 C.3   1 <1>   0.0400 
  9 C       -2.0390    -4.1550     0.0250 C.ar  1 <1>   0.0530 
 10 C       -2.8410    -5.2790    -0.4000 C.2   1 <1>   0.0870 
 11 O       -2.4240    -6.0630    -1.3680 O.3   1 <1>  -0.0190 
 12 C       -4.0410    -5.7670     0.0020 C.2   1 <1>  -0.2330 
 13 N       -3.2640    -7.0290    -1.6380 N.2   1 <1>  -0.4100 
 14 C       -4.2490    -6.8690    -0.8260 C.2   1 <1>   0.3720 
 15 C       -4.9230    -5.3200     1.0250 C.2   1 <1>   1.0330 
 16 N       -5.3550    -7.7230    -0.8240 N.pl3 1 <1>  -0.8210 
 17 O       -5.7550    -4.4260     0.7870 O.co2 1 <1>  -0.9000 
 18 O       -4.8670    -5.7990     2.1690 O.co2 1 <1>  -0.9000 
 19 C       -6.6490    -7.0430    -1.0790 C.3   1 <1>   0.2090 
 20 C       -5.4340    -8.5820     0.3820 C.3   1 <1>   0.2090 
 21 C       -7.7040    -8.1060    -1.3920 C.3   1 <1>  -0.1600 
 22 C       -6.4550    -9.6940     0.1270 C.3   1 <1>  -0.1600 
 23 C       -7.8390    -9.1220    -0.2410 C.3   1 <1>  -0.0800 
 24 C       -8.8300   -10.2290    -0.6270 C.3   1 <1>   0.1200 
 25 O       -8.9880   -11.1040     0.4450 O.3   1 <1>  -0.5600 
 26 C       -9.8370   -12.1680     0.1840 C.3   1 <1>   0.1200 
 27 C       -9.8980   -13.0230     1.4430 C.3   1 <1>  -0.2400 
 28 H       -2.2740    -1.1500     1.5910 H     1 <1>   0.1500 
 29 H       -0.2030    -4.9630    -0.7150 H     1 <1>   0.1500 
 30 H       -3.6590    -3.0340     0.8750 H     1 <1>   0.1500 
 31 H        3.4000    -2.6060    -0.0810 H     1 <1>   0.0800 
 32 H        2.4360    -2.1540     1.3200 H     1 <1>   0.0800 
 33 H        2.2150    -1.3140    -0.2260 H     1 <1>   0.0800 
 34 H       -6.5410    -6.3640    -1.9080 H     1 <1>   0.0800 
 35 H       -6.9490    -6.4770    -0.2120 H     1 <1>   0.0800 
 36 H       -5.7340    -7.9950     1.2350 H     1 <1>   0.0800 
 37 H       -4.4660    -9.0060     0.5860 H     1 <1>   0.0800 
 38 H       -7.4150    -8.6080    -2.2990 H     1 <1>   0.0800 
 39 H       -8.6460    -7.6190    -1.5630 H     1 <1>   0.0800 
 40 H       -6.5370   -10.3000     1.0120 H     1 <1>   0.0800 
 41 H       -6.0890   -10.3170    -0.6690 H     1 <1>   0.0800 
 42 H       -8.2330    -8.6020     0.6160 H     1 <1>   0.0800 
 43 H       -8.4570   -10.7820    -1.4720 H     1 <1>   0.0800 
 44 H       -9.7900    -9.8040    -0.8640 H     1 <1>   0.0800 
 45 H       -9.4410   -12.7350    -0.6420 H     1 <1>   0.0800 
 46 H      -10.8120   -11.7830    -0.0630 H     1 <1>   0.0800 
 47 H       -8.9160   -13.3870     1.6880 H     1 <1>   0.0800 
 48 H      -10.5480   -13.8640     1.2830 H     1 <1>   0.0800 
 49 H      -10.2790   -12.4420     2.2630 H     1 <1>   0.0800 
@<TRIPOS>BOND
  1   1   2  1   
  2   2   3  ar  
  3   2   4  ar  
  4   3   5  1   
  5   3   6  ar  
  6   4   7  ar  
  7   4  28  1   
  8   5   8  1   
  9   6   9  ar  
 10   6  29  1   
 11   7   9  ar  
 12   7  30  1   
 13   8  31  1   
 14   8  32  1   
 15   8  33  1   
 16   9  10  1   
 17  10  11  1   
 18  10  12  2   
 19  11  13  1   
 20  12  14  1   
 21  12  15  1   
 22  13  14  2   
 23  14  16  1   
 24  15  17  ar  
 25  15  18  ar  
 26  16  19  1   
 27  16  20  1   
 28  19  21  1   
 29  19  34  1   
 30  19  35  1   
 31  20  22  1   
 32  20  36  1   
 33  20  37  1   
 34  21  23  1   
 35  21  38  1   
 36  21  39  1   
 37  22  23  1   
 38  22  40  1   
 39  22  41  1   
 40  23  24  1   
 41  23  42  1   
 42  24  25  1   
 43  24  43  1   
 44  24  44  1   
 45  25  26  1   
 46  26  27  1   
 47  26  45  1   
 48  26  46  1   
 49  27  47  1   
 50  27  48  1   
 51  27  49  1   
@<TRIPOS>SUBSTRUCTURE
  1 ****  12 GROUP 4 **** **** 0

# MOE 2024.06 (io_trps.svl 2023.06)
