@<TRIPOS>MOLECULE
NONAME
41 43 1 0 0 
SMALL
USER_CHARGES


@<TRIPOS>ATOM
  1 O       -1.6670    -4.1280     0.3930 O.3   1 <1>  -0.8290 
  2 C       -0.6130    -3.5150     0.7010 C.ar  1 <1>   0.1390 
  3 N       -0.4550    -3.1540     1.9960 N.ar  1 <1>  -0.3100 
  4 C        0.3580    -3.2520    -0.2800 C.ar  1 <1>  -0.1440 
  5 N        0.6370    -2.5320     2.3770 N.ar  1 <1>  -0.3100 
  6 C        1.4900    -2.6070     0.1350 C.ar  1 <1>  -0.1500 
  7 C        0.1530    -3.6640    -1.7390 C.3   1 <1>   0.0450 
  8 C        1.5650    -2.2750     1.4730 C.ar  1 <1>   0.3920 
  9 C        0.2290    -5.1650    -1.9780 C.2   1 <1>   0.5690 
 10 O        2.6460    -1.6370     1.9420 O.3   1 <1>  -0.5320 
 11 O        0.6700    -5.5900    -3.0220 O.2   1 <1>  -0.5700 
 12 N       -0.2510    -5.9790    -1.0200 N.am  1 <1>  -0.7300 
 13 C       -0.7080    -7.3630    -1.1680 C.3   1 <1>   0.2200 
 14 C       -1.7790    -7.6430    -0.1380 C.3   1 <1>  -0.0800 
 15 C        0.3460    -8.3970    -0.8100 C.3   1 <1>   0.1200 
 16 C       -1.6210    -9.1390     0.1310 C.3   1 <1>   0.1200 
 17 C       -3.1770    -7.2030    -0.5930 C.3   1 <1>  -0.0170 
 18 O       -0.3680    -9.5160    -0.3650 O.3   1 <1>  -0.5600 
 19 C       -4.1740    -7.3350     0.5450 C.ar  1 <1>  -0.1440 
 20 C       -4.2240    -6.3810     1.5400 C.ar  1 <1>  -0.1500 
 21 C       -5.0640    -8.3830     0.6550 C.ar  1 <1>  -0.1500 
 22 C       -5.1340    -6.5180     2.5730 C.ar  1 <1>   0.1600 
 23 C       -5.9360    -8.4250     1.7310 C.ar  1 <1>   0.1600 
 24 N       -5.9940    -7.5200     2.6950 N.ar  1 <1>  -0.6200 
 25 H        2.2950    -2.3590    -0.5280 H     1 <1>   0.1500 
 26 H        0.8810    -3.1810    -2.3620 H     1 <1>   0.0800 
 27 H       -0.8200    -3.3320    -2.0500 H     1 <1>   0.0800 
 28 H        2.4880    -1.5010     2.8910 H     1 <1>   0.4500 
 29 H       -0.7270    -5.4500    -0.2500 H     1 <1>   0.3700 
 30 H       -1.0610    -7.5380    -2.1700 H     1 <1>   0.0800 
 31 H       -1.5300    -7.1230     0.7730 H     1 <1>   0.0800 
 32 H        0.9600    -8.0490     0.0020 H     1 <1>   0.0800 
 33 H        0.9490    -8.6700    -1.6570 H     1 <1>   0.0800 
 34 H       -2.3650    -9.7170    -0.3880 H     1 <1>   0.0800 
 35 H       -1.6590    -9.3540     1.1850 H     1 <1>   0.0800 
 36 H       -3.4950    -7.7770    -1.4440 H     1 <1>   0.0800 
 37 H       -3.1360    -6.1670    -0.8900 H     1 <1>   0.0800 
 38 H       -3.5550    -5.5320     1.5160 H     1 <1>   0.1500 
 39 H       -5.0860    -9.1630    -0.0830 H     1 <1>   0.1500 
 40 H       -5.1500    -5.7600     3.3370 H     1 <1>   0.1500 
 41 H       -6.6240    -9.2490     1.8020 H     1 <1>   0.1500 
@<TRIPOS>BOND
  1   1   2  1   
  2   2   3  ar  
  3   2   4  ar  
  4   3   5  ar  
  5   4   6  ar  
  6   4   7  1   
  7   5   8  ar  
  8   6   8  ar  
  9   6  25  1   
 10   7   9  1   
 11   7  26  1   
 12   7  27  1   
 13   8  10  1   
 14   9  11  2   
 15   9  12  am  
 16  10  28  1   
 17  12  13  1   
 18  12  29  1   
 19  13  14  1   
 20  13  15  1   
 21  13  30  1   
 22  14  16  1   
 23  14  17  1   
 24  14  31  1   
 25  15  18  1   
 26  15  32  1   
 27  15  33  1   
 28  16  18  1   
 29  16  34  1   
 30  16  35  1   
 31  17  19  1   
 32  17  36  1   
 33  17  37  1   
 34  19  20  ar  
 35  19  21  ar  
 36  20  22  ar  
 37  20  38  1   
 38  21  23  ar  
 39  21  39  1   
 40  22  24  ar  
 41  22  40  1   
 42  23  24  ar  
 43  23  41  1   
@<TRIPOS>SUBSTRUCTURE
  1 ****   1 GROUP 4 **** **** 0

# MOE 2024.06 (io_trps.svl 2023.06)
