@<TRIPOS>MOLECULE
Untitled Document
22 22 1 0 0 
SMALL
USER_CHARGES


@<TRIPOS>ATOM
  1 N       -0.0150    -0.0530     0.1570 N.ar  1 <1>  -0.6200 
  2 C       -1.1180    -0.7750     0.0850 C.ar  1 <1>   0.1660 
  3 C        1.0850    -0.7780     0.0730 C.ar  1 <1>   0.1660 
  4 C       -1.1200    -2.1650    -0.0760 C.ar  1 <1>   0.1660 
  5 C       -2.4050     0.0250     0.1930 C.3   1 <1>  -0.0970 
  6 C        1.0830    -2.1680    -0.0880 C.ar  1 <1>   0.1660 
  7 C        2.3740     0.0210     0.1660 C.3   1 <1>  -0.0970 
  8 N       -0.0200    -2.8900    -0.1600 N.ar  1 <1>  -0.6200 
  9 C       -2.4100    -2.9640    -0.1690 C.3   1 <1>  -0.0970 
 10 C        2.3690    -2.9680    -0.1960 C.3   1 <1>  -0.0970 
 11 H       -2.2130     0.9690     0.6730 H     1 <1>   0.0800 
 12 H       -3.1380    -0.5000     0.7760 H     1 <1>   0.0800 
 13 H       -2.7940     0.2150    -0.7900 H     1 <1>   0.0800 
 14 H        2.1900     0.9640     0.6480 H     1 <1>   0.0800 
 15 H        2.7530     0.2100    -0.8210 H     1 <1>   0.0800 
 16 H        3.1130    -0.5060     0.7410 H     1 <1>   0.0800 
 17 H       -3.1480    -2.4370    -0.7430 H     1 <1>   0.0800 
 18 H       -2.7880    -3.1530     0.8180 H     1 <1>   0.0800 
 19 H       -2.2250    -3.9070    -0.6510 H     1 <1>   0.0800 
 20 H        3.1020    -2.4430    -0.7780 H     1 <1>   0.0800 
 21 H        2.1780    -3.9120    -0.6760 H     1 <1>   0.0800 
 22 H        2.7580    -3.1580     0.7870 H     1 <1>   0.0800 
@<TRIPOS>BOND
  1   1   2  ar  
  2   1   3  ar  
  3   2   4  ar  
  4   2   5  1   
  5   3   6  ar  
  6   3   7  1   
  7   4   8  ar  
  8   4   9  1   
  9   5  11  1   
 10   5  12  1   
 11   5  13  1   
 12   6   8  ar  
 13   6  10  1   
 14   7  14  1   
 15   7  15  1   
 16   7  16  1   
 17   9  17  1   
 18   9  18  1   
 19   9  19  1   
 20  10  20  1   
 21  10  21  1   
 22  10  22  1   
@<TRIPOS>SUBSTRUCTURE
  1 ****   4 GROUP 4 **** **** 0

# MOE 2024.06 (io_trps.svl 2023.06)
