@<TRIPOS>MOLECULE
NONAME
52 54 1 0 0 
SMALL
USER_CHARGES


@<TRIPOS>ATOM
  1 O       -3.0520     0.5360     0.8410 O.2   1 <1>  -0.5700 
  2 C       -2.8190     1.0910    -0.2070 C.2   1 <1>   0.5690 
  3 N       -3.0820     0.4550    -1.3830 N.am  1 <1>  -0.6600 
  4 C       -2.3090     2.5150    -0.2060 C.3   1 <1>  -0.0990 
  5 C       -4.3820     0.7730    -2.0490 C.3   1 <1>   0.1400 
  6 C       -2.7520    -1.0060    -1.4780 C.3   1 <1>   0.1400 
  7 C       -0.8030     2.5560     0.0630 C.3   1 <1>   0.0200 
  8 C       -5.5520    -0.0050    -1.3810 C.3   1 <1>   0.4230 
  9 C       -3.9590    -1.9030    -1.1060 C.3   1 <1>   0.3430 
 10 C       -0.3060     3.9920     0.0520 C.2   1 <1>  -0.3320 
 11 N       -5.0540    -1.0990    -0.4550 N.4   1 <1>  -0.9590 
 12 C       -6.5230    -0.5770    -2.4390 C.3   1 <1>   0.1200 
 13 N       -0.3910     4.8620     1.0860 N.pl3 1 <1>   0.3140 
 14 C        0.2980     4.6510    -0.9600 C.2   1 <1>  -0.1500 
 15 C       -6.2040    -1.8770     0.1090 C.3   1 <1>   0.4230 
 16 O       -7.5520    -1.2990    -1.8250 O.3   1 <1>  -0.5600 
 17 N        0.1300     6.0570     0.7620 N.2   1 <1>  -0.7070 
 18 C       -0.9410     4.6220     2.4270 C.3   1 <1>   0.0160 
 19 C        0.5410     5.9240    -0.4610 C.2   1 <1>   0.1390 
 20 C       -7.1410    -2.3700    -1.0190 C.3   1 <1>   0.1200 
 21 C       -5.6990    -3.0130     1.0140 C.3   1 <1>  -0.1600 
 22 C       -6.8150    -3.6050     1.8900 C.3   1 <1>  -0.1600 
 23 C       -6.2580    -4.6750     2.8320 C.3   1 <1>  -0.2400 
 24 H       -2.5090     2.9760    -1.1560 H     1 <1>   0.0800 
 25 H       -2.8300     3.0690     0.5510 H     1 <1>   0.0800 
 26 H       -4.5800     1.8300    -1.9920 H     1 <1>   0.0800 
 27 H       -4.3090     0.5200    -3.0930 H     1 <1>   0.0800 
 28 H       -2.4190    -1.2390    -2.4750 H     1 <1>   0.0800 
 29 H       -1.9360    -1.2290    -0.8100 H     1 <1>   0.0800 
 30 H       -0.2900     2.0030    -0.7060 H     1 <1>   0.0800 
 31 H       -0.5760     2.0910     1.0070 H     1 <1>   0.0800 
 32 H       -6.1130     0.7030    -0.7940 H     1 <1>   0.0800 
 33 H       -3.6160    -2.6760    -0.4390 H     1 <1>   0.0800 
 34 H       -4.3360    -2.3800    -1.9940 H     1 <1>   0.0800 
 35 H       -4.5710    -0.5990     0.3210 H     1 <1>   0.4500 
 36 H       -6.0150    -1.2270    -3.1300 H     1 <1>   0.0800 
 37 H       -6.9790     0.2230    -2.9950 H     1 <1>   0.0800 
 38 H        0.5500     4.3060    -1.9460 H     1 <1>   0.1500 
 39 H       -6.7840    -1.2120     0.7280 H     1 <1>   0.0800 
 40 H       -2.0040     4.4950     2.3570 H     1 <1>   0.0800 
 41 H       -0.7230     5.4690     3.0510 H     1 <1>   0.0800 
 42 H       -0.4880     3.7440     2.8450 H     1 <1>   0.0800 
 43 H        1.0160     6.7160    -1.0140 H     1 <1>   0.1500 
 44 H       -8.0290    -2.8100    -0.6000 H     1 <1>   0.0800 
 45 H       -6.6580    -3.1060    -1.6380 H     1 <1>   0.0800 
 46 H       -5.2750    -3.8030     0.4200 H     1 <1>   0.0800 
 47 H       -4.9370    -2.6240     1.6670 H     1 <1>   0.0800 
 48 H       -7.2720    -2.8270     2.4800 H     1 <1>   0.0800 
 49 H       -7.5800    -4.0540     1.2790 H     1 <1>   0.0800 
 50 H       -5.5130    -4.2560     3.4880 H     1 <1>   0.0800 
 51 H       -5.8150    -5.4820     2.2750 H     1 <1>   0.0800 
 52 H       -7.0500    -5.0790     3.4390 H     1 <1>   0.0800 
@<TRIPOS>BOND
  1   1   2  2   
  2   2   3  am  
  3   2   4  1   
  4   3   5  1   
  5   3   6  1   
  6   4   7  1   
  7   4  24  1   
  8   4  25  1   
  9   5   8  1   
 10   5  26  1   
 11   5  27  1   
 12   6   9  1   
 13   6  28  1   
 14   6  29  1   
 15   7  10  1   
 16   7  30  1   
 17   7  31  1   
 18   8  11  1   
 19   8  12  1   
 20   8  32  1   
 21   9  11  1   
 22   9  33  1   
 23   9  34  1   
 24  10  13  1   
 25  10  14  2   
 26  11  15  1   
 27  11  35  1   
 28  12  16  1   
 29  12  36  1   
 30  12  37  1   
 31  13  17  1   
 32  13  18  1   
 33  14  19  1   
 34  14  38  1   
 35  15  20  1   
 36  15  21  1   
 37  15  39  1   
 38  16  20  1   
 39  17  19  2   
 40  18  40  1   
 41  18  41  1   
 42  18  42  1   
 43  19  43  1   
 44  20  44  1   
 45  20  45  1   
 46  21  22  1   
 47  21  46  1   
 48  21  47  1   
 49  22  23  1   
 50  22  48  1   
 51  22  49  1   
 52  23  50  1   
 53  23  51  1   
 54  23  52  1   
@<TRIPOS>SUBSTRUCTURE
  1 ****   2 GROUP 4 **** **** 0

# MOE 2024.06 (io_trps.svl 2023.06)
