@<TRIPOS>MOLECULE
NONAME
46 48 1 0 0 
SMALL
USER_CHARGES


@<TRIPOS>ATOM
  1 O       -0.3390    -0.6770     1.3160 O.2   1 <1>  -0.5700 
  2 C       -0.5350    -1.5410     0.4830 C.2   1 <1>   0.5440 
  3 N        0.4000    -1.7170    -0.5020 N.am  1 <1>  -0.7300 
  4 C       -1.7370    -2.3440     0.5280 C.ar  1 <1>   0.0860 
  5 C        1.6640    -0.9640    -0.6170 C.3   1 <1>   0.1400 
  6 C       -2.8560    -1.9050     1.2340 C.ar  1 <1>   0.1600 
  7 C       -1.8550    -3.5780    -0.1100 C.ar  1 <1>  -0.1500 
  8 C        2.7420    -1.9010    -1.1460 C.3   1 <1>  -0.2400 
  9 N       -4.0120    -2.5390     1.3420 N.ar  1 <1>  -0.6200 
 10 C       -3.0480    -4.2510    -0.0070 C.ar  1 <1>  -0.1500 
 11 C       -4.1040    -3.7100     0.7220 C.ar  1 <1>   0.4100 
 12 N       -5.2940    -4.3980     0.8350 N.pl3 1 <1>  -0.8380 
 13 C       -6.5520    -3.6140     1.0140 C.3   1 <1>   0.2090 
 14 C       -5.2560    -5.7020     1.5620 C.3   1 <1>   0.2090 
 15 C       -7.7770    -4.3990     0.5190 C.3   1 <1>  -0.1600 
 16 C       -6.6510    -6.3400     1.6620 C.3   1 <1>  -0.1600 
 17 C       -7.5720    -5.9210     0.5090 C.3   1 <1>   0.4240 
 18 O       -6.8830    -6.2010    -0.6500 O.3   1 <1>  -0.6800 
 19 C       -8.9090    -6.6770     0.5240 C.ar  1 <1>  -0.1440 
 20 C       -9.3610    -7.4040    -0.5730 C.ar  1 <1>   0.1600 
 21 C       -9.7140    -6.6470     1.6520 C.ar  1 <1>  -0.1500 
 22 N      -10.5030    -8.0770    -0.6320 N.ar  1 <1>  -0.6200 
 23 C      -10.9040    -7.3410     1.6090 C.ar  1 <1>  -0.1500 
 24 C      -11.2450    -8.0300     0.4600 C.ar  1 <1>   0.1600 
 25 H        0.1920    -2.3370    -1.2840 H     1 <1>   0.3700 
 26 H        1.9510    -0.5780     0.3480 H     1 <1>   0.0800 
 27 H        1.5240    -0.1340    -1.2890 H     1 <1>   0.0800 
 28 H       -2.7820    -0.9580     1.7420 H     1 <1>   0.1500 
 29 H       -1.0350    -3.9970    -0.6640 H     1 <1>   0.1500 
 30 H        2.8790    -2.7270    -0.4710 H     1 <1>   0.0800 
 31 H        3.6730    -1.3690    -1.2240 H     1 <1>   0.0800 
 32 H        2.4790    -2.2700    -2.1210 H     1 <1>   0.0800 
 33 H       -3.1860    -5.2000    -0.4890 H     1 <1>   0.1500 
 34 H       -6.4840    -2.6790     0.4820 H     1 <1>   0.0800 
 35 H       -6.6630    -3.3870     2.0610 H     1 <1>   0.0800 
 36 H       -4.8460    -5.5550     2.5470 H     1 <1>   0.0800 
 37 H       -4.6060    -6.3750     1.0290 H     1 <1>   0.0800 
 38 H       -8.0530    -4.0660    -0.4650 H     1 <1>   0.0800 
 39 H       -8.5970    -4.1490     1.1660 H     1 <1>   0.0800 
 40 H       -7.0920    -6.0410     2.5950 H     1 <1>   0.0800 
 41 H       -6.5620    -7.4110     1.6860 H     1 <1>   0.0800 
 42 H       -6.1020    -5.6010    -0.6270 H     1 <1>   0.4000 
 43 H       -8.7560    -7.4410    -1.4630 H     1 <1>   0.1500 
 44 H       -9.4370    -6.1030     2.5370 H     1 <1>   0.1500 
 45 H      -11.5640    -7.3510     2.4570 H     1 <1>   0.1500 
 46 H      -12.1760    -8.5700     0.4360 H     1 <1>   0.1500 
@<TRIPOS>BOND
  1   1   2  2   
  2   2   3  am  
  3   2   4  1   
  4   3   5  1   
  5   3  25  1   
  6   4   6  ar  
  7   4   7  ar  
  8   5   8  1   
  9   5  26  1   
 10   5  27  1   
 11   6   9  ar  
 12   6  28  1   
 13   7  10  ar  
 14   7  29  1   
 15   8  30  1   
 16   8  31  1   
 17   8  32  1   
 18   9  11  ar  
 19  10  11  ar  
 20  10  33  1   
 21  11  12  1   
 22  12  13  1   
 23  12  14  1   
 24  13  15  1   
 25  13  34  1   
 26  13  35  1   
 27  14  16  1   
 28  14  36  1   
 29  14  37  1   
 30  15  17  1   
 31  15  38  1   
 32  15  39  1   
 33  16  17  1   
 34  16  40  1   
 35  16  41  1   
 36  17  18  1   
 37  17  19  1   
 38  18  42  1   
 39  19  20  ar  
 40  19  21  ar  
 41  20  22  ar  
 42  20  43  1   
 43  21  23  ar  
 44  21  44  1   
 45  22  24  ar  
 46  23  24  ar  
 47  23  45  1   
 48  24  46  1   
@<TRIPOS>SUBSTRUCTURE
  1 ****  12 GROUP 4 **** **** 0

# MOE 2024.06 (io_trps.svl 2023.06)
