@<TRIPOS>MOLECULE
NONAME
40 42 1 0 0 
SMALL
USER_CHARGES


@<TRIPOS>ATOM
  1 S       -0.0250     0.8790     0.2830 S.3   1 <1>  -0.0800 
  2 C        1.2300    -0.1070     0.9960 C.2   1 <1>   0.1980 
  3 C        1.1950     1.7540    -0.5970 C.2   1 <1>  -0.1400 
  4 N        2.4070     0.1890     0.6210 N.2   1 <1>  -0.5650 
  5 C        0.8000    -1.1850     1.9610 C.3   1 <1>  -0.0600 
  6 C        2.4040     1.2480    -0.2830 C.2   1 <1>   0.0460 
  7 C        0.7120     2.8650    -1.5100 C.3   1 <1>  -0.0600 
  8 C        3.7720     1.6990    -0.8160 C.3   1 <1>   0.3710 
  9 N        3.9220     3.1820    -0.8380 N.3   1 <1>  -0.8100 
 10 C        3.9520     1.0920    -2.2120 C.3   1 <1>  -0.2400 
 11 C        5.2380     3.6230    -1.3850 C.3   1 <1>   0.2900 
 12 C        3.7020     3.7450     0.5120 C.3   1 <1>   0.0300 
 13 C        5.4240     5.1370    -1.4870 C.2   1 <1>   0.2980 
 14 O        5.7990     5.8230    -0.4580 O.3   1 <1>  -0.2800 
 15 N        5.2810     5.8680    -2.5270 N.2   1 <1>  -0.3380 
 16 C        5.8730     7.0490    -0.8890 C.2   1 <1>   0.4780 
 17 N        5.5680     7.1110    -2.1450 N.2   1 <1>  -0.3380 
 18 C        6.2540     8.1300    -0.0180 C.2   1 <1>   0.1400 
 19 O        6.5490     7.9110     1.2610 O.3   1 <1>  -0.2800 
 20 C        6.3840     9.4620    -0.2690 C.2   1 <1>  -0.1500 
 21 C        6.8600     9.0590     1.8240 C.2   1 <1>  -0.0100 
 22 C        6.7780    10.0640     0.9270 C.2   1 <1>  -0.1500 
 23 H        0.2840    -0.7440     2.7930 H     1 <1>   0.0800 
 24 H        1.6630    -1.7130     2.3230 H     1 <1>   0.0800 
 25 H        0.1470    -1.8780     1.4640 H     1 <1>   0.0800 
 26 H        0.0220     2.4700    -2.2330 H     1 <1>   0.0800 
 27 H        1.5380     3.3140    -2.0320 H     1 <1>   0.0800 
 28 H        0.2190     3.6240    -0.9310 H     1 <1>   0.0800 
 29 H        4.5240     1.2890    -0.1620 H     1 <1>   0.0800 
 30 H        3.3270     1.6020    -2.9220 H     1 <1>   0.0800 
 31 H        3.6600     0.0570    -2.1860 H     1 <1>   0.0800 
 32 H        4.9770     1.1260    -2.5270 H     1 <1>   0.0800 
 33 H        5.3490     3.2480    -2.3850 H     1 <1>   0.0800 
 34 H        6.0340     3.2170    -0.7860 H     1 <1>   0.0800 
 35 H        2.7560     3.4280     0.9140 H     1 <1>   0.0800 
 36 H        3.6790     4.8190     0.4720 H     1 <1>   0.0800 
 37 H        4.4830     3.4320     1.1850 H     1 <1>   0.0800 
 38 H        6.2190     9.9690    -1.2040 H     1 <1>   0.1500 
 39 H        7.1290     9.0740     2.8670 H     1 <1>   0.1500 
 40 H        6.9680    11.1130     1.0720 H     1 <1>   0.1500 
@<TRIPOS>BOND
  1   1   2  1   
  2   1   3  1   
  3   2   4  2   
  4   2   5  1   
  5   3   6  2   
  6   3   7  1   
  7   4   6  1   
  8   5  23  1   
  9   5  24  1   
 10   5  25  1   
 11   6   8  1   
 12   7  26  1   
 13   7  27  1   
 14   7  28  1   
 15   8   9  1   
 16   8  10  1   
 17   8  29  1   
 18   9  11  1   
 19   9  12  1   
 20  10  30  1   
 21  10  31  1   
 22  10  32  1   
 23  11  13  1   
 24  11  33  1   
 25  11  34  1   
 26  12  35  1   
 27  12  36  1   
 28  12  37  1   
 29  13  14  1   
 30  13  15  2   
 31  14  16  1   
 32  15  17  1   
 33  16  17  2   
 34  16  18  1   
 35  18  19  1   
 36  18  20  2   
 37  19  21  1   
 38  20  22  1   
 39  20  38  1   
 40  21  22  2   
 41  21  39  1   
 42  22  40  1   
@<TRIPOS>SUBSTRUCTURE
  1 ****  12 GROUP 4 **** **** 0

# MOE 2024.06 (io_trps.svl 2023.06)
