@<TRIPOS>MOLECULE
NONAME
53 55 1 0 0 
SMALL
USER_CHARGES


@<TRIPOS>ATOM
  1 S        1.8100     2.0200    -1.0300 S.o2  1 <1>   1.3330 
  2 O        2.5880     3.0680    -0.3930 O.2   1 <1>  -0.6500 
  3 O        2.2650     1.4300    -2.2620 O.2   1 <1>  -0.6500 
  4 N        1.5860     0.7900     0.1140 N.am  1 <1>  -0.8490 
  5 C        0.1570     2.6970    -1.2530 C.3   1 <1>  -0.0550 
  6 C        0.9300    -0.4010    -0.4500 C.3   1 <1>   0.1160 
  7 C        2.8640     0.3700     0.7070 C.3   1 <1>   0.1160 
  8 C       -0.6260     3.1160     0.0300 C.3   1 <1>  -0.0800 
  9 C       -1.2880     4.4820    -0.1850 C.3   1 <1>   0.2000 
 10 C        0.2360     3.3890     1.2690 C.3   1 <1>   0.3430 
 11 O       -2.4120     4.5630     0.6270 O.3   1 <1>  -0.6800 
 12 C       -0.2360     5.5130     0.2690 C.3   1 <1>   0.3430 
 13 N        0.8100     4.7220     0.9940 N.4   1 <1>  -0.9590 
 14 C        1.4540     5.4110     2.1380 C.3   1 <1>   0.4860 
 15 C        2.0550     6.7000     1.6180 C.ar  1 <1>  -0.1440 
 16 C        3.0720     6.6900     0.6490 C.ar  1 <1>  -0.1520 
 17 C        1.5890     7.9130     2.0800 C.ar  1 <1>  -0.1500 
 18 N        3.7460     5.6650     0.0180 N.pl3 1 <1>   0.0330 
 19 C        3.5730     7.8880     0.1460 C.ar  1 <1>   0.0000 
 20 C        2.1050     9.1150     1.5860 C.ar  1 <1>  -0.1500 
 21 C        4.6250     6.2020    -0.8750 C.2   1 <1>  -0.3320 
 22 C        4.5480     7.5530    -0.8190 C.2   1 <1>  -0.1810 
 23 C        3.0860     9.1070     0.6250 C.ar  1 <1>  -0.1500 
 24 C        5.4960     5.3000    -1.7330 C.3   1 <1>  -0.0600 
 25 C        5.3230     8.5950    -1.6050 C.3   1 <1>  -0.0590 
 26 H        0.2520     3.5440    -1.9050 H     1 <1>   0.0800 
 27 H       -0.4390     1.9820    -1.7870 H     1 <1>   0.0800 
 28 H        0.7750    -1.1400     0.3190 H     1 <1>   0.0800 
 29 H        1.5360    -0.8360    -1.2290 H     1 <1>   0.0800 
 30 H       -0.0300    -0.1450    -0.8650 H     1 <1>   0.0800 
 31 H        2.7010    -0.4000     1.4430 H     1 <1>   0.0800 
 32 H        3.3440     1.2020     1.1930 H     1 <1>   0.0800 
 33 H        3.5260    -0.0100    -0.0550 H     1 <1>   0.0800 
 34 H       -1.3530     2.3520     0.2490 H     1 <1>   0.0800 
 35 H       -1.6120     4.6510    -1.1990 H     1 <1>   0.0800 
 36 H        0.9990     2.6450     1.4280 H     1 <1>   0.0800 
 37 H       -0.3930     3.4330     2.1430 H     1 <1>   0.0800 
 38 H       -2.2250     4.4440     1.5770 H     1 <1>   0.4000 
 39 H       -0.6900     6.2520     0.9090 H     1 <1>   0.0800 
 40 H        0.2080     6.0070    -0.5800 H     1 <1>   0.0800 
 41 H        1.5850     4.5660     0.3240 H     1 <1>   0.4500 
 42 H        0.7280     5.6250     2.9050 H     1 <1>   0.0800 
 43 H        2.2330     4.7950     2.5570 H     1 <1>   0.0800 
 44 H        0.8180     7.9690     2.8300 H     1 <1>   0.1500 
 45 H        3.6280     4.6510     0.1510 H     1 <1>   0.2700 
 46 H        1.7280    10.0500     1.9650 H     1 <1>   0.1500 
 47 H        3.4910    10.0230     0.2340 H     1 <1>   0.1500 
 48 H        6.1100     5.8750    -2.4010 H     1 <1>   0.0800 
 49 H        4.8810     4.6420    -2.3210 H     1 <1>   0.0800 
 50 H        6.1400     4.7070    -1.1080 H     1 <1>   0.0800 
 51 H        4.6420     9.2020    -2.1730 H     1 <1>   0.0800 
 52 H        6.0180     8.1340    -2.2800 H     1 <1>   0.0800 
 53 H        5.8710     9.2250    -0.9280 H     1 <1>   0.0800 
@<TRIPOS>BOND
  1   1   2  2   
  2   1   3  2   
  3   1   4  am  
  4   1   5  1   
  5   4   6  1   
  6   4   7  1   
  7   5   8  1   
  8   5  26  1   
  9   5  27  1   
 10   6  28  1   
 11   6  29  1   
 12   6  30  1   
 13   7  31  1   
 14   7  32  1   
 15   7  33  1   
 16   8   9  1   
 17   8  10  1   
 18   8  34  1   
 19   9  11  1   
 20   9  12  1   
 21   9  35  1   
 22  10  13  1   
 23  10  36  1   
 24  10  37  1   
 25  11  38  1   
 26  12  13  1   
 27  12  39  1   
 28  12  40  1   
 29  13  14  1   
 30  13  41  1   
 31  14  15  1   
 32  14  42  1   
 33  14  43  1   
 34  15  16  ar  
 35  15  17  ar  
 36  16  18  1   
 37  16  19  ar  
 38  17  20  ar  
 39  17  44  1   
 40  18  21  1   
 41  18  45  1   
 42  19  22  1   
 43  19  23  ar  
 44  20  23  ar  
 45  20  46  1   
 46  21  22  2   
 47  21  24  1   
 48  22  25  1   
 49  23  47  1   
 50  24  48  1   
 51  24  49  1   
 52  24  50  1   
 53  25  51  1   
 54  25  52  1   
 55  25  53  1   
@<TRIPOS>SUBSTRUCTURE
  1 ****  13 GROUP 4 **** **** 0

# MOE 2024.06 (io_trps.svl 2023.06)
