@<TRIPOS>MOLECULE
NONAME
44 46 1 0 0 
SMALL
USER_CHARGES


@<TRIPOS>ATOM
  1 F       -0.1530    -0.1900    -0.6500 F     1 <1>  -0.3400 
  2 C        0.7450    -1.1010    -0.2930 C.3   1 <1>   0.8800 
  3 F        1.8240    -0.8500    -1.0180 F     1 <1>  -0.3400 
  4 O        0.2630    -2.3740    -0.6550 O.3   1 <1>  -0.3630 
  5 C       -0.5740    -3.0470     0.1710 C.ar  1 <1>   0.0830 
  6 C       -0.6120    -4.4240     0.0340 C.ar  1 <1>  -0.1500 
  7 C       -1.3750    -2.4290     1.1260 C.ar  1 <1>  -0.1500 
  8 C       -1.4290    -5.2180     0.8360 C.ar  1 <1>   0.0860 
  9 C       -2.1850    -3.1990     1.9410 C.ar  1 <1>  -0.1500 
 10 C       -1.4530    -6.6600     0.6730 C.2   1 <1>   0.5440 
 11 C       -2.2060    -4.5750     1.7990 C.ar  1 <1>  -0.1500 
 12 O       -0.4060    -7.2750     0.6010 O.2   1 <1>  -0.5700 
 13 N       -2.6350    -7.3590     0.5840 N.am  1 <1>  -0.6600 
 14 C       -3.9400    -6.7710     0.1890 C.3   1 <1>   0.1400 
 15 C       -2.6670    -8.8370     0.4420 C.3   1 <1>   0.1400 
 16 C       -4.7050    -7.9210    -0.4630 C.3   1 <1>   0.2000 
 17 C       -4.1290    -9.1880     0.1630 C.3   1 <1>  -0.0800 
 18 O       -6.0650    -7.8380    -0.2160 O.3   1 <1>  -0.6800 
 19 C       -4.3040   -10.4340    -0.7180 C.3   1 <1>   0.0210 
 20 C       -3.6370   -11.6400    -0.0870 C.2   1 <1>   0.1080 
 21 N       -4.0210   -12.1420     1.0460 N.2   1 <1>  -0.7070 
 22 C       -2.5550   -12.3260    -0.6270 C.2   1 <1>  -0.1500 
 23 N       -3.1850   -13.1750     1.2600 N.pl3 1 <1>   0.3000 
 24 C       -2.2860   -13.3060     0.2610 C.2   1 <1>  -0.3320 
 25 C       -1.2100   -14.3740     0.2170 C.3   1 <1>  -0.0600 
 26 H        0.9750    -1.0150     0.7540 H     1 <1>   0.0800 
 27 H        0.0080    -4.8980    -0.7070 H     1 <1>   0.1500 
 28 H       -1.3930    -1.3610     1.2470 H     1 <1>   0.1500 
 29 H       -2.8020    -2.7260     2.6870 H     1 <1>   0.1500 
 30 H       -2.8290    -5.1670     2.4460 H     1 <1>   0.1500 
 31 H       -4.4530    -6.4280     1.0700 H     1 <1>   0.0800 
 32 H       -3.8020    -5.9600    -0.5050 H     1 <1>   0.0800 
 33 H       -2.0350    -9.1250    -0.3820 H     1 <1>   0.0800 
 34 H       -2.3130    -9.3150     1.3400 H     1 <1>   0.0800 
 35 H       -4.5490    -7.9010    -1.5290 H     1 <1>   0.0800 
 36 H       -4.5960    -9.3650     1.1160 H     1 <1>   0.0800 
 37 H       -6.2510    -8.0430     0.7210 H     1 <1>   0.4000 
 38 H       -3.8820   -10.2620    -1.6920 H     1 <1>   0.0800 
 39 H       -5.3520   -10.6440    -0.8390 H     1 <1>   0.0800 
 40 H       -2.0570   -12.1010    -1.5530 H     1 <1>   0.1500 
 41 H       -3.2540   -13.7700     2.0940 H     1 <1>   0.2700 
 42 H       -0.6210   -14.2690    -0.6770 H     1 <1>   0.0800 
 43 H       -1.6560   -15.3530     0.2200 H     1 <1>   0.0800 
 44 H       -0.5580   -14.2810     1.0680 H     1 <1>   0.0800 
@<TRIPOS>BOND
  1   1   2  1   
  2   2   3  1   
  3   2   4  1   
  4   2  26  1   
  5   4   5  1   
  6   5   6  ar  
  7   5   7  ar  
  8   6   8  ar  
  9   6  27  1   
 10   7   9  ar  
 11   7  28  1   
 12   8  10  1   
 13   8  11  ar  
 14   9  11  ar  
 15   9  29  1   
 16  10  12  2   
 17  10  13  am  
 18  11  30  1   
 19  13  14  1   
 20  13  15  1   
 21  14  16  1   
 22  14  31  1   
 23  14  32  1   
 24  15  17  1   
 25  15  33  1   
 26  15  34  1   
 27  16  17  1   
 28  16  18  1   
 29  16  35  1   
 30  17  19  1   
 31  17  36  1   
 32  18  37  1   
 33  19  20  1   
 34  19  38  1   
 35  19  39  1   
 36  20  21  2   
 37  20  22  1   
 38  21  23  1   
 39  22  24  2   
 40  22  40  1   
 41  23  24  1   
 42  23  41  1   
 43  24  25  1   
 44  25  42  1   
 45  25  43  1   
 46  25  44  1   
@<TRIPOS>SUBSTRUCTURE
  1 ****  13 GROUP 4 **** **** 0

# MOE 2024.06 (io_trps.svl 2023.06)
