@<TRIPOS>MOLECULE
NONAME
37 38 1 0 0 
SMALL
USER_CHARGES


@<TRIPOS>ATOM
  1 O        0.6910     0.3180    -0.5670 O.2   1 <1>  -0.5700 
  2 C        1.4550    -0.5520    -0.2120 C.2   1 <1>   0.5690 
  3 N        0.9350    -1.7160     0.2500 N.am  1 <1>  -0.7300 
  4 C        2.9860    -0.3310    -0.2840 C.3   1 <1>   0.3500 
  5 C        1.6610    -2.9200     0.6960 C.3   1 <1>   0.1400 
  6 N        3.3490     1.0460    -0.7270 N.pl3 1 <1>  -0.8690 
  7 C        3.6660    -1.3120    -1.2500 C.3   1 <1>  -0.1600 
  8 C        2.5120    -3.4920    -0.4420 C.3   1 <1>  -0.1600 
  9 C        4.0450     1.8860     0.1280 C.ar  1 <1>   0.4100 
 10 C        3.8280    -2.7350    -0.6900 C.3   1 <1>  -0.1600 
 11 N        5.0850     1.3550     0.7460 N.ar  1 <1>  -0.6200 
 12 C        3.6330     3.2510     0.2960 C.ar  1 <1>   0.4100 
 13 C        5.7140     2.2380     1.5110 C.ar  1 <1>   0.1600 
 14 N        4.2790     4.1080     1.0700 N.ar  1 <1>  -0.6200 
 15 N        2.4860     3.7430    -0.3450 N.pl3 1 <1>  -0.8380 
 16 C        5.3290     3.5570     1.6640 C.ar  1 <1>   0.1600 
 17 C        2.5200     5.1340    -0.8680 C.3   1 <1>   0.1290 
 18 C        1.1760     3.3420     0.2320 C.3   1 <1>   0.1290 
 19 H       -0.0860    -1.7750     0.2380 H     1 <1>   0.3700 
 20 H        3.3790    -0.4930     0.7040 H     1 <1>   0.0800 
 21 H        0.9390    -3.6580     1.0040 H     1 <1>   0.0800 
 22 H        2.2780    -2.6820     1.5470 H     1 <1>   0.0800 
 23 H        2.5130     1.5360    -1.0790 H     1 <1>   0.4000 
 24 H        4.6520    -0.9360    -1.4650 H     1 <1>   0.0800 
 25 H        3.1160    -1.3390    -2.1750 H     1 <1>   0.0800 
 26 H        1.9290    -3.5400    -1.3460 H     1 <1>   0.0800 
 27 H        2.7670    -4.5030    -0.1770 H     1 <1>   0.0800 
 28 H        4.3990    -2.6950     0.2220 H     1 <1>   0.0800 
 29 H        4.4090    -3.3020    -1.3980 H     1 <1>   0.0800 
 30 H        6.5810     1.8850     2.0400 H     1 <1>   0.1500 
 31 H        5.9080     4.1960     2.3070 H     1 <1>   0.1500 
 32 H        3.4920     5.3440    -1.2800 H     1 <1>   0.0800 
 33 H        2.3240     5.8300    -0.0700 H     1 <1>   0.0800 
 34 H        1.7810     5.2530    -1.6400 H     1 <1>   0.0800 
 35 H        1.2930     2.4800     0.8660 H     1 <1>   0.0800 
 36 H        0.4900     3.0940    -0.5600 H     1 <1>   0.0800 
 37 H        0.7670     4.1450     0.8190 H     1 <1>   0.0800 
@<TRIPOS>BOND
  1   1   2  2   
  2   2   3  am  
  3   2   4  1   
  4   3   5  1   
  5   3  19  1   
  6   4   6  1   
  7   4   7  1   
  8   4  20  1   
  9   5   8  1   
 10   5  21  1   
 11   5  22  1   
 12   6   9  1   
 13   6  23  1   
 14   7  10  1   
 15   7  24  1   
 16   7  25  1   
 17   8  10  1   
 18   8  26  1   
 19   8  27  1   
 20   9  11  ar  
 21   9  12  ar  
 22  10  28  1   
 23  10  29  1   
 24  11  13  ar  
 25  12  14  ar  
 26  12  15  1   
 27  13  16  ar  
 28  13  30  1   
 29  14  16  ar  
 30  15  17  1   
 31  15  18  1   
 32  16  31  1   
 33  17  32  1   
 34  17  33  1   
 35  17  34  1   
 36  18  35  1   
 37  18  36  1   
 38  18  37  1   
@<TRIPOS>SUBSTRUCTURE
  1 ****   6 GROUP 4 **** **** 0

# MOE 2024.06 (io_trps.svl 2023.06)
