@<TRIPOS>MOLECULE
NONAME
65 67 1 0 0 
SMALL
USER_CHARGES


@<TRIPOS>ATOM
  1 O       -3.3880     1.4670    -1.9050 O.2   1 <1>  -0.5700 
  2 C       -3.0200     0.6670    -1.0750 C.2   1 <1>   0.5690 
  3 N       -3.4190    -0.6490    -1.1560 N.am  1 <1>  -0.6600 
  4 C       -2.1110     1.1950     0.0470 C.3   1 <1>  -0.0190 
  5 C       -2.9640    -1.7280    -0.2050 C.3   1 <1>   0.3640 
  6 C       -4.4360    -1.0110    -2.1930 C.3   1 <1>   0.1400 
  7 C       -2.6660     2.4730     0.7010 C.3   1 <1>  -0.1600 
  8 C       -0.6870     1.4730    -0.4650 C.3   1 <1>  -0.1600 
  9 C       -1.4510    -1.9120    -0.3560 C.ar  1 <1>  -0.1430 
 10 C       -3.6570    -3.1220    -0.3370 C.3   1 <1>   0.2000 
 11 C       -4.6020    -2.5180    -2.3890 C.3   1 <1>   0.1200 
 12 C       -1.7500     2.9590     1.8290 C.3   1 <1>   0.1400 
 13 C        0.2240     1.9440     0.6710 C.3   1 <1>   0.1400 
 14 C       -0.6320    -1.8800     0.7620 C.ar  1 <1>  -0.1500 
 15 C       -0.8690    -2.0960    -1.6010 C.ar  1 <1>  -0.1500 
 16 O       -4.7970    -3.1180    -1.1510 O.3   1 <1>  -0.5600 
 17 C       -4.0980    -3.6780     1.0250 C.3   1 <1>   0.1200 
 18 N       -0.3610     3.1570     1.3170 N.am  1 <1>  -0.6600 
 19 C        0.7430    -2.0090     0.6570 C.ar  1 <1>   0.0830 
 20 C        0.5020    -2.2320    -1.7270 C.ar  1 <1>  -0.1500 
 21 O       -3.0350    -3.7060     1.9250 O.3   1 <1>  -0.6800 
 22 C        0.2670     4.3770     1.4540 C.2   1 <1>   0.5690 
 23 O        1.4130    -1.9370     1.8410 O.3   1 <1>  -0.3630 
 24 C        1.3300    -2.1800    -0.6070 C.ar  1 <1>   0.0830 
 25 O       -0.3030     5.3170     1.9630 O.2   1 <1>  -0.5700 
 26 C        1.7120     4.5960     0.9650 C.3   1 <1>  -0.0190 
 27 C        2.5920    -2.6790     2.0590 C.3   1 <1>   0.0400 
 28 O        2.6870    -2.2680    -0.7220 O.3   1 <1>  -0.3630 
 29 C        2.4370     5.7330     1.7120 C.3   1 <1>  -0.2400 
 30 C        1.7490     4.8820    -0.5460 C.3   1 <1>  -0.2400 
 31 C        3.3330    -2.3680    -1.9730 C.3   1 <1>   0.0400 
 32 H       -2.0450     0.4700     0.8300 H     1 <1>   0.0800 
 33 H       -3.1660    -1.3750     0.7900 H     1 <1>   0.0800 
 34 H       -5.3840    -0.5930    -1.9030 H     1 <1>   0.0800 
 35 H       -4.1610    -0.5660    -3.1340 H     1 <1>   0.0800 
 36 H       -3.6460     2.2810     1.0980 H     1 <1>   0.0800 
 37 H       -2.7580     3.2560    -0.0320 H     1 <1>   0.0800 
 38 H       -0.7160     2.2260    -1.2330 H     1 <1>   0.0800 
 39 H       -0.2710     0.5830    -0.8990 H     1 <1>   0.0800 
 40 H       -2.9700    -3.8220    -0.7780 H     1 <1>   0.0800 
 41 H       -3.7400    -2.9500    -2.8650 H     1 <1>   0.0800 
 42 H       -5.4690    -2.7170    -2.9930 H     1 <1>   0.0800 
 43 H       -1.7260     2.2310     2.6220 H     1 <1>   0.0800 
 44 H       -2.1450     3.8740     2.2360 H     1 <1>   0.0800 
 45 H        1.2010     2.1360     0.2690 H     1 <1>   0.0800 
 46 H        0.3200     1.1640     1.4080 H     1 <1>   0.0800 
 47 H       -1.0550    -1.7510     1.7430 H     1 <1>   0.1500 
 48 H       -1.4830    -2.1220    -2.4850 H     1 <1>   0.1500 
 49 H       -4.4790    -4.6790     0.9200 H     1 <1>   0.0800 
 50 H       -4.8630    -3.0480     1.4470 H     1 <1>   0.0800 
 51 H        0.9020    -2.3700    -2.7130 H     1 <1>   0.1500 
 52 H       -2.3820    -4.3920     1.6790 H     1 <1>   0.4000 
 53 H        2.2730     3.7040     1.1660 H     1 <1>   0.0800 
 54 H        2.7370    -2.7750     3.1190 H     1 <1>   0.0800 
 55 H        3.4210    -2.1490     1.6260 H     1 <1>   0.0800 
 56 H        2.4850    -3.6520     1.6110 H     1 <1>   0.0800 
 57 H        1.9460     6.6740     1.5320 H     1 <1>   0.0800 
 58 H        3.4600     5.8070     1.3900 H     1 <1>   0.0800 
 59 H        2.4220     5.5420     2.7710 H     1 <1>   0.0800 
 60 H        1.2170     5.7930    -0.7600 H     1 <1>   0.0800 
 61 H        1.2810     4.0840    -1.0940 H     1 <1>   0.0800 
 62 H        2.7630     4.9840    -0.8870 H     1 <1>   0.0800 
 63 H        4.3940    -2.4000    -1.7990 H     1 <1>   0.0800 
 64 H        3.0860    -1.5040    -2.5640 H     1 <1>   0.0800 
 65 H        3.0180    -3.2750    -2.4590 H     1 <1>   0.0800 
@<TRIPOS>BOND
  1   1   2  2   
  2   2   3  am  
  3   2   4  1   
  4   3   5  1   
  5   3   6  1   
  6   4   7  1   
  7   4   8  1   
  8   4  32  1   
  9   5   9  1   
 10   5  10  1   
 11   5  33  1   
 12   6  11  1   
 13   6  34  1   
 14   6  35  1   
 15   7  12  1   
 16   7  36  1   
 17   7  37  1   
 18   8  13  1   
 19   8  38  1   
 20   8  39  1   
 21   9  14  ar  
 22   9  15  ar  
 23  10  16  1   
 24  10  17  1   
 25  10  40  1   
 26  11  16  1   
 27  11  41  1   
 28  11  42  1   
 29  12  18  1   
 30  12  43  1   
 31  12  44  1   
 32  13  18  1   
 33  13  45  1   
 34  13  46  1   
 35  14  19  ar  
 36  14  47  1   
 37  15  20  ar  
 38  15  48  1   
 39  17  21  1   
 40  17  49  1   
 41  17  50  1   
 42  18  22  am  
 43  19  23  1   
 44  19  24  ar  
 45  20  24  ar  
 46  20  51  1   
 47  21  52  1   
 48  22  25  2   
 49  22  26  1   
 50  23  27  1   
 51  24  28  1   
 52  26  29  1   
 53  26  30  1   
 54  26  53  1   
 55  27  54  1   
 56  27  55  1   
 57  27  56  1   
 58  28  31  1   
 59  29  57  1   
 60  29  58  1   
 61  29  59  1   
 62  30  60  1   
 63  30  61  1   
 64  30  62  1   
 65  31  63  1   
 66  31  64  1   
 67  31  65  1   
@<TRIPOS>SUBSTRUCTURE
  1 ****   8 GROUP 4 **** **** 0

# MOE 2024.06 (io_trps.svl 2023.06)
