@<TRIPOS>MOLECULE
NONAME
41 43 1 0 0 
SMALL
USER_CHARGES


@<TRIPOS>ATOM
  1 O       -2.8240     0.2520     1.5430 O.co2 1 <1>  -0.9000 
  2 C       -2.9210     0.1610     0.3120 C.2   1 <1>   0.9060 
  3 O       -2.1900     0.7630    -0.4750 O.co2 1 <1>  -0.9000 
  4 C       -3.9600    -0.8150    -0.2490 C.3   1 <1>   0.2370 
  5 N       -3.6580    -2.3040    -0.1260 N.4   1 <1>  -0.9590 
  6 C       -3.1060    -2.6640     1.2340 C.3   1 <1>   0.4230 
  7 C       -2.8590    -2.8280    -1.2680 C.3   1 <1>   0.3430 
  8 C       -1.5520    -2.6350     1.3780 C.3   1 <1>   0.1200 
  9 C       -3.7000    -4.0380     1.6470 C.3   1 <1>   0.2090 
 10 C       -2.4250    -4.3010    -1.0700 C.3   1 <1>  -0.0800 
 11 O       -0.8060    -3.2110     0.3320 O.3   1 <1>  -0.5600 
 12 N       -4.3720    -4.7670     0.5040 N.pl3 1 <1>  -0.8380 
 13 C       -1.1990    -4.4500    -0.1510 C.3   1 <1>   0.1200 
 14 C       -3.5600    -5.2590    -0.6490 C.3   1 <1>   0.2090 
 15 C       -5.7370    -4.7520     0.3860 C.ar  1 <1>   0.7200 
 16 N       -6.3160    -5.8650    -0.0420 N.ar  1 <1>  -0.6200 
 17 N       -6.3270    -3.5960     0.6700 N.ar  1 <1>  -0.6200 
 18 C       -7.6200    -5.8300    -0.1540 C.ar  1 <1>   0.1670 
 19 C       -7.6340    -3.5880     0.5510 C.ar  1 <1>   0.1600 
 20 C       -8.3380    -4.6940     0.1390 C.ar  1 <1>  -0.1500 
 21 C       -8.3050    -7.0970    -0.6210 C.3   1 <1>  -0.0970 
 22 H       -4.1110    -0.5590    -1.2810 H     1 <1>   0.0800 
 23 H       -4.8720    -0.6060     0.2780 H     1 <1>   0.0800 
 24 H       -4.5550    -2.8270    -0.1290 H     1 <1>   0.4500 
 25 H       -3.4830    -1.9520     1.9500 H     1 <1>   0.0800 
 26 H       -3.4480    -2.7510    -2.1650 H     1 <1>   0.0800 
 27 H       -1.9810    -2.2140    -1.3980 H     1 <1>   0.0800 
 28 H       -1.2630    -3.1190     2.2930 H     1 <1>   0.0800 
 29 H       -1.2250    -1.6130     1.4550 H     1 <1>   0.0800 
 30 H       -4.4240    -3.8620     2.4240 H     1 <1>   0.0800 
 31 H       -2.9460    -4.6670     2.0830 H     1 <1>   0.0800 
 32 H       -2.0950    -4.6450    -2.0330 H     1 <1>   0.0800 
 33 H       -0.3690    -4.8370    -0.7180 H     1 <1>   0.0800 
 34 H       -1.3670    -5.1160     0.6780 H     1 <1>   0.0800 
 35 H       -3.1540    -6.2250    -0.4000 H     1 <1>   0.0800 
 36 H       -4.2110    -5.4020    -1.4960 H     1 <1>   0.0800 
 37 H       -8.1610    -2.6790     0.7870 H     1 <1>   0.1500 
 38 H       -9.4080    -4.6670     0.0500 H     1 <1>   0.1500 
 39 H       -9.3700    -6.9650    -0.6750 H     1 <1>   0.0800 
 40 H       -8.0880    -7.8960     0.0640 H     1 <1>   0.0800 
 41 H       -7.9380    -7.3690    -1.5940 H     1 <1>   0.0800 
@<TRIPOS>BOND
  1   1   2  ar  
  2   2   3  ar  
  3   2   4  1   
  4   4   5  1   
  5   4  22  1   
  6   4  23  1   
  7   5   6  1   
  8   5   7  1   
  9   5  24  1   
 10   6   8  1   
 11   6   9  1   
 12   6  25  1   
 13   7  10  1   
 14   7  26  1   
 15   7  27  1   
 16   8  11  1   
 17   8  28  1   
 18   8  29  1   
 19   9  12  1   
 20   9  30  1   
 21   9  31  1   
 22  10  13  1   
 23  10  14  1   
 24  10  32  1   
 25  11  13  1   
 26  12  14  1   
 27  12  15  1   
 28  13  33  1   
 29  13  34  1   
 30  14  35  1   
 31  14  36  1   
 32  15  16  ar  
 33  15  17  ar  
 34  16  18  ar  
 35  17  19  ar  
 36  18  20  ar  
 37  18  21  1   
 38  19  20  ar  
 39  19  37  1   
 40  20  38  1   
 41  21  39  1   
 42  21  40  1   
 43  21  41  1   
@<TRIPOS>SUBSTRUCTURE
  1 ****   5 GROUP 4 **** **** 0

# MOE 2024.06 (io_trps.svl 2023.06)
