@<TRIPOS>MOLECULE
NONAME
47 49 1 0 0 
SMALL
USER_CHARGES


@<TRIPOS>ATOM
  1 O        1.0910     0.4410     0.2040 O.2   1 <1>  -0.5700 
  2 C        1.8180    -0.5210     0.1670 C.2   1 <1>   0.5690 
  3 N        3.1240    -0.4260     0.5830 N.am  1 <1>  -0.6600 
  4 C        1.2410    -1.8090    -0.3910 C.3   1 <1>  -0.0990 
  5 C        3.5680     0.7520     1.4030 C.3   1 <1>   0.1400 
  6 C        4.2180    -1.3740     0.2210 C.3   1 <1>   0.1400 
  7 C        1.0070    -2.8460     0.7140 C.3   1 <1>  -0.0160 
  8 C        4.5590     1.7210     0.6990 C.3   1 <1>   0.4230 
  9 C        5.2040    -0.7240    -0.7780 C.3   1 <1>  -0.0800 
 10 C        0.4990    -4.1460     0.1130 C.ar  1 <1>  -0.1440 
 11 N        4.4800     1.7660    -0.8170 N.4   1 <1>  -0.9590 
 12 C        6.0120     1.4990     1.1760 C.3   1 <1>   0.1200 
 13 C        6.5690    -0.3900    -0.1560 C.3   1 <1>   0.1200 
 14 C        4.5830     0.4540    -1.5510 C.3   1 <1>   0.3430 
 15 C       -0.8420    -4.2870    -0.2070 C.ar  1 <1>  -0.1500 
 16 C        1.3710    -5.1990    -0.1270 C.ar  1 <1>  -0.1500 
 17 C        3.2190     2.4600    -1.2360 C.3   1 <1>   0.2630 
 18 O        6.4140     0.1670     1.1070 O.3   1 <1>  -0.5600 
 19 C       -1.3000    -5.4710    -0.7630 C.ar  1 <1>   0.0820 
 20 C        0.9100    -6.3810    -0.6830 C.ar  1 <1>  -0.1500 
 21 O       -2.5960    -5.6140    -1.0760 O.3   1 <1>  -0.5330 
 22 C       -0.4280    -6.5180    -1.0040 C.ar  1 <1>  -0.1500 
 23 H        0.2990    -1.5870    -0.8580 H     1 <1>   0.0800 
 24 H        1.8810    -2.2090    -1.1530 H     1 <1>   0.0800 
 25 H        2.7080     1.3240     1.7060 H     1 <1>   0.0800 
 26 H        4.0120     0.3890     2.3140 H     1 <1>   0.0800 
 27 H        4.7320    -1.6850     1.1160 H     1 <1>   0.0800 
 28 H        3.8100    -2.2640    -0.2210 H     1 <1>   0.0800 
 29 H        0.2860    -2.4680     1.4180 H     1 <1>   0.0800 
 30 H        1.9190    -3.0300     1.2540 H     1 <1>   0.0800 
 31 H        4.3060     2.7060     1.0540 H     1 <1>   0.0800 
 32 H        5.4080    -1.4770    -1.5190 H     1 <1>   0.0800 
 33 H        5.2700     2.3440    -1.1290 H     1 <1>   0.4500 
 34 H        6.0810     1.7800     2.2130 H     1 <1>   0.0800 
 35 H        6.7080     2.1070     0.6250 H     1 <1>   0.0800 
 36 H        7.1540     0.2700    -0.7740 H     1 <1>   0.0800 
 37 H        7.1290    -1.3010    -0.0180 H     1 <1>   0.0800 
 38 H        3.5940     0.1490    -1.8560 H     1 <1>   0.0800 
 39 H        5.1530     0.6100    -2.4520 H     1 <1>   0.0800 
 40 H       -1.5270    -3.4800    -0.0240 H     1 <1>   0.1500 
 41 H        2.4140    -5.1090     0.1200 H     1 <1>   0.1500 
 42 H        2.3580     1.8890    -0.9330 H     1 <1>   0.0800 
 43 H        3.1910     2.5770    -2.3070 H     1 <1>   0.0800 
 44 H        3.1560     3.4360    -0.7820 H     1 <1>   0.0800 
 45 H        1.5900    -7.1940    -0.8660 H     1 <1>   0.1500 
 46 H       -3.1280    -4.8280    -0.8620 H     1 <1>   0.4500 
 47 H       -0.8010    -7.4280    -1.4360 H     1 <1>   0.1500 
@<TRIPOS>BOND
  1   1   2  2   
  2   2   3  am  
  3   2   4  1   
  4   3   5  1   
  5   3   6  1   
  6   4   7  1   
  7   4  23  1   
  8   4  24  1   
  9   5   8  1   
 10   5  25  1   
 11   5  26  1   
 12   6   9  1   
 13   6  27  1   
 14   6  28  1   
 15   7  10  1   
 16   7  29  1   
 17   7  30  1   
 18   8  11  1   
 19   8  12  1   
 20   8  31  1   
 21   9  13  1   
 22   9  14  1   
 23   9  32  1   
 24  10  15  ar  
 25  10  16  ar  
 26  11  14  1   
 27  11  17  1   
 28  11  33  1   
 29  12  18  1   
 30  12  34  1   
 31  12  35  1   
 32  13  18  1   
 33  13  36  1   
 34  13  37  1   
 35  14  38  1   
 36  14  39  1   
 37  15  19  ar  
 38  15  40  1   
 39  16  20  ar  
 40  16  41  1   
 41  17  42  1   
 42  17  43  1   
 43  17  44  1   
 44  19  21  1   
 45  19  22  ar  
 46  20  22  ar  
 47  20  45  1   
 48  21  46  1   
 49  22  47  1   
@<TRIPOS>SUBSTRUCTURE
  1 ****   4 GROUP 4 **** **** 0

# MOE 2024.06 (io_trps.svl 2023.06)
