@<TRIPOS>MOLECULE
NONAME
48 51 1 0 0 
SMALL
USER_CHARGES


@<TRIPOS>ATOM
  1 S       -2.5610     0.0690    -1.8080 S.3   1 <1>  -0.4600 
  2 C       -3.3620     0.4300    -0.2120 C.3   1 <1>   0.2510 
  3 C       -2.5820    -1.7470    -1.7280 C.3   1 <1>   0.2510 
  4 C       -3.6660    -0.9430     0.3380 C.2   1 <1>   0.1080 
  5 C       -3.2800    -2.0300    -0.4190 C.2   1 <1>  -0.1810 
  6 N       -4.2520    -1.2750     1.4420 N.2   1 <1>  -0.7070 
  7 C       -3.6630    -3.1180     0.2900 C.2   1 <1>  -0.0880 
  8 N       -4.2490    -2.6320     1.4270 N.pl3 1 <1>   0.3140 
  9 N       -3.5070    -4.4720    -0.0970 N.am  1 <1>  -0.4940 
 10 C       -4.9040    -3.3690     2.5160 C.3   1 <1>   0.0160 
 11 C       -3.2650    -5.5860     0.6570 C.2   1 <1>   0.5690 
 12 O       -3.0990    -5.5650     1.8500 O.2   1 <1>  -0.5700 
 13 C       -3.2180    -6.9270    -0.0510 C.3   1 <1>  -0.0990 
 14 C       -4.6320    -7.4780    -0.2990 C.3   1 <1>  -0.1600 
 15 C       -4.6040    -8.8720    -0.9430 C.3   1 <1>   0.0200 
 16 C       -6.0080    -9.3920    -1.1820 C.2   1 <1>   0.2980 
 17 O       -6.7460    -8.8160    -2.0940 O.3   1 <1>  -0.0190 
 18 N       -6.5550   -10.3540    -0.5650 N.2   1 <1>  -0.5650 
 19 N       -7.8640    -9.4680    -2.0520 N.2   1 <1>  -0.4100 
 20 C       -7.7580   -10.3810    -1.1500 C.2   1 <1>   0.4620 
 21 C       -8.7910   -11.3370    -0.7840 C.ar  1 <1>   0.0540 
 22 C       -8.5980   -12.2750     0.2320 C.ar  1 <1>  -0.1500 
 23 C      -10.0250   -11.3540    -1.4380 C.ar  1 <1>  -0.1500 
 24 C       -9.5780   -13.1880     0.5840 C.ar  1 <1>  -0.1430 
 25 C      -11.0120   -12.2580    -1.0950 C.ar  1 <1>  -0.1500 
 26 C      -10.7900   -13.1750    -0.0840 C.ar  1 <1>  -0.1500 
 27 C       -9.3360   -14.1940     1.6940 C.3   1 <1>  -0.0970 
 28 H       -4.2550     0.9980    -0.3960 H     1 <1>   0.0800 
 29 H       -2.6670     0.9670     0.4070 H     1 <1>   0.0800 
 30 H       -1.5640    -2.0920    -1.7310 H     1 <1>   0.0800 
 31 H       -3.1310    -2.1120    -2.5770 H     1 <1>   0.0800 
 32 H       -3.5330    -4.6280    -1.1030 H     1 <1>   0.3700 
 33 H       -5.6250    -2.7310     2.9920 H     1 <1>   0.0800 
 34 H       -4.1610    -3.6670     3.2310 H     1 <1>   0.0800 
 35 H       -5.3970    -4.2350     2.1180 H     1 <1>   0.0800 
 36 H       -2.6670    -7.6130     0.5690 H     1 <1>   0.0800 
 37 H       -2.6870    -6.8210    -0.9790 H     1 <1>   0.0800 
 38 H       -5.1780    -6.8010    -0.9340 H     1 <1>   0.0800 
 39 H       -5.1550    -7.5410     0.6410 H     1 <1>   0.0800 
 40 H       -4.0870    -9.5600    -0.2970 H     1 <1>   0.0800 
 41 H       -4.0840    -8.8400    -1.8840 H     1 <1>   0.0800 
 42 H       -7.6580   -12.2860     0.7560 H     1 <1>   0.1500 
 43 H      -10.2140   -10.6470    -2.2270 H     1 <1>   0.1500 
 44 H      -11.9550   -12.2500    -1.6140 H     1 <1>   0.1500 
 45 H      -11.5620   -13.8770     0.1790 H     1 <1>   0.1500 
 46 H       -8.2840   -14.3010     1.8880 H     1 <1>   0.0800 
 47 H       -9.7290   -15.1550     1.4160 H     1 <1>   0.0800 
 48 H       -9.8220   -13.8650     2.5950 H     1 <1>   0.0800 
@<TRIPOS>BOND
  1   1   2  1   
  2   1   3  1   
  3   2   4  1   
  4   2  28  1   
  5   2  29  1   
  6   3   5  1   
  7   3  30  1   
  8   3  31  1   
  9   4   5  1   
 10   4   6  2   
 11   5   7  2   
 12   6   8  1   
 13   7   8  1   
 14   7   9  1   
 15   8  10  1   
 16   9  11  am  
 17   9  32  1   
 18  10  33  1   
 19  10  34  1   
 20  10  35  1   
 21  11  12  2   
 22  11  13  1   
 23  13  14  1   
 24  13  36  1   
 25  13  37  1   
 26  14  15  1   
 27  14  38  1   
 28  14  39  1   
 29  15  16  1   
 30  15  40  1   
 31  15  41  1   
 32  16  17  1   
 33  16  18  2   
 34  17  19  1   
 35  18  20  1   
 36  19  20  2   
 37  20  21  1   
 38  21  22  ar  
 39  21  23  ar  
 40  22  24  ar  
 41  22  42  1   
 42  23  25  ar  
 43  23  43  1   
 44  24  26  ar  
 45  24  27  1   
 46  25  26  ar  
 47  25  44  1   
 48  26  45  1   
 49  27  46  1   
 50  27  47  1   
 51  27  48  1   
@<TRIPOS>SUBSTRUCTURE
  1 ****  14 GROUP 4 **** **** 0

# MOE 2024.06 (io_trps.svl 2023.06)
