@<TRIPOS>MOLECULE
NONAME
42 43 1 0 0 
SMALL
USER_CHARGES


@<TRIPOS>ATOM
  1 O       -0.3220     0.3290    -0.1840 O.2   1 <1>  -0.5700 
  2 C       -1.3950     0.8850    -0.1830 C.2   1 <1>   0.5690 
  3 N       -2.5610     0.1730    -0.2170 N.am  1 <1>  -0.6600 
  4 C       -1.4500     2.4020    -0.1500 C.3   1 <1>  -0.0990 
  5 C       -3.9350     0.7290    -0.2910 C.3   1 <1>   0.1400 
  6 C       -2.5880    -1.3080    -0.2260 C.3   1 <1>   0.1400 
  7 C       -0.0740     3.0330     0.0440 C.3   1 <1>   0.1200 
  8 C       -4.8310    -0.4830    -0.5450 C.3   1 <1>   0.2000 
  9 C       -4.0540    -1.6830    -0.0070 C.3   1 <1>  -0.0800 
 10 O       -0.2410     4.4130     0.0840 O.3   1 <1>  -0.5600 
 11 O       -6.0470    -0.3680     0.1080 O.3   1 <1>  -0.6800 
 12 C       -4.4560    -3.0070    -0.6730 C.3   1 <1>   0.0200 
 13 C        0.9440     5.1140     0.2500 C.3   1 <1>   0.1200 
 14 C       -3.6040    -4.1520    -0.1610 C.2   1 <1>  -0.0400 
 15 C        0.5980     6.5980     0.2760 C.3   1 <1>  -0.2400 
 16 O       -3.6410    -4.4800     1.1030 O.3   1 <1>  -0.0190 
 17 C       -2.7360    -4.9710    -0.7740 C.2   1 <1>  -0.1500 
 18 N       -2.8420    -5.4710     1.3700 N.2   1 <1>  -0.4100 
 19 C       -2.2830    -5.7890     0.2580 C.2   1 <1>   0.1080 
 20 C       -1.2700    -6.9000     0.1020 C.3   1 <1>  -0.0590 
 21 H       -1.8640     2.7500    -1.0780 H     1 <1>   0.0800 
 22 H       -2.0850     2.7060     0.6600 H     1 <1>   0.0800 
 23 H       -4.1790     1.1970     0.6480 H     1 <1>   0.0800 
 24 H       -4.0160     1.4390    -1.0960 H     1 <1>   0.0800 
 25 H       -2.2350    -1.6550    -1.1820 H     1 <1>   0.0800 
 26 H       -1.9570    -1.7070     0.5510 H     1 <1>   0.0800 
 27 H        0.5770     2.7810    -0.7780 H     1 <1>   0.0800 
 28 H        0.3650     2.7050     0.9710 H     1 <1>   0.0800 
 29 H       -5.0200    -0.5770    -1.6010 H     1 <1>   0.0800 
 30 H       -4.2040    -1.7590     1.0560 H     1 <1>   0.0800 
 31 H       -5.9170    -0.3670     1.0770 H     1 <1>   0.4000 
 32 H       -4.3430    -2.9320    -1.7390 H     1 <1>   0.0800 
 33 H       -5.4900    -3.2190    -0.4610 H     1 <1>   0.0800 
 34 H        1.4000     4.8140     1.1780 H     1 <1>   0.0800 
 35 H        1.6000     4.8910    -0.5750 H     1 <1>   0.0800 
 36 H       -0.0680     6.8070     1.0940 H     1 <1>   0.0800 
 37 H        0.1310     6.8830    -0.6490 H     1 <1>   0.0800 
 38 H        1.4940     7.1790     0.4030 H     1 <1>   0.0800 
 39 H       -2.4350    -5.0150    -1.8040 H     1 <1>   0.1500 
 40 H       -1.6250    -7.6200    -0.6120 H     1 <1>   0.0800 
 41 H       -1.1170    -7.3920     1.0460 H     1 <1>   0.0800 
 42 H       -0.3340    -6.4950    -0.2350 H     1 <1>   0.0800 
@<TRIPOS>BOND
  1   1   2  2   
  2   2   3  am  
  3   2   4  1   
  4   3   5  1   
  5   3   6  1   
  6   4   7  1   
  7   4  21  1   
  8   4  22  1   
  9   5   8  1   
 10   5  23  1   
 11   5  24  1   
 12   6   9  1   
 13   6  25  1   
 14   6  26  1   
 15   7  10  1   
 16   7  27  1   
 17   7  28  1   
 18   8   9  1   
 19   8  11  1   
 20   8  29  1   
 21   9  12  1   
 22   9  30  1   
 23  10  13  1   
 24  11  31  1   
 25  12  14  1   
 26  12  32  1   
 27  12  33  1   
 28  13  15  1   
 29  13  34  1   
 30  13  35  1   
 31  14  16  1   
 32  14  17  2   
 33  15  36  1   
 34  15  37  1   
 35  15  38  1   
 36  16  18  1   
 37  17  19  1   
 38  17  39  1   
 39  18  19  2   
 40  19  20  1   
 41  20  40  1   
 42  20  41  1   
 43  20  42  1   
@<TRIPOS>SUBSTRUCTURE
  1 ****   6 GROUP 4 **** **** 0

# MOE 2024.06 (io_trps.svl 2023.06)
