@<TRIPOS>MOLECULE
NONAME
55 58 1 0 0 
SMALL
USER_CHARGES


@<TRIPOS>ATOM
  1 O        0.6680    -0.2360    -1.5230 O.3   1 <1>  -0.6800 
  2 C        2.0470    -0.3690    -1.4540 C.3   1 <1>   0.2000 
  3 C        2.4380    -1.4540    -0.4570 C.3   1 <1>  -0.0800 
  4 C        2.6900     0.9040    -0.9100 C.3   1 <1>   0.2090 
  5 C        3.8220    -1.0270     0.0350 C.3   1 <1>   0.2090 
  6 C        2.4220    -2.8710    -1.0540 C.3   1 <1>   0.0210 
  7 N        3.9080     0.4470    -0.1820 N.pl3 1 <1>  -0.8380 
  8 C        3.0410    -3.8830    -0.1080 C.2   1 <1>   0.1080 
  9 C        5.0820     1.1310    -0.1480 C.ar  1 <1>   0.4100 
 10 N        2.6870    -3.9940     1.1340 N.2   1 <1>  -0.7070 
 11 C        4.0470    -4.7800    -0.4500 C.2   1 <1>  -0.1500 
 12 N        6.1570     0.4510    -0.4970 N.ar  1 <1>  -0.6200 
 13 C        5.1570     2.4930     0.2420 C.ar  1 <1>  -0.1430 
 14 N        3.4670    -4.9760     1.6240 N.pl3 1 <1>   0.3000 
 15 C        4.3010    -5.4670     0.6830 C.2   1 <1>  -0.3320 
 16 C        7.3220     1.0730    -0.5250 C.ar  1 <1>   0.7710 
 17 C        6.3700     3.1070     0.1920 C.ar  1 <1>   0.2180 
 18 C        3.9200     3.2450     0.7410 C.3   1 <1>  -0.0170 
 19 C        5.3010    -6.5810     0.9300 C.3   1 <1>  -0.0600 
 20 N        7.4320     2.3690    -0.2010 N.ar  1 <1>  -0.1790 
 21 N        8.4420     0.3860    -0.8890 N.pl3 1 <1>  -0.8380 
 22 C        6.6140     4.5640     0.5790 C.3   1 <1>  -0.0170 
 23 C        4.2710     4.5260     1.5080 C.3   1 <1>  -0.1600 
 24 C        8.3970    -1.1000    -1.1010 C.3   1 <1>   0.1290 
 25 C        9.7950     0.9540    -1.1850 C.3   1 <1>   0.1290 
 26 C        5.3070     5.3510     0.7400 C.3   1 <1>  -0.1600 
 27 H        0.2500    -1.0960    -1.7180 H     1 <1>   0.4000 
 28 H        2.4290    -0.5770    -2.4390 H     1 <1>   0.0800 
 29 H        1.7780    -1.4150     0.3930 H     1 <1>   0.0800 
 30 H        2.0170     1.3770    -0.2170 H     1 <1>   0.0800 
 31 H        2.9460     1.5770    -1.7090 H     1 <1>   0.0800 
 32 H        4.5880    -1.5260    -0.5340 H     1 <1>   0.0800 
 33 H        3.9480    -1.2670     1.0780 H     1 <1>   0.0800 
 34 H        2.9660    -2.8850    -1.9810 H     1 <1>   0.0800 
 35 H        1.4090    -3.1680    -1.2550 H     1 <1>   0.0800 
 36 H        4.5060    -4.8840    -1.4170 H     1 <1>   0.1500 
 37 H        3.4060    -5.2860     2.6020 H     1 <1>   0.2700 
 38 H        3.3050     3.5040    -0.1030 H     1 <1>   0.0800 
 39 H        3.3430     2.6070     1.3900 H     1 <1>   0.0800 
 40 H        5.8450    -6.7960     0.0270 H     1 <1>   0.0800 
 41 H        4.7930    -7.4750     1.2430 H     1 <1>   0.0800 
 42 H        6.0020    -6.2900     1.6910 H     1 <1>   0.0800 
 43 H        8.3700     2.7400    -0.2300 H     1 <1>   0.4570 
 44 H        7.1470     4.5860     1.5140 H     1 <1>   0.0800 
 45 H        7.2200     5.0520    -0.1640 H     1 <1>   0.0800 
 46 H        3.3770     5.1080     1.6580 H     1 <1>   0.0800 
 47 H        4.6600     4.2690     2.4800 H     1 <1>   0.0800 
 48 H        9.3220    -1.5510    -0.7830 H     1 <1>   0.0800 
 49 H        8.2440    -1.3150    -2.1450 H     1 <1>   0.0800 
 50 H        7.6000    -1.5550    -0.5370 H     1 <1>   0.0800 
 51 H       10.2040     0.4810    -2.0630 H     1 <1>   0.0800 
 52 H       10.4600     0.7650    -0.3580 H     1 <1>   0.0800 
 53 H        9.7550     2.0110    -1.3760 H     1 <1>   0.0800 
 54 H        5.5000     6.2740     1.2600 H     1 <1>   0.0800 
 55 H        4.9110     5.6000    -0.2310 H     1 <1>   0.0800 
@<TRIPOS>BOND
  1   1   2  1   
  2   1  27  1   
  3   2   3  1   
  4   2   4  1   
  5   2  28  1   
  6   3   5  1   
  7   3   6  1   
  8   3  29  1   
  9   4   7  1   
 10   4  30  1   
 11   4  31  1   
 12   5   7  1   
 13   5  32  1   
 14   5  33  1   
 15   6   8  1   
 16   6  34  1   
 17   6  35  1   
 18   7   9  1   
 19   8  10  2   
 20   8  11  1   
 21   9  12  ar  
 22   9  13  ar  
 23  10  14  1   
 24  11  15  2   
 25  11  36  1   
 26  12  16  ar  
 27  13  17  ar  
 28  13  18  1   
 29  14  15  1   
 30  14  37  1   
 31  15  19  1   
 32  16  20  ar  
 33  16  21  1   
 34  17  20  ar  
 35  17  22  1   
 36  18  23  1   
 37  18  38  1   
 38  18  39  1   
 39  19  40  1   
 40  19  41  1   
 41  19  42  1   
 42  20  43  1   
 43  21  24  1   
 44  21  25  1   
 45  22  26  1   
 46  22  44  1   
 47  22  45  1   
 48  23  26  1   
 49  23  46  1   
 50  23  47  1   
 51  24  48  1   
 52  24  49  1   
 53  24  50  1   
 54  25  51  1   
 55  25  52  1   
 56  25  53  1   
 57  26  54  1   
 58  26  55  1   
@<TRIPOS>SUBSTRUCTURE
  1 ****   7 GROUP 4 **** **** 0

# MOE 2024.06 (io_trps.svl 2023.06)
