@<TRIPOS>MOLECULE
NONAME
55 59 1 0 0 
SMALL
USER_CHARGES


@<TRIPOS>ATOM
  1 S       -0.6670     0.8610     1.7280 S.o2  1 <1>   1.5010 
  2 O       -1.3800    -0.2930     2.2350 O.2   1 <1>  -0.6500 
  3 O       -0.4560     1.9990     2.5950 O.2   1 <1>  -0.6500 
  4 N       -1.5640     1.4340     0.4030 N.am  1 <1>  -0.8490 
  5 C        0.8920     0.3570     0.9770 C.2   1 <1>  -0.0630 
  6 C       -2.0310     0.3470    -0.4830 C.3   1 <1>   0.1960 
  7 C       -2.7700     2.1530     0.8120 C.3   1 <1>   0.1960 
  8 C        1.8040     1.0980     0.3060 C.2   1 <1>  -0.0400 
  9 C        1.4160    -0.9440     0.9600 C.2   1 <1>  -0.1500 
 10 C       -3.5170     0.1310    -0.1720 C.3   1 <1>   0.2800 
 11 C       -3.8730     1.0950     0.9500 C.3   1 <1>  -0.0800 
 12 O        2.8080     0.3510    -0.1030 O.3   1 <1>  -0.2800 
 13 C        1.8350     2.5760    -0.0250 C.3   1 <1>  -0.0600 
 14 C        2.5930    -0.8990     0.2860 C.2   1 <1>   0.1410 
 15 O       -4.3560     0.5870    -1.1770 O.3   1 <1>  -0.5600 
 16 C       -4.0760    -1.2640     0.0890 C.3   1 <1>  -0.1600 
 17 C       -5.3520     1.4200     0.6270 C.3   1 <1>  -0.0800 
 18 C        3.5370    -1.9470    -0.0240 C.2   1 <1>   0.2880 
 19 C       -5.5760     0.4720    -0.5590 C.3   1 <1>   0.2000 
 20 C       -5.5700    -1.0050    -0.1330 C.3   1 <1>  -0.1600 
 21 C       -5.5760     2.8820     0.2100 C.3   1 <1>   0.3430 
 22 N        3.3790    -3.2070     0.3090 N.2   1 <1>  -0.7070 
 23 C        4.7400    -1.7690    -0.7150 C.2   1 <1>  -0.1500 
 24 N       -7.0050     3.1790    -0.1270 N.4   1 <1>  -0.9590 
 25 N        4.4690    -3.8370    -0.1600 N.pl3 1 <1>   0.3000 
 26 C        5.3080    -2.9890    -0.7840 C.2   1 <1>  -0.3020 
 27 C       -7.1040     4.5110    -0.8020 C.3   1 <1>   0.2630 
 28 C       -7.9010     3.1400     1.0730 C.3   1 <1>   0.2630 
 29 H       -1.9190     0.6430    -1.5120 H     1 <1>   0.0800 
 30 H       -1.4720    -0.5590    -0.3230 H     1 <1>   0.0800 
 31 H       -2.6260     2.7090     1.7240 H     1 <1>   0.0800 
 32 H       -3.0020     2.8470     0.0230 H     1 <1>   0.0800 
 33 H        0.9610    -1.8120     1.4050 H     1 <1>   0.1500 
 34 H       -3.7840     0.6130     1.9090 H     1 <1>   0.0800 
 35 H        0.9690     3.0740     0.3720 H     1 <1>   0.0800 
 36 H        1.8550     2.7090    -1.0910 H     1 <1>   0.0800 
 37 H        2.7150     3.0230     0.3990 H     1 <1>   0.0800 
 38 H       -3.6900    -1.9600    -0.6350 H     1 <1>   0.0800 
 39 H       -3.8470    -1.6120     1.0820 H     1 <1>   0.0800 
 40 H       -5.9780     1.1600     1.4610 H     1 <1>   0.0800 
 41 H       -6.3750     0.7290    -1.2320 H     1 <1>   0.0800 
 42 H       -6.1540    -1.1730     0.7550 H     1 <1>   0.0800 
 43 H       -5.9480    -1.6240    -0.9280 H     1 <1>   0.0800 
 44 H       -4.9620     3.0790    -0.6560 H     1 <1>   0.0800 
 45 H       -5.2500     3.5350     1.0030 H     1 <1>   0.0800 
 46 H        5.0990    -0.8290    -1.0950 H     1 <1>   0.1500 
 47 H       -7.3260     2.4690    -0.8030 H     1 <1>   0.4500 
 48 H        4.6130    -4.8470    -0.0380 H     1 <1>   0.2700 
 49 H        6.2370    -3.2960    -1.2300 H     1 <1>   0.1500 
 50 H       -6.7730     5.2940    -0.1390 H     1 <1>   0.0800 
 51 H       -8.1250     4.7110    -1.0880 H     1 <1>   0.0800 
 52 H       -6.4920     4.5280    -1.6890 H     1 <1>   0.0800 
 53 H       -7.5780     3.8610     1.8070 H     1 <1>   0.0800 
 54 H       -7.8900     2.1610     1.5220 H     1 <1>   0.0800 
 55 H       -8.9160     3.3710     0.7890 H     1 <1>   0.0800 
@<TRIPOS>BOND
  1   1   2  2   
  2   1   3  2   
  3   1   4  am  
  4   1   5  1   
  5   4   6  1   
  6   4   7  1   
  7   5   8  2   
  8   5   9  1   
  9   6  10  1   
 10   6  29  1   
 11   6  30  1   
 12   7  11  1   
 13   7  31  1   
 14   7  32  1   
 15   8  12  1   
 16   8  13  1   
 17   9  14  2   
 18   9  33  1   
 19  10  11  1   
 20  10  15  1   
 21  10  16  1   
 22  11  17  1   
 23  11  34  1   
 24  12  14  1   
 25  13  35  1   
 26  13  36  1   
 27  13  37  1   
 28  14  18  1   
 29  15  19  1   
 30  16  20  1   
 31  16  38  1   
 32  16  39  1   
 33  17  19  1   
 34  17  21  1   
 35  17  40  1   
 36  18  22  2   
 37  18  23  1   
 38  19  20  1   
 39  19  41  1   
 40  20  42  1   
 41  20  43  1   
 42  21  24  1   
 43  21  44  1   
 44  21  45  1   
 45  22  25  1   
 46  23  26  2   
 47  23  46  1   
 48  24  27  1   
 49  24  28  1   
 50  24  47  1   
 51  25  26  1   
 52  25  48  1   
 53  26  49  1   
 54  27  50  1   
 55  27  51  1   
 56  27  52  1   
 57  28  53  1   
 58  28  54  1   
 59  28  55  1   
@<TRIPOS>SUBSTRUCTURE
  1 ****   6 GROUP 4 **** **** 0

# MOE 2024.06 (io_trps.svl 2023.06)
