@<TRIPOS>MOLECULE
NONAME
54 56 1 0 0 
SMALL
USER_CHARGES


@<TRIPOS>ATOM
  1 O        3.8350     3.2100     0.3470 O.co2 1 <1>  -0.9000 
  2 C        3.8620     1.9870     0.5640 C.2   1 <1>   0.9060 
  3 O        4.6290     1.5820     1.4380 O.co2 1 <1>  -0.9000 
  4 C        3.1640     1.0080    -0.3990 C.3   1 <1>  -0.1060 
  5 C        4.1020    -0.2250    -0.5850 C.3   1 <1>   0.2000 
  6 C        3.0330     1.6620    -1.8040 C.3   1 <1>  -0.1600 
  7 C        1.7650     0.5840     0.1500 C.3   1 <1>  -0.1600 
  8 O        3.3890    -1.2870    -1.1400 O.3   1 <1>  -0.6800 
  9 C        5.3250     0.0300    -1.5100 C.3   1 <1>   0.2090 
 10 C        4.3760     2.2080    -2.3330 C.3   1 <1>   0.2090 
 11 C        0.8380     1.7280     0.6110 C.3   1 <1>  -0.1600 
 12 N        5.5640     1.4900    -1.7560 N.pl3 1 <1>  -0.8380 
 13 C        0.9700     2.0360     2.1080 C.3   1 <1>  -0.2400 
 14 C        6.6090     2.1020    -1.1680 C.ar  1 <1>   0.4610 
 15 N        6.4440     3.1180    -0.3160 N.ar  1 <1>  -0.1790 
 16 C        7.9320     1.6640    -1.4010 C.ar  1 <1>  -0.1500 
 17 C        7.4700     3.7830     0.3330 C.ar  1 <1>   0.3610 
 18 C        9.0040     2.2680    -0.8200 C.ar  1 <1>  -0.1440 
 19 C        8.7920     3.3720     0.0650 C.ar  1 <1>   0.0000 
 20 C        7.2190     4.8390     1.2340 C.ar  1 <1>  -0.1440 
 21 C       10.4110     1.7630    -1.1100 C.3   1 <1>  -0.0970 
 22 C        9.8360     4.0680     0.6910 C.ar  1 <1>  -0.1500 
 23 C        8.2770     5.4930     1.8420 C.ar  1 <1>  -0.1440 
 24 C        5.7680     5.2290     1.5350 C.3   1 <1>  -0.0970 
 25 C        9.5830     5.1010     1.5540 C.ar  1 <1>  -0.1500 
 26 C        8.0920     6.6360     2.8340 C.3   1 <1>  -0.0970 
 27 H        4.4530    -0.5660     0.3750 H     1 <1>   0.0800 
 28 H        2.3330     2.4770    -1.7790 H     1 <1>   0.0800 
 29 H        2.6510     0.9420    -2.5040 H     1 <1>   0.0800 
 30 H        1.2440     0.0460    -0.6220 H     1 <1>   0.0800 
 31 H        1.9040    -0.0940     0.9750 H     1 <1>   0.0800 
 32 H        2.5990    -1.4530    -0.5920 H     1 <1>   0.4000 
 33 H        5.1660    -0.4520    -2.4590 H     1 <1>   0.0800 
 34 H        6.1910    -0.4130    -1.0500 H     1 <1>   0.0800 
 35 H        4.4440     3.2580    -2.1030 H     1 <1>   0.0800 
 36 H        4.3960     2.1140    -3.4050 H     1 <1>   0.0800 
 37 H        1.0240     2.6250     0.0460 H     1 <1>   0.0800 
 38 H       -0.1810     1.4380     0.4240 H     1 <1>   0.0800 
 39 H        1.9620     2.3760     2.3490 H     1 <1>   0.0800 
 40 H        0.7550     1.1620     2.6960 H     1 <1>   0.0800 
 41 H        0.2780     2.8120     2.3820 H     1 <1>   0.0800 
 42 H        5.4730     3.2780     0.0230 H     1 <1>   0.4570 
 43 H        8.0490     0.8340    -2.0720 H     1 <1>   0.1500 
 44 H       10.3900     0.9220    -1.7800 H     1 <1>   0.0800 
 45 H       10.8890     1.4530    -0.1980 H     1 <1>   0.0800 
 46 H       10.9970     2.5400    -1.5680 H     1 <1>   0.0800 
 47 H       10.8570     3.7920     0.5020 H     1 <1>   0.1500 
 48 H        5.6800     6.1230     2.1190 H     1 <1>   0.0800 
 49 H        5.2850     4.4360     2.0820 H     1 <1>   0.0800 
 50 H        5.2230     5.3980     0.6230 H     1 <1>   0.0800 
 51 H       10.4080     5.6120     2.0210 H     1 <1>   0.1500 
 52 H        9.0340     6.9620     3.2370 H     1 <1>   0.0800 
 53 H        7.4740     6.3160     3.6540 H     1 <1>   0.0800 
 54 H        7.6280     7.4750     2.3480 H     1 <1>   0.0800 
@<TRIPOS>BOND
  1   1   2  ar  
  2   2   3  ar  
  3   2   4  1   
  4   4   5  1   
  5   4   6  1   
  6   4   7  1   
  7   5   8  1   
  8   5   9  1   
  9   5  27  1   
 10   6  10  1   
 11   6  28  1   
 12   6  29  1   
 13   7  11  1   
 14   7  30  1   
 15   7  31  1   
 16   8  32  1   
 17   9  12  1   
 18   9  33  1   
 19   9  34  1   
 20  10  12  1   
 21  10  35  1   
 22  10  36  1   
 23  11  13  1   
 24  11  37  1   
 25  11  38  1   
 26  12  14  1   
 27  13  39  1   
 28  13  40  1   
 29  13  41  1   
 30  14  15  ar  
 31  14  16  ar  
 32  15  17  ar  
 33  15  42  1   
 34  16  18  ar  
 35  16  43  1   
 36  17  19  ar  
 37  17  20  ar  
 38  18  19  ar  
 39  18  21  1   
 40  19  22  ar  
 41  20  23  ar  
 42  20  24  1   
 43  21  44  1   
 44  21  45  1   
 45  21  46  1   
 46  22  25  ar  
 47  22  47  1   
 48  23  25  ar  
 49  23  26  1   
 50  24  48  1   
 51  24  49  1   
 52  24  50  1   
 53  25  51  1   
 54  26  52  1   
 55  26  53  1   
 56  26  54  1   
@<TRIPOS>SUBSTRUCTURE
  1 ****  15 GROUP 4 **** **** 0

# MOE 2024.06 (io_trps.svl 2023.06)
