@<TRIPOS>MOLECULE
NONAME
42 44 1 0 0 
SMALL
USER_CHARGES


@<TRIPOS>ATOM
  1 O        1.2200     0.2240    -1.2170 O.3   1 <1>  -0.6800 
  2 C        1.6670     0.2950     0.0890 C.3   1 <1>   0.2800 
  3 C        3.2220     0.2000     0.1360 C.3   1 <1>  -0.0800 
  4 C        1.0410    -0.9000     0.8310 C.3   1 <1>  -0.1600 
  5 C        1.1330     1.6200     0.6780 C.3   1 <1>  -0.1600 
  6 C        3.7860    -1.2050     0.3950 C.3   1 <1>  -0.0800 
  7 C        3.9670     0.6650    -1.1170 C.3   1 <1>   0.2090 
  8 C        1.4770    -2.2730     0.2730 C.3   1 <1>  -0.1600 
  9 C        1.6200     2.9030    -0.0180 C.3   1 <1>  -0.2400 
 10 C        2.9160    -2.2810    -0.2750 C.3   1 <1>  -0.1600 
 11 C        5.2140    -1.1640    -0.1600 C.3   1 <1>   0.2090 
 12 N        5.3030     0.0230    -1.0500 N.pl3 1 <1>  -0.8380 
 13 C        6.3760     0.8730    -0.8470 C.ar  1 <1>   0.4100 
 14 N        6.4150     1.5260     0.3080 N.ar  1 <1>  -0.6200 
 15 C        7.3610     1.0250    -1.8340 C.ar  1 <1>   0.1600 
 16 C        7.4680     2.3160     0.4110 C.ar  1 <1>   0.1670 
 17 N        8.4180     1.8120    -1.7390 N.ar  1 <1>  -0.6200 
 18 C        8.4360     2.4530    -0.5800 C.ar  1 <1>   0.1600 
 19 C        7.5760     3.0960     1.7060 C.3   1 <1>  -0.0970 
 20 H        0.2470     0.2360    -1.2240 H     1 <1>   0.4000 
 21 H        3.5710     0.8140     0.9480 H     1 <1>   0.0800 
 22 H        1.3480    -0.8440     1.8610 H     1 <1>   0.0800 
 23 H       -0.0330    -0.8300     0.8240 H     1 <1>   0.0800 
 24 H        0.0570     1.6040     0.6530 H     1 <1>   0.0800 
 25 H        1.4170     1.6730     1.7140 H     1 <1>   0.0800 
 26 H        3.8250    -1.4050     1.4520 H     1 <1>   0.0800 
 27 H        4.0490     1.7380    -1.1520 H     1 <1>   0.0800 
 28 H        3.4820     0.3240    -2.0150 H     1 <1>   0.0800 
 29 H        1.3850    -3.0060     1.0560 H     1 <1>   0.0800 
 30 H        0.8110    -2.5640    -0.5210 H     1 <1>   0.0800 
 31 H        1.4100     2.8690    -1.0730 H     1 <1>   0.0800 
 32 H        2.6770     3.0360     0.1220 H     1 <1>   0.0800 
 33 H        1.1190     3.7580     0.4000 H     1 <1>   0.0800 
 34 H        2.8850    -2.0860    -1.3350 H     1 <1>   0.0800 
 35 H        3.3500    -3.2560    -0.1370 H     1 <1>   0.0800 
 36 H        5.4450    -2.0560    -0.7150 H     1 <1>   0.0800 
 37 H        5.9180    -1.0680     0.6500 H     1 <1>   0.0800 
 38 H        7.2370     0.4540    -2.7340 H     1 <1>   0.1500 
 39 H        9.2620     3.1200    -0.4130 H     1 <1>   0.1500 
 40 H        8.4500     3.7210     1.7130 H     1 <1>   0.0800 
 41 H        7.6300     2.4110     2.5330 H     1 <1>   0.0800 
 42 H        6.7050     3.7130     1.8260 H     1 <1>   0.0800 
@<TRIPOS>BOND
  1   1   2  1   
  2   1  20  1   
  3   2   3  1   
  4   2   4  1   
  5   2   5  1   
  6   3   6  1   
  7   3   7  1   
  8   3  21  1   
  9   4   8  1   
 10   4  22  1   
 11   4  23  1   
 12   5   9  1   
 13   5  24  1   
 14   5  25  1   
 15   6  10  1   
 16   6  11  1   
 17   6  26  1   
 18   7  12  1   
 19   7  27  1   
 20   7  28  1   
 21   8  10  1   
 22   8  29  1   
 23   8  30  1   
 24   9  31  1   
 25   9  32  1   
 26   9  33  1   
 27  10  34  1   
 28  10  35  1   
 29  11  12  1   
 30  11  36  1   
 31  11  37  1   
 32  12  13  1   
 33  13  14  ar  
 34  13  15  ar  
 35  14  16  ar  
 36  15  17  ar  
 37  15  38  1   
 38  16  18  ar  
 39  16  19  1   
 40  17  18  ar  
 41  18  39  1   
 42  19  40  1   
 43  19  41  1   
 44  19  42  1   
@<TRIPOS>SUBSTRUCTURE
  1 ****   7 GROUP 4 **** **** 0

# MOE 2024.06 (io_trps.svl 2023.06)
