@<TRIPOS>MOLECULE
NONAME
52 55 1 0 0 
SMALL
USER_CHARGES


@<TRIPOS>ATOM
  1 O        0.1950     0.4830    -0.8500 O.2   1 <1>  -0.5700 
  2 C        0.2130     1.6760    -0.6930 C.2   1 <1>   0.5690 
  3 N        0.0880     2.5100    -1.7500 N.am  1 <1>  -0.7300 
  4 C        0.3950     2.2430     0.7050 C.3   1 <1>  -0.0990 
  5 C       -0.0650     3.9860    -1.6810 C.3   1 <1>   0.1400 
  6 C       -0.0170     3.7230     0.8260 C.3   1 <1>  -0.1600 
  7 C        0.5210     4.5370    -0.3680 C.3   1 <1>  -0.0190 
  8 C        0.2130     6.0290    -0.2130 C.2   1 <1>   0.5690 
  9 O       -0.8340     6.4290    -0.6660 O.2   1 <1>  -0.5700 
 10 N        1.0870     6.8850     0.4210 N.am  1 <1>  -0.6600 
 11 C        2.3410     6.4600     1.1170 C.3   1 <1>   0.1400 
 12 C        0.7350     8.3310     0.5460 C.3   1 <1>   0.1400 
 13 C        3.5700     6.6190     0.2050 C.3   1 <1>   0.1100 
 14 C        1.9430     9.2750     0.4830 C.3   1 <1>  -0.1600 
 15 N        4.0230     8.0210     0.0430 N.3   1 <1>  -0.8100 
 16 C        2.9890     8.8850    -0.5640 C.3   1 <1>   0.1100 
 17 C        5.2830     8.0750    -0.7270 C.3   1 <1>   0.2780 
 18 C        6.0920     9.3150    -0.3490 C.2   1 <1>   0.1820 
 19 N        7.2050     9.7560    -1.0240 N.pl3 1 <1>  -0.7000 
 20 C        5.8800    10.1620     0.6780 C.2   1 <1>   0.2000 
 21 C        7.6570    10.8620    -0.4090 C.cat 1 <1>   0.7910 
 22 N        6.8560    11.1370     0.6470 N.pl3 1 <1>  -0.6290 
 23 C        8.7570    11.6860    -0.7020 C.2   1 <1>  -0.1410 
 24 C        7.1040    12.2260     1.4520 C.2   1 <1>   0.2290 
 25 C        9.0160    12.7740     0.0880 C.2   1 <1>  -0.1500 
 26 C        8.1670    13.0390     1.1830 C.2   1 <1>  -0.1500 
 27 H       -0.0800     2.0640    -2.6540 H     1 <1>   0.3700 
 28 H        1.4330     2.1360     0.9630 H     1 <1>   0.0800 
 29 H       -0.1770     1.6500     1.3960 H     1 <1>   0.0800 
 30 H       -1.1150     4.2200    -1.7460 H     1 <1>   0.0800 
 31 H        0.4330     4.4400    -2.5200 H     1 <1>   0.0800 
 32 H        0.3440     4.1250     1.7560 H     1 <1>   0.0800 
 33 H       -1.0920     3.7910     0.8360 H     1 <1>   0.0800 
 34 H        1.5850     4.4120    -0.4330 H     1 <1>   0.0800 
 35 H        2.2600     5.4320     1.4160 H     1 <1>   0.0800 
 36 H        2.4790     7.0340     2.0170 H     1 <1>   0.0800 
 37 H        0.2050     8.4830     1.4720 H     1 <1>   0.0800 
 38 H        0.0640     8.6000    -0.2530 H     1 <1>   0.0800 
 39 H        3.3580     6.1830    -0.7570 H     1 <1>   0.0800 
 40 H        4.3690     6.0540     0.6530 H     1 <1>   0.0800 
 41 H        2.4000     9.3590     1.4530 H     1 <1>   0.0800 
 42 H        1.5630    10.2500     0.2370 H     1 <1>   0.0800 
 43 H        3.4450     9.7930    -0.9220 H     1 <1>   0.0800 
 44 H        2.5240     8.3970    -1.4070 H     1 <1>   0.0800 
 45 H        5.0690     8.0740    -1.7820 H     1 <1>   0.0800 
 46 H        5.8860     7.2110    -0.5060 H     1 <1>   0.0800 
 47 H        7.6390     9.3370    -1.8500 H     1 <1>   0.4500 
 48 H        5.1010    10.1270     1.4230 H     1 <1>   0.1500 
 49 H        9.3750    11.4440    -1.5460 H     1 <1>   0.1500 
 50 H        6.4410    12.4080     2.2840 H     1 <1>   0.1500 
 51 H        9.8510    13.4300    -0.1040 H     1 <1>   0.1500 
 52 H        8.3760    13.8960     1.8030 H     1 <1>   0.1500 
@<TRIPOS>BOND
  1   1   2  2   
  2   2   3  am  
  3   2   4  1   
  4   3   5  1   
  5   3  27  1   
  6   4   6  1   
  7   4  28  1   
  8   4  29  1   
  9   5   7  1   
 10   5  30  1   
 11   5  31  1   
 12   6   7  1   
 13   6  32  1   
 14   6  33  1   
 15   7   8  1   
 16   7  34  1   
 17   8   9  2   
 18   8  10  am  
 19  10  11  1   
 20  10  12  1   
 21  11  13  1   
 22  11  35  1   
 23  11  36  1   
 24  12  14  1   
 25  12  37  1   
 26  12  38  1   
 27  13  15  1   
 28  13  39  1   
 29  13  40  1   
 30  14  16  1   
 31  14  41  1   
 32  14  42  1   
 33  15  16  1   
 34  15  17  1   
 35  16  43  1   
 36  16  44  1   
 37  17  18  1   
 38  17  45  1   
 39  17  46  1   
 40  18  19  1   
 41  18  20  2   
 42  19  21  ar  
 43  19  47  1   
 44  20  22  1   
 45  20  48  1   
 46  21  22  ar  
 47  21  23  1   
 48  22  24  1   
 49  23  25  2   
 50  23  49  1   
 51  24  26  2   
 52  24  50  1   
 53  25  26  1   
 54  25  51  1   
 55  26  52  1   
@<TRIPOS>SUBSTRUCTURE
  1 ****  15 GROUP 4 **** **** 0

# MOE 2024.06 (io_trps.svl 2023.06)
