@<TRIPOS>MOLECULE
NONAME
47 49 1 0 0 
SMALL
USER_CHARGES


@<TRIPOS>ATOM
  1 O       -2.2520    -3.2730    -0.8630 O.co2 1 <1>  -0.9000 
  2 C       -2.9550    -2.3480    -1.3070 C.2   1 <1>   1.0330 
  3 O       -3.9590    -2.6990    -1.9660 O.co2 1 <1>  -0.9000 
  4 C       -2.9880    -1.0460    -0.6340 C.2   1 <1>   0.0560 
  5 N       -2.6000     0.1530    -1.0360 N.2   1 <1>  -0.7070 
  6 C       -3.5670    -0.9610     0.6420 C.2   1 <1>  -0.1810 
  7 N       -2.9200     0.9870    -0.0370 N.pl3 1 <1>   0.3000 
  8 C       -3.5110     0.3410     0.9890 C.2   1 <1>  -0.3020 
  9 C       -4.0870    -2.1870     1.3750 C.3   1 <1>   0.5240 
 10 N       -5.0870    -2.8660     0.5180 N.4   1 <1>  -0.9590 
 11 C       -4.9570    -4.3580     0.5240 C.3   1 <1>   0.3430 
 12 C       -6.4920    -2.3830     0.5780 C.3   1 <1>   0.3430 
 13 C       -5.9240    -5.0070    -0.4880 C.3   1 <1>   0.3430 
 14 C       -7.3690    -3.1350    -0.4540 C.3   1 <1>   0.2000 
 15 O       -7.2280    -4.5200    -0.2680 O.3   1 <1>  -0.5600 
 16 C       -5.8900    -6.5230    -0.3310 C.ar  1 <1>  -0.1430 
 17 C       -8.8660    -2.7750    -0.3370 C.3   1 <1>  -0.0800 
 18 C       -6.8430    -7.2150     0.4050 C.ar  1 <1>  -0.1500 
 19 C       -4.8600    -7.2320    -0.9340 C.ar  1 <1>  -0.1500 
 20 C       -9.7100    -3.5500    -1.3620 C.3   1 <1>  -0.2400 
 21 C       -9.1100    -1.2690    -0.5340 C.3   1 <1>  -0.2400 
 22 C       -6.7650    -8.5910     0.5390 C.ar  1 <1>  -0.1500 
 23 C       -4.7810    -8.6070    -0.8010 C.ar  1 <1>  -0.1500 
 24 C       -5.7330    -9.2880    -0.0640 C.ar  1 <1>  -0.1500 
 25 H       -2.7170     1.9930    -0.0870 H     1 <1>   0.2700 
 26 H       -3.8360     0.8450     1.8820 H     1 <1>   0.1500 
 27 H       -4.5160    -1.9150     2.3230 H     1 <1>   0.0800 
 28 H       -3.2510    -2.8490     1.5450 H     1 <1>   0.0800 
 29 H       -4.7790    -2.6520    -0.4610 H     1 <1>   0.4500 
 30 H       -3.9490    -4.6330     0.2550 H     1 <1>   0.0800 
 31 H       -5.1670    -4.7510     1.5030 H     1 <1>   0.0800 
 32 H       -6.8970    -2.5410     1.5620 H     1 <1>   0.0800 
 33 H       -6.5180    -1.3280     0.3630 H     1 <1>   0.0800 
 34 H       -5.6300    -4.7460    -1.4920 H     1 <1>   0.0800 
 35 H       -7.0300    -2.8960    -1.4490 H     1 <1>   0.0800 
 36 H       -9.2040    -3.0440     0.6500 H     1 <1>   0.0800 
 37 H       -7.6550    -6.6880     0.8770 H     1 <1>   0.1500 
 38 H       -4.1100    -6.7160    -1.5130 H     1 <1>   0.1500 
 39 H       -9.3920    -3.3240    -2.3650 H     1 <1>   0.0800 
 40 H      -10.7500    -3.2950    -1.2660 H     1 <1>   0.0800 
 41 H       -9.6130    -4.6110    -1.2070 H     1 <1>   0.0800 
 42 H       -8.7400    -0.9480    -1.4930 H     1 <1>   0.0800 
 43 H       -8.6330    -0.6870     0.2350 H     1 <1>   0.0800 
 44 H      -10.1640    -1.0570    -0.4930 H     1 <1>   0.0800 
 45 H       -7.5090    -9.1190     1.1090 H     1 <1>   0.1500 
 46 H       -3.9790    -9.1470    -1.2730 H     1 <1>   0.1500 
 47 H       -5.6730   -10.3580     0.0380 H     1 <1>   0.1500 
@<TRIPOS>BOND
  1   1   2  ar  
  2   2   3  ar  
  3   2   4  1   
  4   4   5  2   
  5   4   6  1   
  6   5   7  1   
  7   6   8  2   
  8   6   9  1   
  9   7   8  1   
 10   7  25  1   
 11   8  26  1   
 12   9  10  1   
 13   9  27  1   
 14   9  28  1   
 15  10  11  1   
 16  10  12  1   
 17  10  29  1   
 18  11  13  1   
 19  11  30  1   
 20  11  31  1   
 21  12  14  1   
 22  12  32  1   
 23  12  33  1   
 24  13  15  1   
 25  13  16  1   
 26  13  34  1   
 27  14  15  1   
 28  14  17  1   
 29  14  35  1   
 30  16  18  ar  
 31  16  19  ar  
 32  17  20  1   
 33  17  21  1   
 34  17  36  1   
 35  18  22  ar  
 36  18  37  1   
 37  19  23  ar  
 38  19  38  1   
 39  20  39  1   
 40  20  40  1   
 41  20  41  1   
 42  21  42  1   
 43  21  43  1   
 44  21  44  1   
 45  22  24  ar  
 46  22  45  1   
 47  23  24  ar  
 48  23  46  1   
 49  24  47  1   
@<TRIPOS>SUBSTRUCTURE
  1 ****  11 GROUP 4 **** **** 0

# MOE 2024.06 (io_trps.svl 2023.06)
