@<TRIPOS>MOLECULE
NONAME
44 46 1 0 0 
SMALL
USER_CHARGES


@<TRIPOS>ATOM
  1 F       -0.5500    -0.5850    -0.7690 F     1 <1>  -0.1900 
  2 C       -1.7020    -1.1440    -0.4570 C.ar  1 <1>   0.1900 
  3 C       -2.9090    -0.4640    -0.5900 C.ar  1 <1>   0.4100 
  4 C       -1.7170    -2.4270     0.0100 C.ar  1 <1>   0.1600 
  5 N       -4.0380    -1.0520    -0.2740 N.ar  1 <1>  -0.6200 
  6 N       -3.0690     0.8240    -1.0420 N.pl3 1 <1>  -0.8690 
  7 N       -2.8450    -3.0280     0.3340 N.ar  1 <1>  -0.6200 
  8 C       -3.9560    -2.3040     0.1720 C.ar  1 <1>   0.7200 
  9 C       -2.1330     1.9190    -0.6940 C.3   1 <1>   0.1290 
 10 N       -5.1390    -2.9160     0.5180 N.pl3 1 <1>  -0.8380 
 11 C       -6.4590    -2.3420     0.1720 C.3   1 <1>   0.2090 
 12 C       -5.2510    -4.3750     0.7330 C.3   1 <1>   0.2090 
 13 C       -7.4770    -3.3690     0.6820 C.3   1 <1>  -0.0800 
 14 C       -6.7380    -4.7170     0.5770 C.3   1 <1>  -0.0800 
 15 C       -8.8870    -3.3330     0.0170 C.3   1 <1>   0.2800 
 16 C       -7.0470    -5.4120    -0.7580 C.3   1 <1>  -0.1600 
 17 O       -8.7990    -2.8380    -1.2710 O.3   1 <1>  -0.6800 
 18 C       -9.4530    -4.7600    -0.1010 C.3   1 <1>  -0.1600 
 19 C       -9.8850    -2.4320     0.7780 C.3   1 <1>  -0.1600 
 20 C       -8.5490    -5.7200    -0.9050 C.3   1 <1>  -0.1600 
 21 C       -9.4880    -0.9500     0.9000 C.3   1 <1>  -0.2400 
 22 H       -0.7970    -2.9710     0.1200 H     1 <1>   0.1500 
 23 H       -4.0590     1.0910    -1.0250 H     1 <1>   0.4000 
 24 H       -1.7400     1.7700     0.2970 H     1 <1>   0.0800 
 25 H       -2.6470     2.8640    -0.7300 H     1 <1>   0.0800 
 26 H       -1.3190     1.9370    -1.3990 H     1 <1>   0.0800 
 27 H       -6.5900    -1.3830     0.6380 H     1 <1>   0.0800 
 28 H       -6.5070    -2.2280    -0.8970 H     1 <1>   0.0800 
 29 H       -4.6470    -4.9130     0.0220 H     1 <1>   0.0800 
 30 H       -4.9150    -4.6040     1.7290 H     1 <1>   0.0800 
 31 H       -7.6020    -3.1820     1.7330 H     1 <1>   0.0800 
 32 H       -7.0330    -5.3710     1.3780 H     1 <1>   0.0800 
 33 H       -6.7440    -4.7590    -1.5610 H     1 <1>   0.0800 
 34 H       -6.4800    -6.3220    -0.8490 H     1 <1>   0.0800 
 35 H       -9.6750    -2.8790    -1.6920 H     1 <1>   0.4000 
 36 H       -9.5590    -5.1550     0.8940 H     1 <1>   0.0800 
 37 H      -10.4370    -4.7430    -0.5340 H     1 <1>   0.0800 
 38 H      -10.8440    -2.4900     0.2940 H     1 <1>   0.0800 
 39 H      -10.0160    -2.8270     1.7700 H     1 <1>   0.0800 
 40 H       -8.7430    -6.7280    -0.5820 H     1 <1>   0.0800 
 41 H       -8.8040    -5.6610    -1.9500 H     1 <1>   0.0800 
 42 H       -9.2860    -0.5270    -0.0690 H     1 <1>   0.0800 
 43 H       -8.6160    -0.8370     1.5170 H     1 <1>   0.0800 
 44 H      -10.2900    -0.3940     1.3520 H     1 <1>   0.0800 
@<TRIPOS>BOND
  1   1   2  1   
  2   2   3  ar  
  3   2   4  ar  
  4   3   5  ar  
  5   3   6  1   
  6   4   7  ar  
  7   4  22  1   
  8   5   8  ar  
  9   6   9  1   
 10   6  23  1   
 11   7   8  ar  
 12   8  10  1   
 13   9  24  1   
 14   9  25  1   
 15   9  26  1   
 16  10  11  1   
 17  10  12  1   
 18  11  13  1   
 19  11  27  1   
 20  11  28  1   
 21  12  14  1   
 22  12  29  1   
 23  12  30  1   
 24  13  14  1   
 25  13  15  1   
 26  13  31  1   
 27  14  16  1   
 28  14  32  1   
 29  15  17  1   
 30  15  18  1   
 31  15  19  1   
 32  16  20  1   
 33  16  33  1   
 34  16  34  1   
 35  17  35  1   
 36  18  20  1   
 37  18  36  1   
 38  18  37  1   
 39  19  21  1   
 40  19  38  1   
 41  19  39  1   
 42  20  40  1   
 43  20  41  1   
 44  21  42  1   
 45  21  43  1   
 46  21  44  1   
@<TRIPOS>SUBSTRUCTURE
  1 ****  10 GROUP 4 **** **** 0

# MOE 2024.06 (io_trps.svl 2023.06)
