@<TRIPOS>MOLECULE
NONAME
47 50 1 0 0 
SMALL
USER_CHARGES


@<TRIPOS>ATOM
  1 F        0.8250    -1.4840     2.4880 F     1 <1>  -0.3400 
  2 C        0.4760    -1.4190     1.2050 C.3   1 <1>   0.7810 
  3 F       -0.8410    -1.2240     1.2290 F     1 <1>  -0.3400 
  4 C        0.8040    -2.7370     0.4920 C.2   1 <1>   0.1080 
  5 N        1.5090    -2.8260    -0.6040 N.2   1 <1>  -0.7070 
  6 C        0.3900    -3.9850     0.9260 C.2   1 <1>  -0.1500 
  7 N        1.5610    -4.1380    -0.8830 N.pl3 1 <1>   0.3140 
  8 C        0.8730    -4.8820     0.0220 C.2   1 <1>  -0.2370 
  9 C        2.2990    -4.6130    -2.0660 C.3   1 <1>   0.0160 
 10 C        0.7360    -6.3120    -0.0260 C.2   1 <1>   0.7150 
 11 O        1.5990    -6.9960    -0.5440 O.2   1 <1>  -0.5700 
 12 N       -0.3730    -6.9380     0.4920 N.am  1 <1>  -0.6600 
 13 C       -0.3950    -8.4120     0.7610 C.3   1 <1>   0.1400 
 14 C       -1.7430    -6.3410     0.4430 C.3   1 <1>   0.1400 
 15 C       -1.3920    -9.1290    -0.1680 C.3   1 <1>   0.3440 
 16 C       -2.6770    -7.1760    -0.4560 C.3   1 <1>   0.2950 
 17 O       -2.6550    -8.5210    -0.0760 O.3   1 <1>  -0.5600 
 18 C       -1.5020   -10.6050     0.2030 C.ar  1 <1>  -0.1440 
 19 C       -4.1260    -6.6930    -0.3570 C.3   1 <1>  -0.1950 
 20 C       -2.4340   -11.0570     1.1270 C.ar  1 <1>  -0.1500 
 21 C       -0.6410   -11.5210    -0.3860 C.ar  1 <1>  -0.1500 
 22 C       -5.1100    -6.9660    -1.4500 C.3   1 <1>  -0.2000 
 23 C       -4.6240    -5.5640    -1.2060 C.3   1 <1>  -0.2000 
 24 C       -2.5050   -12.3990     1.4580 C.ar  1 <1>  -0.1500 
 25 C       -0.7090   -12.8640    -0.0560 C.ar  1 <1>  -0.1500 
 26 C       -1.6420   -13.3040     0.8660 C.ar  1 <1>  -0.1500 
 27 H        0.9440    -0.5580     0.7640 H     1 <1>   0.0800 
 28 H       -0.1940    -4.1800     1.8090 H     1 <1>   0.1500 
 29 H        1.6550    -5.2310    -2.6630 H     1 <1>   0.0800 
 30 H        3.1500    -5.1830    -1.7430 H     1 <1>   0.0800 
 31 H        2.6280    -3.7690    -2.6430 H     1 <1>   0.0800 
 32 H        0.5830    -8.8400     0.6290 H     1 <1>   0.0800 
 33 H       -0.6870    -8.5810     1.7820 H     1 <1>   0.0800 
 34 H       -2.1470    -6.3020     1.4390 H     1 <1>   0.0800 
 35 H       -1.7100    -5.3380     0.0570 H     1 <1>   0.0800 
 36 H       -1.0580    -9.0460    -1.1880 H     1 <1>   0.0800 
 37 H       -2.3480    -7.1130    -1.4790 H     1 <1>   0.0800 
 38 H       -4.4970    -6.7430     0.6520 H     1 <1>   0.1000 
 39 H       -3.1140   -10.3620     1.5910 H     1 <1>   0.1500 
 40 H        0.0910   -11.1950    -1.1050 H     1 <1>   0.1500 
 41 H       -4.7750    -7.4940    -2.3260 H     1 <1>   0.1000 
 42 H       -6.1180    -7.2260    -1.1760 H     1 <1>   0.1000 
 43 H       -5.3070    -4.8520    -0.7750 H     1 <1>   0.1000 
 44 H       -3.9740    -5.1180    -1.9390 H     1 <1>   0.1000 
 45 H       -3.2330   -12.7380     2.1740 H     1 <1>   0.1500 
 46 H       -0.0380   -13.5670    -0.5180 H     1 <1>   0.1500 
 47 H       -1.6960   -14.3480     1.1230 H     1 <1>   0.1500 
@<TRIPOS>BOND
  1   1   2  1   
  2   2   3  1   
  3   2   4  1   
  4   2  27  1   
  5   4   5  2   
  6   4   6  1   
  7   5   7  1   
  8   6   8  2   
  9   6  28  1   
 10   7   8  1   
 11   7   9  1   
 12   8  10  1   
 13   9  29  1   
 14   9  30  1   
 15   9  31  1   
 16  10  11  2   
 17  10  12  am  
 18  12  13  1   
 19  12  14  1   
 20  13  15  1   
 21  13  32  1   
 22  13  33  1   
 23  14  16  1   
 24  14  34  1   
 25  14  35  1   
 26  15  17  1   
 27  15  18  1   
 28  15  36  1   
 29  16  17  1   
 30  16  19  1   
 31  16  37  1   
 32  18  20  ar  
 33  18  21  ar  
 34  19  22  1   
 35  19  23  1   
 36  19  38  1   
 37  20  24  ar  
 38  20  39  1   
 39  21  25  ar  
 40  21  40  1   
 41  22  23  1   
 42  22  41  1   
 43  22  42  1   
 44  23  43  1   
 45  23  44  1   
 46  24  26  ar  
 47  24  45  1   
 48  25  26  ar  
 49  25  46  1   
 50  26  47  1   
@<TRIPOS>SUBSTRUCTURE
  1 ****  12 GROUP 4 **** **** 0

# MOE 2024.06 (io_trps.svl 2023.06)
