@<TRIPOS>MOLECULE
NONAME
36 38 1 0 0 
SMALL
USER_CHARGES


@<TRIPOS>ATOM
  1 O        7.5200     1.2030    -2.0240 O.2   1 <1>  -0.5700 
  2 C        7.1630     0.6240    -1.0300 C.2   1 <1>   0.5690 
  3 N        5.9100     0.0950    -0.9810 N.am  1 <1>  -0.4900 
  4 C        8.0880     0.4650     0.2020 C.3   1 <1>   0.2810 
  5 C        5.3600    -0.5900     0.0520 C.2   1 <1>   0.5690 
  6 N        9.5470     0.3490    -0.0970 N.am  1 <1>  -0.6600 
  7 C        7.6880    -0.7550     1.0510 C.3   1 <1>  -0.1600 
  8 O        4.2520    -1.0410    -0.0290 O.2   1 <1>  -0.5700 
  9 C        6.1720    -0.7730     1.3230 C.3   1 <1>  -0.0990 
 10 C       10.5350     0.8750     0.6750 C.2   1 <1>   0.5440 
 11 C       10.1150    -0.2720    -1.3280 C.3   1 <1>   0.2840 
 12 O       10.3410     1.4310     1.7370 O.2   1 <1>  -0.5700 
 13 C       11.8060     0.6360     0.0620 C.ar  1 <1>   0.0860 
 14 C       11.6080    -0.0530    -1.1180 C.ar  1 <1>  -0.1430 
 15 C       13.0920     0.9710     0.4630 C.ar  1 <1>  -0.1500 
 16 C       12.6750    -0.4250    -1.9120 C.ar  1 <1>  -0.1500 
 17 C       14.1750     0.5990    -0.3210 C.ar  1 <1>  -0.1430 
 18 C       13.9610    -0.0970    -1.5080 C.ar  1 <1>  -0.1500 
 19 C       15.5790     0.9490     0.1190 C.3   1 <1>   0.4860 
 20 N       15.9960    -0.0950     1.0740 N.4   1 <1>  -0.8530 
 21 H        5.3300     0.2160    -1.8070 H     1 <1>   0.3700 
 22 H        7.9470     1.3480     0.8020 H     1 <1>   0.0800 
 23 H        8.2220    -0.7360     1.9850 H     1 <1>   0.0800 
 24 H        7.9550    -1.6550     0.5240 H     1 <1>   0.0800 
 25 H        5.8960    -1.7060     1.7840 H     1 <1>   0.0800 
 26 H        5.9140     0.0190     2.0030 H     1 <1>   0.0800 
 27 H        9.7780     0.2400    -2.2130 H     1 <1>   0.0800 
 28 H        9.8700    -1.3190    -1.3750 H     1 <1>   0.0800 
 29 H       13.2020     1.5220     1.3830 H     1 <1>   0.1500 
 30 H       12.5100    -0.9580    -2.8350 H     1 <1>   0.1500 
 31 H       14.7850    -0.3870    -2.1400 H     1 <1>   0.1500 
 32 H       15.5860     1.9200     0.5900 H     1 <1>   0.0800 
 33 H       16.2400     0.9710    -0.7330 H     1 <1>   0.0800 
 34 H       15.3450    -0.1110     1.8660 H     1 <1>   0.4500 
 35 H       16.9480     0.0590     1.4210 H     1 <1>   0.4500 
 36 H       15.9420    -1.0120     0.6200 H     1 <1>   0.4500 
@<TRIPOS>BOND
  1   1   2  2   
  2   2   3  am  
  3   2   4  1   
  4   3   5  am  
  5   3  21  1   
  6   4   6  1   
  7   4   7  1   
  8   4  22  1   
  9   5   8  2   
 10   5   9  1   
 11   6  10  am  
 12   6  11  1   
 13   7   9  1   
 14   7  23  1   
 15   7  24  1   
 16   9  25  1   
 17   9  26  1   
 18  10  12  2   
 19  10  13  1   
 20  11  14  1   
 21  11  27  1   
 22  11  28  1   
 23  13  14  ar  
 24  13  15  ar  
 25  14  16  ar  
 26  15  17  ar  
 27  15  29  1   
 28  16  18  ar  
 29  16  30  1   
 30  17  18  ar  
 31  17  19  1   
 32  18  31  1   
 33  19  20  1   
 34  19  32  1   
 35  19  33  1   
 36  20  34  1   
 37  20  35  1   
 38  20  36  1   
@<TRIPOS>SUBSTRUCTURE
  1 ****   6 GROUP 4 **** **** 0

# MOE 2024.06 (io_trps.svl 2023.06)
