@<TRIPOS>MOLECULE
NONAME
45 47 1 0 0 
SMALL
USER_CHARGES


@<TRIPOS>ATOM
  1 F       -2.0840     0.1980     2.3050 F     1 <1>  -0.1900 
  2 C       -2.5870     0.8380     1.2800 C.ar  1 <1>   0.1900 
  3 C       -1.9640     1.9750     0.7940 C.ar  1 <1>   0.1900 
  4 C       -3.7440     0.3590     0.7000 C.ar  1 <1>  -0.1500 
  5 F       -0.8710     2.4250     1.3500 F     1 <1>  -0.1900 
  6 C       -2.4910     2.6530    -0.2890 C.ar  1 <1>  -0.1500 
  7 C       -4.3070     1.0310    -0.3880 C.ar  1 <1>   0.0860 
  8 C       -3.6550     2.1730    -0.8700 C.ar  1 <1>  -0.1500 
  9 C       -5.5280     0.5440    -1.0000 C.2   1 <1>   0.5440 
 10 O       -5.5920    -0.6230    -1.3340 O.2   1 <1>  -0.5700 
 11 N       -6.6200     1.3620    -1.1970 N.am  1 <1>  -0.6600 
 12 C       -6.8730     2.6170    -0.4430 C.3   1 <1>   0.1400 
 13 C       -7.7680     0.9500    -2.0510 C.3   1 <1>   0.1400 
 14 C       -8.0930     2.4170     0.4620 C.3   1 <1>  -0.1600 
 15 C       -9.0010     0.7420    -1.1700 C.3   1 <1>  -0.1600 
 16 C       -9.3460     1.9850    -0.3330 C.3   1 <1>   0.2800 
 17 O       -9.6460     2.9890    -1.2590 O.3   1 <1>  -0.5600 
 18 C      -10.5630     1.6700     0.5810 C.3   1 <1>  -0.1600 
 19 C      -10.2220     4.2090    -0.8530 C.3   1 <1>   0.1200 
 20 C      -11.7460     2.6440     0.4620 C.3   1 <1>   0.2800 
 21 C      -11.2170     4.0890     0.3180 C.3   1 <1>   0.2000 
 22 O      -12.4670     2.3210    -0.6720 O.3   1 <1>  -0.6800 
 23 C      -12.7280     2.4780     1.6270 C.3   1 <1>  -0.2400 
 24 O      -10.5750     4.4930     1.4930 O.3   1 <1>  -0.6800 
 25 H       -4.2130    -0.5310     1.0810 H     1 <1>   0.1500 
 26 H       -1.9980     3.5330    -0.6650 H     1 <1>   0.1500 
 27 H       -4.0750     2.6850    -1.7200 H     1 <1>   0.1500 
 28 H       -6.0250     2.8840     0.1610 H     1 <1>   0.0800 
 29 H       -7.0580     3.4170    -1.1400 H     1 <1>   0.0800 
 30 H       -7.9620     1.7210    -2.7780 H     1 <1>   0.0800 
 31 H       -7.5410     0.0430    -2.5840 H     1 <1>   0.0800 
 32 H       -8.2760     3.3240     1.0020 H     1 <1>   0.0800 
 33 H       -7.8510     1.6570     1.1830 H     1 <1>   0.0800 
 34 H       -8.8100    -0.0950    -0.5230 H     1 <1>   0.0800 
 35 H       -9.8400     0.4890    -1.7930 H     1 <1>   0.0800 
 36 H      -10.9160     0.6690     0.4130 H     1 <1>   0.0800 
 37 H      -10.2210     1.6780     1.6000 H     1 <1>   0.0800 
 38 H       -9.4340     4.9020    -0.6190 H     1 <1>   0.0800 
 39 H      -10.7520     4.5820    -1.7110 H     1 <1>   0.0800 
 40 H      -12.0380     4.7680     0.1700 H     1 <1>   0.0800 
 41 H      -12.7600     1.3930    -0.6260 H     1 <1>   0.4000 
 42 H      -12.2460     2.7140     2.5590 H     1 <1>   0.0800 
 43 H      -13.0910     1.4680     1.6830 H     1 <1>   0.0800 
 44 H      -13.5590     3.1500     1.5070 H     1 <1>   0.0800 
 45 H       -9.8460     3.8800     1.6940 H     1 <1>   0.4000 
@<TRIPOS>BOND
  1   1   2  1   
  2   2   3  ar  
  3   2   4  ar  
  4   3   5  1   
  5   3   6  ar  
  6   4   7  ar  
  7   4  25  1   
  8   6   8  ar  
  9   6  26  1   
 10   7   8  ar  
 11   7   9  1   
 12   8  27  1   
 13   9  10  2   
 14   9  11  am  
 15  11  12  1   
 16  11  13  1   
 17  12  14  1   
 18  12  28  1   
 19  12  29  1   
 20  13  15  1   
 21  13  30  1   
 22  13  31  1   
 23  14  16  1   
 24  14  32  1   
 25  14  33  1   
 26  15  16  1   
 27  15  34  1   
 28  15  35  1   
 29  16  17  1   
 30  16  18  1   
 31  17  19  1   
 32  18  20  1   
 33  18  36  1   
 34  18  37  1   
 35  19  21  1   
 36  19  38  1   
 37  19  39  1   
 38  20  21  1   
 39  20  22  1   
 40  20  23  1   
 41  21  24  1   
 42  21  40  1   
 43  22  41  1   
 44  23  42  1   
 45  23  43  1   
 46  23  44  1   
 47  24  45  1   
@<TRIPOS>SUBSTRUCTURE
  1 ****  12 GROUP 4 **** **** 0

# MOE 2024.06 (io_trps.svl 2023.06)
