@<TRIPOS>MOLECULE
NONAME
45 47 1 0 0 
SMALL
USER_CHARGES


@<TRIPOS>ATOM
  1 O        0.5620    -1.5770    -2.2180 O.3   1 <1>  -0.6800 
  2 C        0.0160    -1.8700    -0.9780 C.3   1 <1>   0.1200 
  3 C        1.0820    -1.8900     0.1570 C.3   1 <1>   0.0000 
  4 C        2.4040    -2.6390    -0.1970 C.3   1 <1>   0.4230 
  5 C        1.4220    -0.4320     0.5710 C.3   1 <1>  -0.1600 
  6 C        0.4470    -2.6010     1.3880 C.3   1 <1>  -0.1600 
  7 N        2.1950    -4.1000    -0.5840 N.4   1 <1>  -0.9590 
  8 C        3.3640    -1.8460    -1.1290 C.3   1 <1>   0.2090 
  9 C        2.3220     0.3070    -0.4230 C.3   1 <1>   0.2090 
 10 C        0.7990    -4.1000     1.4940 C.3   1 <1>  -0.1600 
 11 C        1.0510    -4.7530     0.1330 C.3   1 <1>   0.3430 
 12 C        2.0440    -4.3260    -2.0590 C.3   1 <1>   0.2630 
 13 N        3.5870    -0.4660    -0.6010 N.pl3 1 <1>  -0.8380 
 14 C        4.7940     0.0480    -0.2550 C.ar  1 <1>   0.4100 
 15 N        4.8390     0.8300     0.8060 N.ar  1 <1>  -0.6200 
 16 C        5.9510    -0.2360    -1.0080 C.ar  1 <1>  -0.1500 
 17 C        6.0020     1.3440     1.1430 C.ar  1 <1>   0.7710 
 18 C        7.1340     0.3080    -0.6330 C.ar  1 <1>   0.2110 
 19 N        7.1390     1.1060     0.4640 N.ar  1 <1>  -0.1790 
 20 N        6.0140     2.1300     2.2150 N.pl3 1 <1>  -0.9000 
 21 H       -0.1330    -1.2660    -2.8380 H     1 <1>   0.4000 
 22 H       -0.7350    -1.1280    -0.7650 H     1 <1>   0.0800 
 23 H       -0.4790    -2.8200    -1.0680 H     1 <1>   0.0800 
 24 H        2.9360    -2.6650     0.7380 H     1 <1>   0.0800 
 25 H        1.9410    -0.4220     1.5140 H     1 <1>   0.0800 
 26 H        0.5180     0.1360     0.7080 H     1 <1>   0.0800 
 27 H        0.7690    -2.1380     2.3070 H     1 <1>   0.0800 
 28 H       -0.6240    -2.4860     1.3620 H     1 <1>   0.0800 
 29 H        3.0440    -4.5950    -0.2810 H     1 <1>   0.4500 
 30 H        2.9690    -1.7690    -2.1250 H     1 <1>   0.0800 
 31 H        4.3010    -2.3700    -1.1750 H     1 <1>   0.0800 
 32 H        2.5290     1.2980    -0.0540 H     1 <1>   0.0800 
 33 H        1.8310     0.4190    -1.3750 H     1 <1>   0.0800 
 34 H       -0.0050    -4.6160     1.9900 H     1 <1>   0.0800 
 35 H        1.6750    -4.2290     2.1070 H     1 <1>   0.0800 
 36 H        0.1540    -4.6630    -0.4580 H     1 <1>   0.0800 
 37 H        1.2530    -5.8040     0.2640 H     1 <1>   0.0800 
 38 H        1.1650    -3.8260    -2.4290 H     1 <1>   0.0800 
 39 H        1.9510    -5.3790    -2.2690 H     1 <1>   0.0800 
 40 H        2.9010    -3.9490    -2.5920 H     1 <1>   0.0800 
 41 H        5.8690    -0.8630    -1.8760 H     1 <1>   0.1500 
 42 H        8.0550     0.1380    -1.1680 H     1 <1>   0.1500 
 43 H        7.9830     1.5550     0.8050 H     1 <1>   0.4570 
 44 H        6.7970     2.6240     2.6440 H     1 <1>   0.4000 
 45 H        5.1210     2.2840     2.6960 H     1 <1>   0.4000 
@<TRIPOS>BOND
  1   1   2  1   
  2   1  21  1   
  3   2   3  1   
  4   2  22  1   
  5   2  23  1   
  6   3   4  1   
  7   3   5  1   
  8   3   6  1   
  9   4   7  1   
 10   4   8  1   
 11   4  24  1   
 12   5   9  1   
 13   5  25  1   
 14   5  26  1   
 15   6  10  1   
 16   6  27  1   
 17   6  28  1   
 18   7  11  1   
 19   7  12  1   
 20   7  29  1   
 21   8  13  1   
 22   8  30  1   
 23   8  31  1   
 24   9  13  1   
 25   9  32  1   
 26   9  33  1   
 27  10  11  1   
 28  10  34  1   
 29  10  35  1   
 30  11  36  1   
 31  11  37  1   
 32  12  38  1   
 33  12  39  1   
 34  12  40  1   
 35  13  14  1   
 36  14  15  ar  
 37  14  16  ar  
 38  15  17  ar  
 39  16  18  ar  
 40  16  41  1   
 41  17  19  ar  
 42  17  20  1   
 43  18  19  ar  
 44  18  42  1   
 45  19  43  1   
 46  20  44  1   
 47  20  45  1   
@<TRIPOS>SUBSTRUCTURE
  1 ****  13 GROUP 4 **** **** 0

# MOE 2024.06 (io_trps.svl 2023.06)
