@<TRIPOS>MOLECULE
NONAME
50 52 1 0 0 
SMALL
USER_CHARGES


@<TRIPOS>ATOM
  1 CL      -1.0810    -0.5420    -1.5510 Cl    1 <1>  -0.1240 
  2 C       -2.3440     0.3110    -0.6910 C.2   1 <1>  -0.0280 
  3 N       -2.5130     1.6450    -0.7500 N.pl3 1 <1>   0.3140 
  4 C       -3.2960    -0.2090     0.1070 C.2   1 <1>  -0.1810 
  5 N       -3.5790     2.0030    -0.0070 N.2   1 <1>  -0.7070 
  6 C       -1.7040     2.6270    -1.4850 C.3   1 <1>   0.0160 
  7 C       -4.0360     0.9010     0.5070 C.2   1 <1>   0.1080 
  8 C       -3.5300    -1.6510     0.4790 C.3   1 <1>   0.5240 
  9 C       -5.2440     0.8850     1.4290 C.3   1 <1>   0.0210 
 10 N       -3.7430    -2.4250    -0.7720 N.4   1 <1>  -0.9590 
 11 C       -4.8290     0.7110     2.8930 C.3   1 <1>  -0.2400 
 12 C       -4.9930    -1.9740    -1.4660 C.3   1 <1>   0.3430 
 13 C       -3.9240    -3.8770    -0.4680 C.3   1 <1>   0.3430 
 14 C       -6.0890    -2.9230    -0.9830 C.3   1 <1>   0.2000 
 15 C       -5.3420    -4.2530    -0.9150 C.3   1 <1>  -0.0800 
 16 O       -6.4550    -2.5340     0.3130 O.3   1 <1>  -0.5600 
 17 C       -5.9820    -5.3450    -0.0360 C.3   1 <1>   0.0200 
 18 C       -7.8290    -2.4020     0.5240 C.3   1 <1>   0.0400 
 19 C       -5.0370    -6.5200     0.1170 C.2   1 <1>  -0.0400 
 20 O       -4.4390    -7.0150    -0.9340 O.3   1 <1>  -0.0190 
 21 C       -4.6270    -7.2140     1.1890 C.2   1 <1>  -0.1500 
 22 N       -3.6380    -7.9880    -0.6210 N.2   1 <1>  -0.4100 
 23 C       -3.7370    -8.1400     0.6510 C.2   1 <1>   0.1080 
 24 C       -2.9850    -9.1860     1.4430 C.3   1 <1>  -0.0590 
 25 H       -0.6840     2.5630    -1.1560 H     1 <1>   0.0800 
 26 H       -2.0830     3.6130    -1.2880 H     1 <1>   0.0800 
 27 H       -1.7640     2.4210    -2.5360 H     1 <1>   0.0800 
 28 H       -4.3930    -1.7320     1.1200 H     1 <1>   0.0800 
 29 H       -2.6690    -2.0260     1.0070 H     1 <1>   0.0800 
 30 H       -5.7710     1.8180     1.3220 H     1 <1>   0.0800 
 31 H       -5.9150     0.0970     1.1400 H     1 <1>   0.0800 
 32 H       -2.9230    -2.2570    -1.3710 H     1 <1>   0.4500 
 33 H       -4.1660     1.5090     3.1800 H     1 <1>   0.0800 
 34 H       -4.3250    -0.2260     3.0430 H     1 <1>   0.0800 
 35 H       -5.6960     0.7440     3.5280 H     1 <1>   0.0800 
 36 H       -5.2400    -0.9470    -1.2500 H     1 <1>   0.0800 
 37 H       -4.8730    -2.0900    -2.5300 H     1 <1>   0.0800 
 38 H       -3.1960    -4.4820    -0.9870 H     1 <1>   0.0800 
 39 H       -3.8240    -4.0500     0.5920 H     1 <1>   0.0800 
 40 H       -6.9440    -2.9380    -1.6390 H     1 <1>   0.0800 
 41 H       -5.2630    -4.6410    -1.9160 H     1 <1>   0.0800 
 42 H       -6.8970    -5.6850    -0.4900 H     1 <1>   0.0800 
 43 H       -6.2160    -4.9670     0.9440 H     1 <1>   0.0800 
 44 H       -7.9890    -2.1260     1.5520 H     1 <1>   0.0800 
 45 H       -8.3170    -3.3410     0.3240 H     1 <1>   0.0800 
 46 H       -8.2190    -1.6310    -0.1190 H     1 <1>   0.0800 
 47 H       -4.8910    -7.1150     2.2260 H     1 <1>   0.1500 
 48 H       -2.3760    -8.7140     2.1920 H     1 <1>   0.0800 
 49 H       -2.3510    -9.7580     0.7890 H     1 <1>   0.0800 
 50 H       -3.6800    -9.8530     1.9190 H     1 <1>   0.0800 
@<TRIPOS>BOND
  1   1   2  1   
  2   2   3  1   
  3   2   4  2   
  4   3   5  1   
  5   3   6  1   
  6   4   7  1   
  7   4   8  1   
  8   5   7  2   
  9   6  25  1   
 10   6  26  1   
 11   6  27  1   
 12   7   9  1   
 13   8  10  1   
 14   8  28  1   
 15   8  29  1   
 16   9  11  1   
 17   9  30  1   
 18   9  31  1   
 19  10  12  1   
 20  10  13  1   
 21  10  32  1   
 22  11  33  1   
 23  11  34  1   
 24  11  35  1   
 25  12  14  1   
 26  12  36  1   
 27  12  37  1   
 28  13  15  1   
 29  13  38  1   
 30  13  39  1   
 31  14  15  1   
 32  14  16  1   
 33  14  40  1   
 34  15  17  1   
 35  15  41  1   
 36  16  18  1   
 37  17  19  1   
 38  17  42  1   
 39  17  43  1   
 40  18  44  1   
 41  18  45  1   
 42  18  46  1   
 43  19  20  1   
 44  19  21  2   
 45  20  22  1   
 46  21  23  1   
 47  21  47  1   
 48  22  23  2   
 49  23  24  1   
 50  24  48  1   
 51  24  49  1   
 52  24  50  1   
@<TRIPOS>SUBSTRUCTURE
  1 ****  10 GROUP 4 **** **** 0

# MOE 2024.06 (io_trps.svl 2023.06)
