@<TRIPOS>MOLECULE
NONAME
55 58 1 0 0 
SMALL
USER_CHARGES


@<TRIPOS>ATOM
  1 S        0.2170    -0.4150     1.1870 S.o2  1 <1>   1.5010 
  2 O        0.5000    -1.8240     1.0260 O.2   1 <1>  -0.6500 
  3 O        0.1360     0.1430     2.5210 O.2   1 <1>  -0.6500 
  4 N       -1.2360    -0.0370     0.3890 N.am  1 <1>  -0.8490 
  5 C        1.4220     0.5310     0.2480 C.2   1 <1>  -0.0630 
  6 C       -2.4550    -0.1740     1.1910 C.3   1 <1>   0.1960 
  7 C       -1.3960    -0.5540    -0.9770 C.3   1 <1>   0.1960 
  8 C        2.4970    -0.0330    -0.4250 C.2   1 <1>   0.1390 
  9 C        1.5420     1.8580    -0.0080 C.2   1 <1>  -0.3020 
 10 C       -2.9300    -1.6280     1.2490 C.3   1 <1>  -0.1600 
 11 C       -1.9000    -2.0020    -1.0130 C.3   1 <1>  -0.1600 
 12 N        3.2210     0.8490    -1.0450 N.2   1 <1>  -0.7070 
 13 N        2.6300     2.0260    -0.7810 N.pl3 1 <1>   0.3140 
 14 C       -3.1630    -2.1980    -0.1620 C.3   1 <1>   0.4240 
 15 C        3.1540     3.3030    -1.3040 C.3   1 <1>   0.0960 
 16 O       -4.1170    -1.3650    -0.7860 O.3   1 <1>  -0.5600 
 17 C       -3.6250    -3.6850    -0.1510 C.ar  1 <1>  -0.1430 
 18 C        3.9660     4.0430    -0.2300 C.3   1 <1>  -0.1600 
 19 C       -5.4620    -1.6310    -0.5570 C.3   1 <1>   0.1200 
 20 C       -2.8220    -4.7090     0.3680 C.ar  1 <1>   0.0820 
 21 C       -4.8720    -4.0320    -0.6700 C.ar  1 <1>  -0.1430 
 22 C        4.5130     5.3720    -0.7620 C.3   1 <1>  -0.2400 
 23 C       -5.7970    -2.9620    -1.2110 C.3   1 <1>  -0.0170 
 24 O       -1.6190    -4.3840     0.9030 O.3   1 <1>  -0.3620 
 25 C       -3.2580    -6.0320     0.3390 C.ar  1 <1>  -0.1500 
 26 C       -5.2960    -5.3510    -0.6960 C.ar  1 <1>  -0.1500 
 27 C       -0.6500    -5.3380     1.2720 C.3   1 <1>   0.0400 
 28 C       -4.4900    -6.3510    -0.1940 C.ar  1 <1>  -0.1500 
 29 H       -3.2270     0.4330     0.7490 H     1 <1>   0.0800 
 30 H       -2.2900     0.1990     2.1880 H     1 <1>   0.0800 
 31 H       -0.4640    -0.4800    -1.5120 H     1 <1>   0.0800 
 32 H       -2.1100     0.0690    -1.4910 H     1 <1>   0.0800 
 33 H        2.7110    -1.0900    -0.4350 H     1 <1>   0.1500 
 34 H        0.9160     2.6670     0.3220 H     1 <1>   0.1500 
 35 H       -3.8330    -1.6960     1.8230 H     1 <1>   0.0800 
 36 H       -2.1900    -2.1990     1.7730 H     1 <1>   0.0800 
 37 H       -1.1120    -2.6490    -0.6880 H     1 <1>   0.0800 
 38 H       -2.1220    -2.2800    -2.0260 H     1 <1>   0.0800 
 39 H        2.3250     3.9050    -1.6270 H     1 <1>   0.0800 
 40 H        3.7760     3.0880    -2.1530 H     1 <1>   0.0800 
 41 H        4.7880     3.4200     0.0800 H     1 <1>   0.0800 
 42 H        3.3420     4.2350     0.6260 H     1 <1>   0.0800 
 43 H       -6.0370    -0.8360    -0.9990 H     1 <1>   0.0800 
 44 H       -5.6470    -1.6580     0.5020 H     1 <1>   0.0800 
 45 H        5.1590     5.2020    -1.6070 H     1 <1>   0.0800 
 46 H        5.0820     5.8670     0.0050 H     1 <1>   0.0800 
 47 H        3.7090     6.0210    -1.0630 H     1 <1>   0.0800 
 48 H       -5.6790    -2.8810    -2.2770 H     1 <1>   0.0800 
 49 H       -6.8210    -3.2110    -0.9990 H     1 <1>   0.0800 
 50 H       -2.6550    -6.8270     0.7320 H     1 <1>   0.1500 
 51 H       -6.2580    -5.6050    -1.1080 H     1 <1>   0.1500 
 52 H        0.2350    -4.8070     1.5740 H     1 <1>   0.0800 
 53 H       -0.4320    -5.9610     0.4240 H     1 <1>   0.0800 
 54 H       -1.0270    -5.9180     2.0960 H     1 <1>   0.0800 
 55 H       -4.8220    -7.3750    -0.2170 H     1 <1>   0.1500 
@<TRIPOS>BOND
  1   1   2  2   
  2   1   3  2   
  3   1   4  am  
  4   1   5  1   
  5   4   6  1   
  6   4   7  1   
  7   5   8  1   
  8   5   9  2   
  9   6  10  1   
 10   6  29  1   
 11   6  30  1   
 12   7  11  1   
 13   7  31  1   
 14   7  32  1   
 15   8  12  2   
 16   8  33  1   
 17   9  13  1   
 18   9  34  1   
 19  10  14  1   
 20  10  35  1   
 21  10  36  1   
 22  11  14  1   
 23  11  37  1   
 24  11  38  1   
 25  12  13  1   
 26  13  15  1   
 27  14  16  1   
 28  14  17  1   
 29  15  18  1   
 30  15  39  1   
 31  15  40  1   
 32  16  19  1   
 33  17  20  ar  
 34  17  21  ar  
 35  18  22  1   
 36  18  41  1   
 37  18  42  1   
 38  19  23  1   
 39  19  43  1   
 40  19  44  1   
 41  20  24  1   
 42  20  25  ar  
 43  21  23  1   
 44  21  26  ar  
 45  22  45  1   
 46  22  46  1   
 47  22  47  1   
 48  23  48  1   
 49  23  49  1   
 50  24  27  1   
 51  25  28  ar  
 52  25  50  1   
 53  26  28  ar  
 54  26  51  1   
 55  27  52  1   
 56  27  53  1   
 57  27  54  1   
 58  28  55  1   
@<TRIPOS>SUBSTRUCTURE
  1 ****   7 GROUP 4 **** **** 0

# MOE 2024.06 (io_trps.svl 2023.06)
