@<TRIPOS>MOLECULE
NONAME
55 58 1 0 0 
SMALL
USER_CHARGES


@<TRIPOS>ATOM
  1 O       -4.3080     2.7430    -2.1310 O.2   1 <1>  -0.5700 
  2 C       -3.4860     2.2490    -1.3830 C.2   1 <1>   0.5440 
  3 N       -3.1620     0.9170    -1.5380 N.am  1 <1>  -0.6600 
  4 C       -2.8730     3.0690    -0.3580 C.ar  1 <1>   0.0860 
  5 C       -2.4390     0.1450    -0.4630 C.3   1 <1>   0.3640 
  6 C       -3.7520     0.1530    -2.6800 C.3   1 <1>   0.1400 
  7 C       -1.5140     3.3490    -0.3940 C.ar  1 <1>  -0.1500 
  8 C       -3.6070     3.5850     0.7060 C.ar  1 <1>  -0.1500 
  9 C       -0.9230     0.3490    -0.5720 C.ar  1 <1>  -0.1430 
 10 C       -2.7580    -1.3840    -0.3990 C.3   1 <1>   0.2000 
 11 C       -3.3770    -1.3310    -2.6670 C.3   1 <1>   0.1200 
 12 C       -0.8690     4.0440     0.6140 C.ar  1 <1>   0.1170 
 13 C       -2.9890     4.3090     1.7100 C.ar  1 <1>  -0.1500 
 14 C       -0.2640     0.3950    -1.7940 C.ar  1 <1>  -0.1500 
 15 C       -0.1810     0.5030     0.5920 C.ar  1 <1>  -0.1500 
 16 O       -3.6250    -1.8480    -1.4010 O.3   1 <1>  -0.5600 
 17 C       -3.3950    -1.7790     0.9400 C.3   1 <1>   0.1200 
 18 N        0.5210     4.1580     0.5080 N.am  1 <1>  -0.5470 
 19 C       -1.6210     4.5330     1.6850 C.ar  1 <1>  -0.1430 
 20 C        1.1060     0.5930    -1.8490 C.ar  1 <1>  -0.1500 
 21 C        1.1880     0.7000     0.5390 C.ar  1 <1>  -0.1500 
 22 O       -2.5130    -1.5400     1.9910 O.3   1 <1>  -0.6800 
 23 C        1.3090     5.2690     0.4730 C.2   1 <1>   0.6300 
 24 C       -0.9890     5.3010     2.8380 C.3   1 <1>  -0.0970 
 25 C        1.8330     0.7440    -0.6830 C.ar  1 <1>  -0.1500 
 26 O        0.8980     6.3930     0.6150 O.2   1 <1>  -0.5700 
 27 C        2.7950     5.0490     0.2360 C.3   1 <1>  -0.1000 
 28 C        3.4650     5.6100    -0.9850 C.3   1 <1>  -0.2000 
 29 C        3.2940     4.1290    -0.8450 C.3   1 <1>  -0.2000 
 30 H       -2.7390     0.5680     0.4810 H     1 <1>   0.0800 
 31 H       -4.8240     0.2370    -2.6340 H     1 <1>   0.0800 
 32 H       -3.4310     0.5990    -3.6050 H     1 <1>   0.0800 
 33 H       -0.9420     2.9980    -1.2320 H     1 <1>   0.1500 
 34 H       -4.6680     3.4120     0.7390 H     1 <1>   0.1500 
 35 H       -1.8430    -1.9390    -0.5110 H     1 <1>   0.0800 
 36 H       -2.3420    -1.4820    -2.9160 H     1 <1>   0.0800 
 37 H       -3.9860    -1.8700    -3.3700 H     1 <1>   0.0800 
 38 H       -3.5840     4.6950     2.5200 H     1 <1>   0.1500 
 39 H       -0.8130     0.2870    -2.7120 H     1 <1>   0.1500 
 40 H       -0.6700     0.4740     1.5530 H     1 <1>   0.1500 
 41 H       -3.6480    -2.8250     0.9460 H     1 <1>   0.0800 
 42 H       -4.2820    -1.1950     1.1130 H     1 <1>   0.0800 
 43 H        0.9940     3.2920     0.2500 H     1 <1>   0.3700 
 44 H        1.6050     0.6260    -2.8030 H     1 <1>   0.1500 
 45 H        1.7490     0.8120     1.4520 H     1 <1>   0.1500 
 46 H       -1.8330    -2.2420     2.0370 H     1 <1>   0.4000 
 47 H       -1.6090     5.2560     3.7150 H     1 <1>   0.0800 
 48 H       -0.8630     6.3320     2.5610 H     1 <1>   0.0800 
 49 H       -0.0280     4.8880     3.0870 H     1 <1>   0.0800 
 50 H        2.8990     0.8890    -0.7270 H     1 <1>   0.1500 
 51 H        3.3490     5.1000     1.1550 H     1 <1>   0.1000 
 52 H        2.8560     6.1460    -1.6940 H     1 <1>   0.1000 
 53 H        4.4460     6.0390    -0.8790 H     1 <1>   0.1000 
 54 H        4.1670     3.5290    -0.6530 H     1 <1>   0.1000 
 55 H        2.5960     3.6450    -1.5060 H     1 <1>   0.1000 
@<TRIPOS>BOND
  1   1   2  2   
  2   2   3  am  
  3   2   4  1   
  4   3   5  1   
  5   3   6  1   
  6   4   7  ar  
  7   4   8  ar  
  8   5   9  1   
  9   5  10  1   
 10   5  30  1   
 11   6  11  1   
 12   6  31  1   
 13   6  32  1   
 14   7  12  ar  
 15   7  33  1   
 16   8  13  ar  
 17   8  34  1   
 18   9  14  ar  
 19   9  15  ar  
 20  10  16  1   
 21  10  17  1   
 22  10  35  1   
 23  11  16  1   
 24  11  36  1   
 25  11  37  1   
 26  12  18  1   
 27  12  19  ar  
 28  13  19  ar  
 29  13  38  1   
 30  14  20  ar  
 31  14  39  1   
 32  15  21  ar  
 33  15  40  1   
 34  17  22  1   
 35  17  41  1   
 36  17  42  1   
 37  18  23  am  
 38  18  43  1   
 39  19  24  1   
 40  20  25  ar  
 41  20  44  1   
 42  21  25  ar  
 43  21  45  1   
 44  22  46  1   
 45  23  26  2   
 46  23  27  1   
 47  24  47  1   
 48  24  48  1   
 49  24  49  1   
 50  25  50  1   
 51  27  28  1   
 52  27  29  1   
 53  27  51  1   
 54  28  29  1   
 55  28  52  1   
 56  28  53  1   
 57  29  54  1   
 58  29  55  1   
@<TRIPOS>SUBSTRUCTURE
  1 ****   7 GROUP 4 **** **** 0

# MOE 2024.06 (io_trps.svl 2023.06)
