@<TRIPOS>MOLECULE
NONAME
47 49 1 0 0 
SMALL
USER_CHARGES


@<TRIPOS>ATOM
  1 S       -0.3240    -0.8890    -1.1770 S.3   1 <1>  -0.0800 
  2 C       -1.4840    -0.6840     0.1300 C.2   1 <1>  -0.1400 
  3 C        0.0820     0.8160    -1.1460 C.2   1 <1>  -0.1100 
  4 C       -1.5180     0.6020     0.5290 C.2   1 <1>  -0.1500 
  5 C       -2.2290    -1.9180     0.5890 C.3   1 <1>   0.5230 
  6 C       -0.6280     1.4550    -0.1990 C.2   1 <1>  -0.1500 
  7 N       -2.8730    -2.5390    -0.6050 N.4   1 <1>  -0.9590 
  8 C       -4.3070    -2.2120    -0.8570 C.3   1 <1>   0.4230 
  9 C       -2.6340    -4.0150    -0.6260 C.3   1 <1>   0.2630 
 10 C       -4.5990    -0.7220    -1.0160 C.3   1 <1>  -0.1600 
 11 C       -5.2680    -2.6550     0.2480 C.3   1 <1>  -0.1600 
 12 C       -6.1230    -0.6230    -0.8500 C.3   1 <1>  -0.0800 
 13 C       -6.5440    -1.8350    -0.0130 C.3   1 <1>  -0.0800 
 14 C       -6.6310     0.6300    -0.1140 C.3   1 <1>  -0.1600 
 15 C       -7.2530    -1.2840     1.2350 C.3   1 <1>  -0.1600 
 16 C       -7.6570     0.1590     0.9250 C.3   1 <1>   0.4230 
 17 N       -9.0760     0.2420     0.4490 N.4   1 <1>  -0.9590 
 18 C       -9.3680    -0.4010    -0.8730 C.3   1 <1>   0.2630 
 19 C       -9.5510     1.6620     0.4400 C.3   1 <1>   0.2630 
 20 H        0.8210     1.1670    -1.8470 H     1 <1>   0.1500 
 21 H       -2.1280     1.0130     1.3160 H     1 <1>   0.1500 
 22 H       -2.9600    -1.6580     1.3360 H     1 <1>   0.0800 
 23 H       -1.5190    -2.6020     1.0260 H     1 <1>   0.0800 
 24 H       -0.5610     2.5070     0.0240 H     1 <1>   0.1500 
 25 H       -2.3430    -2.1340    -1.3930 H     1 <1>   0.4500 
 26 H       -4.6160    -2.6970    -1.7700 H     1 <1>   0.0800 
 27 H       -3.1340    -4.4900     0.2030 H     1 <1>   0.0800 
 28 H       -1.5780    -4.2250    -0.5590 H     1 <1>   0.0800 
 29 H       -3.0070    -4.4420    -1.5430 H     1 <1>   0.0800 
 30 H       -4.1160    -0.1580    -0.2420 H     1 <1>   0.0800 
 31 H       -4.2840    -0.3560    -1.9780 H     1 <1>   0.0800 
 32 H       -5.4750    -3.7090     0.1920 H     1 <1>   0.0800 
 33 H       -4.8670    -2.4210     1.2160 H     1 <1>   0.0800 
 34 H       -6.5890    -0.6920    -1.8200 H     1 <1>   0.0800 
 35 H       -7.2330    -2.4310    -0.5900 H     1 <1>   0.0800 
 36 H       -7.0250     1.3640    -0.7940 H     1 <1>   0.0800 
 37 H       -5.8220     1.0900     0.4250 H     1 <1>   0.0800 
 38 H       -6.5630    -1.2500     2.0600 H     1 <1>   0.0800 
 39 H       -8.0880    -1.8950     1.5310 H     1 <1>   0.0800 
 40 H       -7.5620     0.7530     1.8210 H     1 <1>   0.0800 
 41 H       -9.6410    -0.2530     1.1560 H     1 <1>   0.4500 
 42 H       -8.7980     0.0720    -1.6550 H     1 <1>   0.0800 
 43 H      -10.4160    -0.3090    -1.1090 H     1 <1>   0.0800 
 44 H       -9.1190    -1.4490    -0.8450 H     1 <1>   0.0800 
 45 H       -9.0050     2.2380    -0.2890 H     1 <1>   0.0800 
 46 H       -9.4100     2.1120     1.4100 H     1 <1>   0.0800 
 47 H      -10.6000     1.7040     0.1940 H     1 <1>   0.0800 
@<TRIPOS>BOND
  1   1   2  1   
  2   1   3  1   
  3   2   4  2   
  4   2   5  1   
  5   3   6  2   
  6   3  20  1   
  7   4   6  1   
  8   4  21  1   
  9   5   7  1   
 10   5  22  1   
 11   5  23  1   
 12   6  24  1   
 13   7   8  1   
 14   7   9  1   
 15   7  25  1   
 16   8  10  1   
 17   8  11  1   
 18   8  26  1   
 19   9  27  1   
 20   9  28  1   
 21   9  29  1   
 22  10  12  1   
 23  10  30  1   
 24  10  31  1   
 25  11  13  1   
 26  11  32  1   
 27  11  33  1   
 28  12  13  1   
 29  12  14  1   
 30  12  34  1   
 31  13  15  1   
 32  13  35  1   
 33  14  16  1   
 34  14  36  1   
 35  14  37  1   
 36  15  16  1   
 37  15  38  1   
 38  15  39  1   
 39  16  17  1   
 40  16  40  1   
 41  17  18  1   
 42  17  19  1   
 43  17  41  1   
 44  18  42  1   
 45  18  43  1   
 46  18  44  1   
 47  19  45  1   
 48  19  46  1   
 49  19  47  1   
@<TRIPOS>SUBSTRUCTURE
  1 ****  10 GROUP 4 **** **** 0

# MOE 2024.06 (io_trps.svl 2023.06)
