@<TRIPOS>MOLECULE
NONAME
47 49 1 0 0 
SMALL
USER_CHARGES


@<TRIPOS>ATOM
  1 S        0.6480     0.3400    -1.5300 S.o2  1 <1>   1.3330 
  2 O        0.9780    -0.9330    -2.1300 O.2   1 <1>  -0.6500 
  3 O       -0.1680     1.2860    -2.2560 O.2   1 <1>  -0.6500 
  4 N       -0.1330     0.0320    -0.0520 N.am  1 <1>  -0.8490 
  5 C        2.1830     1.1350    -1.0450 C.3   1 <1>  -0.0550 
  6 C       -1.0390    -1.1180    -0.1370 C.3   1 <1>   0.1160 
  7 C       -0.8590     1.1940     0.4740 C.3   1 <1>   0.1160 
  8 C        3.1670     0.2100    -0.2950 C.3   1 <1>  -0.0800 
  9 C        4.5480     0.8030    -0.0580 C.3   1 <1>   0.2200 
 10 C        2.7280    -0.2040     1.1160 C.3   1 <1>   0.1200 
 11 N        4.4480     2.2170     0.3770 N.am  1 <1>  -0.7300 
 12 C        5.0110    -0.0380     1.1220 C.3   1 <1>   0.1200 
 13 O        3.8750    -0.1870     1.9170 O.3   1 <1>  -0.5600 
 14 C        4.6810     3.3050    -0.4080 C.2   1 <1>   0.6160 
 15 O        4.9240     3.1260    -1.5830 O.2   1 <1>  -0.5700 
 16 C        4.5850     4.6300     0.1600 C.2   1 <1>  -0.0140 
 17 C        5.6420     5.6050    -0.0190 C.ar  1 <1>   0.0280 
 18 C        3.4840     4.9890     0.8830 C.2   1 <1>  -0.1360 
 19 C        5.4840     6.8840     0.5500 C.ar  1 <1>   0.1170 
 20 C        6.8300     5.3550    -0.7180 C.ar  1 <1>  -0.1500 
 21 C        3.3340     6.2740     1.4580 C.2   1 <1>   0.6160 
 22 N        4.3310     7.1730     1.2670 N.am  1 <1>  -0.5470 
 23 C        6.4750     7.8520     0.4040 C.ar  1 <1>  -0.1500 
 24 C        7.8050     6.3190    -0.8550 C.ar  1 <1>  -0.1500 
 25 O        2.3610     6.6000     2.1110 O.2   1 <1>  -0.5700 
 26 C        7.6290     7.5750    -0.2930 C.ar  1 <1>  -0.1500 
 27 H        2.6720     1.4840    -1.9350 H     1 <1>   0.0800 
 28 H        1.9610     1.9950    -0.4460 H     1 <1>   0.0800 
 29 H       -1.5100    -1.2940     0.8150 H     1 <1>   0.0800 
 30 H       -0.4880    -2.0040    -0.4070 H     1 <1>   0.0800 
 31 H       -1.7970    -0.9440    -0.8820 H     1 <1>   0.0800 
 32 H       -1.2560     0.9710     1.4500 H     1 <1>   0.0800 
 33 H       -1.6720     1.4600    -0.1820 H     1 <1>   0.0800 
 34 H       -0.1980     2.0380     0.5630 H     1 <1>   0.0800 
 35 H        3.2930    -0.6900    -0.8720 H     1 <1>   0.0800 
 36 H        5.1980     0.7070    -0.9120 H     1 <1>   0.0800 
 37 H        2.3060    -1.1950     1.1280 H     1 <1>   0.0800 
 38 H        2.0270     0.4930     1.5410 H     1 <1>   0.0800 
 39 H        4.2570     2.3280     1.3760 H     1 <1>   0.3700 
 40 H        5.7970     0.4280     1.6900 H     1 <1>   0.0800 
 41 H        5.3210    -1.0170     0.7980 H     1 <1>   0.0800 
 42 H        2.6660     4.3150     1.0490 H     1 <1>   0.1500 
 43 H        7.0000     4.3930    -1.1680 H     1 <1>   0.1500 
 44 H        4.1840     8.0890     1.6910 H     1 <1>   0.3700 
 45 H        6.3360     8.8240     0.8420 H     1 <1>   0.1500 
 46 H        8.7080     6.1010    -1.4000 H     1 <1>   0.1500 
 47 H        8.3940     8.3240    -0.4050 H     1 <1>   0.1500 
@<TRIPOS>BOND
  1   1   2  2   
  2   1   3  2   
  3   1   4  am  
  4   1   5  1   
  5   4   6  1   
  6   4   7  1   
  7   5   8  1   
  8   5  27  1   
  9   5  28  1   
 10   6  29  1   
 11   6  30  1   
 12   6  31  1   
 13   7  32  1   
 14   7  33  1   
 15   7  34  1   
 16   8   9  1   
 17   8  10  1   
 18   8  35  1   
 19   9  11  1   
 20   9  12  1   
 21   9  36  1   
 22  10  13  1   
 23  10  37  1   
 24  10  38  1   
 25  11  14  am  
 26  11  39  1   
 27  12  13  1   
 28  12  40  1   
 29  12  41  1   
 30  14  15  2   
 31  14  16  1   
 32  16  17  1   
 33  16  18  2   
 34  17  19  ar  
 35  17  20  ar  
 36  18  21  1   
 37  18  42  1   
 38  19  22  1   
 39  19  23  ar  
 40  20  24  ar  
 41  20  43  1   
 42  21  22  am  
 43  21  25  2   
 44  22  44  1   
 45  23  26  ar  
 46  23  45  1   
 47  24  26  ar  
 48  24  46  1   
 49  26  47  1   
@<TRIPOS>SUBSTRUCTURE
  1 ****  14 GROUP 4 **** **** 0

# MOE 2024.06 (io_trps.svl 2023.06)
