@<TRIPOS>MOLECULE
NONAME
59 61 1 0 0 
SMALL
USER_CHARGES


@<TRIPOS>ATOM
  1 O       -3.3010    -2.5940     2.1800 O.2   1 <1>  -0.5700 
  2 C       -2.8180    -2.8220     1.0980 C.2   1 <1>   0.5690 
  3 N       -3.4980    -2.9910    -0.0600 N.am  1 <1>  -0.6600 
  4 C       -1.3420    -3.0170     0.8840 C.3   1 <1>  -0.0990 
  5 C       -2.5870    -3.3570    -1.1650 C.3   1 <1>   0.1400 
  6 C       -4.9650    -3.1390    -0.1860 C.3   1 <1>   0.1400 
  7 C       -1.3090    -3.8000    -0.4320 C.3   1 <1>   0.2200 
  8 C       -5.5180    -2.0930    -1.1560 C.3   1 <1>  -0.1600 
  9 N       -1.4550    -5.2320    -0.1120 N.am  1 <1>  -0.7300 
 10 C       -7.0400    -2.2140    -1.2880 C.3   1 <1>  -0.2400 
 11 C       -1.0290    -6.2590    -0.8950 C.2   1 <1>   0.5690 
 12 O       -0.2190    -6.0690    -1.7740 O.2   1 <1>  -0.5700 
 13 C       -1.6750    -7.6470    -0.6560 C.3   1 <1>   0.2040 
 14 C       -3.1820    -7.4060    -0.4150 C.ar  1 <1>  -0.1430 
 15 C       -0.9690    -8.3660     0.5070 C.3   1 <1>  -0.1600 
 16 C       -1.4270    -8.6350    -1.8140 C.3   1 <1>  -0.1600 
 17 C       -3.7210    -7.3220     0.8650 C.ar  1 <1>  -0.1500 
 18 C       -4.0230    -7.1840    -1.4990 C.ar  1 <1>  -0.1500 
 19 C        0.2860    -8.9970    -0.0980 C.3   1 <1>  -0.1600 
 20 C       -0.0540    -9.2700    -1.5650 C.3   1 <1>  -0.1600 
 21 C       -5.0550    -7.0070     1.0570 C.ar  1 <1>  -0.1500 
 22 C       -5.3570    -6.8750    -1.3100 C.ar  1 <1>  -0.1500 
 23 C       -5.8820    -6.7690    -0.0350 C.ar  1 <1>   0.0820 
 24 O       -7.1880    -6.4140     0.0540 O.3   1 <1>  -0.3620 
 25 C       -7.8240    -6.1250     1.2790 C.3   1 <1>   0.2000 
 26 C       -8.3360    -7.4330     1.8870 C.3   1 <1>  -0.2400 
 27 C       -8.9760    -5.1720     0.9730 C.3   1 <1>  -0.2400 
 28 H       -0.8830    -3.5490     1.6960 H     1 <1>   0.0800 
 29 H       -0.8820    -2.0540     0.7650 H     1 <1>   0.0800 
 30 H       -2.3960    -2.4890    -1.7700 H     1 <1>   0.0800 
 31 H       -2.9920    -4.1480    -1.7730 H     1 <1>   0.0800 
 32 H       -5.4210    -3.0140     0.7820 H     1 <1>   0.0800 
 33 H       -5.1930    -4.1290    -0.5390 H     1 <1>   0.0800 
 34 H       -0.4160    -3.6300    -1.0100 H     1 <1>   0.0800 
 35 H       -5.0710    -2.2270    -2.1250 H     1 <1>   0.0800 
 36 H       -5.2700    -1.1100    -0.7930 H     1 <1>   0.0800 
 37 H       -2.2550    -5.4280     0.4990 H     1 <1>   0.3700 
 38 H       -7.3100    -3.1930    -1.6440 H     1 <1>   0.0800 
 39 H       -7.4080    -1.4820    -1.9850 H     1 <1>   0.0800 
 40 H       -7.5120    -2.0480    -0.3360 H     1 <1>   0.0800 
 41 H       -1.6020    -9.1550     0.8750 H     1 <1>   0.0800 
 42 H       -0.7260    -7.6990     1.3160 H     1 <1>   0.0800 
 43 H       -1.4690    -8.1550    -2.7760 H     1 <1>   0.0800 
 44 H       -2.1750    -9.4090    -1.7810 H     1 <1>   0.0800 
 45 H       -3.1120    -7.4850     1.7360 H     1 <1>   0.1500 
 46 H       -3.6450    -7.2350    -2.5060 H     1 <1>   0.1500 
 47 H        0.5660    -9.8960     0.4230 H     1 <1>   0.0800 
 48 H        1.1020    -8.2950    -0.0480 H     1 <1>   0.0800 
 49 H        0.6860    -8.8110    -2.1990 H     1 <1>   0.0800 
 50 H       -0.0820   -10.3270    -1.7700 H     1 <1>   0.0800 
 51 H       -5.4260    -6.9490     2.0620 H     1 <1>   0.1500 
 52 H       -6.0010    -6.7040    -2.1550 H     1 <1>   0.1500 
 53 H       -7.1250    -5.6310     1.9310 H     1 <1>   0.0800 
 54 H       -9.0330    -7.9050     1.2180 H     1 <1>   0.0800 
 55 H       -8.8350    -7.2340     2.8170 H     1 <1>   0.0800 
 56 H       -7.5220    -8.1070     2.0770 H     1 <1>   0.0800 
 57 H       -9.6710    -5.6300     0.2910 H     1 <1>   0.0800 
 58 H       -8.5950    -4.2670     0.5370 H     1 <1>   0.0800 
 59 H       -9.4960    -4.9200     1.8790 H     1 <1>   0.0800 
@<TRIPOS>BOND
  1   1   2  2   
  2   2   3  am  
  3   2   4  1   
  4   3   5  1   
  5   3   6  1   
  6   4   7  1   
  7   4  28  1   
  8   4  29  1   
  9   5   7  1   
 10   5  30  1   
 11   5  31  1   
 12   6   8  1   
 13   6  32  1   
 14   6  33  1   
 15   7   9  1   
 16   7  34  1   
 17   8  10  1   
 18   8  35  1   
 19   8  36  1   
 20   9  11  am  
 21   9  37  1   
 22  10  38  1   
 23  10  39  1   
 24  10  40  1   
 25  11  12  2   
 26  11  13  1   
 27  13  14  1   
 28  13  15  1   
 29  13  16  1   
 30  14  17  ar  
 31  14  18  ar  
 32  15  19  1   
 33  15  41  1   
 34  15  42  1   
 35  16  20  1   
 36  16  43  1   
 37  16  44  1   
 38  17  21  ar  
 39  17  45  1   
 40  18  22  ar  
 41  18  46  1   
 42  19  20  1   
 43  19  47  1   
 44  19  48  1   
 45  20  49  1   
 46  20  50  1   
 47  21  23  ar  
 48  21  51  1   
 49  22  23  ar  
 50  22  52  1   
 51  23  24  1   
 52  24  25  1   
 53  25  26  1   
 54  25  27  1   
 55  25  53  1   
 56  26  54  1   
 57  26  55  1   
 58  26  56  1   
 59  27  57  1   
 60  27  58  1   
 61  27  59  1   
@<TRIPOS>SUBSTRUCTURE
  1 ****  14 GROUP 4 **** **** 0

# MOE 2024.06 (io_trps.svl 2023.06)
