@<TRIPOS>MOLECULE
NONAME
56 59 1 0 0 
SMALL
USER_CHARGES


@<TRIPOS>ATOM
  1 O        0.4400    -0.6570     3.0850 O.3   1 <1>  -0.6800 
  2 C        1.0980    -1.2380     2.0110 C.3   1 <1>   0.2000 
  3 C        1.8910    -2.4300     2.5560 C.3   1 <1>  -0.0800 
  4 C        2.1490    -0.2260     1.5250 C.3   1 <1>   0.3430 
  5 C        3.1600    -1.7380     3.0720 C.3   1 <1>   0.3430 
  6 C        2.1660    -3.5530     1.5150 C.3   1 <1>  -0.0170 
  7 N        3.4740    -0.6970     2.0520 N.4   1 <1>  -0.9590 
  8 C        3.3020    -3.2140     0.5530 C.ar  1 <1>  -0.1440 
  9 C        4.3730     0.3980     2.5000 C.3   1 <1>   0.4860 
 10 C        3.1210    -2.4250    -0.6090 C.ar  1 <1>   0.0000 
 11 C        4.5730    -3.6090     0.8570 C.ar  1 <1>  -0.1500 
 12 C        4.5790     1.3540     1.3470 C.ar  1 <1>  -0.1440 
 13 C        4.2840    -1.9370    -1.2510 C.ar  1 <1>   0.3100 
 14 C        1.8660    -2.0690    -1.1540 C.ar  1 <1>  -0.1500 
 15 C        5.6550    -3.1390     0.1050 C.ar  1 <1>   0.1600 
 16 C        5.3910     1.0440     0.2790 C.ar  1 <1>   0.1600 
 17 C        3.9400     2.5730     1.3090 C.ar  1 <1>   0.1600 
 18 N        5.5340    -2.2940    -0.8670 N.ar  1 <1>  -0.6200 
 19 C        4.1450    -1.0280    -2.3100 C.ar  1 <1>  -0.1500 
 20 C        1.7640    -1.1960    -2.2020 C.ar  1 <1>  -0.1500 
 21 N        5.5300     1.8480    -0.7430 N.ar  1 <1>  -0.6200 
 22 N        4.0610     3.3920     0.2970 N.ar  1 <1>  -0.6200 
 23 C        2.9150    -0.6540    -2.7770 C.ar  1 <1>  -0.1500 
 24 C        4.8480     2.9850    -0.6880 C.ar  1 <1>   0.7200 
 25 N        4.9370     3.8480    -1.7230 N.pl3 1 <1>  -0.8690 
 26 C        5.9700     3.8300    -2.7780 C.3   1 <1>   0.2090 
 27 C        7.0880     4.7990    -2.3940 C.3   1 <1>  -0.1600 
 28 C        8.1920     4.8320    -3.4570 C.3   1 <1>  -0.2400 
 29 H       -0.3900    -1.1340     3.3020 H     1 <1>   0.4000 
 30 H        0.3690    -1.4830     1.2570 H     1 <1>   0.0800 
 31 H        1.3610    -2.8810     3.3780 H     1 <1>   0.0800 
 32 H        1.9000     0.7520     1.9030 H     1 <1>   0.0800 
 33 H        2.1760    -0.1880     0.4490 H     1 <1>   0.0800 
 34 H        3.9730    -2.4330     3.2020 H     1 <1>   0.0800 
 35 H        2.9380    -1.2630     4.0150 H     1 <1>   0.0800 
 36 H        1.2670    -3.8080     0.9820 H     1 <1>   0.0800 
 37 H        2.4430    -4.4430     2.0560 H     1 <1>   0.0800 
 38 H        3.9340    -1.1820     1.2620 H     1 <1>   0.4500 
 39 H        3.9310     0.9200     3.3340 H     1 <1>   0.0800 
 40 H        5.3230    -0.0050     2.8110 H     1 <1>   0.0800 
 41 H        4.7870    -4.2640     1.6840 H     1 <1>   0.1500 
 42 H        0.9660    -2.4950    -0.7520 H     1 <1>   0.1500 
 43 H        6.6450    -3.4780     0.3650 H     1 <1>   0.1500 
 44 H        5.9380     0.1160     0.2470 H     1 <1>   0.1500 
 45 H        3.3040     2.8890     2.1200 H     1 <1>   0.1500 
 46 H        5.0430    -0.6310    -2.7500 H     1 <1>   0.1500 
 47 H        0.8040    -0.9200    -2.6080 H     1 <1>   0.1500 
 48 H        2.8250     0.0460    -3.5910 H     1 <1>   0.1500 
 49 H        4.4930     4.7440    -1.5350 H     1 <1>   0.4000 
 50 H        6.3670     2.8360    -2.9000 H     1 <1>   0.0800 
 51 H        5.5240     4.1290    -3.7120 H     1 <1>   0.0800 
 52 H        6.6800     5.7870    -2.2770 H     1 <1>   0.0800 
 53 H        7.5120     4.4880    -1.4550 H     1 <1>   0.0800 
 54 H        7.7960     5.1540    -4.4040 H     1 <1>   0.0800 
 55 H        8.6280     3.8550    -3.5760 H     1 <1>   0.0800 
 56 H        8.9670     5.5170    -3.1590 H     1 <1>   0.0800 
@<TRIPOS>BOND
  1   1   2  1   
  2   1  29  1   
  3   2   3  1   
  4   2   4  1   
  5   2  30  1   
  6   3   5  1   
  7   3   6  1   
  8   3  31  1   
  9   4   7  1   
 10   4  32  1   
 11   4  33  1   
 12   5   7  1   
 13   5  34  1   
 14   5  35  1   
 15   6   8  1   
 16   6  36  1   
 17   6  37  1   
 18   7   9  1   
 19   7  38  1   
 20   8  10  ar  
 21   8  11  ar  
 22   9  12  1   
 23   9  39  1   
 24   9  40  1   
 25  10  13  ar  
 26  10  14  ar  
 27  11  15  ar  
 28  11  41  1   
 29  12  16  ar  
 30  12  17  ar  
 31  13  18  ar  
 32  13  19  ar  
 33  14  20  ar  
 34  14  42  1   
 35  15  18  ar  
 36  15  43  1   
 37  16  21  ar  
 38  16  44  1   
 39  17  22  ar  
 40  17  45  1   
 41  19  23  ar  
 42  19  46  1   
 43  20  23  ar  
 44  20  47  1   
 45  21  24  ar  
 46  22  24  ar  
 47  23  48  1   
 48  24  25  1   
 49  25  26  1   
 50  25  49  1   
 51  26  27  1   
 52  26  50  1   
 53  26  51  1   
 54  27  28  1   
 55  27  52  1   
 56  27  53  1   
 57  28  54  1   
 58  28  55  1   
 59  28  56  1   
@<TRIPOS>SUBSTRUCTURE
  1 ****  16 GROUP 4 **** **** 0

# MOE 2024.06 (io_trps.svl 2023.06)
