@<TRIPOS>MOLECULE
NONAME
47 49 1 0 0 
SMALL
USER_CHARGES


@<TRIPOS>ATOM
  1 O       -1.6240     1.7960     1.9580 O.3   1 <1>  -0.5600 
  2 C       -0.3820     1.8190     1.3100 C.3   1 <1>   0.1200 
  3 C       -2.6700     1.9420     1.0420 C.3   1 <1>   0.1200 
  4 C       -0.6380     2.2930    -0.1180 C.3   1 <1>   0.2890 
  5 C       -2.0590     1.8180    -0.3570 C.3   1 <1>  -0.0800 
  6 N       -0.6200     3.7740    -0.1560 N.pl3 1 <1>  -0.8690 
  7 C       -2.0930     0.3700    -0.8830 C.3   1 <1>  -0.0170 
  8 C        0.3660     4.5380    -0.7220 C.ar  1 <1>   0.4100 
  9 C       -3.5180    -0.1010    -1.1300 C.ar  1 <1>  -0.1430 
 10 N        1.1350     3.9450    -1.6110 N.ar  1 <1>  -0.6200 
 11 C        0.5490     5.8750    -0.3780 C.ar  1 <1>  -0.1430 
 12 C       -4.1540    -0.9880    -0.2860 C.ar  1 <1>  -0.1500 
 13 C       -4.2490     0.3380    -2.2160 C.ar  1 <1>  -0.1500 
 14 C        2.0770     4.6880    -2.1530 C.ar  1 <1>   0.4770 
 15 C        1.5700     6.5310    -1.0190 C.ar  1 <1>   0.1600 
 16 C       -0.2920     6.6430     0.6500 C.3   1 <1>   0.0630 
 17 C       -5.4550    -1.3790    -0.5580 C.ar  1 <1>   0.1600 
 18 C       -5.5450    -0.1150    -2.3970 C.ar  1 <1>   0.1600 
 19 N        2.3470     5.9550    -1.9130 N.ar  1 <1>  -0.6200 
 20 C        2.9540     4.0130    -3.1790 C.3   1 <1>  -0.0970 
 21 C       -0.1510     6.0690     2.0660 C.3   1 <1>  -0.2400 
 22 C       -1.7640     6.7550     0.2340 C.3   1 <1>  -0.2400 
 23 N       -6.1660    -0.9630    -1.5930 N.ar  1 <1>  -0.6200 
 24 H        0.2920     2.4670     1.8410 H     1 <1>   0.0800 
 25 H        0.0030     0.8150     1.3110 H     1 <1>   0.0800 
 26 H       -3.4240     1.2030     1.2460 H     1 <1>   0.0800 
 27 H       -3.0880     2.9240     1.1830 H     1 <1>   0.0800 
 28 H        0.0670     1.8740    -0.8150 H     1 <1>   0.0800 
 29 H       -2.5660     2.4560    -1.0590 H     1 <1>   0.0800 
 30 H       -1.1170     4.1980     0.6280 H     1 <1>   0.4000 
 31 H       -1.6110    -0.2920    -0.1840 H     1 <1>   0.0800 
 32 H       -1.5480     0.3160    -1.8090 H     1 <1>   0.0800 
 33 H       -3.6540    -1.3780     0.5810 H     1 <1>   0.1500 
 34 H       -3.8230     1.0280    -2.9210 H     1 <1>   0.1500 
 35 H        1.7690     7.5660    -0.8030 H     1 <1>   0.1500 
 36 H        0.0860     7.6510     0.6940 H     1 <1>   0.0800 
 37 H       -5.9350    -2.0720     0.1120 H     1 <1>   0.1500 
 38 H       -6.0990     0.2390    -3.2490 H     1 <1>   0.1500 
 39 H        3.9760     4.3100    -3.0350 H     1 <1>   0.0800 
 40 H        2.6360     4.3040    -4.1610 H     1 <1>   0.0800 
 41 H        2.8850     2.9450    -3.0870 H     1 <1>   0.0800 
 42 H       -0.5920     5.0930     2.1500 H     1 <1>   0.0800 
 43 H       -0.6320     6.7170     2.7770 H     1 <1>   0.0800 
 44 H        0.8900     5.9940     2.3270 H     1 <1>   0.0800 
 45 H       -2.2530     5.7990     0.2400 H     1 <1>   0.0800 
 46 H       -1.8320     7.1630    -0.7600 H     1 <1>   0.0800 
 47 H       -2.2900     7.4090     0.9060 H     1 <1>   0.0800 
@<TRIPOS>BOND
  1   1   2  1   
  2   1   3  1   
  3   2   4  1   
  4   2  24  1   
  5   2  25  1   
  6   3   5  1   
  7   3  26  1   
  8   3  27  1   
  9   4   5  1   
 10   4   6  1   
 11   4  28  1   
 12   5   7  1   
 13   5  29  1   
 14   6   8  1   
 15   6  30  1   
 16   7   9  1   
 17   7  31  1   
 18   7  32  1   
 19   8  10  ar  
 20   8  11  ar  
 21   9  12  ar  
 22   9  13  ar  
 23  10  14  ar  
 24  11  15  ar  
 25  11  16  1   
 26  12  17  ar  
 27  12  33  1   
 28  13  18  ar  
 29  13  34  1   
 30  14  19  ar  
 31  14  20  1   
 32  15  19  ar  
 33  15  35  1   
 34  16  21  1   
 35  16  22  1   
 36  16  36  1   
 37  17  23  ar  
 38  17  37  1   
 39  18  23  ar  
 40  18  38  1   
 41  20  39  1   
 42  20  40  1   
 43  20  41  1   
 44  21  42  1   
 45  21  43  1   
 46  21  44  1   
 47  22  45  1   
 48  22  46  1   
 49  22  47  1   
@<TRIPOS>SUBSTRUCTURE
  1 ****   4 GROUP 4 **** **** 0

# MOE 2024.06 (io_trps.svl 2023.06)
