@<TRIPOS>MOLECULE
NONAME
41 43 1 0 0 
SMALL
USER_CHARGES


@<TRIPOS>ATOM
  1 S        0.6680    -0.0240     1.2190 S.3   1 <1>  -0.0800 
  2 C       -0.6660     0.7100     0.3330 C.2   1 <1>   0.3250 
  3 C       -0.1190    -1.5680     1.1500 C.2   1 <1>  -0.1100 
  4 N       -1.5840    -0.1480     0.0360 N.2   1 <1>  -0.5650 
  5 C       -0.6270     2.1250     0.0330 C.ar  1 <1>   0.0530 
  6 C       -1.2800    -1.4220     0.4950 C.2   1 <1>   0.0460 
  7 C       -1.8030     2.8050    -0.2900 C.ar  1 <1>  -0.1500 
  8 C        0.5560     2.8700     0.0400 C.ar  1 <1>  -0.1500 
  9 C       -2.2900    -2.5160     0.1860 C.3   1 <1>   0.5240 
 10 C       -1.8040     4.1550    -0.5900 C.ar  1 <1>  -0.1500 
 11 C        0.5610     4.2200    -0.2580 C.ar  1 <1>  -0.1500 
 12 N       -2.7190    -2.3340    -1.2310 N.4   1 <1>  -0.9590 
 13 C       -0.6190     4.8660    -0.5750 C.ar  1 <1>  -0.1500 
 14 C       -4.0960    -2.8920    -1.4700 C.3   1 <1>   0.5240 
 15 C       -1.7090    -2.8800    -2.1880 C.3   1 <1>   0.2630 
 16 C       -4.1700    -4.4070    -1.2620 C.2   1 <1>   0.3350 
 17 N       -4.2790    -5.2570    -2.2010 N.2   1 <1>  -0.4100 
 18 N       -4.0980    -4.9560    -0.0540 N.2   1 <1>  -0.5650 
 19 O       -4.3080    -6.4330    -1.6510 O.3   1 <1>  -0.0190 
 20 C       -4.2030    -6.1880    -0.3670 C.2   1 <1>   0.2980 
 21 C       -4.2110    -7.3580     0.6030 C.3   1 <1>   0.0200 
 22 C       -5.5740    -8.0610     0.6390 C.3   1 <1>  -0.2400 
 23 H        0.3800    -2.4040     1.6090 H     1 <1>   0.1500 
 24 H       -2.7350     2.2690    -0.3030 H     1 <1>   0.1500 
 25 H        1.4930     2.3990     0.2770 H     1 <1>   0.1500 
 26 H       -3.1360    -2.3940     0.8430 H     1 <1>   0.0800 
 27 H       -1.8670    -3.4940     0.3440 H     1 <1>   0.0800 
 28 H       -2.7250     4.6560    -0.8340 H     1 <1>   0.1500 
 29 H        1.4860     4.7720    -0.2460 H     1 <1>   0.1500 
 30 H       -2.7350    -1.3030    -1.3290 H     1 <1>   0.4500 
 31 H       -0.6160     5.9170    -0.8080 H     1 <1>   0.1500 
 32 H       -4.4010    -2.6760    -2.4800 H     1 <1>   0.0800 
 33 H       -4.8010    -2.4230    -0.8040 H     1 <1>   0.0800 
 34 H       -1.6160    -3.9480    -2.0720 H     1 <1>   0.0800 
 35 H       -0.7460    -2.4270    -2.0120 H     1 <1>   0.0800 
 36 H       -2.0030    -2.6700    -3.2040 H     1 <1>   0.0800 
 37 H       -3.9720    -6.9990     1.5880 H     1 <1>   0.0800 
 38 H       -3.4500    -8.0590     0.3110 H     1 <1>   0.0800 
 39 H       -6.3420    -7.3690     0.9370 H     1 <1>   0.0800 
 40 H       -5.5520    -8.8740     1.3440 H     1 <1>   0.0800 
 41 H       -5.8210    -8.4550    -0.3310 H     1 <1>   0.0800 
@<TRIPOS>BOND
  1   1   2  1   
  2   1   3  1   
  3   2   4  2   
  4   2   5  1   
  5   3   6  2   
  6   3  23  1   
  7   4   6  1   
  8   5   7  ar  
  9   5   8  ar  
 10   6   9  1   
 11   7  10  ar  
 12   7  24  1   
 13   8  11  ar  
 14   8  25  1   
 15   9  12  1   
 16   9  26  1   
 17   9  27  1   
 18  10  13  ar  
 19  10  28  1   
 20  11  13  ar  
 21  11  29  1   
 22  12  14  1   
 23  12  15  1   
 24  12  30  1   
 25  13  31  1   
 26  14  16  1   
 27  14  32  1   
 28  14  33  1   
 29  15  34  1   
 30  15  35  1   
 31  15  36  1   
 32  16  17  2   
 33  16  18  1   
 34  17  19  1   
 35  18  20  2   
 36  19  20  1   
 37  20  21  1   
 38  21  22  1   
 39  21  37  1   
 40  21  38  1   
 41  22  39  1   
 42  22  40  1   
 43  22  41  1   
@<TRIPOS>SUBSTRUCTURE
  1 ****   9 GROUP 4 **** **** 0

# MOE 2024.06 (io_trps.svl 2023.06)
