@<TRIPOS>MOLECULE
NONAME
48 49 1 0 0 
SMALL
USER_CHARGES


@<TRIPOS>ATOM
  1 O       -0.2070    -0.0800    -1.2930 O.2   1 <1>  -0.5700 
  2 C       -1.2280     0.5640    -1.2600 C.2   1 <1>   0.5690 
  3 N       -2.4560    -0.0220    -1.4480 N.am  1 <1>  -0.6600 
  4 C       -1.0710     2.0510    -0.9860 C.3   1 <1>  -0.0990 
  5 C       -2.5570    -1.5040    -1.5680 C.3   1 <1>   0.3200 
  6 C       -3.7400     0.7240    -1.6170 C.3   1 <1>   0.1400 
  7 C       -0.6660     2.2940     0.4710 C.3   1 <1>   0.0210 
  8 C       -3.4220    -2.0450    -0.4490 C.2   1 <1>  -0.3320 
  9 C       -4.3420     1.1250    -0.2640 C.3   1 <1>   0.1200 
 10 C       -0.6020     3.7870     0.7460 C.2   1 <1>  -0.1810 
 11 N       -4.7340    -2.3360    -0.5550 N.pl3 1 <1>   0.0330 
 12 C       -3.0760    -2.3270     0.8260 C.2   1 <1>   0.0770 
 13 O       -5.4920     1.8690    -0.4840 O.3   1 <1>  -0.6800 
 14 C       -1.5740     4.5790     1.3550 C.2   1 <1>   0.1080 
 15 C        0.3990     4.6440     0.4470 C.2   1 <1>  -0.3320 
 16 C       -5.1010    -2.7680     0.6710 C.2   1 <1>   0.0070 
 17 N       -4.1330    -2.7770     1.5260 N.2   1 <1>  -0.5650 
 18 N       -1.2200     5.8210     1.4220 N.2   1 <1>  -0.7070 
 19 C       -2.9080     4.1150     1.8980 C.3   1 <1>  -0.0590 
 20 N        0.0000     5.8650     0.8660 N.pl3 1 <1>   0.3140 
 21 C        1.7360     4.3720    -0.2270 C.3   1 <1>  -0.0600 
 22 C       -6.5150    -3.1940     1.0000 C.3   1 <1>  -0.0600 
 23 C        0.7410     7.1280     0.7660 C.3   1 <1>   0.0160 
 24 H       -1.9630     2.6020    -1.2010 H     1 <1>   0.0800 
 25 H       -0.3000     2.4310    -1.6310 H     1 <1>   0.0800 
 26 H       -1.5840    -1.9610    -1.5000 H     1 <1>   0.0800 
 27 H       -2.9690    -1.7640    -2.5270 H     1 <1>   0.0800 
 28 H       -4.4460     0.1060    -2.1420 H     1 <1>   0.0800 
 29 H       -3.5680     1.6000    -2.2170 H     1 <1>   0.0800 
 30 H        0.2980     1.8530     0.6560 H     1 <1>   0.0800 
 31 H       -1.3670     1.8230     1.1350 H     1 <1>   0.0800 
 32 H       -3.6580     1.7220     0.3100 H     1 <1>   0.0800 
 33 H       -4.6180     0.2560     0.3080 H     1 <1>   0.0800 
 34 H       -5.3400    -2.2490    -1.3740 H     1 <1>   0.2700 
 35 H       -2.1050    -2.2220     1.2830 H     1 <1>   0.1500 
 36 H       -5.2780     2.7670    -0.8060 H     1 <1>   0.4000 
 37 H       -2.7990     3.1810     2.4150 H     1 <1>   0.0800 
 38 H       -3.6080     4.0060     1.0920 H     1 <1>   0.0800 
 39 H       -3.2880     4.8450     2.5880 H     1 <1>   0.0800 
 40 H        1.8360     3.3300    -0.4690 H     1 <1>   0.0800 
 41 H        2.5420     4.6460     0.4290 H     1 <1>   0.0800 
 42 H        1.8140     4.9410    -1.1360 H     1 <1>   0.0800 
 43 H       -6.8040    -4.0250     0.3830 H     1 <1>   0.0800 
 44 H       -7.1940    -2.3760     0.8430 H     1 <1>   0.0800 
 45 H       -6.5710    -3.4950     2.0310 H     1 <1>   0.0800 
 46 H        1.6630     7.0380     1.3080 H     1 <1>   0.0800 
 47 H        0.1480     7.9170     1.1910 H     1 <1>   0.0800 
 48 H        0.9360     7.3400    -0.2670 H     1 <1>   0.0800 
@<TRIPOS>BOND
  1   1   2  2   
  2   2   3  am  
  3   2   4  1   
  4   3   5  1   
  5   3   6  1   
  6   4   7  1   
  7   4  24  1   
  8   4  25  1   
  9   5   8  1   
 10   5  26  1   
 11   5  27  1   
 12   6   9  1   
 13   6  28  1   
 14   6  29  1   
 15   7  10  1   
 16   7  30  1   
 17   7  31  1   
 18   8  11  1   
 19   8  12  2   
 20   9  13  1   
 21   9  32  1   
 22   9  33  1   
 23  10  14  1   
 24  10  15  2   
 25  11  16  1   
 26  11  34  1   
 27  12  17  1   
 28  12  35  1   
 29  13  36  1   
 30  14  18  2   
 31  14  19  1   
 32  15  20  1   
 33  15  21  1   
 34  16  17  2   
 35  16  22  1   
 36  18  20  1   
 37  19  37  1   
 38  19  38  1   
 39  19  39  1   
 40  20  23  1   
 41  21  40  1   
 42  21  41  1   
 43  21  42  1   
 44  22  43  1   
 45  22  44  1   
 46  22  45  1   
 47  23  46  1   
 48  23  47  1   
 49  23  48  1   
@<TRIPOS>SUBSTRUCTURE
  1 ****   4 GROUP 4 **** **** 0

# MOE 2024.06 (io_trps.svl 2023.06)
