@<TRIPOS>MOLECULE
NONAME
60 62 1 0 0 
SMALL
USER_CHARGES


@<TRIPOS>ATOM
  1 O        2.6980    -2.0530     1.3220 O.2   1 <1>  -0.5700 
  2 C        2.9200    -0.9310     0.8910 C.2   1 <1>   0.5440 
  3 N        2.9170     0.0630     1.8290 N.am  1 <1>  -0.5470 
  4 C        3.2550    -0.6970    -0.4940 C.ar  1 <1>   0.0860 
  5 C        3.2660     1.4230     1.7210 C.ar  1 <1>   0.1170 
  6 C        2.3640    -0.9660    -1.5580 C.ar  1 <1>   0.4100 
  7 C        4.5000    -0.1710    -0.8160 C.ar  1 <1>  -0.1500 
  8 C        2.6990     2.3040     0.7880 C.ar  1 <1>   0.0820 
  9 C        4.2260     1.9100     2.5990 C.ar  1 <1>  -0.1500 
 10 N        2.6580    -0.7370    -2.8370 N.ar  1 <1>  -0.6200 
 11 N        1.1070    -1.5130    -1.3600 N.pl3 1 <1>  -0.8380 
 12 C        4.7970     0.0580    -2.1380 C.ar  1 <1>  -0.1500 
 13 O        1.7460     1.8320    -0.0640 O.3   1 <1>  -0.3620 
 14 C        3.0990     3.6350     0.7520 C.ar  1 <1>  -0.1500 
 15 C        4.6260     3.2320     2.5540 C.ar  1 <1>  -0.1500 
 16 C        3.8490    -0.2400    -3.0980 C.ar  1 <1>   0.1600 
 17 C        1.0390    -2.9460    -0.9930 C.3   1 <1>   0.2090 
 18 C       -0.0920    -0.8690    -1.9890 C.3   1 <1>   0.2090 
 19 C        1.6470     2.3750    -1.3650 C.3   1 <1>   0.0400 
 20 C        4.0680     4.1020     1.6340 C.ar  1 <1>   0.0830 
 21 C        0.1350    -3.0990     0.2450 C.3   1 <1>   0.4230 
 22 C       -1.3270    -1.7760    -2.1590 C.3   1 <1>  -0.1600 
 23 O        4.5170     5.3850     1.6620 O.3   1 <1>  -0.3630 
 24 N        0.7210    -4.0510     1.2440 N.4   1 <1>  -0.9590 
 25 C       -1.3070    -3.4380    -0.1590 C.3   1 <1>  -0.1600 
 26 C       -1.9980    -2.2510    -0.8540 C.3   1 <1>  -0.1600 
 27 C        3.9540     6.3730     0.8280 C.3   1 <1>   0.0400 
 28 C        0.8470    -5.4600     0.7650 C.3   1 <1>   0.2630 
 29 C        0.0470    -3.9660     2.5730 C.3   1 <1>   0.2630 
 30 H        2.7770    -0.2790     2.7780 H     1 <1>   0.3700 
 31 H        5.2150     0.0550    -0.0430 H     1 <1>   0.1500 
 32 H        4.6710     1.2510     3.3230 H     1 <1>   0.1500 
 33 H        5.7500     0.4640    -2.4270 H     1 <1>   0.1500 
 34 H        2.6510     4.3040     0.0480 H     1 <1>   0.1500 
 35 H        5.3720     3.6010     3.2350 H     1 <1>   0.1500 
 36 H        4.0870    -0.0590    -4.1340 H     1 <1>   0.1500 
 37 H        2.0330    -3.2930    -0.7710 H     1 <1>   0.0800 
 38 H        0.6770    -3.5240    -1.8250 H     1 <1>   0.0800 
 39 H        0.1780    -0.4940    -2.9620 H     1 <1>   0.0800 
 40 H       -0.3670    -0.0190    -1.3880 H     1 <1>   0.0800 
 41 H        1.0560     1.7100    -1.9660 H     1 <1>   0.0800 
 42 H        2.6330     2.4570    -1.7880 H     1 <1>   0.0800 
 43 H        1.1680     3.3360    -1.3110 H     1 <1>   0.0800 
 44 H        0.1180    -2.1290     0.7160 H     1 <1>   0.0800 
 45 H       -1.0970    -2.6040    -2.8050 H     1 <1>   0.0800 
 46 H       -2.0560    -1.1870    -2.6890 H     1 <1>   0.0800 
 47 H        1.6770    -3.6520     1.3890 H     1 <1>   0.4500 
 48 H       -1.8880    -3.6800     0.7110 H     1 <1>   0.0800 
 49 H       -1.3180    -4.2890    -0.8170 H     1 <1>   0.0800 
 50 H       -3.0060    -2.5510    -1.0900 H     1 <1>   0.0800 
 51 H       -2.0720    -1.4210    -0.1720 H     1 <1>   0.0800 
 52 H        4.4380     7.3080     1.0460 H     1 <1>   0.0800 
 53 H        2.9020     6.4490     1.0380 H     1 <1>   0.0800 
 54 H        4.1260     6.1040    -0.1990 H     1 <1>   0.0800 
 55 H       -0.1280    -5.8840     0.5880 H     1 <1>   0.0800 
 56 H        1.3560    -6.0600     1.5020 H     1 <1>   0.0800 
 57 H        1.4120    -5.4960    -0.1520 H     1 <1>   0.0800 
 58 H       -0.9560    -4.3550     2.5140 H     1 <1>   0.0800 
 59 H        0.0040    -2.9400     2.9000 H     1 <1>   0.0800 
 60 H        0.5960    -4.5350     3.3050 H     1 <1>   0.0800 
@<TRIPOS>BOND
  1   1   2  2   
  2   2   3  am  
  3   2   4  1   
  4   3   5  1   
  5   3  30  1   
  6   4   6  ar  
  7   4   7  ar  
  8   5   8  ar  
  9   5   9  ar  
 10   6  10  ar  
 11   6  11  1   
 12   7  12  ar  
 13   7  31  1   
 14   8  13  1   
 15   8  14  ar  
 16   9  15  ar  
 17   9  32  1   
 18  10  16  ar  
 19  11  17  1   
 20  11  18  1   
 21  12  16  ar  
 22  12  33  1   
 23  13  19  1   
 24  14  20  ar  
 25  14  34  1   
 26  15  20  ar  
 27  15  35  1   
 28  16  36  1   
 29  17  21  1   
 30  17  37  1   
 31  17  38  1   
 32  18  22  1   
 33  18  39  1   
 34  18  40  1   
 35  19  41  1   
 36  19  42  1   
 37  19  43  1   
 38  20  23  1   
 39  21  24  1   
 40  21  25  1   
 41  21  44  1   
 42  22  26  1   
 43  22  45  1   
 44  22  46  1   
 45  23  27  1   
 46  24  28  1   
 47  24  29  1   
 48  24  47  1   
 49  25  26  1   
 50  25  48  1   
 51  25  49  1   
 52  26  50  1   
 53  26  51  1   
 54  27  52  1   
 55  27  53  1   
 56  27  54  1   
 57  28  55  1   
 58  28  56  1   
 59  28  57  1   
 60  29  58  1   
 61  29  59  1   
 62  29  60  1   
@<TRIPOS>SUBSTRUCTURE
  1 ****   4 GROUP 4 **** **** 0

# MOE 2024.06 (io_trps.svl 2023.06)
