@<TRIPOS>MOLECULE
NONAME
38 40 1 0 0 
SMALL
USER_CHARGES


@<TRIPOS>ATOM
  1 CL      -1.0590     4.5330     1.8660 Cl    1 <1>  -0.1770 
  2 C        0.4490     4.9090     1.0720 C.ar  1 <1>   0.1770 
  3 C        1.6400     4.5700     1.6880 C.ar  1 <1>  -0.1500 
  4 C        0.4210     5.5430    -0.1660 C.ar  1 <1>  -0.1500 
  5 C        2.8000     4.8950     1.0110 C.ar  1 <1>   0.0400 
  6 C        1.6080     5.8520    -0.8140 C.ar  1 <1>  -0.1500 
  7 S        4.4560     4.6120     1.4930 S.3   1 <1>  -0.0800 
  8 C        2.8230     5.5280    -0.2190 C.ar  1 <1>   0.2270 
  9 C        5.0160     5.3810     0.0000 C.2   1 <1>   0.4620 
 10 N        4.0690     5.7920    -0.7610 N.2   1 <1>  -0.5650 
 11 N        6.3670     5.5090    -0.2180 N.pl3 1 <1>  -0.8220 
 12 C        6.8770     6.2930    -1.3830 C.3   1 <1>   0.3890 
 13 C        7.4080     4.8670     0.6340 C.3   1 <1>   0.1290 
 14 C        7.7690     7.4440    -0.9360 C.2   1 <1>   0.0070 
 15 N        8.9580     7.6340    -1.3990 N.2   1 <1>  -0.3380 
 16 N        7.4380     8.3820    -0.0360 N.pl3 1 <1>   0.0480 
 17 N        9.4450     8.7220    -0.8020 N.2   1 <1>  -0.3380 
 18 C        8.5310     9.1460    -0.0010 C.2   1 <1>   0.0370 
 19 C        6.2150     8.5750     0.7710 C.3   1 <1>   0.0960 
 20 C        5.0610     9.0690    -0.0960 C.3   1 <1>   0.1200 
 21 O        3.9740     9.2960     0.7410 O.3   1 <1>  -0.5600 
 22 C        2.7850     9.5450     0.0650 C.3   1 <1>   0.0400 
 23 H        1.6590     4.0800     2.6430 H     1 <1>   0.1500 
 24 H       -0.5270     5.7860    -0.6110 H     1 <1>   0.1500 
 25 H        1.6100     6.3380    -1.7730 H     1 <1>   0.1500 
 26 H        6.0640     6.6880    -1.9650 H     1 <1>   0.0800 
 27 H        7.4410     5.6380    -2.0240 H     1 <1>   0.0800 
 28 H        7.0870     3.8890     0.9480 H     1 <1>   0.0800 
 29 H        7.5940     5.4750     1.5020 H     1 <1>   0.0800 
 30 H        8.3290     4.7600     0.0840 H     1 <1>   0.0800 
 31 H        8.6260    10.0110     0.6290 H     1 <1>   0.1500 
 32 H        6.4170     9.3020     1.5370 H     1 <1>   0.0800 
 33 H        5.9500     7.6470     1.2400 H     1 <1>   0.0800 
 34 H        4.7890     8.3250    -0.8240 H     1 <1>   0.0800 
 35 H        5.3140     9.9950    -0.5830 H     1 <1>   0.0800 
 36 H        2.0140     9.7170     0.7960 H     1 <1>   0.0800 
 37 H        2.5310     8.6870    -0.5330 H     1 <1>   0.0800 
 38 H        2.9010    10.4180    -0.5530 H     1 <1>   0.0800 
@<TRIPOS>BOND
  1   1   2  1   
  2   2   3  ar  
  3   2   4  ar  
  4   3   5  ar  
  5   3  23  1   
  6   4   6  ar  
  7   4  24  1   
  8   5   7  1   
  9   5   8  ar  
 10   6   8  ar  
 11   6  25  1   
 12   7   9  1   
 13   8  10  1   
 14   9  10  2   
 15   9  11  1   
 16  11  12  1   
 17  11  13  1   
 18  12  14  1   
 19  12  26  1   
 20  12  27  1   
 21  13  28  1   
 22  13  29  1   
 23  13  30  1   
 24  14  15  2   
 25  14  16  1   
 26  15  17  1   
 27  16  18  1   
 28  16  19  1   
 29  17  18  2   
 30  18  31  1   
 31  19  20  1   
 32  19  32  1   
 33  19  33  1   
 34  20  21  1   
 35  20  34  1   
 36  20  35  1   
 37  21  22  1   
 38  22  36  1   
 39  22  37  1   
 40  22  38  1   
@<TRIPOS>SUBSTRUCTURE
  1 ****   9 GROUP 4 **** **** 0

# MOE 2024.06 (io_trps.svl 2023.06)
