@<TRIPOS>MOLECULE
NONAME
50 53 1 0 0 
SMALL
USER_CHARGES


@<TRIPOS>ATOM
  1 S        0.6240    -0.3630    -0.1590 S.3   1 <1>  -0.0800 
  2 C       -0.1310    -1.5010     0.9480 C.2   1 <1>  -0.1400 
  3 C        0.0580     1.0020     0.7870 C.2   1 <1>  -0.1100 
  4 C       -0.7490    -0.8450     1.9490 C.2   1 <1>  -0.1500 
  5 C        0.0270    -2.9760     0.6440 C.3   1 <1>   0.5230 
  6 C       -0.6430     0.5790     1.8540 C.2   1 <1>  -0.1500 
  7 N       -1.1290    -3.4330    -0.1730 N.4   1 <1>  -0.9590 
  8 C       -1.1950    -4.9360    -0.1880 C.3   1 <1>   0.3430 
  9 C       -1.1090    -2.8600    -1.5520 C.3   1 <1>   0.3430 
 10 C       -2.3930    -5.4810    -0.9960 C.3   1 <1>   0.2890 
 11 C       -2.3350    -3.3370    -2.3360 C.3   1 <1>  -0.1600 
 12 N       -2.2780    -6.9410    -1.1230 N.pl3 1 <1>  -0.8690 
 13 C       -2.4270    -4.8710    -2.4000 C.3   1 <1>  -0.1600 
 14 C       -2.6620    -7.7740    -0.1290 C.ar  1 <1>   0.7200 
 15 N       -3.1410    -8.9220    -0.5610 N.ar  1 <1>  -0.6200 
 16 N       -2.5220    -7.3450     1.1220 N.ar  1 <1>  -0.6200 
 17 C       -3.5300    -9.7870     0.3610 C.ar  1 <1>   0.4100 
 18 C       -2.9200    -8.2070     2.0410 C.ar  1 <1>   0.1600 
 19 N       -4.0320   -11.0020    -0.1020 N.pl3 1 <1>  -0.8380 
 20 C       -3.4290    -9.4320     1.7080 C.ar  1 <1>   0.1900 
 21 C       -3.9280   -12.2690     0.6610 C.3   1 <1>   0.2090 
 22 C       -4.2020   -11.2830    -1.5490 C.3   1 <1>   0.2090 
 23 F       -3.8200   -10.2320     2.6780 F     1 <1>  -0.1900 
 24 C       -3.8600   -13.3660    -0.3950 C.3   1 <1>  -0.1600 
 25 C       -4.5400   -12.7660    -1.6200 C.3   1 <1>  -0.1600 
 26 H        0.3150     1.9890     0.4420 H     1 <1>   0.1500 
 27 H       -1.2820    -1.2890     2.7740 H     1 <1>   0.1500 
 28 H        0.0460    -3.5180     1.5760 H     1 <1>   0.0800 
 29 H        0.9570    -3.1520     0.1280 H     1 <1>   0.0800 
 30 H       -1.0960     1.2190     2.5930 H     1 <1>   0.1500 
 31 H       -1.9700    -3.0720     0.2970 H     1 <1>   0.4500 
 32 H       -1.2650    -5.3070     0.8210 H     1 <1>   0.0800 
 33 H       -0.2940    -5.3290    -0.6280 H     1 <1>   0.0800 
 34 H       -0.2110    -3.1700    -2.0640 H     1 <1>   0.0800 
 35 H       -1.1170    -1.7820    -1.5070 H     1 <1>   0.0800 
 36 H       -3.3070    -5.2460    -0.4750 H     1 <1>   0.0800 
 37 H       -2.2790    -2.9460    -3.3380 H     1 <1>   0.0800 
 38 H       -3.2260    -2.9320    -1.8870 H     1 <1>   0.0800 
 39 H       -2.5920    -7.3280    -2.0160 H     1 <1>   0.4000 
 40 H       -3.3400    -5.1560    -2.8950 H     1 <1>   0.0800 
 41 H       -1.5980    -5.2490    -2.9750 H     1 <1>   0.0800 
 42 H       -2.8410    -7.9310     3.0780 H     1 <1>   0.1500 
 43 H       -4.8100   -12.3870     1.2670 H     1 <1>   0.0800 
 44 H       -3.0510   -12.2800     1.2870 H     1 <1>   0.0800 
 45 H       -3.2760   -11.0880    -2.0630 H     1 <1>   0.0800 
 46 H       -4.9850   -10.6740    -1.9670 H     1 <1>   0.0800 
 47 H       -4.3360   -14.2710    -0.0610 H     1 <1>   0.0800 
 48 H       -2.8270   -13.5730    -0.6150 H     1 <1>   0.0800 
 49 H       -4.2020   -13.2090    -2.5390 H     1 <1>   0.0800 
 50 H       -5.6070   -12.8820    -1.5420 H     1 <1>   0.0800 
@<TRIPOS>BOND
  1   1   2  1   
  2   1   3  1   
  3   2   4  2   
  4   2   5  1   
  5   3   6  2   
  6   3  26  1   
  7   4   6  1   
  8   4  27  1   
  9   5   7  1   
 10   5  28  1   
 11   5  29  1   
 12   6  30  1   
 13   7   8  1   
 14   7   9  1   
 15   7  31  1   
 16   8  10  1   
 17   8  32  1   
 18   8  33  1   
 19   9  11  1   
 20   9  34  1   
 21   9  35  1   
 22  10  12  1   
 23  10  13  1   
 24  10  36  1   
 25  11  13  1   
 26  11  37  1   
 27  11  38  1   
 28  12  14  1   
 29  12  39  1   
 30  13  40  1   
 31  13  41  1   
 32  14  15  ar  
 33  14  16  ar  
 34  15  17  ar  
 35  16  18  ar  
 36  17  19  1   
 37  17  20  ar  
 38  18  20  ar  
 39  18  42  1   
 40  19  21  1   
 41  19  22  1   
 42  20  23  1   
 43  21  24  1   
 44  21  43  1   
 45  21  44  1   
 46  22  25  1   
 47  22  45  1   
 48  22  46  1   
 49  24  25  1   
 50  24  47  1   
 51  24  48  1   
 52  25  49  1   
 53  25  50  1   
@<TRIPOS>SUBSTRUCTURE
  1 ****  12 GROUP 4 **** **** 0

# MOE 2024.06 (io_trps.svl 2023.06)
