@<TRIPOS>MOLECULE
NONAME
52 54 1 0 0 
SMALL
USER_CHARGES


@<TRIPOS>ATOM
  1 O        1.9370     0.9410     0.4580 O.2   1 <1>  -0.5700 
  2 C        2.4080    -0.0860     0.0080 C.2   1 <1>   0.5440 
  3 N        2.9040    -0.0450    -1.2900 N.am  1 <1>  -0.6600 
  4 C        2.4770    -1.2730     0.8640 C.ar  1 <1>   0.3960 
  5 C        3.5310    -1.2160    -1.9850 C.3   1 <1>   0.1400 
  6 C        2.9500     1.2280    -2.0650 C.3   1 <1>   0.1400 
  7 N        3.6340    -1.9630     0.9580 N.ar  1 <1>  -0.6200 
  8 C        1.3430    -1.6460     1.5760 C.ar  1 <1>  -0.1500 
  9 C        5.0480    -1.3020    -1.7060 C.3   1 <1>   0.3430 
 10 C        4.2780     1.9550    -1.8170 C.3   1 <1>  -0.1600 
 11 C        3.6300    -3.0120     1.7660 C.ar  1 <1>   0.1600 
 12 C        1.3550    -2.7450     2.4030 C.ar  1 <1>   0.0820 
 13 N        5.5830    -0.0280    -1.1300 N.4   1 <1>  -0.9590 
 14 C        5.5340     1.1190    -2.0810 C.3   1 <1>   0.3430 
 15 C        2.5420    -3.4450     2.4980 C.ar  1 <1>  -0.1500 
 16 O        0.2200    -3.0600     3.0610 O.3   1 <1>  -0.3630 
 17 C        6.8930    -0.2060    -0.4710 C.3   1 <1>   0.4810 
 18 C        0.1560    -4.1520     3.9510 C.3   1 <1>   0.0400 
 19 C        7.1810     1.0480     0.3180 C.2   1 <1>  -0.2880 
 20 C        8.1850     1.9050     0.0620 C.2   1 <1>  -0.1780 
 21 C        8.5100     3.1310     0.7600 C.ar  1 <1>   0.0280 
 22 C        7.6690     3.6960     1.7170 C.ar  1 <1>  -0.1500 
 23 C        9.7010     3.7960     0.4760 C.ar  1 <1>  -0.1500 
 24 C        8.0020     4.8730     2.3620 C.ar  1 <1>  -0.1500 
 25 C       10.0400     4.9730     1.1180 C.ar  1 <1>  -0.1500 
 26 C        9.1900     5.5150     2.0640 C.ar  1 <1>  -0.1500 
 27 H        3.0570    -2.1310    -1.6710 H     1 <1>   0.0800 
 28 H        3.3690    -1.1340    -3.0460 H     1 <1>   0.0800 
 29 H        2.8270     1.0210    -3.1140 H     1 <1>   0.0800 
 30 H        2.1320     1.8660    -1.7700 H     1 <1>   0.0800 
 31 H        0.4420    -1.0660     1.4860 H     1 <1>   0.1500 
 32 H        5.5730    -1.5620    -2.6100 H     1 <1>   0.0800 
 33 H        5.2040    -2.1000    -0.9980 H     1 <1>   0.0800 
 34 H        4.2960     2.3270    -0.8070 H     1 <1>   0.0800 
 35 H        4.3070     2.8170    -2.4590 H     1 <1>   0.0800 
 36 H        4.5490    -3.5680     1.8560 H     1 <1>   0.1500 
 37 H        4.9050     0.2150    -0.3890 H     1 <1>   0.4500 
 38 H        6.3980     1.7490    -1.9410 H     1 <1>   0.0800 
 39 H        5.5390     0.7640    -3.0980 H     1 <1>   0.0800 
 40 H        2.6370    -4.3110     3.1250 H     1 <1>   0.1500 
 41 H        6.8650    -1.0530     0.1960 H     1 <1>   0.0800 
 42 H        7.6630    -0.3680    -1.2090 H     1 <1>   0.0800 
 43 H       -0.8400    -4.1950     4.3560 H     1 <1>   0.0800 
 44 H        0.8650    -3.9980     4.7450 H     1 <1>   0.0800 
 45 H        0.3690    -5.0570     3.4120 H     1 <1>   0.0800 
 46 H        6.4850     1.1890     1.1260 H     1 <1>   0.1500 
 47 H        8.8610     1.6990    -0.7510 H     1 <1>   0.1500 
 48 H        6.7390     3.2230     1.9680 H     1 <1>   0.1500 
 49 H       10.3780     3.3910    -0.2540 H     1 <1>   0.1500 
 50 H        7.3380     5.2920     3.0990 H     1 <1>   0.1500 
 51 H       10.9660     5.4690     0.8830 H     1 <1>   0.1500 
 52 H        9.4510     6.4310     2.5650 H     1 <1>   0.1500 
@<TRIPOS>BOND
  1   1   2  2   
  2   2   3  am  
  3   2   4  1   
  4   3   5  1   
  5   3   6  1   
  6   4   7  ar  
  7   4   8  ar  
  8   5   9  1   
  9   5  27  1   
 10   5  28  1   
 11   6  10  1   
 12   6  29  1   
 13   6  30  1   
 14   7  11  ar  
 15   8  12  ar  
 16   8  31  1   
 17   9  13  1   
 18   9  32  1   
 19   9  33  1   
 20  10  14  1   
 21  10  34  1   
 22  10  35  1   
 23  11  15  ar  
 24  11  36  1   
 25  12  15  ar  
 26  12  16  1   
 27  13  14  1   
 28  13  17  1   
 29  13  37  1   
 30  14  38  1   
 31  14  39  1   
 32  15  40  1   
 33  16  18  1   
 34  17  19  1   
 35  17  41  1   
 36  17  42  1   
 37  18  43  1   
 38  18  44  1   
 39  18  45  1   
 40  19  20  2   
 41  19  46  1   
 42  20  21  1   
 43  20  47  1   
 44  21  22  ar  
 45  21  23  ar  
 46  22  24  ar  
 47  22  48  1   
 48  23  25  ar  
 49  23  49  1   
 50  24  26  ar  
 51  24  50  1   
 52  25  26  ar  
 53  25  51  1   
 54  26  52  1   
@<TRIPOS>SUBSTRUCTURE
  1 ****  13 GROUP 4 **** **** 0

# MOE 2024.06 (io_trps.svl 2023.06)
