@<TRIPOS>MOLECULE
NONAME
48 50 1 0 0 
SMALL
USER_CHARGES


@<TRIPOS>ATOM
  1 O       -0.4740     0.8870    -1.1950 O.2   1 <1>  -0.5700 
  2 C       -1.5650     1.3300    -0.8980 C.2   1 <1>   0.5440 
  3 N       -2.6490     0.4710    -0.8400 N.am  1 <1>  -0.6600 
  4 C       -1.6790     2.7350    -0.5990 C.ar  1 <1>   0.0860 
  5 C       -2.5900    -0.9170    -1.4160 C.3   1 <1>   0.1400 
  6 C       -3.9560     0.8520    -0.2360 C.3   1 <1>   0.1400 
  7 C       -0.8890     3.3060     0.3950 C.ar  1 <1>   0.1600 
  8 C       -2.5620     3.5790    -1.2680 C.ar  1 <1>  -0.1500 
  9 C       -2.9890    -2.0040    -0.3860 C.3   1 <1>   0.0000 
 10 C       -4.3540    -0.1740     0.8220 C.3   1 <1>  -0.1600 
 11 N       -0.9250     4.5690     0.7870 N.ar  1 <1>  -0.6200 
 12 C       -2.6090     4.8960    -0.8800 C.ar  1 <1>  -0.1500 
 13 C       -4.3560    -1.5740     0.2110 C.3   1 <1>   0.2000 
 14 C       -3.2320    -3.3450    -1.1240 C.3   1 <1>   0.1200 
 15 C       -1.8930    -2.1350     0.7210 C.3   1 <1>  -0.0160 
 16 C       -1.7850     5.3400     0.1490 C.ar  1 <1>   0.4100 
 17 O       -4.7920    -2.4630     1.1790 O.3   1 <1>  -0.6800 
 18 O       -2.1950    -3.6510    -1.9950 O.3   1 <1>  -0.6800 
 19 C       -0.6630    -2.9510     0.3350 C.ar  1 <1>  -0.1440 
 20 N       -1.8030     6.6240     0.5680 N.pl3 1 <1>  -0.9000 
 21 C        0.4080    -2.3590    -0.3150 C.ar  1 <1>  -0.1500 
 22 C       -0.6060    -4.3060     0.6300 C.ar  1 <1>  -0.1500 
 23 C        1.5110    -3.1100    -0.6810 C.ar  1 <1>  -0.1500 
 24 C        0.4970    -5.0590     0.2660 C.ar  1 <1>  -0.1500 
 25 C        1.5560    -4.4620    -0.3930 C.ar  1 <1>  -0.1500 
 26 H       -3.2640    -0.9610    -2.2540 H     1 <1>   0.0800 
 27 H       -1.6070    -1.1250    -1.8010 H     1 <1>   0.0800 
 28 H       -3.9040     1.8210     0.2280 H     1 <1>   0.0800 
 29 H       -4.7020     0.8890    -1.0110 H     1 <1>   0.0800 
 30 H       -0.1840     2.6640     0.8950 H     1 <1>   0.1500 
 31 H       -3.1810     3.2010    -2.0620 H     1 <1>   0.1500 
 32 H       -5.3410     0.0640     1.1780 H     1 <1>   0.0800 
 33 H       -3.6690    -0.1120     1.6480 H     1 <1>   0.0800 
 34 H       -3.2750     5.5920    -1.3540 H     1 <1>   0.1500 
 35 H       -5.0960    -1.5950    -0.5720 H     1 <1>   0.0800 
 36 H       -4.1290    -3.2960    -1.7170 H     1 <1>   0.0800 
 37 H       -3.3350    -4.1560    -0.4230 H     1 <1>   0.0800 
 38 H       -1.5670    -1.1570     1.0290 H     1 <1>   0.0800 
 39 H       -2.3100    -2.6010     1.5930 H     1 <1>   0.0800 
 40 H       -4.2660    -2.3650     1.9950 H     1 <1>   0.4000 
 41 H       -1.3450    -3.6890    -1.4960 H     1 <1>   0.4000 
 42 H       -1.0680     6.8530     1.2400 H     1 <1>   0.4000 
 43 H       -2.0130     7.3690    -0.0950 H     1 <1>   0.4000 
 44 H        0.3940    -1.3090    -0.5430 H     1 <1>   0.1500 
 45 H       -1.4220    -4.7870     1.1420 H     1 <1>   0.1500 
 46 H        2.3330    -2.6370    -1.1900 H     1 <1>   0.1500 
 47 H        0.5310    -6.1100     0.4950 H     1 <1>   0.1500 
 48 H        2.4130    -5.0450    -0.6780 H     1 <1>   0.1500 
@<TRIPOS>BOND
  1   1   2  2   
  2   2   3  am  
  3   2   4  1   
  4   3   5  1   
  5   3   6  1   
  6   4   7  ar  
  7   4   8  ar  
  8   5   9  1   
  9   5  26  1   
 10   5  27  1   
 11   6  10  1   
 12   6  28  1   
 13   6  29  1   
 14   7  11  ar  
 15   7  30  1   
 16   8  12  ar  
 17   8  31  1   
 18   9  13  1   
 19   9  14  1   
 20   9  15  1   
 21  10  13  1   
 22  10  32  1   
 23  10  33  1   
 24  11  16  ar  
 25  12  16  ar  
 26  12  34  1   
 27  13  17  1   
 28  13  35  1   
 29  14  18  1   
 30  14  36  1   
 31  14  37  1   
 32  15  19  1   
 33  15  38  1   
 34  15  39  1   
 35  16  20  1   
 36  17  40  1   
 37  18  41  1   
 38  19  21  ar  
 39  19  22  ar  
 40  20  42  1   
 41  20  43  1   
 42  21  23  ar  
 43  21  44  1   
 44  22  24  ar  
 45  22  45  1   
 46  23  25  ar  
 47  23  46  1   
 48  24  25  ar  
 49  24  47  1   
 50  25  48  1   
@<TRIPOS>SUBSTRUCTURE
  1 ****   3 GROUP 4 **** **** 0

# MOE 2024.06 (io_trps.svl 2023.06)
