@<TRIPOS>MOLECULE
NONAME
41 42 1 0 0 
SMALL
USER_CHARGES


@<TRIPOS>ATOM
  1 S       -0.0890     0.5520    -0.7980 S.o2  1 <1>   1.3330 
  2 O       -0.2460     1.3580    -1.9870 O.2   1 <1>  -0.6500 
  3 O       -0.3620    -0.8660    -0.8810 O.2   1 <1>  -0.6500 
  4 N        1.4840     0.7330    -0.1810 N.am  1 <1>  -0.8490 
  5 C       -1.1430     1.2150     0.5020 C.3   1 <1>  -0.0550 
  6 C        2.0440    -0.4890     0.4040 C.3   1 <1>   0.1160 
  7 C        2.4280     1.3220    -1.1370 C.3   1 <1>   0.1160 
  8 C       -1.0950     2.7250     0.8450 C.3   1 <1>  -0.0800 
  9 C       -1.4120     3.6620    -0.3290 C.3   1 <1>   0.2000 
 10 C        0.2380     3.2260     1.4220 C.3   1 <1>   0.2090 
 11 O       -2.1930     4.6930     0.1700 O.3   1 <1>  -0.6800 
 12 C       -0.0680     4.2550    -0.7520 C.3   1 <1>   0.2090 
 13 N        0.7700     4.2420     0.4790 N.pl3 1 <1>  -0.8380 
 14 C        2.1360     4.4860     0.3970 C.ar  1 <1>   0.4100 
 15 N        2.6310     4.7720    -0.8020 N.ar  1 <1>  -0.6200 
 16 C        2.9340     4.4350     1.5410 C.ar  1 <1>  -0.1500 
 17 C        3.9320     5.0010    -0.8640 C.ar  1 <1>   0.1600 
 18 C        4.2870     4.6690     1.4610 C.ar  1 <1>  -0.1500 
 19 C        4.8010     4.9610     0.2140 C.ar  1 <1>  -0.1440 
 20 C        6.2870     5.2360     0.0520 C.3   1 <1>  -0.0970 
 21 H       -2.1570     0.9880     0.2340 H     1 <1>   0.0800 
 22 H       -0.9400     0.6670     1.4020 H     1 <1>   0.0800 
 23 H        2.9950    -0.2780     0.8630 H     1 <1>   0.0800 
 24 H        2.1790    -1.2400    -0.3570 H     1 <1>   0.0800 
 25 H        1.3790    -0.8760     1.1570 H     1 <1>   0.0800 
 26 H        3.3760     1.5040    -0.6620 H     1 <1>   0.0800 
 27 H        2.0560     2.2650    -1.4970 H     1 <1>   0.0800 
 28 H        2.5680     0.6660    -1.9790 H     1 <1>   0.0800 
 29 H       -1.8450     2.8610     1.6050 H     1 <1>   0.0800 
 30 H       -1.9430     3.1940    -1.1400 H     1 <1>   0.0800 
 31 H        0.9460     2.4290     1.5620 H     1 <1>   0.0800 
 32 H        0.0640     3.6990     2.3730 H     1 <1>   0.0800 
 33 H       -1.6100     5.2790     0.6970 H     1 <1>   0.4000 
 34 H       -0.1760     5.2540    -1.1380 H     1 <1>   0.0800 
 35 H        0.3880     3.6450    -1.5090 H     1 <1>   0.0800 
 36 H        2.4850     4.2200     2.4890 H     1 <1>   0.1500 
 37 H        4.3260     5.2360    -1.8370 H     1 <1>   0.1500 
 38 H        4.9140     4.6310     2.3340 H     1 <1>   0.1500 
 39 H        6.5720     6.0740     0.6620 H     1 <1>   0.0800 
 40 H        6.5270     5.4610    -0.9720 H     1 <1>   0.0800 
 41 H        6.8540     4.3750     0.3560 H     1 <1>   0.0800 
@<TRIPOS>BOND
  1   1   2  2   
  2   1   3  2   
  3   1   4  am  
  4   1   5  1   
  5   4   6  1   
  6   4   7  1   
  7   5   8  1   
  8   5  21  1   
  9   5  22  1   
 10   6  23  1   
 11   6  24  1   
 12   6  25  1   
 13   7  26  1   
 14   7  27  1   
 15   7  28  1   
 16   8   9  1   
 17   8  10  1   
 18   8  29  1   
 19   9  11  1   
 20   9  12  1   
 21   9  30  1   
 22  10  13  1   
 23  10  31  1   
 24  10  32  1   
 25  11  33  1   
 26  12  13  1   
 27  12  34  1   
 28  12  35  1   
 29  13  14  1   
 30  14  15  ar  
 31  14  16  ar  
 32  15  17  ar  
 33  16  18  ar  
 34  16  36  1   
 35  17  19  ar  
 36  17  37  1   
 37  18  19  ar  
 38  18  38  1   
 39  19  20  1   
 40  20  39  1   
 41  20  40  1   
 42  20  41  1   
@<TRIPOS>SUBSTRUCTURE
  1 ****  13 GROUP 4 **** **** 0

# MOE 2024.06 (io_trps.svl 2023.06)
