@<TRIPOS>MOLECULE
NONAME
49 52 1 0 0 
SMALL
USER_CHARGES


@<TRIPOS>ATOM
  1 F       -3.5180    -0.5460     1.3560 F     1 <1>  -0.1900 
  2 C       -3.0830     0.3320     0.4880 C.ar  1 <1>   0.1900 
  3 C       -2.9600     1.6560     0.8720 C.ar  1 <1>   0.1900 
  4 C       -2.7590    -0.0850    -0.8000 C.ar  1 <1>   0.0860 
  5 F       -3.2870     2.0050     2.0920 F     1 <1>  -0.1900 
  6 C       -2.5010     2.6260    -0.0060 C.ar  1 <1>  -0.1440 
  7 C       -2.8830    -1.4590    -1.2280 C.2   1 <1>   0.5440 
  8 C       -2.2900     0.8970    -1.6750 C.ar  1 <1>  -0.1500 
  9 C       -2.1640     2.2240    -1.2920 C.ar  1 <1>  -0.1500 
 10 C       -2.3640     4.0820     0.4160 C.3   1 <1>  -0.0960 
 11 O       -1.8740    -2.0610    -1.5410 O.2   1 <1>  -0.5700 
 12 N       -4.1010    -2.0970    -1.3290 N.am  1 <1>  -0.6600 
 13 C       -5.4330    -1.4510    -1.1150 C.3   1 <1>   0.1400 
 14 C       -4.2100    -3.5630    -1.6080 C.3   1 <1>   0.1400 
 15 C       -6.2350    -2.1970    -0.0310 C.3   1 <1>   0.1900 
 16 C       -5.0590    -4.2640    -0.5350 C.3   1 <1>   0.1100 
 17 N       -6.3900    -3.6300    -0.3890 N.3   1 <1>  -0.8100 
 18 C       -7.6130    -1.5360     0.1690 C.3   1 <1>   0.1200 
 19 C       -7.2180    -4.3140     0.6320 C.3   1 <1>   0.3330 
 20 O       -8.3490    -2.2170     1.1440 O.3   1 <1>  -0.5600 
 21 C       -7.5020    -5.7620     0.2340 C.ar  1 <1>  -0.1430 
 22 C       -8.5550    -3.5710     0.8380 C.3   1 <1>   0.1200 
 23 C       -7.9340    -6.0770    -1.0480 C.ar  1 <1>  -0.1500 
 24 C       -7.3360    -6.7830     1.1580 C.ar  1 <1>  -0.1500 
 25 C       -8.1970    -7.3890    -1.4000 C.ar  1 <1>  -0.1500 
 26 C       -7.5990    -8.0970     0.8080 C.ar  1 <1>  -0.1500 
 27 C       -8.0300    -8.4000    -0.4710 C.ar  1 <1>  -0.1500 
 28 H       -2.0140     0.6030    -2.6750 H     1 <1>   0.1500 
 29 H       -1.7980     2.9450    -2.0040 H     1 <1>   0.1500 
 30 H       -2.0030     4.6900    -0.3940 H     1 <1>   0.0800 
 31 H       -1.6730     4.1620     1.2370 H     1 <1>   0.0800 
 32 H       -3.3190     4.4650     0.7310 H     1 <1>   0.0800 
 33 H       -5.3190    -0.4220    -0.8320 H     1 <1>   0.0800 
 34 H       -5.9840    -1.4800    -2.0390 H     1 <1>   0.0800 
 35 H       -4.6680    -3.7060    -2.5710 H     1 <1>   0.0800 
 36 H       -3.2350    -4.0180    -1.6350 H     1 <1>   0.0800 
 37 H       -5.6940    -2.1150     0.8970 H     1 <1>   0.0800 
 38 H       -4.5320    -4.2340     0.4040 H     1 <1>   0.0800 
 39 H       -5.1750    -5.2950    -0.8180 H     1 <1>   0.0800 
 40 H       -8.1740    -1.5410    -0.7500 H     1 <1>   0.0800 
 41 H       -7.4960    -0.5210     0.5020 H     1 <1>   0.0800 
 42 H       -6.6900    -4.3070     1.5710 H     1 <1>   0.0800 
 43 H       -9.0990    -4.0140     1.6520 H     1 <1>   0.0800 
 44 H       -9.1570    -3.6330    -0.0510 H     1 <1>   0.0800 
 45 H       -8.0590    -5.2930    -1.7750 H     1 <1>   0.1500 
 46 H       -7.0020    -6.5630     2.1570 H     1 <1>   0.1500 
 47 H       -8.5300    -7.6210    -2.3960 H     1 <1>   0.1500 
 48 H       -7.4680    -8.8830     1.5310 H     1 <1>   0.1500 
 49 H       -8.2340    -9.4210    -0.7440 H     1 <1>   0.1500 
@<TRIPOS>BOND
  1   1   2  1   
  2   2   3  ar  
  3   2   4  ar  
  4   3   5  1   
  5   3   6  ar  
  6   4   7  1   
  7   4   8  ar  
  8   6   9  ar  
  9   6  10  1   
 10   7  11  2   
 11   7  12  am  
 12   8   9  ar  
 13   8  28  1   
 14   9  29  1   
 15  10  30  1   
 16  10  31  1   
 17  10  32  1   
 18  12  13  1   
 19  12  14  1   
 20  13  15  1   
 21  13  33  1   
 22  13  34  1   
 23  14  16  1   
 24  14  35  1   
 25  14  36  1   
 26  15  17  1   
 27  15  18  1   
 28  15  37  1   
 29  16  17  1   
 30  16  38  1   
 31  16  39  1   
 32  17  19  1   
 33  18  20  1   
 34  18  40  1   
 35  18  41  1   
 36  19  21  1   
 37  19  22  1   
 38  19  42  1   
 39  20  22  1   
 40  21  23  ar  
 41  21  24  ar  
 42  22  43  1   
 43  22  44  1   
 44  23  25  ar  
 45  23  45  1   
 46  24  26  ar  
 47  24  46  1   
 48  25  27  ar  
 49  25  47  1   
 50  26  27  ar  
 51  26  48  1   
 52  27  49  1   
@<TRIPOS>SUBSTRUCTURE
  1 ****  15 GROUP 4 **** **** 0

# MOE 2024.06 (io_trps.svl 2023.06)
