@<TRIPOS>MOLECULE
NONAME
28 28 1 0 0 
SMALL
USER_CHARGES


@<TRIPOS>ATOM
  1 F        0.5790     0.1490     0.0620 F     1 <1>  -0.1900 
  2 C        1.6250    -0.6330     0.0370 C.ar  1 <1>   0.1900 
  3 C        2.8810    -0.0630     0.0460 C.ar  1 <1>  -0.1500 
  4 C        1.4300    -2.0000     0.0020 C.ar  1 <1>  -0.1500 
  5 C        3.9890    -0.8930     0.0200 C.ar  1 <1>   0.0830 
  6 C        2.5390    -2.8330    -0.0240 C.ar  1 <1>  -0.1440 
  7 O        5.2020    -0.2860     0.0300 O.3   1 <1>  -0.3620 
  8 C        3.8110    -2.2780    -0.0160 C.ar  1 <1>  -0.1500 
  9 C        2.3690    -4.3410    -0.0630 C.3   1 <1>  -0.0970 
 10 C        6.3950    -1.0260     0.0060 C.3   1 <1>   0.1200 
 11 C        7.5450    -0.0190     0.0270 C.3   1 <1>  -0.1600 
 12 C        8.8950    -0.7260     0.0020 C.3   1 <1>   0.3430 
 13 N        9.9730     0.2900     0.0240 N.4   1 <1>  -0.8530 
 14 H        2.9940     1.0040     0.0740 H     1 <1>   0.1500 
 15 H        0.4300    -2.3930    -0.0030 H     1 <1>   0.1500 
 16 H        4.6520    -2.9430    -0.0370 H     1 <1>   0.1500 
 17 H        1.3290    -4.6120    -0.0650 H     1 <1>   0.0800 
 18 H        2.8350    -4.7850     0.7990 H     1 <1>   0.0800 
 19 H        2.8270    -4.7400    -0.9510 H     1 <1>   0.0800 
 20 H        6.4040    -1.6170    -0.8950 H     1 <1>   0.0800 
 21 H        6.4120    -1.6630     0.8740 H     1 <1>   0.0800 
 22 H        7.4570     0.5730     0.9220 H     1 <1>   0.0800 
 23 H        7.4490     0.6180    -0.8360 H     1 <1>   0.0800 
 24 H        8.9730    -1.3290    -0.8900 H     1 <1>   0.0800 
 25 H        8.9810    -1.3750     0.8610 H     1 <1>   0.0800 
 26 H        9.9040     0.9130    -0.7890 H     1 <1>   0.4500 
 27 H       10.9010    -0.1500     0.0080 H     1 <1>   0.4500 
 28 H        9.9110     0.8700     0.8690 H     1 <1>   0.4500 
@<TRIPOS>BOND
  1   1   2  1   
  2   2   3  ar  
  3   2   4  ar  
  4   3   5  ar  
  5   3  14  1   
  6   4   6  ar  
  7   4  15  1   
  8   5   7  1   
  9   5   8  ar  
 10   6   8  ar  
 11   6   9  1   
 12   7  10  1   
 13   8  16  1   
 14   9  17  1   
 15   9  18  1   
 16   9  19  1   
 17  10  11  1   
 18  10  20  1   
 19  10  21  1   
 20  11  12  1   
 21  11  22  1   
 22  11  23  1   
 23  12  13  1   
 24  12  24  1   
 25  12  25  1   
 26  13  26  1   
 27  13  27  1   
 28  13  28  1   
@<TRIPOS>SUBSTRUCTURE
  1 ****   5 GROUP 4 **** **** 0

# MOE 2024.06 (io_trps.svl 2023.06)
