@<TRIPOS>MOLECULE
NONAME
49 51 1 0 0 
SMALL
USER_CHARGES


@<TRIPOS>ATOM
  1 O        1.4140     0.9260    -1.5800 O.2   1 <1>  -0.5700 
  2 C        2.3120     0.5860    -0.8510 C.2   1 <1>   0.5690 
  3 N        3.0840     1.4010    -0.0700 N.am  1 <1>  -0.4770 
  4 C        2.7080    -0.8580    -0.7010 C.3   1 <1>  -0.0990 
  5 C        2.9310     2.7810     0.1340 C.ar  1 <1>   0.1170 
  6 C        4.0600     0.6110     0.7090 C.3   1 <1>   0.1400 
  7 C        4.0100    -0.7980     0.1060 C.3   1 <1>  -0.1600 
  8 C        4.0350     3.6240     0.2280 C.ar  1 <1>  -0.1500 
  9 C        1.6700     3.3530     0.2570 C.ar  1 <1>  -0.1500 
 10 C        3.8810     4.9810     0.4390 C.ar  1 <1>  -0.1500 
 11 C        1.5170     4.7090     0.4680 C.ar  1 <1>  -0.1500 
 12 C        2.6160     5.5640     0.5580 C.ar  1 <1>   0.0860 
 13 C        2.4370     6.9870     0.7600 C.2   1 <1>   0.5440 
 14 O        1.5220     7.4000     1.4470 O.2   1 <1>  -0.5700 
 15 N        3.3080     7.8720     0.1670 N.am  1 <1>  -0.4940 
 16 C        3.3050     9.2880     0.1930 C.2   1 <1>  -0.0880 
 17 N        4.4030    10.0550     0.4310 N.pl3 1 <1>   0.3140 
 18 C        2.2810    10.1520    -0.0120 C.2   1 <1>  -0.1810 
 19 N        4.1140    11.3740     0.3740 N.2   1 <1>  -0.7070 
 20 C        5.7560     9.5870     0.7850 C.3   1 <1>   0.0960 
 21 C        2.8440    11.4170     0.1150 C.2   1 <1>   0.1390 
 22 C        0.8240     9.8600    -0.3170 C.3   1 <1>  -0.0590 
 23 C        6.5700     9.2510    -0.4730 C.3   1 <1>  -0.1600 
 24 C        7.9690     8.7370    -0.1080 C.3   1 <1>  -0.1600 
 25 C        8.7740     8.3980    -1.3650 C.3   1 <1>  -0.2400 
 26 H        2.8510    -1.3140    -1.6640 H     1 <1>   0.0800 
 27 H        1.9370    -1.3750    -0.1610 H     1 <1>   0.0800 
 28 H        3.7540     0.5960     1.7410 H     1 <1>   0.0800 
 29 H        5.0490     1.0270     0.6300 H     1 <1>   0.0800 
 30 H        4.8510    -0.9270    -0.5530 H     1 <1>   0.0800 
 31 H        4.0490    -1.5570     0.8680 H     1 <1>   0.0800 
 32 H        5.0220     3.2140     0.1290 H     1 <1>   0.1500 
 33 H        0.7980     2.7250     0.1860 H     1 <1>   0.1500 
 34 H        4.7600     5.5950     0.5210 H     1 <1>   0.1500 
 35 H        0.5280     5.1240     0.5640 H     1 <1>   0.1500 
 36 H        4.0120     7.4460    -0.4330 H     1 <1>   0.3700 
 37 H        5.6630     8.7260     1.4200 H     1 <1>   0.0800 
 38 H        6.2430    10.3680     1.3400 H     1 <1>   0.0800 
 39 H        2.2950    12.3370     0.0120 H     1 <1>   0.1500 
 40 H        0.7240     8.8840    -0.7560 H     1 <1>   0.0800 
 41 H        0.4320    10.5890    -1.0020 H     1 <1>   0.0800 
 42 H        0.2530     9.8860     0.5930 H     1 <1>   0.0800 
 43 H        6.6620    10.1410    -1.0740 H     1 <1>   0.0800 
 44 H        6.0540     8.5040    -1.0490 H     1 <1>   0.0800 
 45 H        7.8880     7.8580     0.5080 H     1 <1>   0.0800 
 46 H        8.4950     9.4910     0.4540 H     1 <1>   0.0800 
 47 H        8.2820     7.6290    -1.9350 H     1 <1>   0.0800 
 48 H        9.7530     8.0460    -1.0910 H     1 <1>   0.0800 
 49 H        8.8870     9.2700    -1.9860 H     1 <1>   0.0800 
@<TRIPOS>BOND
  1   1   2  2   
  2   2   3  am  
  3   2   4  1   
  4   3   5  1   
  5   3   6  1   
  6   4   7  1   
  7   4  26  1   
  8   4  27  1   
  9   5   8  ar  
 10   5   9  ar  
 11   6   7  1   
 12   6  28  1   
 13   6  29  1   
 14   7  30  1   
 15   7  31  1   
 16   8  10  ar  
 17   8  32  1   
 18   9  11  ar  
 19   9  33  1   
 20  10  12  ar  
 21  10  34  1   
 22  11  12  ar  
 23  11  35  1   
 24  12  13  1   
 25  13  14  2   
 26  13  15  am  
 27  15  16  1   
 28  15  36  1   
 29  16  17  1   
 30  16  18  2   
 31  17  19  1   
 32  17  20  1   
 33  18  21  1   
 34  18  22  1   
 35  19  21  2   
 36  20  23  1   
 37  20  37  1   
 38  20  38  1   
 39  21  39  1   
 40  22  40  1   
 41  22  41  1   
 42  22  42  1   
 43  23  24  1   
 44  23  43  1   
 45  23  44  1   
 46  24  25  1   
 47  24  45  1   
 48  24  46  1   
 49  25  47  1   
 50  25  48  1   
 51  25  49  1   
@<TRIPOS>SUBSTRUCTURE
  1 ****  10 GROUP 4 **** **** 0

# MOE 2024.06 (io_trps.svl 2023.06)
