@<TRIPOS>MOLECULE
NONAME
52 54 1 0 0 
SMALL
USER_CHARGES


@<TRIPOS>ATOM
  1 O       -1.1030    -1.1350    -0.8240 O.3   1 <1>  -0.5600 
  2 C       -0.2230    -1.5420     0.1790 C.3   1 <1>   0.1200 
  3 C       -1.9870    -2.1340    -1.2460 C.3   1 <1>   0.1200 
  4 C        0.6610    -2.7010    -0.3190 C.3   1 <1>   0.2090 
  5 C       -1.2140    -3.3340    -1.8180 C.3   1 <1>   0.2090 
  6 N       -0.1760    -3.8400    -0.8410 N.pl3 1 <1>  -0.8380 
  7 C       -0.0820    -5.1580    -0.5160 C.ar  1 <1>   0.7710 
  8 N       -0.9920    -6.0080    -0.9710 N.ar  1 <1>  -0.6200 
  9 N        0.9380    -5.5740     0.2580 N.ar  1 <1>  -0.1790 
 10 C       -0.8880    -7.2710    -0.6360 C.ar  1 <1>   0.4100 
 11 C        1.0900    -6.8710     0.6190 C.ar  1 <1>   0.2180 
 12 N       -1.8560    -8.0600    -1.1230 N.pl3 1 <1>  -0.8690 
 13 C        0.1620    -7.7490     0.1690 C.ar  1 <1>  -0.1500 
 14 C        2.2760    -7.2650     1.4910 C.3   1 <1>  -0.0170 
 15 C       -2.1910    -9.4740    -0.8330 C.3   1 <1>   0.2090 
 16 C        3.6180    -7.0170     0.7900 C.3   1 <1>  -0.2400 
 17 C       -3.7150    -9.6500    -0.7480 C.3   1 <1>  -0.0800 
 18 C       -4.3020    -8.8060     0.4010 C.3   1 <1>   0.1200 
 19 C       -4.0420   -11.1520    -0.6010 C.3   1 <1>   0.0200 
 20 O       -5.6580    -8.6280     0.2000 O.3   1 <1>  -0.6800 
 21 C       -5.5300   -11.4340    -0.5250 C.2   1 <1>  -0.0400 
 22 O       -6.3020   -11.0390    -1.5170 O.3   1 <1>  -0.2800 
 23 C       -6.2650   -12.0370     0.4350 C.2   1 <1>  -0.1500 
 24 C       -7.5400   -11.3780    -1.2190 C.2   1 <1>  -0.0100 
 25 C       -7.5880   -12.0000    -0.0230 C.2   1 <1>  -0.1500 
 26 H       -0.7970    -1.8350     1.0420 H     1 <1>   0.0800 
 27 H        0.3850    -0.6940     0.4400 H     1 <1>   0.0800 
 28 H       -2.6250    -1.7090    -2.0010 H     1 <1>   0.0800 
 29 H       -2.5960    -2.4350    -0.4110 H     1 <1>   0.0800 
 30 H        1.2940    -3.0120     0.4900 H     1 <1>   0.0800 
 31 H        1.2900    -2.3310    -1.1120 H     1 <1>   0.0800 
 32 H       -0.7240    -3.0260    -2.7260 H     1 <1>   0.0800 
 33 H       -1.9260    -4.0960    -2.0850 H     1 <1>   0.0800 
 34 H        1.6060    -4.8670     0.5280 H     1 <1>   0.4570 
 35 H       -2.5300    -7.5950    -1.7430 H     1 <1>   0.4000 
 36 H        0.2100    -8.7950     0.4000 H     1 <1>   0.1500 
 37 H        2.2060    -8.3120     1.7370 H     1 <1>   0.0800 
 38 H        2.2430    -6.7180     2.4180 H     1 <1>   0.0800 
 39 H       -1.7400    -9.7850     0.0930 H     1 <1>   0.0800 
 40 H       -1.8000   -10.0890    -1.6280 H     1 <1>   0.0800 
 41 H        3.6640    -7.5590    -0.1390 H     1 <1>   0.0800 
 42 H        4.4240    -7.3610     1.4160 H     1 <1>   0.0800 
 43 H        3.7750    -5.9720     0.5910 H     1 <1>   0.0800 
 44 H       -4.1300    -9.3020    -1.6790 H     1 <1>   0.0800 
 45 H       -3.8630    -7.8240     0.4410 H     1 <1>   0.0800 
 46 H       -4.1610    -9.2900     1.3520 H     1 <1>   0.0800 
 47 H       -3.5730   -11.5430     0.2850 H     1 <1>   0.0800 
 48 H       -3.6480   -11.6890    -1.4460 H     1 <1>   0.0800 
 49 H       -6.0690    -9.4690    -0.1080 H     1 <1>   0.4000 
 50 H       -5.9420   -12.4640     1.3680 H     1 <1>   0.1500 
 51 H       -8.3260   -11.1380    -1.9150 H     1 <1>   0.1500 
 52 H       -8.4420   -12.3960     0.4980 H     1 <1>   0.1500 
@<TRIPOS>BOND
  1   1   2  1   
  2   1   3  1   
  3   2   4  1   
  4   2  26  1   
  5   2  27  1   
  6   3   5  1   
  7   3  28  1   
  8   3  29  1   
  9   4   6  1   
 10   4  30  1   
 11   4  31  1   
 12   5   6  1   
 13   5  32  1   
 14   5  33  1   
 15   6   7  1   
 16   7   8  ar  
 17   7   9  ar  
 18   8  10  ar  
 19   9  11  ar  
 20   9  34  1   
 21  10  12  1   
 22  10  13  ar  
 23  11  13  ar  
 24  11  14  1   
 25  12  15  1   
 26  12  35  1   
 27  13  36  1   
 28  14  16  1   
 29  14  37  1   
 30  14  38  1   
 31  15  17  1   
 32  15  39  1   
 33  15  40  1   
 34  16  41  1   
 35  16  42  1   
 36  16  43  1   
 37  17  18  1   
 38  17  19  1   
 39  17  44  1   
 40  18  20  1   
 41  18  45  1   
 42  18  46  1   
 43  19  21  1   
 44  19  47  1   
 45  19  48  1   
 46  20  49  1   
 47  21  22  1   
 48  21  23  2   
 49  22  24  1   
 50  23  25  1   
 51  23  50  1   
 52  24  25  2   
 53  24  51  1   
 54  25  52  1   
@<TRIPOS>SUBSTRUCTURE
  1 ****  12 GROUP 4 **** **** 0

# MOE 2024.06 (io_trps.svl 2023.06)
