@<TRIPOS>MOLECULE
NONAME
50 53 1 0 0 
SMALL
USER_CHARGES


@<TRIPOS>ATOM
  1 O        0.6190    -0.2590     1.3470 O.2   1 <1>  -0.5700 
  2 C        1.6760    -0.8410     1.1970 C.2   1 <1>   0.7150 
  3 N        2.8140    -0.2730     1.7620 N.am  1 <1>  -0.6600 
  4 C        1.6800    -2.0700     0.4230 C.2   1 <1>   0.0550 
  5 C        4.0880    -1.0220     1.9640 C.3   1 <1>   0.1400 
  6 C        2.7540     1.0760     2.3970 C.3   1 <1>   0.1400 
  7 O        2.8000    -2.5700    -0.1300 O.3   1 <1>  -0.2800 
  8 C        0.6340    -2.8750     0.1050 C.2   1 <1>  -0.1500 
  9 C        5.0540    -0.7920     0.7840 C.3   1 <1>   0.3430 
 10 C        3.9770     1.9280     2.0430 C.3   1 <1>  -0.1600 
 11 C        2.4810    -3.6840    -0.7860 C.ar  1 <1>   0.1400 
 12 C        1.1270    -3.9320    -0.6760 C.ar  1 <1>   0.0000 
 13 N        5.5630     0.6190     0.6360 N.4   1 <1>  -0.9590 
 14 C        4.5000     1.6780     0.6280 C.3   1 <1>   0.3430 
 15 C        3.3260    -4.5260    -1.4990 C.ar  1 <1>  -0.1500 
 16 C        0.5810    -5.0570    -1.2960 C.ar  1 <1>  -0.1500 
 17 C        6.4170     0.7140    -0.5800 C.3   1 <1>   0.5240 
 18 C        2.7800    -5.6380    -2.1090 C.ar  1 <1>  -0.1500 
 19 C        1.4100    -5.9000    -2.0070 C.ar  1 <1>  -0.1500 
 20 C        7.1420     2.0370    -0.5560 C.2   1 <1>  -0.1810 
 21 C        8.1540     2.4550     0.2220 C.2   1 <1>  -0.0400 
 22 C        6.8850     3.1380    -1.3740 C.2   1 <1>   0.1080 
 23 O        8.4250     3.6880    -0.1080 O.3   1 <1>  -0.0190 
 24 C        8.9720     1.8050     1.3220 C.3   1 <1>  -0.0600 
 25 N        7.6610     4.1120    -1.0700 N.2   1 <1>  -0.4100 
 26 C        5.8580     3.2280    -2.4860 C.3   1 <1>  -0.0590 
 27 H        3.8730    -2.0740     2.0470 H     1 <1>   0.0800 
 28 H        4.5510    -0.7260     2.8890 H     1 <1>   0.0800 
 29 H        2.6700     0.9670     3.4660 H     1 <1>   0.0800 
 30 H        1.8720     1.5970     2.0610 H     1 <1>   0.0800 
 31 H       -0.3980    -2.7510     0.3820 H     1 <1>   0.1500 
 32 H        4.5460    -1.0820    -0.1210 H     1 <1>   0.0800 
 33 H        5.8920    -1.4580     0.9070 H     1 <1>   0.0800 
 34 H        4.7560     1.7910     2.7720 H     1 <1>   0.0800 
 35 H        3.6730     2.9580     2.1130 H     1 <1>   0.0800 
 36 H        6.1770     0.8400     1.4280 H     1 <1>   0.4500 
 37 H        4.9200     2.6040     0.2680 H     1 <1>   0.0800 
 38 H        3.6890     1.4010    -0.0270 H     1 <1>   0.0800 
 39 H        4.3750    -4.3110    -1.5670 H     1 <1>   0.1500 
 40 H       -0.4740    -5.2500    -1.2120 H     1 <1>   0.1500 
 41 H        5.8150     0.6360    -1.4710 H     1 <1>   0.0800 
 42 H        7.1430    -0.0820    -0.5860 H     1 <1>   0.0800 
 43 H        3.4040    -6.3130    -2.6700 H     1 <1>   0.1500 
 44 H        1.0050    -6.7720    -2.4910 H     1 <1>   0.1500 
 45 H        8.6780     0.7840     1.4750 H     1 <1>   0.0800 
 46 H        8.8480     2.3520     2.2400 H     1 <1>   0.0800 
 47 H       10.0140     1.8270     1.0530 H     1 <1>   0.0800 
 48 H        4.8630     3.1370    -2.0920 H     1 <1>   0.0800 
 49 H        6.0310     2.4590    -3.2150 H     1 <1>   0.0800 
 50 H        5.9400     4.1820    -2.9780 H     1 <1>   0.0800 
@<TRIPOS>BOND
  1   1   2  2   
  2   2   3  am  
  3   2   4  1   
  4   3   5  1   
  5   3   6  1   
  6   4   7  1   
  7   4   8  2   
  8   5   9  1   
  9   5  27  1   
 10   5  28  1   
 11   6  10  1   
 12   6  29  1   
 13   6  30  1   
 14   7  11  1   
 15   8  12  1   
 16   8  31  1   
 17   9  13  1   
 18   9  32  1   
 19   9  33  1   
 20  10  14  1   
 21  10  34  1   
 22  10  35  1   
 23  11  12  ar  
 24  11  15  ar  
 25  12  16  ar  
 26  13  14  1   
 27  13  17  1   
 28  13  36  1   
 29  14  37  1   
 30  14  38  1   
 31  15  18  ar  
 32  15  39  1   
 33  16  19  ar  
 34  16  40  1   
 35  17  20  1   
 36  17  41  1   
 37  17  42  1   
 38  18  19  ar  
 39  18  43  1   
 40  19  44  1   
 41  20  21  2   
 42  20  22  1   
 43  21  23  1   
 44  21  24  1   
 45  22  25  2   
 46  22  26  1   
 47  23  25  1   
 48  24  45  1   
 49  24  46  1   
 50  24  47  1   
 51  26  48  1   
 52  26  49  1   
 53  26  50  1   
@<TRIPOS>SUBSTRUCTURE
  1 ****   9 GROUP 4 **** **** 0

# MOE 2024.06 (io_trps.svl 2023.06)
