@<TRIPOS>MOLECULE
NONAME
46 47 1 0 0 
SMALL
USER_CHARGES


@<TRIPOS>ATOM
  1 O        0.1790    -0.3050     1.0610 O.2   1 <1>  -0.5700 
  2 C        1.1130    -0.7580     0.4270 C.2   1 <1>   0.5440 
  3 N        2.0250     0.0870    -0.1630 N.am  1 <1>  -0.4940 
  4 C        1.2690    -2.1890     0.2750 C.ar  1 <1>   0.0860 
  5 C        2.2000     1.4910    -0.0960 C.2   1 <1>  -0.0880 
  6 C        2.5270    -2.7950     0.1930 C.ar  1 <1>  -0.1500 
  7 C        0.1560    -3.0290     0.2010 C.ar  1 <1>  -0.1500 
  8 N        1.2390     2.4550    -0.0260 N.pl3 1 <1>   0.3140 
  9 C        3.3890     2.1430    -0.1110 C.2   1 <1>  -0.1810 
 10 C        2.6590    -4.1590     0.0230 C.ar  1 <1>  -0.1500 
 11 C        0.2890    -4.3920     0.0310 C.ar  1 <1>  -0.1500 
 12 N        1.7830     3.6910     0.0040 N.2   1 <1>  -0.7070 
 13 C       -0.2220     2.3120    -0.0840 C.3   1 <1>   0.0160 
 14 C        3.0620     3.4960    -0.0400 C.2   1 <1>   0.1080 
 15 C        4.7830     1.5420    -0.1800 C.3   1 <1>   0.0210 
 16 C        1.5430    -4.9840    -0.0670 C.ar  1 <1>   0.1000 
 17 C        4.0440     4.6540    -0.0170 C.3   1 <1>   0.0210 
 18 C        5.3070     1.2550     1.2280 C.3   1 <1>  -0.2400 
 19 N        1.6680    -6.3560    -0.2420 N.pl3 1 <1>  -0.8380 
 20 C        4.3760     5.1280    -1.4360 C.3   1 <1>  -0.2400 
 21 C        0.9350    -7.3080     0.6340 C.3   1 <1>   0.1290 
 22 C        2.6810    -6.9420    -1.1570 C.3   1 <1>   0.1290 
 23 H        2.7690    -0.3940    -0.6650 H     1 <1>   0.3700 
 24 H        3.4160    -2.1970     0.2760 H     1 <1>   0.1500 
 25 H       -0.8260    -2.5950     0.2770 H     1 <1>   0.1500 
 26 H        3.6360    -4.6030    -0.0300 H     1 <1>   0.1500 
 27 H       -0.5840    -5.0140    -0.0360 H     1 <1>   0.1500 
 28 H       -0.4740     1.4910    -0.7260 H     1 <1>   0.0800 
 29 H       -0.6500     3.2180    -0.4690 H     1 <1>   0.0800 
 30 H       -0.5920     2.1300     0.9070 H     1 <1>   0.0800 
 31 H        5.4480     2.2190    -0.6870 H     1 <1>   0.0800 
 32 H        4.7550     0.6300    -0.7460 H     1 <1>   0.0800 
 33 H        4.9420     4.3580     0.4930 H     1 <1>   0.0800 
 34 H        3.6030     5.4650     0.5360 H     1 <1>   0.0800 
 35 H        5.3570     2.1650     1.7980 H     1 <1>   0.0800 
 36 H        6.2890     0.8200     1.1800 H     1 <1>   0.0800 
 37 H        4.6470     0.5720     1.7350 H     1 <1>   0.0800 
 38 H        4.8210     4.3290    -2.0020 H     1 <1>   0.0800 
 39 H        5.0590     5.9570    -1.4010 H     1 <1>   0.0800 
 40 H        3.4740     5.4400    -1.9320 H     1 <1>   0.0800 
 41 H        0.4070    -6.7750     1.4050 H     1 <1>   0.0800 
 42 H        1.6300    -7.9850     1.1000 H     1 <1>   0.0800 
 43 H        0.2300    -7.8700     0.0480 H     1 <1>   0.0800 
 44 H        3.0450    -6.1910    -1.8360 H     1 <1>   0.0800 
 45 H        2.2360    -7.7360    -1.7310 H     1 <1>   0.0800 
 46 H        3.5050    -7.3330    -0.5870 H     1 <1>   0.0800 
@<TRIPOS>BOND
  1   1   2  2   
  2   2   3  am  
  3   2   4  1   
  4   3   5  1   
  5   3  23  1   
  6   4   6  ar  
  7   4   7  ar  
  8   5   8  1   
  9   5   9  2   
 10   6  10  ar  
 11   6  24  1   
 12   7  11  ar  
 13   7  25  1   
 14   8  12  1   
 15   8  13  1   
 16   9  14  1   
 17   9  15  1   
 18  10  16  ar  
 19  10  26  1   
 20  11  16  ar  
 21  11  27  1   
 22  12  14  2   
 23  13  28  1   
 24  13  29  1   
 25  13  30  1   
 26  14  17  1   
 27  15  18  1   
 28  15  31  1   
 29  15  32  1   
 30  16  19  1   
 31  17  20  1   
 32  17  33  1   
 33  17  34  1   
 34  18  35  1   
 35  18  36  1   
 36  18  37  1   
 37  19  21  1   
 38  19  22  1   
 39  20  38  1   
 40  20  39  1   
 41  20  40  1   
 42  21  41  1   
 43  21  42  1   
 44  21  43  1   
 45  22  44  1   
 46  22  45  1   
 47  22  46  1   
@<TRIPOS>SUBSTRUCTURE
  1 ****   3 GROUP 4 **** **** 0

# MOE 2024.06 (io_trps.svl 2023.06)
