@<TRIPOS>MOLECULE
NONAME
44 46 1 0 0 
SMALL
USER_CHARGES


@<TRIPOS>ATOM
  1 S        1.5490     1.3610     1.6180 S.3   1 <1>  -0.0800 
  2 C        0.9880     0.0440     0.6190 C.2   1 <1>   0.1980 
  3 C        2.4010     2.0030     0.2420 C.2   1 <1>  -0.1400 
  4 N        1.3900     0.0840    -0.5900 N.2   1 <1>  -0.5650 
  5 C        0.0920    -1.0000     1.2630 C.3   1 <1>   0.5230 
  6 C        2.1920     1.1920    -0.8110 C.2   1 <1>   0.0460 
  7 C        3.1800     3.2860     0.4630 C.3   1 <1>  -0.0600 
  8 N       -0.3460    -1.9560     0.1990 N.4   1 <1>  -0.9590 
  9 C        2.7350     1.3550    -2.2160 C.3   1 <1>  -0.0590 
 10 C       -1.7990    -1.8470    -0.0900 C.3   1 <1>   0.4230 
 11 C        0.1030    -3.3480     0.4950 C.3   1 <1>   0.2630 
 12 C       -2.2240    -2.7470    -1.2410 C.3   1 <1>  -0.1600 
 13 C       -2.1890    -0.4500    -0.5700 C.3   1 <1>  -0.1600 
 14 C       -3.5330    -2.1350    -1.7510 C.3   1 <1>  -0.0800 
 15 C       -3.4610    -0.6350    -1.4150 C.3   1 <1>  -0.0800 
 16 C       -4.7760    -2.6830    -1.0240 C.3   1 <1>  -0.1600 
 17 C       -4.7540    -0.3080    -0.6500 C.3   1 <1>  -0.1600 
 18 C       -5.2260    -1.6160    -0.0330 C.3   1 <1>   0.2000 
 19 O       -4.5600    -1.8040     1.1660 O.3   1 <1>  -0.6800 
 20 H       -0.7590    -0.5170     1.7140 H     1 <1>   0.0800 
 21 H        0.6450    -1.5130     2.0310 H     1 <1>   0.0800 
 22 H        3.6680     3.6000    -0.4410 H     1 <1>   0.0800 
 23 H        3.9270     3.1350     1.2210 H     1 <1>   0.0800 
 24 H        2.5140     4.0680     0.7830 H     1 <1>   0.0800 
 25 H        0.1570    -1.6070    -0.6390 H     1 <1>   0.4500 
 26 H        3.3450     2.2340    -2.2960 H     1 <1>   0.0800 
 27 H        1.9210     1.4360    -2.9120 H     1 <1>   0.0800 
 28 H        3.3300     0.4980    -2.4750 H     1 <1>   0.0800 
 29 H       -2.3740    -2.1030     0.7840 H     1 <1>   0.0800 
 30 H       -0.4060    -3.7290     1.3660 H     1 <1>   0.0800 
 31 H        1.1660    -3.3680     0.6740 H     1 <1>   0.0800 
 32 H       -0.1120    -3.9960    -0.3390 H     1 <1>   0.0800 
 33 H       -1.4960    -2.7000    -2.0310 H     1 <1>   0.0800 
 34 H       -2.3570    -3.7680    -0.9320 H     1 <1>   0.0800 
 35 H       -2.3530     0.2230     0.2520 H     1 <1>   0.0800 
 36 H       -1.4200    -0.0520    -1.2090 H     1 <1>   0.0800 
 37 H       -3.6330    -2.2960    -2.8130 H     1 <1>   0.0800 
 38 H       -3.3980    -0.0340    -2.3070 H     1 <1>   0.0800 
 39 H       -4.6220    -3.6350    -0.5460 H     1 <1>   0.0800 
 40 H       -5.5600    -2.8050    -1.7510 H     1 <1>   0.0800 
 41 H       -5.4950     0.0030    -1.3670 H     1 <1>   0.0800 
 42 H       -4.6440     0.4800     0.0730 H     1 <1>   0.0800 
 43 H       -6.2880    -1.6450     0.1520 H     1 <1>   0.0800 
 44 H       -5.0050    -1.2840     1.8660 H     1 <1>   0.4000 
@<TRIPOS>BOND
  1   1   2  1   
  2   1   3  1   
  3   2   4  2   
  4   2   5  1   
  5   3   6  2   
  6   3   7  1   
  7   4   6  1   
  8   5   8  1   
  9   5  20  1   
 10   5  21  1   
 11   6   9  1   
 12   7  22  1   
 13   7  23  1   
 14   7  24  1   
 15   8  10  1   
 16   8  11  1   
 17   8  25  1   
 18   9  26  1   
 19   9  27  1   
 20   9  28  1   
 21  10  12  1   
 22  10  13  1   
 23  10  29  1   
 24  11  30  1   
 25  11  31  1   
 26  11  32  1   
 27  12  14  1   
 28  12  33  1   
 29  12  34  1   
 30  13  15  1   
 31  13  35  1   
 32  13  36  1   
 33  14  15  1   
 34  14  16  1   
 35  14  37  1   
 36  15  17  1   
 37  15  38  1   
 38  16  18  1   
 39  16  39  1   
 40  16  40  1   
 41  17  18  1   
 42  17  41  1   
 43  17  42  1   
 44  18  19  1   
 45  18  43  1   
 46  19  44  1   
@<TRIPOS>SUBSTRUCTURE
  1 ****  13 GROUP 4 **** **** 0

# MOE 2024.06 (io_trps.svl 2023.06)
