@<TRIPOS>MOLECULE
NONAME
48 51 1 0 0 
SMALL
USER_CHARGES


@<TRIPOS>ATOM
  1 CL      -1.9040     0.1580    -1.6370 Cl    1 <1>  -0.1770 
  2 C       -1.8410    -1.5730    -1.3850 C.ar  1 <1>   0.1770 
  3 C       -2.2690    -2.1150    -0.1530 C.ar  1 <1>   0.3100 
  4 C       -1.3710    -2.3500    -2.4090 C.ar  1 <1>  -0.1500 
  5 N       -2.7020    -1.2970     0.8430 N.ar  1 <1>  -0.6200 
  6 C       -2.2220    -3.5200    -0.0050 C.ar  1 <1>   0.0000 
  7 C       -1.3040    -3.7340    -2.2460 C.ar  1 <1>  -0.1500 
  8 C       -3.0690    -1.8310     1.9640 C.ar  1 <1>   0.1670 
  9 C       -2.6870    -4.0810     1.2090 C.ar  1 <1>   0.0860 
 10 C       -1.7170    -4.3000    -1.0700 C.ar  1 <1>  -0.1500 
 11 C       -3.0780    -3.2080     2.1900 C.ar  1 <1>  -0.1500 
 12 C       -3.5140    -0.8870     3.0600 C.3   1 <1>  -0.0960 
 13 C       -2.7850    -5.5080     1.4030 C.2   1 <1>   0.5440 
 14 O       -1.9840    -6.0590     2.1350 O.2   1 <1>  -0.5700 
 15 N       -3.7730    -6.2590     0.7930 N.am  1 <1>  -0.6600 
 16 C       -4.9130    -5.6170     0.0680 C.3   1 <1>   0.2200 
 17 C       -3.7870    -7.7450     0.9580 C.3   1 <1>   0.0600 
 18 C       -6.2930    -6.0630     0.5440 C.3   1 <1>  -0.1600 
 19 C       -4.9190    -5.9080    -1.4300 C.3   1 <1>  -0.1600 
 20 C       -7.2290    -5.6740    -0.6070 C.3   1 <1>  -0.0800 
 21 C       -6.3530    -5.5910    -1.8720 C.3   1 <1>  -0.0800 
 22 C       -7.8670    -4.2880    -0.4320 C.3   1 <1>  -0.1600 
 23 C       -6.5180    -4.1660    -2.4220 C.3   1 <1>  -0.1600 
 24 C       -7.8220    -3.6690    -1.8190 C.3   1 <1>   0.2000 
 25 O       -7.8120    -2.2950    -1.7290 O.3   1 <1>  -0.6800 
 26 H       -1.0510    -1.9000    -3.3330 H     1 <1>   0.1500 
 27 H       -0.9230    -4.3430    -3.0500 H     1 <1>   0.1500 
 28 H       -1.6550    -5.3700    -0.9510 H     1 <1>   0.1500 
 29 H       -3.4040    -3.5890     3.1400 H     1 <1>   0.1500 
 30 H       -3.7640    -1.4190     3.9590 H     1 <1>   0.0800 
 31 H       -4.3750    -0.3350     2.7300 H     1 <1>   0.0800 
 32 H       -2.7230    -0.1920     3.2770 H     1 <1>   0.0800 
 33 H       -4.8760    -4.5490     0.1870 H     1 <1>   0.0800 
 34 H       -4.2200    -8.2250     0.0990 H     1 <1>   0.0800 
 35 H       -4.3570    -8.0040     1.8330 H     1 <1>   0.0800 
 36 H       -2.7840    -8.1170     1.0810 H     1 <1>   0.0800 
 37 H       -6.3300    -7.1310     0.6590 H     1 <1>   0.0800 
 38 H       -6.5650    -5.5970     1.4740 H     1 <1>   0.0800 
 39 H       -4.1910    -5.3200    -1.9570 H     1 <1>   0.0800 
 40 H       -4.7260    -6.9500    -1.6090 H     1 <1>   0.0800 
 41 H       -8.0020    -6.4140    -0.7370 H     1 <1>   0.0800 
 42 H       -6.6910    -6.3050    -2.6050 H     1 <1>   0.0800 
 43 H       -7.2850    -3.6920     0.2500 H     1 <1>   0.0800 
 44 H       -8.8780    -4.3630    -0.0720 H     1 <1>   0.0800 
 45 H       -6.5610    -4.1630    -3.4970 H     1 <1>   0.0800 
 46 H       -5.7050    -3.5420    -2.0930 H     1 <1>   0.0800 
 47 H       -8.6680    -3.9780    -2.4110 H     1 <1>   0.0800 
 48 H       -7.0330    -1.9970    -1.2240 H     1 <1>   0.4000 
@<TRIPOS>BOND
  1   1   2  1   
  2   2   3  ar  
  3   2   4  ar  
  4   3   5  ar  
  5   3   6  ar  
  6   4   7  ar  
  7   4  26  1   
  8   5   8  ar  
  9   6   9  ar  
 10   6  10  ar  
 11   7  10  ar  
 12   7  27  1   
 13   8  11  ar  
 14   8  12  1   
 15   9  11  ar  
 16   9  13  1   
 17  10  28  1   
 18  11  29  1   
 19  12  30  1   
 20  12  31  1   
 21  12  32  1   
 22  13  14  2   
 23  13  15  am  
 24  15  16  1   
 25  15  17  1   
 26  16  18  1   
 27  16  19  1   
 28  16  33  1   
 29  17  34  1   
 30  17  35  1   
 31  17  36  1   
 32  18  20  1   
 33  18  37  1   
 34  18  38  1   
 35  19  21  1   
 36  19  39  1   
 37  19  40  1   
 38  20  21  1   
 39  20  22  1   
 40  20  41  1   
 41  21  23  1   
 42  21  42  1   
 43  22  24  1   
 44  22  43  1   
 45  22  44  1   
 46  23  24  1   
 47  23  45  1   
 48  23  46  1   
 49  24  25  1   
 50  24  47  1   
 51  25  48  1   
@<TRIPOS>SUBSTRUCTURE
  1 ****   6 GROUP 4 **** **** 0

# MOE 2024.06 (io_trps.svl 2023.06)
