@<TRIPOS>MOLECULE
NONAME
51 54 1 0 0 
SMALL
USER_CHARGES


@<TRIPOS>ATOM
  1 CL       0.9550    -1.4690     4.7950 Cl    1 <1>  -0.1770 
  2 C        0.6800    -2.2390     3.2540 C.ar  1 <1>   0.1770 
  3 C        0.0210    -3.4540     3.2150 C.ar  1 <1>  -0.1500 
  4 C        1.1230    -1.6240     2.1000 C.ar  1 <1>  -0.1500 
  5 C       -0.2090    -4.0880     2.0000 C.ar  1 <1>  -0.1440 
  6 C        0.9000    -2.2460     0.8850 C.ar  1 <1>  -0.1500 
  7 C        0.2460    -3.4680     0.8310 C.ar  1 <1>   0.0830 
  8 C       -0.9410    -5.4270     2.0420 C.3   1 <1>   0.4870 
  9 O        0.0370    -3.9760    -0.4020 O.3   1 <1>  -0.3630 
 10 N       -2.1390    -5.4800     1.1630 N.4   1 <1>  -0.9590 
 11 C        0.7950    -5.1080    -0.8370 C.3   1 <1>   0.0140 
 12 C       -2.9990    -4.2630     1.2030 C.3   1 <1>   0.3430 
 13 C       -2.8640    -6.7610     1.3340 C.3   1 <1>   0.3430 
 14 C       -0.0360    -6.3730    -0.7490 C.2   1 <1>   0.9060 
 15 C       -4.1070    -4.3260     0.1430 C.3   1 <1>   0.1440 
 16 C       -4.0170    -6.8700     0.3290 C.3   1 <1>  -0.1600 
 17 O       -1.1670    -6.3760    -1.2490 O.co2 1 <1>  -0.9000 
 18 O        0.3040    -7.2710     0.0230 O.co2 1 <1>  -0.9000 
 19 C       -4.9970    -3.1160     0.3060 C.ar  1 <1>   0.1670 
 20 C       -4.9240    -5.6250     0.3070 C.3   1 <1>  -0.1600 
 21 C       -3.5590    -4.1500    -1.3000 C.3   1 <1>  -0.1600 
 22 N       -5.5020    -2.7090     1.4450 N.ar  1 <1>  -0.6200 
 23 C       -5.2030    -2.4750    -0.8790 C.ar  1 <1>  -0.1430 
 24 C       -4.4930    -3.1610    -2.0200 C.3   1 <1>  -0.0170 
 25 C       -6.2320    -1.6070     1.3400 C.ar  1 <1>   0.7200 
 26 C       -5.9880    -1.3480    -0.8650 C.ar  1 <1>   0.1600 
 27 N       -6.5150    -0.9020     0.2540 N.ar  1 <1>  -0.6200 
 28 N       -6.7690    -1.1560     2.4740 N.pl3 1 <1>  -0.9000 
 29 H       -0.3020    -3.8880     4.1450 H     1 <1>   0.1500 
 30 H        1.6300    -0.6770     2.1540 H     1 <1>   0.1500 
 31 H        1.2290    -1.7860    -0.0300 H     1 <1>   0.1500 
 32 H       -1.2530    -5.6080     3.0560 H     1 <1>   0.0800 
 33 H       -0.2550    -6.2140     1.7830 H     1 <1>   0.0800 
 34 H       -1.7660    -5.5640     0.1840 H     1 <1>   0.4500 
 35 H        1.6780    -5.2040    -0.2330 H     1 <1>   0.0800 
 36 H        1.0710    -4.9480    -1.8610 H     1 <1>   0.0800 
 37 H       -2.4030    -3.3830     1.0260 H     1 <1>   0.0800 
 38 H       -3.4520    -4.1700     2.1760 H     1 <1>   0.0800 
 39 H       -3.2530    -6.8270     2.3360 H     1 <1>   0.0800 
 40 H       -2.1790    -7.5810     1.1710 H     1 <1>   0.0800 
 41 H       -4.6040    -7.7380     0.5690 H     1 <1>   0.0800 
 42 H       -3.5980    -7.0410    -0.6480 H     1 <1>   0.0800 
 43 H       -5.6430    -5.7100    -0.4890 H     1 <1>   0.0800 
 44 H       -5.4700    -5.5770     1.2340 H     1 <1>   0.0800 
 45 H       -3.4830    -5.0780    -1.8390 H     1 <1>   0.0800 
 46 H       -2.5740    -3.7170    -1.2620 H     1 <1>   0.0800 
 47 H       -5.2060    -3.6890    -2.6290 H     1 <1>   0.0800 
 48 H       -3.9380    -2.4650    -2.6240 H     1 <1>   0.0800 
 49 H       -6.1840    -0.8060    -1.7750 H     1 <1>   0.1500 
 50 H       -7.5250    -0.4880     2.3520 H     1 <1>   0.4000 
 51 H       -6.8810    -1.8420     3.2140 H     1 <1>   0.4000 
@<TRIPOS>BOND
  1   1   2  1   
  2   2   3  ar  
  3   2   4  ar  
  4   3   5  ar  
  5   3  29  1   
  6   4   6  ar  
  7   4  30  1   
  8   5   7  ar  
  9   5   8  1   
 10   6   7  ar  
 11   6  31  1   
 12   7   9  1   
 13   8  10  1   
 14   8  32  1   
 15   8  33  1   
 16   9  11  1   
 17  10  12  1   
 18  10  13  1   
 19  10  34  1   
 20  11  14  1   
 21  11  35  1   
 22  11  36  1   
 23  12  15  1   
 24  12  37  1   
 25  12  38  1   
 26  13  16  1   
 27  13  39  1   
 28  13  40  1   
 29  14  17  ar  
 30  14  18  ar  
 31  15  19  1   
 32  15  20  1   
 33  15  21  1   
 34  16  20  1   
 35  16  41  1   
 36  16  42  1   
 37  19  22  ar  
 38  19  23  ar  
 39  20  43  1   
 40  20  44  1   
 41  21  24  1   
 42  21  45  1   
 43  21  46  1   
 44  22  25  ar  
 45  23  24  1   
 46  23  26  ar  
 47  24  47  1   
 48  24  48  1   
 49  25  27  ar  
 50  25  28  1   
 51  26  27  ar  
 52  26  49  1   
 53  28  50  1   
 54  28  51  1   
@<TRIPOS>SUBSTRUCTURE
  1 ****  12 GROUP 4 **** **** 0

# MOE 2024.06 (io_trps.svl 2023.06)
