@<TRIPOS>MOLECULE
NONAME
34 35 1 0 0 
SMALL
USER_CHARGES


@<TRIPOS>ATOM
  1 O       -0.9960    -0.5660    -0.3240 O.2   1 <1>  -0.5700 
  2 C       -2.1030    -0.1310    -0.5000 C.2   1 <1>   0.4230 
  3 C       -3.2300    -0.5540     0.2840 C.ar  1 <1>   0.0860 
  4 C       -2.2740     0.8450    -1.6480 C.3   1 <1>  -0.1790 
  5 C       -4.2340     0.2640     0.8010 C.ar  1 <1>   0.1660 
  6 C       -3.3710    -1.9020     0.5770 C.ar  1 <1>   0.1600 
  7 N       -5.2610    -0.2150     1.4560 N.ar  1 <1>  -0.6200 
  8 C       -4.2090     1.7780     0.6720 C.3   1 <1>  -0.0960 
  9 N       -4.3850    -2.4030     1.2380 N.ar  1 <1>  -0.6200 
 10 C       -5.2930    -1.5240     1.6430 C.ar  1 <1>   0.7200 
 11 N       -6.3720    -1.9760     2.2990 N.pl3 1 <1>  -0.8690 
 12 C       -6.7840    -3.3930     2.4370 C.3   1 <1>   0.3530 
 13 C       -7.7500    -3.7870     1.3280 C.ar  1 <1>   0.1670 
 14 N       -9.0380    -3.8720     1.6310 N.ar  1 <1>  -0.6200 
 15 C       -7.2410    -4.0400     0.0570 C.ar  1 <1>   0.1600 
 16 C       -9.7690    -4.2220     0.5850 C.ar  1 <1>   0.1600 
 17 N       -7.9740    -4.3960    -0.9860 N.ar  1 <1>  -0.6200 
 18 C       -9.2570    -4.4780    -0.6860 C.ar  1 <1>   0.1670 
 19 C      -10.1760    -4.8750    -1.8230 C.3   1 <1>  -0.0970 
 20 H       -3.2990     0.8890    -1.9670 H     1 <1>   0.0800 
 21 H       -1.6730     0.5230    -2.4790 H     1 <1>   0.0800 
 22 H       -1.9430     1.8220    -1.3500 H     1 <1>   0.0800 
 23 H       -2.6080    -2.5830     0.2380 H     1 <1>   0.1500 
 24 H       -3.2050     2.1540     0.7240 H     1 <1>   0.0800 
 25 H       -4.7660     2.2240     1.4780 H     1 <1>   0.0800 
 26 H       -4.6630     2.0770    -0.2550 H     1 <1>   0.0800 
 27 H       -7.1110    -1.2870     2.4330 H     1 <1>   0.4000 
 28 H       -7.2630    -3.5280     3.3920 H     1 <1>   0.0800 
 29 H       -5.9230    -4.0370     2.4120 H     1 <1>   0.0800 
 30 H       -6.1820    -3.9410    -0.1030 H     1 <1>   0.1500 
 31 H      -10.8280    -4.3100     0.7430 H     1 <1>   0.1500 
 32 H      -11.1990    -4.9210    -1.5000 H     1 <1>   0.0800 
 33 H       -9.8850    -5.8390    -2.1990 H     1 <1>   0.0800 
 34 H      -10.0930    -4.1560    -2.6180 H     1 <1>   0.0800 
@<TRIPOS>BOND
  1   1   2  2   
  2   2   3  1   
  3   2   4  1   
  4   3   5  ar  
  5   3   6  ar  
  6   4  20  1   
  7   4  21  1   
  8   4  22  1   
  9   5   7  ar  
 10   5   8  1   
 11   6   9  ar  
 12   6  23  1   
 13   7  10  ar  
 14   8  24  1   
 15   8  25  1   
 16   8  26  1   
 17   9  10  ar  
 18  10  11  1   
 19  11  12  1   
 20  11  27  1   
 21  12  13  1   
 22  12  28  1   
 23  12  29  1   
 24  13  14  ar  
 25  13  15  ar  
 26  14  16  ar  
 27  15  17  ar  
 28  15  30  1   
 29  16  18  ar  
 30  16  31  1   
 31  17  18  ar  
 32  18  19  1   
 33  19  32  1   
 34  19  33  1   
 35  19  34  1   
@<TRIPOS>SUBSTRUCTURE
  1 ****  10 GROUP 4 **** **** 0

# MOE 2024.06 (io_trps.svl 2023.06)
