@<TRIPOS>MOLECULE
NONAME
54 56 1 0 0 
SMALL
USER_CHARGES


@<TRIPOS>ATOM
  1 O       -1.1430     0.9450    -2.3620 O.2   1 <1>  -0.5700 
  2 C       -1.4280     1.4130    -1.2770 C.2   1 <1>   0.5440 
  3 N       -2.5430     0.9440    -0.6100 N.am  1 <1>  -0.6600 
  4 C       -0.6010     2.4650    -0.7280 C.ar  1 <1>   0.0860 
  5 C       -3.3670    -0.1730    -1.1640 C.3   1 <1>   0.1400 
  6 C       -3.0820     1.5960     0.6180 C.3   1 <1>   0.1400 
  7 C        0.3330     2.2310     0.2860 C.ar  1 <1>   0.1660 
  8 C       -0.7280     3.7660    -1.1920 C.ar  1 <1>  -0.1500 
  9 C       -4.7690     0.2970    -1.5790 C.3   1 <1>   0.1400 
 10 C       -4.1620     2.6090     0.2230 C.3   1 <1>  -0.1600 
 11 N        1.0740     3.1670     0.8590 N.ar  1 <1>  -0.6200 
 12 C        0.5620     0.8260     0.8210 C.3   1 <1>  -0.0970 
 13 C        0.0500     4.7420    -0.6120 C.ar  1 <1>  -0.1500 
 14 N       -5.6150     0.6090    -0.3830 N.am  1 <1>  -0.6600 
 15 C       -5.5780     2.0250     0.0950 C.3   1 <1>   0.1400 
 16 C        0.9250     4.3980     0.4040 C.ar  1 <1>   0.1670 
 17 C       -6.4180    -0.3140     0.2450 C.2   1 <1>   0.5690 
 18 C        1.7890     5.4530     1.0620 C.3   1 <1>  -0.0970 
 19 O       -7.0860    -0.0240     1.2100 O.2   1 <1>  -0.5700 
 20 C       -6.4800    -1.7470    -0.2550 C.3   1 <1>  -0.0990 
 21 C       -7.4320    -2.6240     0.5730 C.3   1 <1>   0.0960 
 22 N       -7.3720    -4.0300     0.1290 N.pl3 1 <1>   0.3140 
 23 N       -7.4950    -4.3850    -1.1650 N.2   1 <1>  -0.7070 
 24 C       -7.1880    -5.1090     0.9150 C.2   1 <1>  -0.3020 
 25 C       -7.3890    -5.6790    -1.1660 C.2   1 <1>   0.1390 
 26 C       -7.1940    -6.1920     0.1110 C.2   1 <1>  -0.1810 
 27 C       -7.0300    -7.6500     0.4880 C.3   1 <1>  -0.0590 
 28 H       -3.4460    -0.9550    -0.4300 H     1 <1>   0.0800 
 29 H       -2.8830    -0.5960    -2.0270 H     1 <1>   0.0800 
 30 H       -2.2940     2.1070     1.1420 H     1 <1>   0.0800 
 31 H       -3.4850     0.8530     1.2870 H     1 <1>   0.0800 
 32 H       -1.4180     3.9950    -1.9850 H     1 <1>   0.1500 
 33 H       -5.2340    -0.4730    -2.1680 H     1 <1>   0.0800 
 34 H       -4.6830     1.1650    -2.2100 H     1 <1>   0.0800 
 35 H       -3.8850     3.0950    -0.6950 H     1 <1>   0.0800 
 36 H       -4.2000     3.3750     0.9760 H     1 <1>   0.0800 
 37 H        0.4590     0.0930     0.0420 H     1 <1>   0.0800 
 38 H       -0.1440     0.6160     1.6020 H     1 <1>   0.0800 
 39 H        1.5550     0.7440     1.2240 H     1 <1>   0.0800 
 40 H       -0.0220     5.7610    -0.9480 H     1 <1>   0.1500 
 41 H       -6.1580     2.6350    -0.5760 H     1 <1>   0.0800 
 42 H       -6.0470     2.0870     1.0620 H     1 <1>   0.0800 
 43 H        1.5730     5.4880     2.1140 H     1 <1>   0.0800 
 44 H        1.6100     6.4240     0.6370 H     1 <1>   0.0800 
 45 H        2.8250     5.2000     0.9300 H     1 <1>   0.0800 
 46 H       -5.4940    -2.1690    -0.2160 H     1 <1>   0.0800 
 47 H       -6.8240    -1.7400    -1.2720 H     1 <1>   0.0800 
 48 H       -8.4420    -2.2760     0.4640 H     1 <1>   0.0800 
 49 H       -7.1630    -2.5820     1.6130 H     1 <1>   0.0800 
 50 H       -7.0660    -5.0470     1.9800 H     1 <1>   0.1500 
 51 H       -7.4480    -6.2760    -2.0610 H     1 <1>   0.1500 
 52 H       -6.8950    -7.7460     1.5500 H     1 <1>   0.0800 
 53 H       -6.1710    -8.0630    -0.0100 H     1 <1>   0.0800 
 54 H       -7.9040    -8.2040     0.1980 H     1 <1>   0.0800 
@<TRIPOS>BOND
  1   1   2  2   
  2   2   3  am  
  3   2   4  1   
  4   3   5  1   
  5   3   6  1   
  6   4   7  ar  
  7   4   8  ar  
  8   5   9  1   
  9   5  28  1   
 10   5  29  1   
 11   6  10  1   
 12   6  30  1   
 13   6  31  1   
 14   7  11  ar  
 15   7  12  1   
 16   8  13  ar  
 17   8  32  1   
 18   9  14  1   
 19   9  33  1   
 20   9  34  1   
 21  10  15  1   
 22  10  35  1   
 23  10  36  1   
 24  11  16  ar  
 25  12  37  1   
 26  12  38  1   
 27  12  39  1   
 28  13  16  ar  
 29  13  40  1   
 30  14  15  1   
 31  14  17  am  
 32  15  41  1   
 33  15  42  1   
 34  16  18  1   
 35  17  19  2   
 36  17  20  1   
 37  18  43  1   
 38  18  44  1   
 39  18  45  1   
 40  20  21  1   
 41  20  46  1   
 42  20  47  1   
 43  21  22  1   
 44  21  48  1   
 45  21  49  1   
 46  22  23  1   
 47  22  24  1   
 48  23  25  2   
 49  24  26  2   
 50  24  50  1   
 51  25  26  1   
 52  25  51  1   
 53  26  27  1   
 54  27  52  1   
 55  27  53  1   
 56  27  54  1   
@<TRIPOS>SUBSTRUCTURE
  1 ****   5 GROUP 4 **** **** 0

# MOE 2024.06 (io_trps.svl 2023.06)
