@<TRIPOS>MOLECULE
NONAME
46 49 1 0 0 
SMALL
USER_CHARGES


@<TRIPOS>ATOM
  1 O       -0.3920     0.1670    -1.1670 O.2   1 <1>  -0.5700 
  2 C       -0.0090     1.2110    -0.6700 C.2   1 <1>   0.5440 
  3 N       -0.8470     1.8910     0.1910 N.am  1 <1>  -0.6600 
  4 C        1.2840     1.7360    -1.0550 C.ar  1 <1>   0.0860 
  5 C       -2.1570     1.3250     0.6220 C.3   1 <1>   0.1400 
  6 C       -0.5940     3.2970     0.6200 C.3   1 <1>   0.1400 
  7 C        2.3200     1.9420    -0.1390 C.ar  1 <1>   0.0820 
  8 C        1.5250     2.0580    -2.3930 C.ar  1 <1>  -0.1500 
  9 C       -3.3230     2.1140    -0.0260 C.3   1 <1>   0.0000 
 10 C       -1.9050     4.0370     0.9360 C.3   1 <1>  -0.1600 
 11 O        2.1280     1.6380     1.1710 O.3   1 <1>  -0.3630 
 12 C        3.5480     2.4560    -0.5640 C.ar  1 <1>   0.0820 
 13 C        2.7350     2.5800    -2.8100 C.ar  1 <1>  -0.1500 
 14 C       -4.6650     1.8580     0.6920 C.3   1 <1>   0.2000 
 15 C       -3.0180     3.6460    -0.0510 C.3   1 <1>  -0.1600 
 16 C       -3.6160     1.6160    -1.4560 C.3   1 <1>  -0.1600 
 17 C        3.0810     2.0850     2.1160 C.3   1 <1>   0.1200 
 18 O        4.5750     2.6390     0.3040 O.3   1 <1>  -0.3630 
 19 C        3.7500     2.7830    -1.8910 C.ar  1 <1>  -0.1500 
 20 O       -4.7840     0.5210     1.0330 O.3   1 <1>  -0.6800 
 21 C       -5.7440     2.1540    -0.3500 C.3   1 <1>  -0.1600 
 22 C       -5.0950     1.9210    -1.7230 C.3   1 <1>  -0.1600 
 23 C        4.4950     1.9570     1.5400 C.3   1 <1>   0.1200 
 24 H       -2.2210     0.2800     0.3750 H     1 <1>   0.0800 
 25 H       -2.2230     1.3980     1.6930 H     1 <1>   0.0800 
 26 H        0.0430     3.2960     1.4880 H     1 <1>   0.0800 
 27 H       -0.0850     3.8180    -0.1720 H     1 <1>   0.0800 
 28 H        0.7390     1.8900    -3.1090 H     1 <1>   0.1500 
 29 H       -2.2130     3.8040     1.9410 H     1 <1>   0.0800 
 30 H       -1.7300     5.0970     0.8930 H     1 <1>   0.0800 
 31 H        2.8920     2.8250    -3.8470 H     1 <1>   0.1500 
 32 H       -4.7780     2.4410     1.5910 H     1 <1>   0.0800 
 33 H       -2.6860     3.9360    -1.0330 H     1 <1>   0.0800 
 34 H       -3.9000     4.2230     0.1610 H     1 <1>   0.0800 
 35 H       -2.9670     2.0570    -2.1920 H     1 <1>   0.0800 
 36 H       -3.4710     0.5500    -1.5010 H     1 <1>   0.0800 
 37 H        2.8640     3.1110     2.3500 H     1 <1>   0.0800 
 38 H        2.9730     1.4880     3.0030 H     1 <1>   0.0800 
 39 H        4.6990     3.1840    -2.2010 H     1 <1>   0.1500 
 40 H       -4.7220    -0.0170     0.2200 H     1 <1>   0.4000 
 41 H       -6.6240     1.5500    -0.2030 H     1 <1>   0.0800 
 42 H       -6.0300     3.1870    -0.2720 H     1 <1>   0.0800 
 43 H       -5.5620     1.1000    -2.2400 H     1 <1>   0.0800 
 44 H       -5.1880     2.8080    -2.3250 H     1 <1>   0.0800 
 45 H        4.7390     0.9230     1.3690 H     1 <1>   0.0800 
 46 H        5.2220     2.3880     2.2050 H     1 <1>   0.0800 
@<TRIPOS>BOND
  1   1   2  2   
  2   2   3  am  
  3   2   4  1   
  4   3   5  1   
  5   3   6  1   
  6   4   7  ar  
  7   4   8  ar  
  8   5   9  1   
  9   5  24  1   
 10   5  25  1   
 11   6  10  1   
 12   6  26  1   
 13   6  27  1   
 14   7  11  1   
 15   7  12  ar  
 16   8  13  ar  
 17   8  28  1   
 18   9  14  1   
 19   9  15  1   
 20   9  16  1   
 21  10  15  1   
 22  10  29  1   
 23  10  30  1   
 24  11  17  1   
 25  12  18  1   
 26  12  19  ar  
 27  13  19  ar  
 28  13  31  1   
 29  14  20  1   
 30  14  21  1   
 31  14  32  1   
 32  15  33  1   
 33  15  34  1   
 34  16  22  1   
 35  16  35  1   
 36  16  36  1   
 37  17  23  1   
 38  17  37  1   
 39  17  38  1   
 40  18  23  1   
 41  19  39  1   
 42  20  40  1   
 43  21  22  1   
 44  21  41  1   
 45  21  42  1   
 46  22  43  1   
 47  22  44  1   
 48  23  45  1   
 49  23  46  1   
@<TRIPOS>SUBSTRUCTURE
  1 ****   3 GROUP 4 **** **** 0

# MOE 2024.06 (io_trps.svl 2023.06)
