@<TRIPOS>MOLECULE
NONAME
46 48 1 0 0 
SMALL
USER_CHARGES


@<TRIPOS>ATOM
  1 O       -0.6230     0.3310    -1.7810 O.2   1 <1>  -0.5700 
  2 C       -1.3700     0.8500    -0.9780 C.2   1 <1>   0.5440 
  3 N       -2.2700     0.0750    -0.3070 N.am  1 <1>  -0.7300 
  4 C       -1.3420     2.2750    -0.7380 C.ar  1 <1>   0.0860 
  5 C       -2.6570    -1.3250    -0.6280 C.3   1 <1>   0.2200 
  6 C       -0.1690     2.9590    -0.3340 C.ar  1 <1>   0.0000 
  7 C       -2.4780     3.0310    -0.8840 C.ar  1 <1>  -0.1500 
  8 C       -3.7210    -1.7850     0.3830 C.3   1 <1>   0.2000 
  9 C       -1.4780    -2.3140    -0.5860 C.3   1 <1>   0.1200 
 10 C       -0.2590     4.3510    -0.1040 C.ar  1 <1>   0.3100 
 11 C        1.0820     2.3340    -0.1340 C.ar  1 <1>  -0.1500 
 12 C       -2.4640     4.4050    -0.6370 C.ar  1 <1>   0.1660 
 13 O       -4.8290    -0.9300     0.3040 O.3   1 <1>  -0.5600 
 14 C       -4.1190    -3.2380     0.1060 C.3   1 <1>  -0.1600 
 15 O       -1.9400    -3.6200    -0.8160 O.3   1 <1>  -0.5600 
 16 N       -1.4090     5.0520    -0.2590 N.ar  1 <1>  -0.6200 
 17 C        0.8810     5.0540     0.3090 C.ar  1 <1>  -0.1500 
 18 C        2.1780     3.0450     0.2710 C.ar  1 <1>  -0.1500 
 19 C       -3.7350     5.2110    -0.8120 C.3   1 <1>  -0.0970 
 20 C       -5.6900    -0.9520     1.4010 C.3   1 <1>   0.0400 
 21 C       -2.8620    -4.1150     0.1050 C.3   1 <1>   0.1200 
 22 C        2.0870     4.4210     0.4990 C.ar  1 <1>   0.0830 
 23 O        3.2220     5.0390     0.8980 O.3   1 <1>  -0.3620 
 24 C        3.2510     6.4270     1.1470 C.3   1 <1>   0.0400 
 25 H       -3.0020     0.5440     0.2330 H     1 <1>   0.3700 
 26 H       -3.0760    -1.3480    -1.6200 H     1 <1>   0.0800 
 27 H       -3.3940     2.5660    -1.2000 H     1 <1>   0.1500 
 28 H       -3.3020    -1.7110     1.3720 H     1 <1>   0.0800 
 29 H       -0.9830    -2.2870     0.3680 H     1 <1>   0.0800 
 30 H       -0.7700    -2.0880    -1.3630 H     1 <1>   0.0800 
 31 H        1.1790     1.2760    -0.3060 H     1 <1>   0.1500 
 32 H       -4.7890    -3.6000     0.8630 H     1 <1>   0.0800 
 33 H       -4.6020    -3.3140    -0.8520 H     1 <1>   0.0800 
 34 H        0.7600     6.1070     0.4700 H     1 <1>   0.1500 
 35 H        3.1290     2.5650     0.4210 H     1 <1>   0.1500 
 36 H       -4.5540     4.5910    -1.1240 H     1 <1>   0.0800 
 37 H       -3.5750     5.9740    -1.5510 H     1 <1>   0.0800 
 38 H       -3.9910     5.6830     0.1190 H     1 <1>   0.0800 
 39 H       -6.4440    -0.2000     1.2470 H     1 <1>   0.0800 
 40 H       -5.1360    -0.7300     2.2970 H     1 <1>   0.0800 
 41 H       -6.1600    -1.9170     1.4730 H     1 <1>   0.0800 
 42 H       -3.1050    -5.1230    -0.1860 H     1 <1>   0.0800 
 43 H       -2.3950    -4.1360     1.0760 H     1 <1>   0.0800 
 44 H        4.2490     6.6930     1.4450 H     1 <1>   0.0800 
 45 H        2.5590     6.6540     1.9390 H     1 <1>   0.0800 
 46 H        2.9870     6.9480     0.2440 H     1 <1>   0.0800 
@<TRIPOS>BOND
  1   1   2  2   
  2   2   3  am  
  3   2   4  1   
  4   3   5  1   
  5   3  25  1   
  6   4   6  ar  
  7   4   7  ar  
  8   5   8  1   
  9   5   9  1   
 10   5  26  1   
 11   6  10  ar  
 12   6  11  ar  
 13   7  12  ar  
 14   7  27  1   
 15   8  13  1   
 16   8  14  1   
 17   8  28  1   
 18   9  15  1   
 19   9  29  1   
 20   9  30  1   
 21  10  16  ar  
 22  10  17  ar  
 23  11  18  ar  
 24  11  31  1   
 25  12  16  ar  
 26  12  19  1   
 27  13  20  1   
 28  14  21  1   
 29  14  32  1   
 30  14  33  1   
 31  15  21  1   
 32  17  22  ar  
 33  17  34  1   
 34  18  22  ar  
 35  18  35  1   
 36  19  36  1   
 37  19  37  1   
 38  19  38  1   
 39  20  39  1   
 40  20  40  1   
 41  20  41  1   
 42  21  42  1   
 43  21  43  1   
 44  22  23  1   
 45  23  24  1   
 46  24  44  1   
 47  24  45  1   
 48  24  46  1   
@<TRIPOS>SUBSTRUCTURE
  1 ****   4 GROUP 4 **** **** 0

# MOE 2024.06 (io_trps.svl 2023.06)
