@<TRIPOS>MOLECULE
NONAME
55 57 1 0 0 
SMALL
USER_CHARGES


@<TRIPOS>ATOM
  1 O       -0.4750    -0.2740    -0.8380 O.2   1 <1>  -0.5700 
  2 C        0.1850    -1.2860    -0.8650 C.2   1 <1>   0.5690 
  3 N        1.3630    -1.2650    -1.5410 N.am  1 <1>  -0.7300 
  4 C       -0.3090    -2.5750    -0.1360 C.3   1 <1>   0.3610 
  5 C        2.2240    -2.4480    -1.7560 C.3   1 <1>   0.1400 
  6 N        0.6110    -3.7760    -0.3820 N.am  1 <1>  -0.6600 
  7 C       -1.7320    -2.9100    -0.6160 C.3   1 <1>   0.1400 
  8 C       -0.4780    -2.2650     1.3710 C.3   1 <1>  -0.1600 
  9 C        1.3830    -3.7260    -1.6650 C.3   1 <1>   0.1400 
 10 C        0.7580    -4.8820     0.4180 C.2   1 <1>   0.7800 
 11 N       -2.5180    -3.2560     0.5890 N.am  1 <1>  -0.6600 
 12 C       -1.8400    -2.8070     1.8160 C.3   1 <1>   0.1400 
 13 O        1.7400    -5.5960     0.3460 O.2   1 <1>  -0.5700 
 14 O       -0.1970    -5.1780     1.2890 O.3   1 <1>  -0.4300 
 15 C       -3.6000    -4.0870     0.5820 C.2   1 <1>   0.7800 
 16 C       -0.1570    -6.3360     2.0930 C.3   1 <1>   0.2640 
 17 O       -4.0750    -4.5350     1.6090 O.2   1 <1>  -0.5700 
 18 O       -4.1280    -4.3630    -0.6130 O.3   1 <1>  -0.4300 
 19 C       -0.7780    -7.5020     1.3410 C.ar  1 <1>  -0.1440 
 20 C       -5.2860    -5.1190    -0.8870 C.3   1 <1>   0.2800 
 21 C       -2.1430    -7.7330     1.4180 C.ar  1 <1>  -0.1500 
 22 C        0.0140    -8.3530     0.5850 C.ar  1 <1>  -0.1500 
 23 C       -5.4410    -5.0700    -2.4070 C.3   1 <1>  -0.2400 
 24 C       -5.0870    -6.5710    -0.4470 C.3   1 <1>  -0.2400 
 25 C       -6.5110    -4.4710    -0.2320 C.3   1 <1>  -0.2400 
 26 C       -2.7060    -8.8140     0.7610 C.ar  1 <1>  -0.1500 
 27 C       -0.5490    -9.4290    -0.0790 C.ar  1 <1>  -0.1500 
 28 C       -1.9100    -9.6620     0.0120 C.ar  1 <1>  -0.1500 
 29 H        1.6550    -0.3700    -1.9430 H     1 <1>   0.3700 
 30 H        3.0020    -2.4710    -1.0110 H     1 <1>   0.0800 
 31 H        2.6820    -2.3890    -2.7280 H     1 <1>   0.0800 
 32 H       -1.7230    -3.7280    -1.3160 H     1 <1>   0.0800 
 33 H       -2.1940    -2.0570    -1.0790 H     1 <1>   0.0800 
 34 H       -0.4950    -1.2030     1.5350 H     1 <1>   0.0800 
 35 H        0.3230    -2.6620     1.9650 H     1 <1>   0.0800 
 36 H        2.0340    -4.5780    -1.7620 H     1 <1>   0.0800 
 37 H        0.6940    -3.7570    -2.4910 H     1 <1>   0.0800 
 38 H       -2.4250    -2.0380     2.2910 H     1 <1>   0.0800 
 39 H       -1.7320    -3.6340     2.4970 H     1 <1>   0.0800 
 40 H       -0.7270    -6.1290     2.9810 H     1 <1>   0.0800 
 41 H        0.8590    -6.5450     2.3800 H     1 <1>   0.0800 
 42 H       -2.7720    -7.0700     1.9890 H     1 <1>   0.1500 
 43 H        1.0740    -8.1780     0.5100 H     1 <1>   0.1500 
 44 H       -4.5770    -5.4980    -2.8830 H     1 <1>   0.0800 
 45 H       -5.5570    -4.0530    -2.7380 H     1 <1>   0.0800 
 46 H       -6.3080    -5.6270    -2.7130 H     1 <1>   0.0800 
 47 H       -4.1840    -6.9660    -0.8760 H     1 <1>   0.0800 
 48 H       -5.9140    -7.1730    -0.7750 H     1 <1>   0.0800 
 49 H       -5.0330    -6.6450     0.6230 H     1 <1>   0.0800 
 50 H       -6.5760    -3.4340    -0.5060 H     1 <1>   0.0800 
 51 H       -6.4660    -4.5510     0.8390 H     1 <1>   0.0800 
 52 H       -7.4070    -4.9680    -0.5570 H     1 <1>   0.0800 
 53 H       -3.7650    -8.9930     0.8330 H     1 <1>   0.1500 
 54 H        0.0720   -10.0840    -0.6640 H     1 <1>   0.1500 
 55 H       -2.3490   -10.4990    -0.5010 H     1 <1>   0.1500 
@<TRIPOS>BOND
  1   1   2  2   
  2   2   3  am  
  3   2   4  1   
  4   3   5  1   
  5   3  29  1   
  6   4   6  1   
  7   4   7  1   
  8   4   8  1   
  9   5   9  1   
 10   5  30  1   
 11   5  31  1   
 12   6   9  1   
 13   6  10  am  
 14   7  11  1   
 15   7  32  1   
 16   7  33  1   
 17   8  12  1   
 18   8  34  1   
 19   8  35  1   
 20   9  36  1   
 21   9  37  1   
 22  10  13  2   
 23  10  14  1   
 24  11  12  1   
 25  11  15  am  
 26  12  38  1   
 27  12  39  1   
 28  14  16  1   
 29  15  17  2   
 30  15  18  1   
 31  16  19  1   
 32  16  40  1   
 33  16  41  1   
 34  18  20  1   
 35  19  21  ar  
 36  19  22  ar  
 37  20  23  1   
 38  20  24  1   
 39  20  25  1   
 40  21  26  ar  
 41  21  42  1   
 42  22  27  ar  
 43  22  43  1   
 44  23  44  1   
 45  23  45  1   
 46  23  46  1   
 47  24  47  1   
 48  24  48  1   
 49  24  49  1   
 50  25  50  1   
 51  25  51  1   
 52  25  52  1   
 53  26  28  ar  
 54  26  53  1   
 55  27  28  ar  
 56  27  54  1   
 57  28  55  1   
@<TRIPOS>SUBSTRUCTURE
  1 ****  14 GROUP 4 **** **** 0

# MOE 2024.06 (io_trps.svl 2023.06)
