@<TRIPOS>MOLECULE
NONAME
51 55 1 0 0 
SMALL
USER_CHARGES


@<TRIPOS>ATOM
  1 CL       2.0170     0.8040    -1.6020 Cl    1 <1>  -0.1770 
  2 C        3.0470     0.0520    -0.4090 C.ar  1 <1>   0.1770 
  3 C        2.9190    -1.3220    -0.1690 C.ar  1 <1>   0.0000 
  4 C        3.9640     0.8020     0.2840 C.ar  1 <1>  -0.1500 
  5 C        3.7320    -1.9260     0.7820 C.ar  1 <1>  -0.1520 
  6 C        2.1010    -2.3340    -0.6930 C.2   1 <1>  -0.1500 
  7 C        4.7800     0.1880     1.2420 C.ar  1 <1>  -0.1500 
  8 N        3.4190    -3.2660     0.8310 N.pl3 1 <1>   0.0480 
  9 C        4.6690    -1.1620     1.4930 C.ar  1 <1>  -0.1500 
 10 C        2.4000    -3.5140    -0.0730 C.2   1 <1>  -0.2370 
 11 C        4.1210    -4.2610     1.6720 C.3   1 <1>   0.0160 
 12 C        1.7790    -4.7950    -0.3000 C.2   1 <1>   0.7150 
 13 O        2.0640    -5.7980     0.3320 O.2   1 <1>  -0.5700 
 14 N        0.7410    -4.9110    -1.1880 N.am  1 <1>  -0.6600 
 15 C       -0.6060    -4.4950    -0.6940 C.3   1 <1>   0.1400 
 16 C        0.6840    -6.1280    -2.0610 C.3   1 <1>   0.1400 
 17 C       -1.2560    -5.6230     0.1560 C.3   1 <1>   0.4230 
 18 C       -0.2340    -7.2250    -1.4680 C.3   1 <1>   0.3430 
 19 N       -0.5420    -6.9480    -0.0210 N.4   1 <1>  -0.9590 
 20 C       -2.7650    -5.7590    -0.1530 C.3   1 <1>   0.1200 
 21 C       -1.2440    -8.0350     0.7230 C.3   1 <1>   0.5180 
 22 O       -3.3320    -6.8040     0.5890 O.3   1 <1>  -0.5600 
 23 C       -0.5580    -9.3800     0.4560 C.3   1 <1>  -0.1950 
 24 C       -2.7520    -8.0670     0.3880 C.3   1 <1>   0.1200 
 25 C       -0.3460   -10.3490     1.5780 C.3   1 <1>  -0.2000 
 26 C        0.8300    -9.6590     0.9490 C.3   1 <1>  -0.2000 
 27 H        4.0560     1.8560     0.0940 H     1 <1>   0.1500 
 28 H        1.3720    -2.1580    -1.4650 H     1 <1>   0.1500 
 29 H        5.4960     0.7850     1.7810 H     1 <1>   0.1500 
 30 H        5.2990    -1.6250     2.2310 H     1 <1>   0.1500 
 31 H        3.4350    -4.6620     2.3960 H     1 <1>   0.0800 
 32 H        4.9480    -3.8060     2.1810 H     1 <1>   0.0800 
 33 H        4.4890    -5.0560     1.0490 H     1 <1>   0.0800 
 34 H       -0.5210    -3.6030    -0.0970 H     1 <1>   0.0800 
 35 H       -1.2260    -4.2540    -1.5400 H     1 <1>   0.0800 
 36 H        0.3370    -5.8540    -3.0430 H     1 <1>   0.0800 
 37 H        1.6770    -6.5300    -2.1760 H     1 <1>   0.0800 
 38 H       -1.1740    -5.3300     1.1900 H     1 <1>   0.0800 
 39 H        0.2620    -8.1760    -1.5700 H     1 <1>   0.0800 
 40 H       -1.1490    -7.2700    -2.0340 H     1 <1>   0.0800 
 41 H        0.3940    -6.8190     0.4120 H     1 <1>   0.4500 
 42 H       -2.9380    -5.9500    -1.1980 H     1 <1>   0.0800 
 43 H       -3.2820    -4.8550     0.1190 H     1 <1>   0.0800 
 44 H       -1.1570    -7.8310     1.7780 H     1 <1>   0.0800 
 45 H       -0.8570    -9.8220    -0.4790 H     1 <1>   0.1000 
 46 H       -3.2550    -8.7630     1.0360 H     1 <1>   0.0800 
 47 H       -2.9200    -8.3670    -0.6310 H     1 <1>   0.0800 
 48 H       -0.6060   -10.0800     2.5890 H     1 <1>   0.1000 
 49 H       -0.4730   -11.4030     1.3950 H     1 <1>   0.1000 
 50 H        1.4970   -10.2510     0.3430 H     1 <1>   0.1000 
 51 H        1.3580    -8.9270     1.5370 H     1 <1>   0.1000 
@<TRIPOS>BOND
  1   1   2  1   
  2   2   3  ar  
  3   2   4  ar  
  4   3   5  ar  
  5   3   6  1   
  6   4   7  ar  
  7   4  27  1   
  8   5   8  1   
  9   5   9  ar  
 10   6  10  2   
 11   6  28  1   
 12   7   9  ar  
 13   7  29  1   
 14   8  10  1   
 15   8  11  1   
 16   9  30  1   
 17  10  12  1   
 18  11  31  1   
 19  11  32  1   
 20  11  33  1   
 21  12  13  2   
 22  12  14  am  
 23  14  15  1   
 24  14  16  1   
 25  15  17  1   
 26  15  34  1   
 27  15  35  1   
 28  16  18  1   
 29  16  36  1   
 30  16  37  1   
 31  17  19  1   
 32  17  20  1   
 33  17  38  1   
 34  18  19  1   
 35  18  39  1   
 36  18  40  1   
 37  19  21  1   
 38  19  41  1   
 39  20  22  1   
 40  20  42  1   
 41  20  43  1   
 42  21  23  1   
 43  21  24  1   
 44  21  44  1   
 45  22  24  1   
 46  23  25  1   
 47  23  26  1   
 48  23  45  1   
 49  24  46  1   
 50  24  47  1   
 51  25  26  1   
 52  25  48  1   
 53  25  49  1   
 54  26  50  1   
 55  26  51  1   
@<TRIPOS>SUBSTRUCTURE
  1 ****  12 GROUP 4 **** **** 0

# MOE 2024.06 (io_trps.svl 2023.06)
