@<TRIPOS>MOLECULE
NONAME
40 41 1 0 0 
SMALL
USER_CHARGES


@<TRIPOS>ATOM
  1 O        1.1600     2.4290    -1.2590 O.co2 1 <1>  -0.9000 
  2 C        0.2460     1.7940    -0.7320 C.2   1 <1>   0.9060 
  3 O       -0.0530     0.6340    -1.0760 O.co2 1 <1>  -0.9000 
  4 C       -0.5820     2.3630     0.4530 C.3   1 <1>   0.4600 
  5 N       -1.6310     1.3300     0.8490 N.4   1 <1>  -0.9590 
  6 C       -1.2450     3.7320     0.2410 C.ar  1 <1>  -0.1430 
  7 C       -2.9390     1.5500     0.1580 C.3   1 <1>   0.3430 
  8 C       -1.6990     1.0950     2.3120 C.3   1 <1>   0.2630 
  9 C       -1.4770     4.2410    -1.0310 C.ar  1 <1>  -0.1500 
 10 C       -1.6440     4.4760     1.3430 C.ar  1 <1>  -0.1500 
 11 C       -3.7610     0.2600     0.0160 C.3   1 <1>   0.0000 
 12 C       -2.1110     5.4600    -1.2050 C.ar  1 <1>  -0.1430 
 13 C       -2.2790     5.6930     1.1760 C.ar  1 <1>  -0.1500 
 14 C       -4.6970    -0.0170     1.2020 C.3   1 <1>   0.2580 
 15 C       -5.0930     0.5570    -0.6910 C.3   1 <1>   0.2580 
 16 C       -3.0120    -0.9640    -0.5480 C.3   1 <1>  -0.2400 
 17 C       -2.5160     6.1820    -0.0960 C.ar  1 <1>  -0.1500 
 18 C       -2.3510     5.9970    -2.6040 C.3   1 <1>  -0.0970 
 19 O       -5.6090     0.8850     0.5930 O.3   1 <1>  -0.5160 
 20 H        0.1250     2.4660     1.2560 H     1 <1>   0.0800 
 21 H       -1.2110     0.5070     0.3480 H     1 <1>   0.4500 
 22 H       -2.7420     1.9190    -0.8360 H     1 <1>   0.0800 
 23 H       -3.5120     2.3020     0.6760 H     1 <1>   0.0800 
 24 H       -2.1390     1.9460     2.8030 H     1 <1>   0.0800 
 25 H       -0.7090     0.9350     2.7070 H     1 <1>   0.0800 
 26 H       -2.2950     0.2230     2.5210 H     1 <1>   0.0800 
 27 H       -1.1560     3.6940    -1.9040 H     1 <1>   0.1500 
 28 H       -1.4630     4.1180     2.3400 H     1 <1>   0.1500 
 29 H       -2.5880     6.2650     2.0340 H     1 <1>   0.1500 
 30 H       -4.3770     0.3650     2.1550 H     1 <1>   0.0000 
 31 H       -5.1220    -1.0070     1.2330 H     1 <1>   0.0000 
 32 H       -5.6090    -0.3010    -1.0870 H     1 <1>   0.0000 
 33 H       -5.0970     1.4210    -1.3320 H     1 <1>   0.0000 
 34 H       -2.2560    -1.3030     0.1380 H     1 <1>   0.0800 
 35 H       -2.5320    -0.7110    -1.4790 H     1 <1>   0.0800 
 36 H       -3.6900    -1.7800    -0.7280 H     1 <1>   0.0800 
 37 H       -3.0110     7.1300    -0.2180 H     1 <1>   0.1500 
 38 H       -1.5430     5.7130    -3.2550 H     1 <1>   0.0800 
 39 H       -2.4120     7.0700    -2.5910 H     1 <1>   0.0800 
 40 H       -3.2690     5.6000    -2.9960 H     1 <1>   0.0800 
@<TRIPOS>BOND
  1   1   2  ar  
  2   2   3  ar  
  3   2   4  1   
  4   4   5  1   
  5   4   6  1   
  6   4  20  1   
  7   5   7  1   
  8   5   8  1   
  9   5  21  1   
 10   6   9  ar  
 11   6  10  ar  
 12   7  11  1   
 13   7  22  1   
 14   7  23  1   
 15   8  24  1   
 16   8  25  1   
 17   8  26  1   
 18   9  12  ar  
 19   9  27  1   
 20  10  13  ar  
 21  10  28  1   
 22  11  14  1   
 23  11  15  1   
 24  11  16  1   
 25  12  17  ar  
 26  12  18  1   
 27  13  17  ar  
 28  13  29  1   
 29  14  19  1   
 30  14  30  1   
 31  14  31  1   
 32  15  19  1   
 33  15  32  1   
 34  15  33  1   
 35  16  34  1   
 36  16  35  1   
 37  16  36  1   
 38  17  37  1   
 39  18  38  1   
 40  18  39  1   
 41  18  40  1   
@<TRIPOS>SUBSTRUCTURE
  1 ****   7 GROUP 4 **** **** 0

# MOE 2024.06 (io_trps.svl 2023.06)
