@<TRIPOS>MOLECULE
NONAME
48 51 1 0 0 
SMALL
USER_CHARGES


@<TRIPOS>ATOM
  1 S        2.7100    -0.7220     2.6310 S.3   1 <1>  -0.0800 
  2 C        1.9930    -0.6670     1.0300 C.2   1 <1>   0.3020 
  3 C        2.0880    -2.3230     2.8460 C.2   1 <1>  -0.1100 
  4 N        1.3630    -1.7490     0.7310 N.2   1 <1>  -0.5650 
  5 N        2.1790     0.5280     0.2680 N.pl3 1 <1>   0.6460 
  6 C        1.3990    -2.7170     1.7530 C.2   1 <1>   0.1410 
  7 N        3.2690     1.3340     0.4490 N.2   1 <1>  -0.7070 
  8 C        1.4020     1.0740    -0.7040 C.2   1 <1>  -0.3320 
  9 C        0.7640    -4.0320     1.6320 C.2   1 <1>   0.7160 
 10 C        3.1520     2.3130    -0.3830 C.2   1 <1>   0.1080 
 11 C        1.9960     2.2090    -1.1400 C.2   1 <1>  -0.1500 
 12 C        0.1020     0.4470    -1.1370 C.3   1 <1>   1.2000 
 13 O        1.0210    -4.8840     2.4650 O.2   1 <1>  -0.5700 
 14 N       -0.1260    -4.3820     0.6350 N.am  1 <1>  -0.6600 
 15 C        4.1730     3.4220    -0.4890 C.3   1 <1>  -0.0590 
 16 F       -0.7170     0.2110    -0.1230 F     1 <1>  -0.3400 
 17 F       -0.5640     1.2370    -1.9670 F     1 <1>  -0.3400 
 18 F        0.2700    -0.6970    -1.7820 F     1 <1>  -0.3400 
 19 C       -0.8110    -3.4670    -0.3150 C.3   1 <1>   0.1400 
 20 C       -0.6100    -5.7720     0.4410 C.3   1 <1>   0.1400 
 21 C       -2.0350    -4.2500    -0.7870 C.3   1 <1>   0.2000 
 22 C       -1.5610    -5.7070    -0.7590 C.3   1 <1>  -0.0800 
 23 O       -3.0470    -4.0750     0.1460 O.3   1 <1>  -0.6800 
 24 C       -2.6780    -6.7660    -0.7280 C.3   1 <1>  -0.0170 
 25 C       -2.0940    -8.1700    -0.7640 C.ar  1 <1>  -0.1430 
 26 C       -1.7130    -8.7690    -1.9470 C.ar  1 <1>  -0.1500 
 27 C       -1.9090    -8.9160     0.3830 C.ar  1 <1>  -0.1500 
 28 C       -1.1770   -10.0460    -1.9270 C.ar  1 <1>   0.1600 
 29 C       -1.3640   -10.1860     0.2940 C.ar  1 <1>   0.1600 
 30 N       -0.9920   -10.7680    -0.8340 N.ar  1 <1>  -0.6200 
 31 H        2.2960    -2.8320     3.7710 H     1 <1>   0.1500 
 32 H        1.6720     2.9030    -1.8980 H     1 <1>   0.1500 
 33 H        3.8860     4.1300    -1.2440 H     1 <1>   0.0800 
 34 H        5.1310     3.0060    -0.7420 H     1 <1>   0.0800 
 35 H        4.2530     3.9280     0.4560 H     1 <1>   0.0800 
 36 H       -1.0940    -2.5370     0.1480 H     1 <1>   0.0800 
 37 H       -0.1560    -3.2740    -1.1460 H     1 <1>   0.0800 
 38 H        0.2140    -6.4410     0.2550 H     1 <1>   0.0800 
 39 H       -1.1300    -6.0890     1.3290 H     1 <1>   0.0800 
 40 H       -2.3970    -3.9330    -1.7500 H     1 <1>   0.0800 
 41 H       -0.9680    -5.8700    -1.6430 H     1 <1>   0.0800 
 42 H       -2.6710    -4.1870     1.0420 H     1 <1>   0.4000 
 43 H       -3.3260    -6.6280    -1.5760 H     1 <1>   0.0800 
 44 H       -3.2800    -6.6530     0.1560 H     1 <1>   0.0800 
 45 H       -1.8270    -8.2550    -2.8840 H     1 <1>   0.1500 
 46 H       -2.1830    -8.5230     1.3460 H     1 <1>   0.1500 
 47 H       -0.8860   -10.4980    -2.8600 H     1 <1>   0.1500 
 48 H       -1.2260   -10.7520     1.1990 H     1 <1>   0.1500 
@<TRIPOS>BOND
  1   1   2  1   
  2   1   3  1   
  3   2   4  2   
  4   2   5  1   
  5   3   6  2   
  6   3  31  1   
  7   4   6  1   
  8   5   7  1   
  9   5   8  1   
 10   6   9  1   
 11   7  10  2   
 12   8  11  2   
 13   8  12  1   
 14   9  13  2   
 15   9  14  am  
 16  10  11  1   
 17  10  15  1   
 18  11  32  1   
 19  12  16  1   
 20  12  17  1   
 21  12  18  1   
 22  14  19  1   
 23  14  20  1   
 24  15  33  1   
 25  15  34  1   
 26  15  35  1   
 27  19  21  1   
 28  19  36  1   
 29  19  37  1   
 30  20  22  1   
 31  20  38  1   
 32  20  39  1   
 33  21  22  1   
 34  21  23  1   
 35  21  40  1   
 36  22  24  1   
 37  22  41  1   
 38  23  42  1   
 39  24  25  1   
 40  24  43  1   
 41  24  44  1   
 42  25  26  ar  
 43  25  27  ar  
 44  26  28  ar  
 45  26  45  1   
 46  27  29  ar  
 47  27  46  1   
 48  28  30  ar  
 49  28  47  1   
 50  29  30  ar  
 51  29  48  1   
@<TRIPOS>SUBSTRUCTURE
  1 ****  19 GROUP 4 **** **** 0

# MOE 2024.06 (io_trps.svl 2023.06)
