@<TRIPOS>MOLECULE
NONAME
50 53 1 0 0 
SMALL
USER_CHARGES


@<TRIPOS>ATOM
  1 O        1.0890    -0.5220    -1.0060 O.3   1 <1>  -0.5600 
  2 C        1.9860    -1.1050    -0.0900 C.3   1 <1>   0.4240 
  3 C       -0.2730    -0.7150    -0.7870 C.3   1 <1>   0.1200 
  4 C        1.5160    -2.5060     0.3600 C.ar  1 <1>  -0.1440 
  5 C        2.1300    -0.1520     1.1080 C.3   1 <1>  -0.1600 
  6 C        3.3190    -1.2040    -0.8430 C.3   1 <1>  -0.1600 
  7 C       -0.5940    -2.1960    -0.9640 C.3   1 <1>  -0.0160 
  8 C        0.2950    -3.0250    -0.0590 C.ar  1 <1>  -0.1440 
  9 C        2.3080    -3.2780     1.2040 C.ar  1 <1>  -0.1500 
 10 C        2.6780     1.2110     0.6860 C.3   1 <1>   0.2090 
 11 C        3.8350     0.1780    -1.2430 C.3   1 <1>   0.2090 
 12 C       -0.1160    -4.2860     0.3450 C.ar  1 <1>  -0.1500 
 13 C        1.8980    -4.5340     1.6100 C.ar  1 <1>  -0.1500 
 14 N        3.9840     1.0150    -0.0150 N.pl3 1 <1>  -0.8380 
 15 C        0.6880    -5.0500     1.1840 C.ar  1 <1>   0.0830 
 16 C        5.1190     1.6700     0.3440 C.ar  1 <1>   0.4100 
 17 O        0.3610    -6.2900     1.6250 O.3   1 <1>  -0.3630 
 18 N        4.9920     2.8020     1.0130 N.ar  1 <1>  -0.6200 
 19 C        6.3910     1.1590     0.0140 C.ar  1 <1>  -0.1500 
 20 C       -0.8410    -6.9150     1.2330 C.3   1 <1>   0.0400 
 21 C        6.0870     3.4570     1.3240 C.ar  1 <1>   0.7710 
 22 C        7.5030     1.8560     0.3540 C.ar  1 <1>   0.2180 
 23 N        7.3210     3.0250     1.0130 N.ar  1 <1>  -0.1790 
 24 N        5.9220     4.6020     1.9810 N.pl3 1 <1>  -0.9000 
 25 C        8.9160     1.3950     0.0430 C.3   1 <1>  -0.0970 
 26 H       -0.8110    -0.1250    -1.5080 H     1 <1>   0.0800 
 27 H       -0.5260    -0.3790     0.2030 H     1 <1>   0.0800 
 28 H        2.8070    -0.5740     1.8260 H     1 <1>   0.0800 
 29 H        1.1840    -0.0320     1.6010 H     1 <1>   0.0800 
 30 H        3.1800    -1.8100    -1.7190 H     1 <1>   0.0800 
 31 H        4.0610    -1.6800    -0.2310 H     1 <1>   0.0800 
 32 H       -0.4310    -2.4770    -1.9890 H     1 <1>   0.0800 
 33 H       -1.6290    -2.3640    -0.7270 H     1 <1>   0.0800 
 34 H        3.2540    -2.9090     1.5560 H     1 <1>   0.1500 
 35 H        2.7940     1.8270     1.5600 H     1 <1>   0.0800 
 36 H        1.9860     1.7010     0.0210 H     1 <1>   0.0800 
 37 H        3.1290     0.6510    -1.9060 H     1 <1>   0.0800 
 38 H        4.7630     0.0870    -1.7760 H     1 <1>   0.0800 
 39 H       -1.0600    -4.6600     0.0000 H     1 <1>   0.1500 
 40 H        2.5160    -5.1250     2.2610 H     1 <1>   0.1500 
 41 H        6.4560     0.2150    -0.4900 H     1 <1>   0.1500 
 42 H       -0.8780    -7.8850     1.6940 H     1 <1>   0.0800 
 43 H       -0.8460    -7.0190     0.1620 H     1 <1>   0.0800 
 44 H       -1.6700    -6.3190     1.5680 H     1 <1>   0.0800 
 45 H        8.1000     3.6080     1.2980 H     1 <1>   0.4570 
 46 H        6.6240     5.2640     2.3130 H     1 <1>   0.4000 
 47 H        4.9580     4.8840     2.1850 H     1 <1>   0.4000 
 48 H        8.8980     0.4540    -0.4800 H     1 <1>   0.0800 
 49 H        9.4780     1.2620     0.9510 H     1 <1>   0.0800 
 50 H        9.4190     2.1140    -0.5800 H     1 <1>   0.0800 
@<TRIPOS>BOND
  1   1   2  1   
  2   1   3  1   
  3   2   4  1   
  4   2   5  1   
  5   2   6  1   
  6   3   7  1   
  7   3  26  1   
  8   3  27  1   
  9   4   8  ar  
 10   4   9  ar  
 11   5  10  1   
 12   5  28  1   
 13   5  29  1   
 14   6  11  1   
 15   6  30  1   
 16   6  31  1   
 17   7   8  1   
 18   7  32  1   
 19   7  33  1   
 20   8  12  ar  
 21   9  13  ar  
 22   9  34  1   
 23  10  14  1   
 24  10  35  1   
 25  10  36  1   
 26  11  14  1   
 27  11  37  1   
 28  11  38  1   
 29  12  15  ar  
 30  12  39  1   
 31  13  15  ar  
 32  13  40  1   
 33  14  16  1   
 34  15  17  1   
 35  16  18  ar  
 36  16  19  ar  
 37  17  20  1   
 38  18  21  ar  
 39  19  22  ar  
 40  19  41  1   
 41  20  42  1   
 42  20  43  1   
 43  20  44  1   
 44  21  23  ar  
 45  21  24  1   
 46  22  23  ar  
 47  22  25  1   
 48  23  45  1   
 49  24  46  1   
 50  24  47  1   
 51  25  48  1   
 52  25  49  1   
 53  25  50  1   
@<TRIPOS>SUBSTRUCTURE
  1 ****   2 GROUP 4 **** **** 0

# MOE 2024.06 (io_trps.svl 2023.06)
