@<TRIPOS>MOLECULE
NONAME
42 44 1 0 0 
SMALL
USER_CHARGES


@<TRIPOS>ATOM
  1 O       -1.6100    -1.4080     1.4510 O.2   1 <1>  -0.5700 
  2 C       -0.8100    -2.0380     0.8050 C.2   1 <1>   0.5690 
  3 N       -0.7120    -1.8100    -0.5290 N.am  1 <1>  -0.7300 
  4 C        0.0810    -3.0710     1.4970 C.3   1 <1>   0.2010 
  5 C        0.2260    -2.4000    -1.5050 C.3   1 <1>   0.1400 
  6 N       -0.0450    -4.4360     0.8770 N.am  1 <1>  -0.6600 
  7 C        0.1130    -3.9280    -1.5560 C.3   1 <1>  -0.1600 
  8 C       -0.9760    -5.3200     1.3720 C.2   1 <1>   0.5690 
  9 C        0.7540    -4.6400    -0.3570 C.3   1 <1>   0.1400 
 10 O       -1.4590    -5.1510     2.4710 O.2   1 <1>  -0.5700 
 11 C       -1.4960    -6.4990     0.5330 C.3   1 <1>   0.2610 
 12 O       -1.0140    -7.7430     1.0170 O.3   1 <1>  -0.5600 
 13 C       -3.0420    -6.4520     0.4980 C.3   1 <1>   0.3640 
 14 C       -1.4140    -8.8680     0.2620 C.3   1 <1>   0.1810 
 15 N       -3.6170    -7.7300     0.0130 N.am  1 <1>  -0.7300 
 16 C       -3.4900    -5.3020    -0.4040 C.ar  1 <1>  -0.1440 
 17 C       -2.9090    -8.8770    -0.0780 C.2   1 <1>   0.5690 
 18 C       -3.6550    -5.4610    -1.7750 C.ar  1 <1>  -0.1500 
 19 C       -3.7090    -4.0500     0.1560 C.ar  1 <1>  -0.1500 
 20 O       -3.4360    -9.8940    -0.4510 O.2   1 <1>  -0.5700 
 21 C       -4.0310    -4.3900    -2.5670 C.ar  1 <1>  -0.1500 
 22 C       -4.0810    -2.9780    -0.6350 C.ar  1 <1>  -0.1500 
 23 C       -4.2440    -3.1470    -1.9980 C.ar  1 <1>  -0.1500 
 24 H       -1.3980    -1.1500    -0.9030 H     1 <1>   0.3700 
 25 H       -0.1930    -3.1100     2.5360 H     1 <1>   0.0800 
 26 H        1.1020    -2.7420     1.4470 H     1 <1>   0.0800 
 27 H       -0.0080    -2.0010    -2.4780 H     1 <1>   0.0800 
 28 H        1.2320    -2.1050    -1.2600 H     1 <1>   0.0800 
 29 H        0.6310    -4.2580    -2.4380 H     1 <1>   0.0800 
 30 H       -0.9170    -4.2180    -1.6670 H     1 <1>   0.0800 
 31 H        1.7520    -4.2670    -0.2000 H     1 <1>   0.0800 
 32 H        0.8440    -5.6930    -0.5610 H     1 <1>   0.0800 
 33 H       -1.1490    -6.3990    -0.4760 H     1 <1>   0.0800 
 34 H       -3.4140    -6.2830     1.4940 H     1 <1>   0.0800 
 35 H       -0.8430    -8.8840    -0.6480 H     1 <1>   0.0800 
 36 H       -1.1760    -9.7450     0.8360 H     1 <1>   0.0800 
 37 H       -4.6170    -7.7450    -0.1880 H     1 <1>   0.3700 
 38 H       -3.4910    -6.4170    -2.2410 H     1 <1>   0.1500 
 39 H       -3.5820    -3.8910     1.2150 H     1 <1>   0.1500 
 40 H       -4.1610    -4.5230    -3.6270 H     1 <1>   0.1500 
 41 H       -4.2380    -2.0140    -0.1820 H     1 <1>   0.1500 
 42 H       -4.5370    -2.3130    -2.6120 H     1 <1>   0.1500 
@<TRIPOS>BOND
  1   1   2  2   
  2   2   3  am  
  3   2   4  1   
  4   3   5  1   
  5   3  24  1   
  6   4   6  1   
  7   4  25  1   
  8   4  26  1   
  9   5   7  1   
 10   5  27  1   
 11   5  28  1   
 12   6   8  am  
 13   6   9  1   
 14   7   9  1   
 15   7  29  1   
 16   7  30  1   
 17   8  10  2   
 18   8  11  1   
 19   9  31  1   
 20   9  32  1   
 21  11  12  1   
 22  11  13  1   
 23  11  33  1   
 24  12  14  1   
 25  13  15  1   
 26  13  16  1   
 27  13  34  1   
 28  14  17  1   
 29  14  35  1   
 30  14  36  1   
 31  15  17  am  
 32  15  37  1   
 33  16  18  ar  
 34  16  19  ar  
 35  17  20  2   
 36  18  21  ar  
 37  18  38  1   
 38  19  22  ar  
 39  19  39  1   
 40  21  23  ar  
 41  21  40  1   
 42  22  23  ar  
 43  22  41  1   
 44  23  42  1   
@<TRIPOS>SUBSTRUCTURE
  1 ****  16 GROUP 4 **** **** 0

# MOE 2024.06 (io_trps.svl 2023.06)
