@<TRIPOS>MOLECULE
NONAME
50 53 1 0 0 
SMALL
USER_CHARGES


@<TRIPOS>ATOM
  1 O       -0.9500     0.3470    -0.5350 O.2   1 <1>  -0.5700 
  2 C       -0.7880     1.4540    -0.0760 C.2   1 <1>   0.5690 
  3 N       -1.8040     2.3700     0.0310 N.am  1 <1>  -0.5090 
  4 C        0.6290     1.8390     0.3590 C.3   1 <1>   0.1810 
  5 C       -1.5320     3.7830     0.4450 C.3   1 <1>   0.3640 
  6 C       -3.2270     2.0170    -0.2010 C.3   1 <1>   0.0490 
  7 O        0.6800     3.0170     1.1250 O.3   1 <1>  -0.5600 
  8 C       -2.1600     4.7750    -0.5340 C.ar  1 <1>  -0.1440 
  9 C       -0.0260     4.1000     0.5560 C.3   1 <1>   0.2610 
 10 C       -4.2140     2.2350     0.9040 C.3   1 <1>  -0.2000 
 11 C       -3.8210     0.8460     0.5180 C.3   1 <1>  -0.2000 
 12 C       -2.7610     5.9280    -0.0470 C.ar  1 <1>   0.1600 
 13 C       -2.1190     4.5800    -1.9040 C.ar  1 <1>  -0.1500 
 14 C        0.1400     5.3910     1.3720 C.2   1 <1>   0.5690 
 15 N       -3.3010     6.8750    -0.7960 N.ar  1 <1>  -0.6200 
 16 C       -2.6860     5.5540    -2.6960 C.ar  1 <1>  -0.1500 
 17 O       -0.2830     5.3960     2.5080 O.2   1 <1>  -0.5700 
 18 N        0.6820     6.5260     0.8190 N.am  1 <1>  -0.6600 
 19 C       -3.2560     6.6650    -2.1000 C.ar  1 <1>   0.1600 
 20 C        0.8060     7.7800     1.6000 C.3   1 <1>   0.2200 
 21 C        0.7960     6.8050    -0.6290 C.3   1 <1>   0.2200 
 22 C        0.9700     8.8970     0.5670 C.3   1 <1>  -0.1600 
 23 C        2.0010     7.6940     2.5490 C.3   1 <1>  -0.2400 
 24 C        0.4860     8.2930    -0.7470 C.3   1 <1>  -0.1600 
 25 C        2.2130     6.4640    -1.0900 C.3   1 <1>  -0.2400 
 26 H        1.2480     1.9710    -0.5090 H     1 <1>   0.0800 
 27 H        1.0410     1.0460     0.9570 H     1 <1>   0.0800 
 28 H       -1.9770     3.9210     1.4160 H     1 <1>   0.0800 
 29 H       -3.5400     2.1940    -1.2160 H     1 <1>   0.1000 
 30 H        0.3770     4.2450    -0.4270 H     1 <1>   0.0800 
 31 H       -3.8870     2.5940     1.8640 H     1 <1>   0.1000 
 32 H       -5.2050     2.5710     0.6520 H     1 <1>   0.1000 
 33 H       -4.5350     0.2340    -0.0040 H     1 <1>   0.1000 
 34 H       -3.1890     0.2740     1.1740 H     1 <1>   0.1000 
 35 H       -2.7930     6.0900     1.0190 H     1 <1>   0.1500 
 36 H       -1.6690     3.7050    -2.3430 H     1 <1>   0.1500 
 37 H       -2.6910     5.4550    -3.7670 H     1 <1>   0.1500 
 38 H       -3.6980     7.4200    -2.7290 H     1 <1>   0.1500 
 39 H       -0.1020     7.9360     2.1600 H     1 <1>   0.0800 
 40 H        0.0740     6.2460    -1.1980 H     1 <1>   0.0800 
 41 H        0.4050     9.7700     0.8420 H     1 <1>   0.0800 
 42 H        2.0060     9.1730     0.4770 H     1 <1>   0.0800 
 43 H        2.9040     7.4840     2.0050 H     1 <1>   0.0800 
 44 H        1.8380     6.9170     3.2740 H     1 <1>   0.0800 
 45 H        2.1190     8.6240     3.0750 H     1 <1>   0.0800 
 46 H        0.9510     8.7460    -1.6050 H     1 <1>   0.0800 
 47 H       -0.5810     8.4140    -0.8280 H     1 <1>   0.0800 
 48 H        2.9390     7.0410    -0.5460 H     1 <1>   0.0800 
 49 H        2.3190     6.6830    -2.1370 H     1 <1>   0.0800 
 50 H        2.4150     5.4200    -0.9390 H     1 <1>   0.0800 
@<TRIPOS>BOND
  1   1   2  2   
  2   2   3  am  
  3   2   4  1   
  4   3   5  1   
  5   3   6  1   
  6   4   7  1   
  7   4  26  1   
  8   4  27  1   
  9   5   8  1   
 10   5   9  1   
 11   5  28  1   
 12   6  10  1   
 13   6  11  1   
 14   6  29  1   
 15   7   9  1   
 16   8  12  ar  
 17   8  13  ar  
 18   9  14  1   
 19   9  30  1   
 20  10  11  1   
 21  10  31  1   
 22  10  32  1   
 23  11  33  1   
 24  11  34  1   
 25  12  15  ar  
 26  12  35  1   
 27  13  16  ar  
 28  13  36  1   
 29  14  17  2   
 30  14  18  am  
 31  15  19  ar  
 32  16  19  ar  
 33  16  37  1   
 34  18  20  1   
 35  18  21  1   
 36  19  38  1   
 37  20  22  1   
 38  20  23  1   
 39  20  39  1   
 40  21  24  1   
 41  21  25  1   
 42  21  40  1   
 43  22  24  1   
 44  22  41  1   
 45  22  42  1   
 46  23  43  1   
 47  23  44  1   
 48  23  45  1   
 49  24  46  1   
 50  24  47  1   
 51  25  48  1   
 52  25  49  1   
 53  25  50  1   
@<TRIPOS>SUBSTRUCTURE
  1 ****   5 GROUP 4 **** **** 0

# MOE 2024.06 (io_trps.svl 2023.06)
