@<TRIPOS>MOLECULE
NONAME
31 32 1 0 0 
SMALL
USER_CHARGES


@<TRIPOS>ATOM
  1 O        0.5520     0.4060    -1.6260 O.2   1 <1>  -0.5700 
  2 C        1.2390     0.9770    -0.8030 C.2   1 <1>   0.6340 
  3 O        2.1310     0.2640    -0.1070 O.3   1 <1>  -0.4300 
  4 C        1.2090     2.3950    -0.5550 C.ar  1 <1>   0.0860 
  5 C        2.2460    -1.1310    -0.2740 C.3   1 <1>   0.1200 
  6 C        0.0000     3.0850    -0.3530 C.ar  1 <1>   0.2270 
  7 C        2.3820     3.1430    -0.4980 C.ar  1 <1>  -0.1500 
  8 C        3.3440    -1.6310     0.6590 C.3   1 <1>  -0.2400 
  9 N       -1.2790     2.6140    -0.3070 N.2   1 <1>  -0.5650 
 10 C        0.0080     4.4560    -0.1340 C.ar  1 <1>  -0.1520 
 11 C        2.3770     4.5200    -0.2740 C.ar  1 <1>  -0.1500 
 12 C       -2.0010     3.6590    -0.0890 C.2   1 <1>   0.2490 
 13 N       -1.2940     4.8100     0.0230 N.pl3 1 <1>   0.0330 
 14 C        1.1890     5.1920    -0.0930 C.ar  1 <1>  -0.1500 
 15 O       -3.3410     3.5930     0.0170 O.3   1 <1>  -0.3430 
 16 C       -4.1300     4.7400     0.2230 C.3   1 <1>   0.1200 
 17 C       -5.5900     4.3030     0.2820 C.3   1 <1>  -0.2400 
 18 H        2.4890    -1.3330    -1.3030 H     1 <1>   0.0800 
 19 H        1.2970    -1.5800    -0.0320 H     1 <1>   0.0800 
 20 H        3.3260     2.6440    -0.6360 H     1 <1>   0.1500 
 21 H        4.2810    -1.1640     0.4120 H     1 <1>   0.0800 
 22 H        3.4520    -2.6950     0.5540 H     1 <1>   0.0800 
 23 H        3.0900    -1.4100     1.6800 H     1 <1>   0.0800 
 24 H        3.3110     5.0550    -0.2440 H     1 <1>   0.1500 
 25 H       -1.6650     5.7420     0.2010 H     1 <1>   0.2700 
 26 H        1.1710     6.2550     0.0790 H     1 <1>   0.1500 
 27 H       -3.9710     5.4160    -0.5990 H     1 <1>   0.0800 
 28 H       -3.8340     5.1970     1.1520 H     1 <1>   0.0800 
 29 H       -5.8710     3.8300    -0.6420 H     1 <1>   0.0800 
 30 H       -6.2230     5.1580     0.4380 H     1 <1>   0.0800 
 31 H       -5.7360     3.6140     1.0950 H     1 <1>   0.0800 
@<TRIPOS>BOND
  1   1   2  2   
  2   2   3  1   
  3   2   4  1   
  4   3   5  1   
  5   4   6  ar  
  6   4   7  ar  
  7   5   8  1   
  8   5  18  1   
  9   5  19  1   
 10   6   9  1   
 11   6  10  ar  
 12   7  11  ar  
 13   7  20  1   
 14   8  21  1   
 15   8  22  1   
 16   8  23  1   
 17   9  12  2   
 18  10  13  1   
 19  10  14  ar  
 20  11  14  ar  
 21  11  24  1   
 22  12  13  1   
 23  12  15  1   
 24  13  25  1   
 25  14  26  1   
 26  15  16  1   
 27  16  17  1   
 28  16  27  1   
 29  16  28  1   
 30  17  29  1   
 31  17  30  1   
 32  17  31  1   
@<TRIPOS>SUBSTRUCTURE
  1 ****   6 GROUP 4 **** **** 0

# MOE 2024.06 (io_trps.svl 2023.06)
