@<TRIPOS>MOLECULE
NONAME
37 39 1 0 0 
SMALL
USER_CHARGES


@<TRIPOS>ATOM
  1 N       -0.1750    -0.1050     0.0190 N.pl3 1 <1>  -0.8380 
  2 C       -1.4090    -0.7730     0.1410 C.ar  1 <1>   0.1000 
  3 C        1.1060    -0.8660     0.0540 C.3   1 <1>   0.2090 
  4 C       -0.0440     1.2970     0.4940 C.3   1 <1>   0.2090 
  5 C       -1.4690    -2.1440     0.4060 C.ar  1 <1>  -0.1440 
  6 C       -2.6120    -0.0900    -0.0210 C.ar  1 <1>  -0.1500 
  7 C        0.8980    -2.3300    -0.3310 C.3   1 <1>  -0.1600 
  8 C        0.1280     2.2070    -0.7170 C.3   1 <1>  -0.2400 
  9 C       -2.6920    -2.7790     0.5400 C.ar  1 <1>  -0.1500 
 10 C       -0.1910    -2.9530     0.5410 C.3   1 <1>  -0.0170 
 11 C       -3.8470    -0.7100     0.1100 C.ar  1 <1>   0.0000 
 12 C       -3.8690    -2.0690     0.3980 C.ar  1 <1>  -0.1500 
 13 C       -5.0750     0.0350    -0.0510 C.ar  1 <1>   0.0000 
 14 C       -5.9910    -0.2990    -1.0440 C.ar  1 <1>  -0.1500 
 15 C       -5.3730     1.1100     0.7810 C.ar  1 <1>  -0.1500 
 16 C       -7.1660     0.4130    -1.2010 C.ar  1 <1>  -0.1500 
 17 C       -6.5470     1.8270     0.6290 C.ar  1 <1>  -0.1500 
 18 C       -7.4460     1.4790    -0.3630 C.ar  1 <1>  -0.1500 
 19 H        1.5170    -0.8160     1.0480 H     1 <1>   0.0800 
 20 H        1.8040    -0.4140    -0.6280 H     1 <1>   0.0800 
 21 H        0.8080     1.3890     1.1460 H     1 <1>   0.0800 
 22 H       -0.9150     1.5850     1.0570 H     1 <1>   0.0800 
 23 H       -2.5940     0.9520    -0.2700 H     1 <1>   0.1500 
 24 H        1.8200    -2.8690    -0.2130 H     1 <1>   0.0800 
 25 H        0.6070    -2.3790    -1.3650 H     1 <1>   0.0800 
 26 H        1.0210     1.9440    -1.2530 H     1 <1>   0.0800 
 27 H        0.2040     3.2290    -0.3970 H     1 <1>   0.0800 
 28 H       -0.7180     2.1110    -1.3720 H     1 <1>   0.0800 
 29 H       -2.7330    -3.8320     0.7540 H     1 <1>   0.1500 
 30 H       -0.3600    -3.9690     0.2330 H     1 <1>   0.0800 
 31 H        0.1160    -2.9520     1.5710 H     1 <1>   0.0800 
 32 H       -4.8140    -2.5690     0.5090 H     1 <1>   0.1500 
 33 H       -5.7730    -1.1240    -1.6990 H     1 <1>   0.1500 
 34 H       -4.6770     1.3790     1.5550 H     1 <1>   0.1500 
 35 H       -7.8620     0.1400    -1.9750 H     1 <1>   0.1500 
 36 H       -6.7600     2.6540     1.2830 H     1 <1>   0.1500 
 37 H       -8.3590     2.0350    -0.4840 H     1 <1>   0.1500 
@<TRIPOS>BOND
  1   1   2  1   
  2   1   3  1   
  3   1   4  1   
  4   2   5  ar  
  5   2   6  ar  
  6   3   7  1   
  7   3  19  1   
  8   3  20  1   
  9   4   8  1   
 10   4  21  1   
 11   4  22  1   
 12   5   9  ar  
 13   5  10  1   
 14   6  11  ar  
 15   6  23  1   
 16   7  10  1   
 17   7  24  1   
 18   7  25  1   
 19   8  26  1   
 20   8  27  1   
 21   8  28  1   
 22   9  12  ar  
 23   9  29  1   
 24  10  30  1   
 25  10  31  1   
 26  11  12  ar  
 27  11  13  1   
 28  12  32  1   
 29  13  14  ar  
 30  13  15  ar  
 31  14  16  ar  
 32  14  33  1   
 33  15  17  ar  
 34  15  34  1   
 35  16  18  ar  
 36  16  35  1   
 37  17  18  ar  
 38  17  36  1   
 39  18  37  1   
@<TRIPOS>SUBSTRUCTURE
  1 ****   6 GROUP 4 **** **** 0

# MOE 2024.06 (io_trps.svl 2023.06)
