@<TRIPOS>MOLECULE
NONAME
51 54 1 0 0 
SMALL
USER_CHARGES


@<TRIPOS>ATOM
  1 O        0.6500     0.4800    -1.7070 O.2   1 <1>  -0.5700 
  2 C        1.1090    -0.3050    -0.9130 C.2   1 <1>   0.5690 
  3 N        2.0830     0.1100    -0.0240 N.am  1 <1>  -0.6600 
  4 C        0.5690    -1.7280    -0.9880 C.3   1 <1>   0.1570 
  5 C        2.9310    -0.7720     0.8460 C.3   1 <1>   0.1400 
  6 C        2.1880     1.5610     0.2900 C.3   1 <1>   0.1400 
  7 N        0.2230    -2.2670     0.3450 N.pl3 1 <1>   0.0480 
  8 C        4.4430    -0.6830     0.5330 C.3   1 <1>   0.3430 
  9 C        3.2520     2.2240    -0.5860 C.3   1 <1>  -0.1600 
 10 C        0.5680    -3.4650     0.8810 C.2   1 <1>   0.0060 
 11 C       -0.4080    -1.6170     1.3420 C.2   1 <1>  -0.3020 
 12 N        4.9850     0.7120     0.3790 N.4   1 <1>  -0.9590 
 13 C        4.4780     1.3600    -0.8710 C.3   1 <1>   0.3430 
 14 N        0.2330    -3.5920     2.1210 N.2   1 <1>  -0.5650 
 15 C        1.2760    -4.5700     0.1200 C.3   1 <1>  -0.0600 
 16 C       -0.3930    -2.4380     2.4130 C.2   1 <1>   0.0770 
 17 C        6.4780     0.6960     0.3820 C.3   1 <1>   0.5230 
 18 C        7.0370     2.1020     0.5100 C.2   1 <1>  -0.0400 
 19 O        8.2850     2.2770     0.0910 O.3   1 <1>  -0.2800 
 20 C        6.5180     3.2570     0.9770 C.2   1 <1>  -0.1500 
 21 C        8.5940     3.5610     0.2760 C.ar  1 <1>   0.1400 
 22 C        7.5220     4.2350     0.8310 C.ar  1 <1>   0.0000 
 23 C        9.7910     4.1990    -0.0210 C.ar  1 <1>  -0.1500 
 24 C        7.6360     5.5980     1.1060 C.ar  1 <1>  -0.1500 
 25 C        9.8970     5.5480     0.2530 C.ar  1 <1>  -0.1500 
 26 C        8.8220     6.2430     0.8150 C.ar  1 <1>  -0.1500 
 27 H        1.2990    -2.3560    -1.4570 H     1 <1>   0.0800 
 28 H       -0.3210    -1.7330    -1.5910 H     1 <1>   0.0800 
 29 H        2.6490    -1.8000     0.7360 H     1 <1>   0.0800 
 30 H        2.7600    -0.5170     1.8790 H     1 <1>   0.0800 
 31 H        2.4290     1.6890     1.3320 H     1 <1>   0.0800 
 32 H        1.2380     2.0460     0.1270 H     1 <1>   0.0800 
 33 H        4.6310    -1.2360    -0.3720 H     1 <1>   0.0800 
 34 H        4.9710    -1.1870     1.3270 H     1 <1>   0.0800 
 35 H        3.5520     3.1550    -0.1410 H     1 <1>   0.0800 
 36 H        2.7980     2.4710    -1.5310 H     1 <1>   0.0800 
 37 H       -0.8260    -0.6310     1.2430 H     1 <1>   0.1500 
 38 H        4.6910     1.2840     1.1770 H     1 <1>   0.4500 
 39 H        5.2420     1.9830    -1.3110 H     1 <1>   0.0800 
 40 H        4.2150     0.6020    -1.5920 H     1 <1>   0.0800 
 41 H        0.7030    -4.8470    -0.7460 H     1 <1>   0.0800 
 42 H        1.3720    -5.4370     0.7500 H     1 <1>   0.0800 
 43 H        2.2570    -4.2560    -0.1810 H     1 <1>   0.0800 
 44 H       -0.8080    -2.2600     3.3920 H     1 <1>   0.1500 
 45 H        6.8380     0.2610    -0.5360 H     1 <1>   0.0800 
 46 H        6.8490     0.1030     1.2020 H     1 <1>   0.0800 
 47 H        5.5520     3.4780     1.3930 H     1 <1>   0.1500 
 48 H       10.6040     3.6440    -0.4520 H     1 <1>   0.1500 
 49 H        6.8090     6.1310     1.5400 H     1 <1>   0.1500 
 50 H       10.8110     6.0740     0.0360 H     1 <1>   0.1500 
 51 H        8.9290     7.2950     1.0210 H     1 <1>   0.1500 
@<TRIPOS>BOND
  1   1   2  2   
  2   2   3  am  
  3   2   4  1   
  4   3   5  1   
  5   3   6  1   
  6   4   7  1   
  7   4  27  1   
  8   4  28  1   
  9   5   8  1   
 10   5  29  1   
 11   5  30  1   
 12   6   9  1   
 13   6  31  1   
 14   6  32  1   
 15   7  10  1   
 16   7  11  1   
 17   8  12  1   
 18   8  33  1   
 19   8  34  1   
 20   9  13  1   
 21   9  35  1   
 22   9  36  1   
 23  10  14  2   
 24  10  15  1   
 25  11  16  2   
 26  11  37  1   
 27  12  13  1   
 28  12  17  1   
 29  12  38  1   
 30  13  39  1   
 31  13  40  1   
 32  14  16  1   
 33  15  41  1   
 34  15  42  1   
 35  15  43  1   
 36  16  44  1   
 37  17  18  1   
 38  17  45  1   
 39  17  46  1   
 40  18  19  1   
 41  18  20  2   
 42  19  21  1   
 43  20  22  1   
 44  20  47  1   
 45  21  22  ar  
 46  21  23  ar  
 47  22  24  ar  
 48  23  25  ar  
 49  23  48  1   
 50  24  26  ar  
 51  24  49  1   
 52  25  26  ar  
 53  25  50  1   
 54  26  51  1   
@<TRIPOS>SUBSTRUCTURE
  1 ****  12 GROUP 4 **** **** 0

# MOE 2024.06 (io_trps.svl 2023.06)
