@<TRIPOS>MOLECULE
NONAME
51 53 1 0 0 
SMALL
USER_CHARGES


@<TRIPOS>ATOM
  1 O       -1.0000     0.5410    -1.4160 O.2   1 <1>  -0.5700 
  2 C       -1.4180     1.1640    -0.4530 C.2   1 <1>   0.7160 
  3 N       -2.6560     0.7930     0.0520 N.am  1 <1>  -0.6600 
  4 C       -0.6110     2.2490     0.1000 C.2   1 <1>   0.1410 
  5 C       -3.2300    -0.5430    -0.2920 C.3   1 <1>   0.1400 
  6 C       -3.4660     1.6930     0.9250 C.3   1 <1>   0.1400 
  7 N       -0.6380     2.6530     1.4120 N.2   1 <1>  -0.5650 
  8 C        0.3040     3.0260    -0.5330 C.2   1 <1>  -0.0400 
  9 C       -4.1000    -0.4590    -1.5540 C.3   1 <1>   0.1400 
 10 C       -4.9750     1.6690     0.6390 C.3   1 <1>  -0.1600 
 11 C        0.2280     3.5950     1.4630 C.2   1 <1>   0.3280 
 12 O        0.8150     3.8570     0.3240 O.3   1 <1>  -0.2800 
 13 C        0.8000     3.0870    -1.9660 C.3   1 <1>  -0.0600 
 14 N       -5.4280     0.1710    -1.2720 N.am  1 <1>  -0.6600 
 15 C       -5.3410     1.5990    -0.8470 C.3   1 <1>   0.1400 
 16 C       -6.6640    -0.4300    -1.4180 C.2   1 <1>   0.5690 
 17 O       -7.6770     0.2310    -1.4000 O.2   1 <1>  -0.5700 
 18 C       -6.8260    -1.9350    -1.6340 C.3   1 <1>   0.0440 
 19 C       -7.8610    -2.5790    -0.7090 C.ar  1 <1>  -0.1440 
 20 C       -7.5710    -2.9170     0.6110 C.ar  1 <1>  -0.1440 
 21 C       -9.1270    -2.8380    -1.2140 C.ar  1 <1>  -0.1500 
 22 C       -8.5470    -3.5210     1.3880 C.ar  1 <1>  -0.1500 
 23 C       -6.2130    -2.6350     1.2350 C.3   1 <1>  -0.0970 
 24 C      -10.1010    -3.4380    -0.4340 C.ar  1 <1>  -0.1440 
 25 C       -9.8030    -3.7830     0.8710 C.ar  1 <1>  -0.1500 
 26 C      -11.4780    -3.7100    -1.0120 C.3   1 <1>  -0.0970 
 27 H       -3.7990    -0.9290     0.5340 H     1 <1>   0.0800 
 28 H       -2.4230    -1.2310    -0.4770 H     1 <1>   0.0800 
 29 H       -3.1310     2.7060     0.7830 H     1 <1>   0.0800 
 30 H       -3.2880     1.4360     1.9560 H     1 <1>   0.0800 
 31 H       -4.2150    -1.4410    -1.9640 H     1 <1>   0.0800 
 32 H       -3.5810     0.1230    -2.2970 H     1 <1>   0.0800 
 33 H       -5.3890     2.5740     1.0430 H     1 <1>   0.0800 
 34 H       -5.4430     0.8590     1.1690 H     1 <1>   0.0800 
 35 H        0.5050     4.1710     2.3300 H     1 <1>   0.1500 
 36 H        0.2660     2.3980    -2.5930 H     1 <1>   0.0800 
 37 H        1.8460     2.8410    -1.9970 H     1 <1>   0.0800 
 38 H        0.6660     4.0800    -2.3540 H     1 <1>   0.0800 
 39 H       -4.6150     2.1220    -1.4460 H     1 <1>   0.0800 
 40 H       -6.2900     2.0860    -0.9960 H     1 <1>   0.0800 
 41 H       -5.9060    -2.4590    -1.5000 H     1 <1>   0.0800 
 42 H       -7.1210    -2.0800    -2.6560 H     1 <1>   0.0800 
 43 H       -9.3640    -2.5650    -2.2270 H     1 <1>   0.1500 
 44 H       -8.3400    -3.7910     2.4080 H     1 <1>   0.1500 
 45 H       -5.4450    -3.1830     0.7200 H     1 <1>   0.0800 
 46 H       -6.1980    -2.9260     2.2700 H     1 <1>   0.0800 
 47 H       -6.0010    -1.5840     1.1820 H     1 <1>   0.0800 
 48 H      -10.5450    -4.2520     1.4910 H     1 <1>   0.1500 
 49 H      -11.7870    -2.8880    -1.6330 H     1 <1>   0.0800 
 50 H      -12.2020    -3.8310    -0.2260 H     1 <1>   0.0800 
 51 H      -11.4530    -4.6060    -1.6040 H     1 <1>   0.0800 
@<TRIPOS>BOND
  1   1   2  2   
  2   2   3  am  
  3   2   4  1   
  4   3   5  1   
  5   3   6  1   
  6   4   7  1   
  7   4   8  2   
  8   5   9  1   
  9   5  27  1   
 10   5  28  1   
 11   6  10  1   
 12   6  29  1   
 13   6  30  1   
 14   7  11  2   
 15   8  12  1   
 16   8  13  1   
 17   9  14  1   
 18   9  31  1   
 19   9  32  1   
 20  10  15  1   
 21  10  33  1   
 22  10  34  1   
 23  11  12  1   
 24  11  35  1   
 25  13  36  1   
 26  13  37  1   
 27  13  38  1   
 28  14  15  1   
 29  14  16  am  
 30  15  39  1   
 31  15  40  1   
 32  16  17  2   
 33  16  18  1   
 34  18  19  1   
 35  18  41  1   
 36  18  42  1   
 37  19  20  ar  
 38  19  21  ar  
 39  20  22  ar  
 40  20  23  1   
 41  21  24  ar  
 42  21  43  1   
 43  22  25  ar  
 44  22  44  1   
 45  23  45  1   
 46  23  46  1   
 47  23  47  1   
 48  24  25  ar  
 49  24  26  1   
 50  25  48  1   
 51  26  49  1   
 52  26  50  1   
 53  26  51  1   
@<TRIPOS>SUBSTRUCTURE
  1 ****  14 GROUP 4 **** **** 0

# MOE 2024.06 (io_trps.svl 2023.06)
