@<TRIPOS>MOLECULE
NONAME
54 56 1 0 0 
SMALL
USER_CHARGES


@<TRIPOS>ATOM
  1 O       -0.1350    -2.3470     1.4660 O.2   1 <1>  -0.5700 
  2 C        0.9200    -2.0730     0.9170 C.2   1 <1>   0.6900 
  3 N        1.1490    -2.5170    -0.3620 N.am  1 <1>  -0.6600 
  4 N        1.8680    -1.3350     1.5870 N.am  1 <1>  -0.6600 
  5 C        2.4280    -3.1740    -0.7270 C.3   1 <1>   0.1400 
  6 C        0.0110    -2.8430    -1.2570 C.3   1 <1>   0.1400 
  7 C        2.7570    -0.3640     0.8970 C.3   1 <1>   0.0600 
  8 C        1.7980    -1.1750     3.0640 C.3   1 <1>   0.0600 
  9 C        2.2350    -4.6930    -0.7130 C.3   1 <1>  -0.1600 
 10 C       -0.2240    -4.3550    -1.2500 C.3   1 <1>  -0.1600 
 11 C        1.0590    -5.1320    -1.6090 C.3   1 <1>  -0.0190 
 12 C        0.8330    -6.6380    -1.5400 C.2   1 <1>   0.5690 
 13 O        0.9570    -7.2990    -2.5420 O.2   1 <1>  -0.5700 
 14 N        0.4920    -7.1990    -0.3540 N.am  1 <1>  -0.7300 
 15 C        0.2240    -8.6370    -0.1370 C.3   1 <1>   0.2200 
 16 C       -1.2520    -8.8270     0.1650 C.3   1 <1>  -0.0800 
 17 C        0.8780    -9.0950     1.1650 C.3   1 <1>   0.1200 
 18 C       -1.3040    -8.5310     1.6660 C.3   1 <1>   0.1200 
 19 C       -1.7150   -10.2590    -0.1650 C.3   1 <1>  -0.0170 
 20 O       -0.0480    -8.8590     2.1850 O.3   1 <1>  -0.5600 
 21 C       -3.1970   -10.4460     0.1210 C.ar  1 <1>  -0.1440 
 22 C       -4.1670    -9.9280    -0.7120 C.ar  1 <1>  -0.1500 
 23 C       -3.6490   -11.1430     1.2230 C.ar  1 <1>  -0.1500 
 24 C       -5.5050   -10.1220    -0.4090 C.ar  1 <1>   0.1600 
 25 C       -5.0110   -11.2800     1.4360 C.ar  1 <1>   0.1600 
 26 N       -5.9500   -10.7840     0.6470 N.ar  1 <1>  -0.6200 
 27 H        2.7280    -2.8440    -1.7070 H     1 <1>   0.0800 
 28 H        3.2010    -2.9080    -0.0270 H     1 <1>   0.0800 
 29 H       -0.8770    -2.3320    -0.9240 H     1 <1>   0.0800 
 30 H        0.2380    -2.5060    -2.2540 H     1 <1>   0.0800 
 31 H        3.7850    -0.6480     1.0410 H     1 <1>   0.0800 
 32 H        2.6020     0.6220     1.3000 H     1 <1>   0.0800 
 33 H        2.5430    -0.3360    -0.1570 H     1 <1>   0.0800 
 34 H        2.7900    -1.1580     3.4790 H     1 <1>   0.0800 
 35 H        1.2550    -1.9960     3.5020 H     1 <1>   0.0800 
 36 H        1.2910    -0.2570     3.3050 H     1 <1>   0.0800 
 37 H        3.1390    -5.1690    -1.0490 H     1 <1>   0.0800 
 38 H        2.0610    -5.0000     0.3030 H     1 <1>   0.0800 
 39 H       -0.5690    -4.6350    -0.2700 H     1 <1>   0.0800 
 40 H       -1.0020    -4.5970    -1.9520 H     1 <1>   0.0800 
 41 H        1.3140    -4.8930    -2.6270 H     1 <1>   0.0800 
 42 H        0.3910    -6.6100     0.4760 H     1 <1>   0.3700 
 43 H        0.5620    -9.2110    -0.9830 H     1 <1>   0.0800 
 44 H       -1.8570    -8.1300    -0.3890 H     1 <1>   0.0800 
 45 H        1.7910    -8.5670     1.3760 H     1 <1>   0.0800 
 46 H        1.0680   -10.1530     1.1400 H     1 <1>   0.0800 
 47 H       -2.0590    -9.0920     2.1870 H     1 <1>   0.0800 
 48 H       -1.4600    -7.4800     1.8390 H     1 <1>   0.0800 
 49 H       -1.1450   -10.9750     0.4030 H     1 <1>   0.0800 
 50 H       -1.5380   -10.4590    -1.2080 H     1 <1>   0.0800 
 51 H       -3.8960    -9.3750    -1.5930 H     1 <1>   0.1500 
 52 H       -2.9570   -11.5800     1.9200 H     1 <1>   0.1500 
 53 H       -6.2480    -9.7110    -1.0700 H     1 <1>   0.1500 
 54 H       -5.3450   -11.8260     2.3010 H     1 <1>   0.1500 
@<TRIPOS>BOND
  1   1   2  2   
  2   2   3  am  
  3   2   4  am  
  4   3   5  1   
  5   3   6  1   
  6   4   7  1   
  7   4   8  1   
  8   5   9  1   
  9   5  27  1   
 10   5  28  1   
 11   6  10  1   
 12   6  29  1   
 13   6  30  1   
 14   7  31  1   
 15   7  32  1   
 16   7  33  1   
 17   8  34  1   
 18   8  35  1   
 19   8  36  1   
 20   9  11  1   
 21   9  37  1   
 22   9  38  1   
 23  10  11  1   
 24  10  39  1   
 25  10  40  1   
 26  11  12  1   
 27  11  41  1   
 28  12  13  2   
 29  12  14  am  
 30  14  15  1   
 31  14  42  1   
 32  15  16  1   
 33  15  17  1   
 34  15  43  1   
 35  16  18  1   
 36  16  19  1   
 37  16  44  1   
 38  17  20  1   
 39  17  45  1   
 40  17  46  1   
 41  18  20  1   
 42  18  47  1   
 43  18  48  1   
 44  19  21  1   
 45  19  49  1   
 46  19  50  1   
 47  21  22  ar  
 48  21  23  ar  
 49  22  24  ar  
 50  22  51  1   
 51  23  25  ar  
 52  23  52  1   
 53  24  26  ar  
 54  24  53  1   
 55  25  26  ar  
 56  25  54  1   
@<TRIPOS>SUBSTRUCTURE
  1 ****  14 GROUP 4 **** **** 0

# MOE 2024.06 (io_trps.svl 2023.06)
