@<TRIPOS>MOLECULE
NONAME
40 42 1 0 0 
SMALL
USER_CHARGES


@<TRIPOS>ATOM
  1 O       -0.7450     0.3630     0.9160 O.2   1 <1>  -0.5700 
  2 C       -1.6640     0.8560     0.3040 C.2   1 <1>   0.6300 
  3 N       -2.7620     0.1190    -0.0450 N.am  1 <1>  -0.6600 
  4 C       -1.5640     2.3210    -0.0790 C.3   1 <1>   0.0000 
  5 C       -3.9020     0.5760    -0.8830 C.3   1 <1>   0.1400 
  6 C       -2.8830    -1.3320     0.2400 C.3   1 <1>   0.1400 
  7 C       -1.1230     2.4280    -1.5230 C.2   1 <1>   0.6300 
  8 C       -1.0520     3.3290     0.9190 C.3   1 <1>  -0.2000 
  9 C       -2.4950     3.3410     0.5280 C.3   1 <1>  -0.2000 
 10 C       -4.9600    -0.5090    -0.6970 C.3   1 <1>   0.2000 
 11 C       -4.1330    -1.7870    -0.5230 C.3   1 <1>  -0.0800 
 12 O       -1.9350     2.6230    -2.3920 O.2   1 <1>  -0.5700 
 13 N        0.1810     2.3010    -1.8270 N.am  1 <1>  -0.8000 
 14 O       -5.6500    -0.2400     0.4760 O.3   1 <1>  -0.6800 
 15 C       -4.8710    -2.9670     0.1360 C.3   1 <1>  -0.0170 
 16 C       -3.9830    -4.2000     0.1900 C.ar  1 <1>  -0.1440 
 17 C       -3.2930    -4.5580     1.3300 C.ar  1 <1>  -0.1500 
 18 C       -3.8190    -5.0240    -0.9050 C.ar  1 <1>  -0.1500 
 19 C       -2.4910    -5.6880     1.3190 C.ar  1 <1>   0.1600 
 20 C       -2.9930    -6.1320    -0.8110 C.ar  1 <1>   0.1600 
 21 N       -2.3240    -6.4830     0.2750 N.ar  1 <1>  -0.6200 
 22 H       -4.2680     1.5440    -0.5900 H     1 <1>   0.0800 
 23 H       -3.5900     0.6080    -1.9130 H     1 <1>   0.0800 
 24 H       -2.0050    -1.8620    -0.0890 H     1 <1>   0.0800 
 25 H       -3.0040    -1.4700     1.3000 H     1 <1>   0.0800 
 26 H       -0.7800     2.9820     1.9020 H     1 <1>   0.1000 
 27 H       -0.4210     4.1300     0.5760 H     1 <1>   0.1000 
 28 H       -2.8610     4.1330    -0.1020 H     1 <1>   0.1000 
 29 H       -3.2240     3.0160     1.2500 H     1 <1>   0.1000 
 30 H       -5.6660    -0.5580    -1.5090 H     1 <1>   0.0800 
 31 H       -3.8110    -2.0980    -1.5010 H     1 <1>   0.0800 
 32 H        0.4850     2.3580    -2.7990 H     1 <1>   0.3700 
 33 H        0.8890     2.0610    -1.1320 H     1 <1>   0.3700 
 34 H       -5.0010    -0.0350     1.1780 H     1 <1>   0.4000 
 35 H       -5.7600    -3.1920    -0.4280 H     1 <1>   0.0800 
 36 H       -5.1830    -2.7060     1.1330 H     1 <1>   0.0800 
 37 H       -3.3680    -3.9710     2.2270 H     1 <1>   0.1500 
 38 H       -4.3250    -4.8160    -1.8300 H     1 <1>   0.1500 
 39 H       -1.9600    -5.9510     2.2180 H     1 <1>   0.1500 
 40 H       -2.8770    -6.7640    -1.6750 H     1 <1>   0.1500 
@<TRIPOS>BOND
  1   1   2  2   
  2   2   3  am  
  3   2   4  1   
  4   3   5  1   
  5   3   6  1   
  6   4   7  1   
  7   4   8  1   
  8   4   9  1   
  9   5  10  1   
 10   5  22  1   
 11   5  23  1   
 12   6  11  1   
 13   6  24  1   
 14   6  25  1   
 15   7  12  2   
 16   7  13  am  
 17   8   9  1   
 18   8  26  1   
 19   8  27  1   
 20   9  28  1   
 21   9  29  1   
 22  10  11  1   
 23  10  14  1   
 24  10  30  1   
 25  11  15  1   
 26  11  31  1   
 27  13  32  1   
 28  13  33  1   
 29  14  34  1   
 30  15  16  1   
 31  15  35  1   
 32  15  36  1   
 33  16  17  ar  
 34  16  18  ar  
 35  17  19  ar  
 36  17  37  1   
 37  18  20  ar  
 38  18  38  1   
 39  19  21  ar  
 40  19  39  1   
 41  20  21  ar  
 42  20  40  1   
@<TRIPOS>SUBSTRUCTURE
  1 ****   6 GROUP 4 **** **** 0

# MOE 2024.06 (io_trps.svl 2023.06)
