@<TRIPOS>MOLECULE
NONAME
55 57 1 0 0 
SMALL
USER_CHARGES


@<TRIPOS>ATOM
  1 F       -1.1500    -2.8370    -3.3020 F     1 <1>  -0.1900 
  2 C       -1.6140    -3.4710    -2.2540 C.ar  1 <1>   0.1900 
  3 C       -0.7710    -4.1280    -1.3510 C.ar  1 <1>   0.0830 
  4 C       -2.9840    -3.4580    -2.0850 C.ar  1 <1>  -0.1500 
  5 O        0.5890    -4.2130    -1.4090 O.3   1 <1>  -0.3630 
  6 C       -1.3610    -4.7700    -0.2740 C.ar  1 <1>  -0.1500 
  7 C       -3.5380    -4.1080    -0.9980 C.ar  1 <1>  -0.1500 
  8 C        1.3550    -3.6220    -2.4360 C.3   1 <1>   0.0400 
  9 C       -2.7430    -4.7830    -0.0680 C.ar  1 <1>   0.0530 
 10 C       -3.3160    -5.4650     1.0710 C.2   1 <1>   0.0870 
 11 O       -2.5590    -5.7640     2.1050 O.3   1 <1>  -0.0190 
 12 C       -4.5580    -5.9380     1.3550 C.2   1 <1>  -0.2330 
 13 N       -3.2080    -6.3930     3.0510 N.2   1 <1>  -0.4100 
 14 C       -4.4160    -6.4760     2.6320 C.2   1 <1>   0.3720 
 15 C       -5.7500    -6.0770     0.5820 C.2   1 <1>   1.0330 
 16 N       -5.4540    -7.0580     3.3460 N.pl3 1 <1>  -0.8520 
 17 O       -5.6850    -6.3630    -0.6230 O.co2 1 <1>  -0.9000 
 18 O       -6.8580    -6.2120     1.1340 O.co2 1 <1>  -0.9000 
 19 C       -5.4120    -8.5280     3.5620 C.3   1 <1>   0.2090 
 20 C       -6.2220    -9.2680     2.4780 C.3   1 <1>   0.2000 
 21 O       -6.4100   -10.6100     2.8180 O.3   1 <1>  -0.6800 
 22 C       -5.5450    -9.1950     1.0940 C.3   1 <1>   0.3430 
 23 N       -6.4190    -9.6080    -0.0500 N.4   1 <1>  -0.9590 
 24 C       -5.6350    -9.4920    -1.3050 C.3   1 <1>   0.3430 
 25 C       -7.6000    -8.7040    -0.1820 C.3   1 <1>   0.3430 
 26 C       -6.1920   -10.4020    -2.4030 C.3   1 <1>  -0.1600 
 27 C       -8.8420    -9.4970    -0.5930 C.3   1 <1>  -0.1600 
 28 C       -7.6650   -10.1680    -2.7860 C.3   1 <1>  -0.1600 
 29 C       -8.6430   -10.5750    -1.6730 C.3   1 <1>  -0.1600 
 30 H       -3.6100    -2.9470    -2.7940 H     1 <1>   0.1500 
 31 H       -0.7190    -5.2770     0.4230 H     1 <1>   0.1500 
 32 H       -4.6070    -4.0920    -0.8750 H     1 <1>   0.1500 
 33 H        2.3900    -3.8390    -2.2470 H     1 <1>   0.0800 
 34 H        1.1970    -2.5580    -2.4230 H     1 <1>   0.0800 
 35 H        1.0610    -4.0450    -3.3800 H     1 <1>   0.0800 
 36 H       -6.3390    -6.7600     2.8820 H     1 <1>   0.4000 
 37 H       -5.8450    -8.7290     4.5270 H     1 <1>   0.0800 
 38 H       -4.3880    -8.8610     3.5670 H     1 <1>   0.0800 
 39 H       -7.1960    -8.8160     2.4440 H     1 <1>   0.0800 
 40 H       -5.6220   -10.9850     3.2620 H     1 <1>   0.4000 
 41 H       -4.6660    -9.8150     1.1180 H     1 <1>   0.0800 
 42 H       -5.2040    -8.1990     0.9210 H     1 <1>   0.0800 
 43 H       -6.7550   -10.5640     0.1050 H     1 <1>   0.4500 
 44 H       -4.6100    -9.7690    -1.1200 H     1 <1>   0.0800 
 45 H       -5.6380    -8.4640    -1.6400 H     1 <1>   0.0800 
 46 H       -7.3920    -7.9370    -0.9130 H     1 <1>   0.0800 
 47 H       -7.8080    -8.1960     0.7430 H     1 <1>   0.0800 
 48 H       -6.0480   -11.4290    -2.1180 H     1 <1>   0.0800 
 49 H       -5.5940   -10.2390    -3.2820 H     1 <1>   0.0800 
 50 H       -9.5620    -8.7810    -0.9480 H     1 <1>   0.0800 
 51 H       -9.2670    -9.9510     0.2850 H     1 <1>   0.0800 
 52 H       -7.8780   -10.7730    -3.6520 H     1 <1>   0.0800 
 53 H       -7.8240    -9.1410    -3.0710 H     1 <1>   0.0800 
 54 H       -9.6040   -10.7790    -2.1160 H     1 <1>   0.0800 
 55 H       -8.3110   -11.4930    -1.2200 H     1 <1>   0.0800 
@<TRIPOS>BOND
  1   1   2  1   
  2   2   3  ar  
  3   2   4  ar  
  4   3   5  1   
  5   3   6  ar  
  6   4   7  ar  
  7   4  30  1   
  8   5   8  1   
  9   6   9  ar  
 10   6  31  1   
 11   7   9  ar  
 12   7  32  1   
 13   8  33  1   
 14   8  34  1   
 15   8  35  1   
 16   9  10  1   
 17  10  11  1   
 18  10  12  2   
 19  11  13  1   
 20  12  14  1   
 21  12  15  1   
 22  13  14  2   
 23  14  16  1   
 24  15  17  ar  
 25  15  18  ar  
 26  16  19  1   
 27  16  36  1   
 28  19  20  1   
 29  19  37  1   
 30  19  38  1   
 31  20  21  1   
 32  20  22  1   
 33  20  39  1   
 34  21  40  1   
 35  22  23  1   
 36  22  41  1   
 37  22  42  1   
 38  23  24  1   
 39  23  25  1   
 40  23  43  1   
 41  24  26  1   
 42  24  44  1   
 43  24  45  1   
 44  25  27  1   
 45  25  46  1   
 46  25  47  1   
 47  26  28  1   
 48  26  48  1   
 49  26  49  1   
 50  27  29  1   
 51  27  50  1   
 52  27  51  1   
 53  28  29  1   
 54  28  52  1   
 55  28  53  1   
 56  29  54  1   
 57  29  55  1   
@<TRIPOS>SUBSTRUCTURE
  1 ****  17 GROUP 4 **** **** 0

# MOE 2024.06 (io_trps.svl 2023.06)
