@<TRIPOS>MOLECULE
NONAME
47 49 1 0 0 
SMALL
USER_CHARGES


@<TRIPOS>ATOM
  1 S        1.2960    -1.3870    -0.5970 S.3   1 <1>  -0.0800 
  2 C       -0.2380    -0.7090    -0.1020 C.2   1 <1>   0.1980 
  3 C        0.7620    -2.9440    -0.0370 C.2   1 <1>  -0.1100 
  4 N       -1.0430    -1.5540     0.4070 N.2   1 <1>  -0.5650 
  5 C       -0.4420     0.7720    -0.3240 C.3   1 <1>  -0.0600 
  6 C       -0.4830    -2.8280     0.4540 C.2   1 <1>   0.0460 
  7 C       -1.3070    -3.9720     1.0470 C.3   1 <1>   0.5240 
  8 N       -2.6280    -4.1380     0.3620 N.4   1 <1>  -0.9590 
  9 C       -2.4860    -4.2040    -1.1250 C.3   1 <1>   0.3430 
 10 C       -3.5880    -3.0690     0.7620 C.3   1 <1>   0.3430 
 11 C       -3.5660    -5.0950    -1.7770 C.3   1 <1>   0.1400 
 12 C       -5.0350    -3.5740     0.7930 C.3   1 <1>  -0.1600 
 13 N       -4.7360    -5.3700    -0.8830 N.am  1 <1>  -0.6600 
 14 C       -5.5550    -4.1870    -0.5150 C.3   1 <1>   0.1400 
 15 C       -4.7370    -6.4850    -0.0780 C.2   1 <1>   0.5440 
 16 O       -3.6780    -6.7640     0.4580 O.2   1 <1>  -0.5700 
 17 C       -5.9400    -7.2450     0.1890 C.ar  1 <1>   0.0860 
 18 C       -6.0570    -8.0060     1.3510 C.ar  1 <1>   0.1600 
 19 C       -7.0290    -7.2610    -0.6770 C.ar  1 <1>  -0.1500 
 20 N       -7.1100    -8.7160     1.7120 N.ar  1 <1>  -0.6200 
 21 C       -8.1350    -8.0000    -0.3250 C.ar  1 <1>  -0.1500 
 22 C       -8.1370    -8.7090     0.8760 C.ar  1 <1>   0.3930 
 23 O       -9.1880    -9.4460     1.2800 O.3   1 <1>  -0.3620 
 24 C      -10.3630    -9.6110     0.5180 C.3   1 <1>   0.0400 
 25 H        1.4480    -3.7660    -0.1390 H     1 <1>   0.1500 
 26 H        0.3010     1.3270     0.2190 H     1 <1>   0.0800 
 27 H       -1.4160     1.0650     0.0220 H     1 <1>   0.0800 
 28 H       -0.3580     1.0010    -1.3700 H     1 <1>   0.0800 
 29 H       -1.4650    -3.7810     2.0950 H     1 <1>   0.0800 
 30 H       -0.7430    -4.8860     0.9590 H     1 <1>   0.0800 
 31 H       -3.0320    -5.0570     0.6380 H     1 <1>   0.4500 
 32 H       -1.5210    -4.6050    -1.3860 H     1 <1>   0.0800 
 33 H       -2.5380    -3.2090    -1.5370 H     1 <1>   0.0800 
 34 H       -3.5010    -2.2340     0.0840 H     1 <1>   0.0800 
 35 H       -3.3330    -2.7070     1.7450 H     1 <1>   0.0800 
 36 H       -3.1110    -6.0340    -2.0440 H     1 <1>   0.0800 
 37 H       -3.9050    -4.6410    -2.6920 H     1 <1>   0.0800 
 38 H       -5.6650    -2.7360     1.0370 H     1 <1>   0.0800 
 39 H       -5.1490    -4.2800     1.5960 H     1 <1>   0.0800 
 40 H       -5.5260    -3.4580    -1.3090 H     1 <1>   0.0800 
 41 H       -6.5820    -4.4880    -0.3850 H     1 <1>   0.0800 
 42 H       -5.2190    -8.0250     2.0280 H     1 <1>   0.1500 
 43 H       -7.0050    -6.7120    -1.6020 H     1 <1>   0.1500 
 44 H       -8.9830    -8.0240    -0.9800 H     1 <1>   0.1500 
 45 H      -11.0250   -10.2580     1.0660 H     1 <1>   0.0800 
 46 H      -10.1100   -10.0630    -0.4240 H     1 <1>   0.0800 
 47 H      -10.8270    -8.6510     0.3780 H     1 <1>   0.0800 
@<TRIPOS>BOND
  1   1   2  1   
  2   1   3  1   
  3   2   4  2   
  4   2   5  1   
  5   3   6  2   
  6   3  25  1   
  7   4   6  1   
  8   5  26  1   
  9   5  27  1   
 10   5  28  1   
 11   6   7  1   
 12   7   8  1   
 13   7  29  1   
 14   7  30  1   
 15   8   9  1   
 16   8  10  1   
 17   8  31  1   
 18   9  11  1   
 19   9  32  1   
 20   9  33  1   
 21  10  12  1   
 22  10  34  1   
 23  10  35  1   
 24  11  13  1   
 25  11  36  1   
 26  11  37  1   
 27  12  14  1   
 28  12  38  1   
 29  12  39  1   
 30  13  14  1   
 31  13  15  am  
 32  14  40  1   
 33  14  41  1   
 34  15  16  2   
 35  15  17  1   
 36  17  18  ar  
 37  17  19  ar  
 38  18  20  ar  
 39  18  42  1   
 40  19  21  ar  
 41  19  43  1   
 42  20  22  ar  
 43  21  22  ar  
 44  21  44  1   
 45  22  23  1   
 46  23  24  1   
 47  24  45  1   
 48  24  46  1   
 49  24  47  1   
@<TRIPOS>SUBSTRUCTURE
  1 ****  13 GROUP 4 **** **** 0

# MOE 2024.06 (io_trps.svl 2023.06)
