@<TRIPOS>MOLECULE
NONAME
47 49 1 0 0 
SMALL
USER_CHARGES


@<TRIPOS>ATOM
  1 O       -0.7820     0.5760    -1.2990 O.2   1 <1>  -0.5700 
  2 C       -1.2610     1.2310    -0.3940 C.2   1 <1>   0.5440 
  3 N       -2.4050     0.7750     0.2250 N.am  1 <1>  -0.6600 
  4 C       -0.6370     2.4830    -0.0280 C.ar  1 <1>   0.0860 
  5 C       -2.9580    -0.5810    -0.0890 C.3   1 <1>   0.1400 
  6 C       -3.3620     1.6580     0.9490 C.3   1 <1>   0.1400 
  7 C       -0.3260     3.4180    -1.0140 C.ar  1 <1>   0.1600 
  8 C       -0.3170     2.8090     1.2830 C.ar  1 <1>  -0.1500 
  9 C       -3.9560    -0.5440    -1.2590 C.3   1 <1>   0.1400 
 10 C       -4.1480     2.5510    -0.0210 C.3   1 <1>  -0.1600 
 11 N        0.2210     4.6100    -0.8130 N.ar  1 <1>  -0.6200 
 12 C        0.2550     4.0380     1.5190 C.ar  1 <1>   0.0830 
 13 N       -5.0470     0.4620    -1.0460 N.am  1 <1>  -0.6600 
 14 C       -4.6150     1.8620    -1.3120 C.3   1 <1>   0.1400 
 15 C        0.5000     4.8940     0.4500 C.ar  1 <1>   0.1600 
 16 O        0.5600     4.3760     2.7850 O.3   1 <1>  -0.5320 
 17 C       -6.3220     0.1930    -0.5850 C.2   1 <1>   0.5690 
 18 O       -7.1270     1.0990    -0.5020 O.2   1 <1>  -0.5700 
 19 C       -6.8130    -1.2370    -0.1760 C.3   1 <1>   0.3410 
 20 O       -5.8110    -2.0100     0.4520 O.3   1 <1>  -0.5600 
 21 C       -7.9580    -1.2000     0.8520 C.3   1 <1>  -0.1600 
 22 C       -7.2450    -2.0320    -1.4180 C.3   1 <1>  -0.2400 
 23 C       -6.2350    -2.5910     1.6470 C.3   1 <1>   0.1200 
 24 C       -7.7450    -2.4470     1.6830 C.3   1 <1>  -0.1600 
 25 H       -3.4440    -0.9840     0.7810 H     1 <1>   0.0800 
 26 H       -2.1530    -1.2490    -0.3410 H     1 <1>   0.0800 
 27 H       -2.8470     2.2660     1.6700 H     1 <1>   0.0800 
 28 H       -4.0600     1.0440     1.4940 H     1 <1>   0.0800 
 29 H       -0.5510     3.1540    -2.0340 H     1 <1>   0.1500 
 30 H       -0.5070     2.1240     2.0890 H     1 <1>   0.1500 
 31 H       -4.3660    -1.5250    -1.4020 H     1 <1>   0.0800 
 32 H       -3.4180    -0.3020    -2.1600 H     1 <1>   0.0800 
 33 H       -3.5510     3.4050    -0.2840 H     1 <1>   0.0800 
 34 H       -5.0150     2.9260     0.4940 H     1 <1>   0.0800 
 35 H       -3.8080     1.8560    -2.0240 H     1 <1>   0.0800 
 36 H       -5.4260     2.4190    -1.7480 H     1 <1>   0.0800 
 37 H        0.9460     5.8530     0.6420 H     1 <1>   0.1500 
 38 H        0.9900     5.2470     2.8790 H     1 <1>   0.4500 
 39 H       -8.9280    -1.1630     0.3880 H     1 <1>   0.0800 
 40 H       -7.8490    -0.3330     1.4800 H     1 <1>   0.0800 
 41 H       -6.4340    -2.1030    -2.1180 H     1 <1>   0.0800 
 42 H       -8.0590    -1.5250    -1.9050 H     1 <1>   0.0800 
 43 H       -7.5670    -3.0210    -1.1500 H     1 <1>   0.0800 
 44 H       -5.7780    -2.0450     2.4540 H     1 <1>   0.0800 
 45 H       -5.9190    -3.6200     1.6720 H     1 <1>   0.0800 
 46 H       -8.2010    -3.3020     1.2150 H     1 <1>   0.0800 
 47 H       -8.1190    -2.3480     2.6870 H     1 <1>   0.0800 
@<TRIPOS>BOND
  1   1   2  2   
  2   2   3  am  
  3   2   4  1   
  4   3   5  1   
  5   3   6  1   
  6   4   7  ar  
  7   4   8  ar  
  8   5   9  1   
  9   5  25  1   
 10   5  26  1   
 11   6  10  1   
 12   6  27  1   
 13   6  28  1   
 14   7  11  ar  
 15   7  29  1   
 16   8  12  ar  
 17   8  30  1   
 18   9  13  1   
 19   9  31  1   
 20   9  32  1   
 21  10  14  1   
 22  10  33  1   
 23  10  34  1   
 24  11  15  ar  
 25  12  15  ar  
 26  12  16  1   
 27  13  14  1   
 28  13  17  am  
 29  14  35  1   
 30  14  36  1   
 31  15  37  1   
 32  16  38  1   
 33  17  18  2   
 34  17  19  1   
 35  19  20  1   
 36  19  21  1   
 37  19  22  1   
 38  20  23  1   
 39  21  24  1   
 40  21  39  1   
 41  21  40  1   
 42  22  41  1   
 43  22  42  1   
 44  22  43  1   
 45  23  24  1   
 46  23  44  1   
 47  23  45  1   
 48  24  46  1   
 49  24  47  1   
@<TRIPOS>SUBSTRUCTURE
  1 ****   6 GROUP 4 **** **** 0

# MOE 2024.06 (io_trps.svl 2023.06)
